MODEL 1
REMARK VINA RESULT:    -8.000      0.000      0.000
REMARK INTER + INTRA:         -12.509
REMARK INTER:                 -10.572
REMARK INTRA:                  -1.937
REMARK UNBOUND:                -1.937
REMARK SMILES CC[C@H](C=C[C@@H](C)[C@@H]1CC[C@H]2[C@@H]3CC=C4C[C@H](O)CC[C@]4(C)[C@H]3CC[C@]21C)C(C)C
REMARK SMILES IDX 6 1 7 2 5 3 4 4 3 5 2 6 1 7 28 8 29 9 30 10 8 11 9 12 26 13
REMARK SMILES IDX 10 14 11 15 25 16 27 17 12 18 24 19 23 20 13 21 21 22 14 23
REMARK SMILES IDX 15 24 20 25 22 26 16 27 19 28 17 29 18 30
REMARK H PARENT 18 31
REMARK Flexibility Score: inf
ROOT
ATOM      1  C   UNL     1     129.598 134.393 139.021  1.00  0.00     0.012 C 
ATOM      2  C   UNL     1     128.624 135.575 138.869  1.00  0.00     0.012 C 
ENDROOT
BRANCH   1   3
ATOM      3  C   UNL     1     130.235 134.122 137.675  1.00  0.00    -0.028 C 
ATOM      4  C   UNL     1     131.278 133.286 137.543  1.00  0.00    -0.027 C 
BRANCH   4   5
ATOM      5  C   UNL     1     131.853 132.962 136.180  1.00  0.00     0.014 C 
BRANCH   5   6
ATOM      6  C   UNL     1     133.256 133.603 135.952  1.00  0.00     0.004 C 
ATOM      7  C   UNL     1     133.841 134.356 137.153  1.00  0.00     0.004 C 
ENDBRANCH   5   6
BRANCH   5   8
ATOM      8  C   UNL     1     131.767 131.431 135.875  1.00  0.00    -0.011 C 
ATOM      9  C   UNL     1     130.416 130.796 136.228  1.00  0.00     0.008 C 
ATOM     10  C   UNL     1     132.907 130.646 136.541  1.00  0.00     0.008 C 
ENDBRANCH   5   8
ENDBRANCH   4   5
ENDBRANCH   1   3
BRANCH   1  11
ATOM     11  C   UNL     1     128.986 133.067 139.604  1.00  0.00     0.002 C 
ATOM     12  C   UNL     1     127.453 132.999 139.683  1.00  0.00     0.005 C 
ATOM     13  C   UNL     1     129.482 132.602 141.002  1.00  0.00    -0.026 C 
ATOM     14  C   UNL     1     127.125 131.995 140.794  1.00  0.00     0.005 C 
ATOM     15  C   UNL     1     128.467 131.481 141.363  1.00  0.00    -0.001 C 
ATOM     16  C   UNL     1     130.954 132.106 141.023  1.00  0.00     0.007 C 
ATOM     17  C   UNL     1     129.371 133.745 142.050  1.00  0.00     0.012 C 
ATOM     18  C   UNL     1     128.794 130.062 140.772  1.00  0.00     0.000 C 
ATOM     19  C   UNL     1     131.174 130.786 140.295  1.00  0.00     0.005 C 
ATOM     20  C   UNL     1     130.289 129.675 140.895  1.00  0.00     0.003 C 
ATOM     21  C   UNL     1     127.942 128.998 141.495  1.00  0.00     0.031 C 
ATOM     22  C   UNL     1     130.592 128.248 140.281  1.00  0.00    -0.008 C 
ATOM     23  C   UNL     1     128.309 127.590 141.135  1.00  0.00    -0.027 C 
ATOM     24  C   UNL     1     129.540 127.222 140.729  1.00  0.00    -0.065 C 
ATOM     25  C   UNL     1     131.994 127.770 140.777  1.00  0.00     0.014 C 
ATOM     26  C   UNL     1     130.585 128.286 138.727  1.00  0.00     0.016 C 
ATOM     27  C   UNL     1     129.814 125.744 140.520  1.00  0.00     0.063 C 
ATOM     28  C   UNL     1     132.297 126.293 140.481  1.00  0.00     0.033 C 
ATOM     29  C   UNL     1     131.212 125.351 141.022  1.00  0.00     0.118 C 
BRANCH  29  30
ATOM     30  O   UNL     1     131.257 125.272 142.426  1.00  0.00    -0.393 OA
ATOM     31  H   UNL     1     130.335 125.391 142.775  1.00  0.00     0.210 HD
ENDBRANCH  29  30
ENDBRANCH   1  11
TORSDOF 6
ENDMDL
MODEL 2
REMARK VINA RESULT:    -7.928      2.802      6.656
REMARK INTER + INTRA:         -12.415
REMARK INTER:                 -10.499
REMARK INTRA:                  -1.916
REMARK UNBOUND:                -1.937
REMARK SMILES CC[C@H](C=C[C@@H](C)[C@@H]1CC[C@H]2[C@@H]3CC=C4C[C@H](O)CC[C@]4(C)[C@H]3CC[C@]21C)C(C)C
REMARK SMILES IDX 6 1 7 2 5 3 4 4 3 5 2 6 1 7 28 8 29 9 30 10 8 11 9 12 26 13
REMARK SMILES IDX 10 14 11 15 25 16 27 17 12 18 24 19 23 20 13 21 21 22 14 23
REMARK SMILES IDX 15 24 20 25 22 26 16 27 19 28 17 29 18 30
REMARK H PARENT 18 31
REMARK Flexibility Score: inf
ROOT
ATOM      1  C   UNL     1     129.269 127.040 142.768  1.00  0.00     0.012 C 
ATOM      2  C   UNL     1     127.878 126.441 143.045  1.00  0.00     0.012 C 
ENDROOT
BRANCH   1   3
ATOM      3  C   UNL     1     129.087 128.448 142.245  1.00  0.00    -0.028 C 
ATOM      4  C   UNL     1     129.133 128.724 140.931  1.00  0.00    -0.027 C 
BRANCH   4   5
ATOM      5  C   UNL     1     128.870 130.125 140.417  1.00  0.00     0.014 C 
BRANCH   5   6
ATOM      6  C   UNL     1     128.070 130.997 141.432  1.00  0.00     0.004 C 
ATOM      7  C   UNL     1     127.014 131.925 140.817  1.00  0.00     0.004 C 
ENDBRANCH   5   6
BRANCH   5   8
ATOM      8  C   UNL     1     130.174 130.782 139.862  1.00  0.00    -0.011 C 
ATOM      9  C   UNL     1     130.813 131.807 140.809  1.00  0.00     0.008 C 
ATOM     10  C   UNL     1     129.959 131.411 138.476  1.00  0.00     0.008 C 
ENDBRANCH   5   8
ENDBRANCH   4   5
ENDBRANCH   1   3
BRANCH   1  11
ATOM     11  C   UNL     1     130.191 126.219 141.794  1.00  0.00     0.002 C 
ATOM     12  C   UNL     1     129.753 124.777 141.492  1.00  0.00     0.005 C 
ATOM     13  C   UNL     1     131.700 126.113 142.153  1.00  0.00    -0.026 C 
ATOM     14  C   UNL     1     131.024 124.015 141.099  1.00  0.00     0.005 C 
ATOM     15  C   UNL     1     132.203 125.014 141.175  1.00  0.00    -0.001 C 
ATOM     16  C   UNL     1     132.483 127.447 142.006  1.00  0.00     0.007 C 
ATOM     17  C   UNL     1     131.901 125.625 143.614  1.00  0.00     0.012 C 
ATOM     18  C   UNL     1     132.576 125.515 139.734  1.00  0.00     0.000 C 
ATOM     19  C   UNL     1     132.662 127.906 140.565  1.00  0.00     0.005 C 
ATOM     20  C   UNL     1     133.393 126.832 139.734  1.00  0.00     0.003 C 
ATOM     21  C   UNL     1     133.391 124.423 139.008  1.00  0.00     0.031 C 
ATOM     22  C   UNL     1     133.744 127.320 138.270  1.00  0.00    -0.008 C 
ATOM     23  C   UNL     1     133.955 124.870 137.694  1.00  0.00    -0.027 C 
ATOM     24  C   UNL     1     134.253 126.154 137.409  1.00  0.00    -0.065 C 
ATOM     25  C   UNL     1     134.867 128.403 138.354  1.00  0.00     0.014 C 
ATOM     26  C   UNL     1     132.501 127.926 137.560  1.00  0.00     0.016 C 
ATOM     27  C   UNL     1     134.939 126.455 136.089  1.00  0.00     0.063 C 
ATOM     28  C   UNL     1     135.494 128.764 136.998  1.00  0.00     0.033 C 
ATOM     29  C   UNL     1     136.022 127.534 136.247  1.00  0.00     0.118 C 
BRANCH  29  30
ATOM     30  O   UNL     1     137.181 127.021 136.857  1.00  0.00    -0.393 OA
ATOM     31  H   UNL     1     136.908 126.484 137.646  1.00  0.00     0.210 HD
ENDBRANCH  29  30
ENDBRANCH   1  11
TORSDOF 6
ENDMDL
MODEL 3
REMARK VINA RESULT:    -7.825      4.971      9.855
REMARK INTER + INTRA:         -12.278
REMARK INTER:                 -12.078
REMARK INTRA:                  -0.200
REMARK UNBOUND:                -1.937
REMARK SMILES CC[C@H](C=C[C@@H](C)[C@@H]1CC[C@H]2[C@@H]3CC=C4C[C@H](O)CC[C@]4(C)[C@H]3CC[C@]21C)C(C)C
REMARK SMILES IDX 6 1 7 2 5 3 4 4 3 5 2 6 1 7 28 8 29 9 30 10 8 11 9 12 26 13
REMARK SMILES IDX 10 14 11 15 25 16 27 17 12 18 24 19 23 20 13 21 21 22 14 23
REMARK SMILES IDX 15 24 20 25 22 26 16 27 19 28 17 29 18 30
REMARK H PARENT 18 31
REMARK Flexibility Score: inf
ROOT
ATOM      1  C   UNL     1     135.699 122.896 140.758  1.00  0.00     0.012 C 
ATOM      2  C   UNL     1     136.763 123.983 140.994  1.00  0.00     0.012 C 
ENDROOT
BRANCH   1   3
ATOM      3  C   UNL     1     136.137 122.044 139.585  1.00  0.00    -0.028 C 
ATOM      4  C   UNL     1     136.341 120.723 139.711  1.00  0.00    -0.027 C 
BRANCH   4   5
ATOM      5  C   UNL     1     136.701 119.870 138.511  1.00  0.00     0.014 C 
BRANCH   5   6
ATOM      6  C   UNL     1     138.139 119.276 138.606  1.00  0.00     0.004 C 
ATOM      7  C   UNL     1     138.727 119.191 140.020  1.00  0.00     0.004 C 
ENDBRANCH   5   6
BRANCH   5   8
ATOM      8  C   UNL     1     135.576 118.833 138.192  1.00  0.00    -0.011 C 
ATOM      9  C   UNL     1     135.330 117.810 139.309  1.00  0.00     0.008 C 
ATOM     10  C   UNL     1     135.821 118.108 136.860  1.00  0.00     0.008 C 
ENDBRANCH   5   8
ENDBRANCH   4   5
ENDBRANCH   1   3
BRANCH   1  11
ATOM     11  C   UNL     1     134.230 123.408 140.531  1.00  0.00     0.002 C 
ATOM     12  C   UNL     1     133.241 122.401 139.923  1.00  0.00     0.005 C 
ATOM     13  C   UNL     1     134.043 124.707 139.699  1.00  0.00    -0.026 C 
ATOM     14  C   UNL     1     132.154 123.231 139.232  1.00  0.00     0.005 C 
ATOM     15  C   UNL     1     132.511 124.721 139.436  1.00  0.00    -0.001 C 
ATOM     16  C   UNL     1     134.539 125.996 140.411  1.00  0.00     0.007 C 
ATOM     17  C   UNL     1     134.791 124.620 138.340  1.00  0.00     0.012 C 
ATOM     18  C   UNL     1     131.636 125.331 140.590  1.00  0.00     0.000 C 
ATOM     19  C   UNL     1     133.690 126.411 141.605  1.00  0.00     0.005 C 
ATOM     20  C   UNL     1     132.223 126.636 141.183  1.00  0.00     0.003 C 
ATOM     21  C   UNL     1     130.216 125.619 140.058  1.00  0.00     0.031 C 
ATOM     22  C   UNL     1     131.329 127.221 142.351  1.00  0.00    -0.008 C 
ATOM     23  C   UNL     1     129.354 126.372 141.025  1.00  0.00    -0.027 C 
ATOM     24  C   UNL     1     129.842 127.207 141.964  1.00  0.00    -0.065 C 
ATOM     25  C   UNL     1     131.757 128.697 142.625  1.00  0.00     0.014 C 
ATOM     26  C   UNL     1     131.487 126.390 143.655  1.00  0.00     0.016 C 
ATOM     27  C   UNL     1     128.856 128.006 142.796  1.00  0.00     0.063 C 
ATOM     28  C   UNL     1     130.796 129.471 143.541  1.00  0.00     0.033 C 
ATOM     29  C   UNL     1     129.348 129.442 143.032  1.00  0.00     0.118 C 
BRANCH  29  30
ATOM     30  O   UNL     1     129.193 130.241 141.884  1.00  0.00    -0.393 OA
ATOM     31  H   UNL     1     129.563 131.141 142.077  1.00  0.00     0.210 HD
ENDBRANCH  29  30
ENDBRANCH   1  11
TORSDOF 6
ENDMDL
MODEL 4
REMARK VINA RESULT:    -7.806      3.103      5.471
REMARK INTER + INTRA:         -12.252
REMARK INTER:                 -10.307
REMARK INTRA:                  -1.945
REMARK UNBOUND:                -1.937
REMARK SMILES CC[C@H](C=C[C@@H](C)[C@@H]1CC[C@H]2[C@@H]3CC=C4C[C@H](O)CC[C@]4(C)[C@H]3CC[C@]21C)C(C)C
REMARK SMILES IDX 6 1 7 2 5 3 4 4 3 5 2 6 1 7 28 8 29 9 30 10 8 11 9 12 26 13
REMARK SMILES IDX 10 14 11 15 25 16 27 17 12 18 24 19 23 20 13 21 21 22 14 23
REMARK SMILES IDX 15 24 20 25 22 26 16 27 19 28 17 29 18 30
REMARK H PARENT 18 31
REMARK Flexibility Score: inf
ROOT
ATOM      1  C   UNL     1     131.229 129.625 139.496  1.00  0.00     0.012 C 
ATOM      2  C   UNL     1     129.889 130.325 139.206  1.00  0.00     0.012 C 
ENDROOT
BRANCH   1   3
ATOM      3  C   UNL     1     132.208 129.996 138.403  1.00  0.00    -0.028 C 
ATOM      4  C   UNL     1     133.011 129.082 137.835  1.00  0.00    -0.027 C 
BRANCH   4   5
ATOM      5  C   UNL     1     133.929 129.452 136.687  1.00  0.00     0.014 C 
BRANCH   5   6
ATOM      6  C   UNL     1     134.975 130.539 137.081  1.00  0.00     0.004 C 
ATOM      7  C   UNL     1     134.890 131.854 136.296  1.00  0.00     0.004 C 
ENDBRANCH   5   6
BRANCH   5   8
ATOM      8  C   UNL     1     134.521 128.180 135.999  1.00  0.00    -0.011 C 
ATOM      9  C   UNL     1     133.546 126.998 135.919  1.00  0.00     0.008 C 
ATOM     10  C   UNL     1     135.838 127.732 136.653  1.00  0.00     0.008 C 
ENDBRANCH   5   8
ENDBRANCH   4   5
ENDBRANCH   1   3
BRANCH   1  11
ATOM     11  C   UNL     1     131.168 128.061 139.655  1.00  0.00     0.002 C 
ATOM     12  C   UNL     1     129.840 127.387 139.280  1.00  0.00     0.005 C 
ATOM     13  C   UNL     1     131.542 127.467 141.042  1.00  0.00    -0.026 C 
ATOM     14  C   UNL     1     129.785 126.076 140.071  1.00  0.00     0.005 C 
ATOM     15  C   UNL     1     131.081 125.988 140.911  1.00  0.00    -0.001 C 
ATOM     16  C   UNL     1     133.048 127.593 141.403  1.00  0.00     0.007 C 
ATOM     17  C   UNL     1     130.740 128.150 142.185  1.00  0.00     0.012 C 
ATOM     18  C   UNL     1     132.107 125.022 140.216  1.00  0.00     0.000 C 
ATOM     19  C   UNL     1     133.963 126.710 140.565  1.00  0.00     0.005 C 
ATOM     20  C   UNL     1     133.566 125.226 140.698  1.00  0.00     0.003 C 
ATOM     21  C   UNL     1     131.693 123.559 140.481  1.00  0.00     0.031 C 
ATOM     22  C   UNL     1     134.579 124.249 139.973  1.00  0.00    -0.008 C 
ATOM     23  C   UNL     1     132.706 122.556 140.019  1.00  0.00    -0.027 C 
ATOM     24  C   UNL     1     134.025 122.818 139.928  1.00  0.00    -0.065 C 
ATOM     25  C   UNL     1     135.924 124.238 140.767  1.00  0.00     0.014 C 
ATOM     26  C   UNL     1     134.851 124.699 138.510  1.00  0.00     0.016 C 
ATOM     27  C   UNL     1     134.960 121.676 139.570  1.00  0.00     0.063 C 
ATOM     28  C   UNL     1     136.899 123.132 140.334  1.00  0.00     0.033 C 
ATOM     29  C   UNL     1     136.263 121.735 140.381  1.00  0.00     0.118 C 
BRANCH  29  30
ATOM     30  O   UNL     1     136.070 121.305 141.706  1.00  0.00    -0.393 OA
ATOM     31  H   UNL     1     135.147 120.949 141.788  1.00  0.00     0.210 HD
ENDBRANCH  29  30
ENDBRANCH   1  11
TORSDOF 6
ENDMDL
MODEL 5
REMARK VINA RESULT:    -7.721      2.782      7.343
REMARK INTER + INTRA:         -12.141
REMARK INTER:                 -10.284
REMARK INTRA:                  -1.857
REMARK UNBOUND:                -1.937
REMARK SMILES CC[C@H](C=C[C@@H](C)[C@@H]1CC[C@H]2[C@@H]3CC=C4C[C@H](O)CC[C@]4(C)[C@H]3CC[C@]21C)C(C)C
REMARK SMILES IDX 6 1 7 2 5 3 4 4 3 5 2 6 1 7 28 8 29 9 30 10 8 11 9 12 26 13
REMARK SMILES IDX 10 14 11 15 25 16 27 17 12 18 24 19 23 20 13 21 21 22 14 23
REMARK SMILES IDX 15 24 20 25 22 26 16 27 19 28 17 29 18 30
REMARK H PARENT 18 31
REMARK Flexibility Score: inf
ROOT
ATOM      1  C   UNL     1     134.336 126.267 137.220  1.00  0.00     0.012 C 
ATOM      2  C   UNL     1     135.005 125.916 135.879  1.00  0.00     0.012 C 
ENDROOT
BRANCH   1   3
ATOM      3  C   UNL     1     133.489 125.090 137.654  1.00  0.00    -0.028 C 
ATOM      4  C   UNL     1     133.391 124.729 138.944  1.00  0.00    -0.027 C 
BRANCH   4   5
ATOM      5  C   UNL     1     132.476 123.600 139.374  1.00  0.00     0.014 C 
BRANCH   5   6
ATOM      6  C   UNL     1     133.255 122.392 139.976  1.00  0.00     0.004 C 
ATOM      7  C   UNL     1     134.784 122.478 139.880  1.00  0.00     0.004 C 
ENDBRANCH   5   6
BRANCH   5   8
ATOM      8  C   UNL     1     131.293 124.128 140.248  1.00  0.00    -0.011 C 
ATOM      9  C   UNL     1     130.249 124.938 139.468  1.00  0.00     0.008 C 
ATOM     10  C   UNL     1     131.786 124.935 141.460  1.00  0.00     0.008 C 
ENDBRANCH   5   8
ENDBRANCH   4   5
ENDBRANCH   1   3
BRANCH   1  11
ATOM     11  C   UNL     1     133.477 127.584 137.237  1.00  0.00     0.002 C 
ATOM     12  C   UNL     1     133.215 128.246 135.875  1.00  0.00     0.005 C 
ATOM     13  C   UNL     1     133.953 128.740 138.160  1.00  0.00    -0.026 C 
ATOM     14  C   UNL     1     132.957 129.730 136.161  1.00  0.00     0.005 C 
ATOM     15  C   UNL     1     133.073 129.932 137.690  1.00  0.00    -0.001 C 
ATOM     16  C   UNL     1     133.800 128.446 139.678  1.00  0.00     0.007 C 
ATOM     17  C   UNL     1     135.448 129.083 137.910  1.00  0.00     0.012 C 
ATOM     18  C   UNL     1     131.641 130.004 138.332  1.00  0.00     0.000 C 
ATOM     19  C   UNL     1     132.356 128.402 140.159  1.00  0.00     0.005 C 
ATOM     20  C   UNL     1     131.637 129.733 139.857  1.00  0.00     0.003 C 
ATOM     21  C   UNL     1     131.034 131.400 138.072  1.00  0.00     0.031 C 
ATOM     22  C   UNL     1     130.181 129.800 140.476  1.00  0.00    -0.008 C 
ATOM     23  C   UNL     1     129.746 131.638 138.799  1.00  0.00    -0.027 C 
ATOM     24  C   UNL     1     129.421 131.030 139.958  1.00  0.00    -0.065 C 
ATOM     25  C   UNL     1     130.296 129.904 142.030  1.00  0.00     0.014 C 
ATOM     26  C   UNL     1     129.350 128.539 140.107  1.00  0.00     0.016 C 
ATOM     27  C   UNL     1     128.143 131.457 140.658  1.00  0.00     0.063 C 
ATOM     28  C   UNL     1     128.976 130.250 142.736  1.00  0.00     0.033 C 
ATOM     29  C   UNL     1     128.329 131.527 142.182  1.00  0.00     0.118 C 
BRANCH  29  30
ATOM     30  O   UNL     1     129.050 132.673 142.565  1.00  0.00    -0.393 OA
ATOM     31  H   UNL     1     129.562 132.997 141.778  1.00  0.00     0.210 HD
ENDBRANCH  29  30
ENDBRANCH   1  11
TORSDOF 6
ENDMDL
MODEL 6
REMARK VINA RESULT:    -7.684      5.045      8.450
REMARK INTER + INTRA:         -12.092
REMARK INTER:                 -11.100
REMARK INTRA:                  -0.992
REMARK UNBOUND:                -1.937
REMARK SMILES CC[C@H](C=C[C@@H](C)[C@@H]1CC[C@H]2[C@@H]3CC=C4C[C@H](O)CC[C@]4(C)[C@H]3CC[C@]21C)C(C)C
REMARK SMILES IDX 6 1 7 2 5 3 4 4 3 5 2 6 1 7 28 8 29 9 30 10 8 11 9 12 26 13
REMARK SMILES IDX 10 14 11 15 25 16 27 17 12 18 24 19 23 20 13 21 21 22 14 23
REMARK SMILES IDX 15 24 20 25 22 26 16 27 19 28 17 29 18 30
REMARK H PARENT 18 31
REMARK Flexibility Score: inf
ROOT
ATOM      1  C   UNL     1     130.565 125.197 141.411  1.00  0.00     0.012 C 
ATOM      2  C   UNL     1     129.296 124.383 141.725  1.00  0.00     0.012 C 
ENDROOT
BRANCH   1   3
ATOM      3  C   UNL     1     131.749 124.254 141.407  1.00  0.00    -0.028 C 
ATOM      4  C   UNL     1     132.401 123.947 140.274  1.00  0.00    -0.027 C 
BRANCH   4   5
ATOM      5  C   UNL     1     133.634 123.066 140.295  1.00  0.00     0.014 C 
BRANCH   5   6
ATOM      6  C   UNL     1     133.309 121.571 139.998  1.00  0.00     0.004 C 
ATOM      7  C   UNL     1     134.430 120.574 140.321  1.00  0.00     0.004 C 
ENDBRANCH   5   6
BRANCH   5   8
ATOM      8  C   UNL     1     134.786 123.678 139.434  1.00  0.00    -0.011 C 
ATOM      9  C   UNL     1     135.972 124.203 140.254  1.00  0.00     0.008 C 
ATOM     10  C   UNL     1     134.276 124.776 138.486  1.00  0.00     0.008 C 
ENDBRANCH   5   8
ENDBRANCH   4   5
ENDBRANCH   1   3
BRANCH   1  11
ATOM     11  C   UNL     1     130.852 126.417 142.361  1.00  0.00     0.002 C 
ATOM     12  C   UNL     1     129.731 127.459 142.493  1.00  0.00     0.005 C 
ATOM     13  C   UNL     1     132.140 127.245 142.095  1.00  0.00    -0.026 C 
ATOM     14  C   UNL     1     130.410 128.773 142.894  1.00  0.00     0.005 C 
ATOM     15  C   UNL     1     131.928 128.496 142.993  1.00  0.00    -0.001 C 
ATOM     16  C   UNL     1     133.460 126.492 142.421  1.00  0.00     0.007 C 
ATOM     17  C   UNL     1     132.227 127.694 140.609  1.00  0.00     0.012 C 
ATOM     18  C   UNL     1     132.346 128.323 144.498  1.00  0.00     0.000 C 
ATOM     19  C   UNL     1     133.688 126.257 143.908  1.00  0.00     0.005 C 
ATOM     20  C   UNL     1     133.701 127.593 144.679  1.00  0.00     0.003 C 
ATOM     21  C   UNL     1     132.433 129.711 145.168  1.00  0.00     0.031 C 
ATOM     22  C   UNL     1     134.091 127.421 146.203  1.00  0.00    -0.008 C 
ATOM     23  C   UNL     1     133.003 129.673 146.553  1.00  0.00    -0.027 C 
ATOM     24  C   UNL     1     133.863 128.727 146.979  1.00  0.00    -0.065 C 
ATOM     25  C   UNL     1     135.604 127.043 146.299  1.00  0.00     0.014 C 
ATOM     26  C   UNL     1     133.242 126.311 146.884  1.00  0.00     0.016 C 
ATOM     27  C   UNL     1     134.465 128.876 148.365  1.00  0.00     0.063 C 
ATOM     28  C   UNL     1     136.180 127.113 147.721  1.00  0.00     0.033 C 
ATOM     29  C   UNL     1     135.949 128.478 148.383  1.00  0.00     0.118 C 
BRANCH  29  30
ATOM     30  O   UNL     1     136.761 129.472 147.805  1.00  0.00    -0.393 OA
ATOM     31  H   UNL     1     137.117 129.123 146.947  1.00  0.00     0.210 HD
ENDBRANCH  29  30
ENDBRANCH   1  11
TORSDOF 6
ENDMDL
MODEL 7
REMARK VINA RESULT:    -7.563      1.552      5.024
REMARK INTER + INTRA:         -11.931
REMARK INTER:                 -10.167
REMARK INTRA:                  -1.764
REMARK UNBOUND:                -1.937
REMARK SMILES CC[C@H](C=C[C@@H](C)[C@@H]1CC[C@H]2[C@@H]3CC=C4C[C@H](O)CC[C@]4(C)[C@H]3CC[C@]21C)C(C)C
REMARK SMILES IDX 6 1 7 2 5 3 4 4 3 5 2 6 1 7 28 8 29 9 30 10 8 11 9 12 26 13
REMARK SMILES IDX 10 14 11 15 25 16 27 17 12 18 24 19 23 20 13 21 21 22 14 23
REMARK SMILES IDX 15 24 20 25 22 26 16 27 19 28 17 29 18 30
REMARK H PARENT 18 31
REMARK Flexibility Score: inf
ROOT
ATOM      1  C   UNL     1     131.141 131.580 136.757  1.00  0.00     0.012 C 
ATOM      2  C   UNL     1     132.064 132.600 136.066  1.00  0.00     0.012 C 
ENDROOT
BRANCH   1   3
ATOM      3  C   UNL     1     130.090 132.338 137.539  1.00  0.00    -0.028 C 
ATOM      4  C   UNL     1     129.788 132.017 138.808  1.00  0.00    -0.027 C 
BRANCH   4   5
ATOM      5  C   UNL     1     128.793 132.835 139.606  1.00  0.00     0.014 C 
BRANCH   5   6
ATOM      6  C   UNL     1     128.240 132.067 140.844  1.00  0.00     0.004 C 
ATOM      7  C   UNL     1     126.763 131.659 140.763  1.00  0.00     0.004 C 
ENDBRANCH   5   6
BRANCH   5   8
ATOM      8  C   UNL     1     129.343 134.267 139.905  1.00  0.00    -0.011 C 
ATOM      9  C   UNL     1     129.333 134.645 141.392  1.00  0.00     0.008 C 
ATOM     10  C   UNL     1     128.621 135.347 139.084  1.00  0.00     0.008 C 
ENDBRANCH   5   8
ENDBRANCH   4   5
ENDBRANCH   1   3
BRANCH   1  11
ATOM     11  C   UNL     1     131.851 130.529 137.686  1.00  0.00     0.002 C 
ATOM     12  C   UNL     1     133.371 130.677 137.849  1.00  0.00     0.005 C 
ATOM     13  C   UNL     1     131.625 129.024 137.370  1.00  0.00    -0.026 C 
ATOM     14  C   UNL     1     133.902 129.287 138.217  1.00  0.00     0.005 C 
ATOM     15  C   UNL     1     132.689 128.328 138.266  1.00  0.00    -0.001 C 
ATOM     16  C   UNL     1     130.183 128.522 137.657  1.00  0.00     0.007 C 
ATOM     17  C   UNL     1     131.930 128.707 135.880  1.00  0.00     0.012 C 
ATOM     18  C   UNL     1     132.257 128.084 139.757  1.00  0.00     0.000 C 
ATOM     19  C   UNL     1     129.830 128.461 139.137  1.00  0.00     0.005 C 
ATOM     20  C   UNL     1     130.811 127.545 139.897  1.00  0.00     0.003 C 
ATOM     21  C   UNL     1     133.230 127.081 140.413  1.00  0.00     0.031 C 
ATOM     22  C   UNL     1     130.399 127.319 141.409  1.00  0.00    -0.008 C 
ATOM     23  C   UNL     1     132.802 126.636 141.779  1.00  0.00    -0.027 C 
ATOM     24  C   UNL     1     131.516 126.603 142.182  1.00  0.00    -0.065 C 
ATOM     25  C   UNL     1     129.114 126.432 141.455  1.00  0.00     0.014 C 
ATOM     26  C   UNL     1     130.115 128.669 142.126  1.00  0.00     0.016 C 
ATOM     27  C   UNL     1     131.207 126.011 143.545  1.00  0.00     0.063 C 
ATOM     28  C   UNL     1     128.761 125.910 142.857  1.00  0.00     0.033 C 
ATOM     29  C   UNL     1     129.927 125.161 143.516  1.00  0.00     0.118 C 
BRANCH  29  30
ATOM     30  O   UNL     1     130.146 123.913 142.903  1.00  0.00    -0.393 OA
ATOM     31  H   UNL     1     129.562 123.851 142.103  1.00  0.00     0.210 HD
ENDBRANCH  29  30
ENDBRANCH   1  11
TORSDOF 6
ENDMDL
MODEL 8
REMARK VINA RESULT:    -7.560      2.844      5.387
REMARK INTER + INTRA:         -11.927
REMARK INTER:                 -10.299
REMARK INTRA:                  -1.628
REMARK UNBOUND:                -1.937
REMARK SMILES CC[C@H](C=C[C@@H](C)[C@@H]1CC[C@H]2[C@@H]3CC=C4C[C@H](O)CC[C@]4(C)[C@H]3CC[C@]21C)C(C)C
REMARK SMILES IDX 6 1 7 2 5 3 4 4 3 5 2 6 1 7 28 8 29 9 30 10 8 11 9 12 26 13
REMARK SMILES IDX 10 14 11 15 25 16 27 17 12 18 24 19 23 20 13 21 21 22 14 23
REMARK SMILES IDX 15 24 20 25 22 26 16 27 19 28 17 29 18 30
REMARK H PARENT 18 31
REMARK Flexibility Score: inf
ROOT
ATOM      1  C   UNL     1     131.037 129.644 140.271  1.00  0.00     0.012 C 
ATOM      2  C   UNL     1     129.684 130.328 140.007  1.00  0.00     0.012 C 
ENDROOT
BRANCH   1   3
ATOM      3  C   UNL     1     132.042 130.166 139.266  1.00  0.00    -0.028 C 
ATOM      4  C   UNL     1     132.113 129.674 138.019  1.00  0.00    -0.027 C 
BRANCH   4   5
ATOM      5  C   UNL     1     133.068 130.261 136.999  1.00  0.00     0.014 C 
BRANCH   5   6
ATOM      6  C   UNL     1     134.117 129.225 136.492  1.00  0.00     0.004 C 
ATOM      7  C   UNL     1     135.075 128.679 137.559  1.00  0.00     0.004 C 
ENDBRANCH   5   6
BRANCH   5   8
ATOM      8  C   UNL     1     132.299 131.029 135.877  1.00  0.00    -0.011 C 
ATOM      9  C   UNL     1     132.502 132.550 135.904  1.00  0.00     0.008 C 
ATOM     10  C   UNL     1     130.797 130.700 135.877  1.00  0.00     0.008 C 
ENDBRANCH   5   8
ENDBRANCH   4   5
ENDBRANCH   1   3
BRANCH   1  11
ATOM     11  C   UNL     1     131.029 128.072 140.255  1.00  0.00     0.002 C 
ATOM     12  C   UNL     1     129.722 127.400 139.806  1.00  0.00     0.005 C 
ATOM     13  C   UNL     1     131.426 127.339 141.567  1.00  0.00    -0.026 C 
ATOM     14  C   UNL     1     129.712 126.008 140.446  1.00  0.00     0.005 C 
ATOM     15  C   UNL     1     131.012 125.870 141.271  1.00  0.00    -0.001 C 
ATOM     16  C   UNL     1     132.928 127.473 141.941  1.00  0.00     0.007 C 
ATOM     17  C   UNL     1     130.606 127.864 142.779  1.00  0.00     0.012 C 
ATOM     18  C   UNL     1     132.067 125.022 140.473  1.00  0.00     0.000 C 
ATOM     19  C   UNL     1     133.869 126.720 141.010  1.00  0.00     0.005 C 
ATOM     20  C   UNL     1     133.520 125.218 140.976  1.00  0.00     0.003 C 
ATOM     21  C   UNL     1     131.702 123.525 140.574  1.00  0.00     0.031 C 
ATOM     22  C   UNL     1     134.563 124.362 140.147  1.00  0.00    -0.008 C 
ATOM     23  C   UNL     1     132.746 122.614 140.003  1.00  0.00    -0.027 C 
ATOM     24  C   UNL     1     134.055 122.926 139.943  1.00  0.00    -0.065 C 
ATOM     25  C   UNL     1     135.910 124.305 140.935  1.00  0.00     0.014 C 
ATOM     26  C   UNL     1     134.815 124.980 138.744  1.00  0.00     0.016 C 
ATOM     27  C   UNL     1     135.025 121.863 139.459  1.00  0.00     0.063 C 
ATOM     28  C   UNL     1     136.919 123.287 140.382  1.00  0.00     0.033 C 
ATOM     29  C   UNL     1     136.329 121.874 140.272  1.00  0.00     0.118 C 
BRANCH  29  30
ATOM     30  O   UNL     1     136.154 121.292 141.541  1.00  0.00    -0.393 OA
ATOM     31  H   UNL     1     135.197 121.372 141.793  1.00  0.00     0.210 HD
ENDBRANCH  29  30
ENDBRANCH   1  11
TORSDOF 6
ENDMDL
MODEL 9
REMARK VINA RESULT:    -7.394      1.805      3.298
REMARK INTER + INTRA:         -11.708
REMARK INTER:                  -9.780
REMARK INTRA:                  -1.928
REMARK UNBOUND:                -1.937
REMARK SMILES CC[C@H](C=C[C@@H](C)[C@@H]1CC[C@H]2[C@@H]3CC=C4C[C@H](O)CC[C@]4(C)[C@H]3CC[C@]21C)C(C)C
REMARK SMILES IDX 6 1 7 2 5 3 4 4 3 5 2 6 1 7 28 8 29 9 30 10 8 11 9 12 26 13
REMARK SMILES IDX 10 14 11 15 25 16 27 17 12 18 24 19 23 20 13 21 21 22 14 23
REMARK SMILES IDX 15 24 20 25 22 26 16 27 19 28 17 29 18 30
REMARK H PARENT 18 31
REMARK Flexibility Score: inf
ROOT
ATOM      1  C   UNL     1     128.919 131.410 140.732  1.00  0.00     0.012 C 
ATOM      2  C   UNL     1     127.523 132.000 141.003  1.00  0.00     0.012 C 
ENDROOT
BRANCH   1   3
ATOM      3  C   UNL     1     129.347 131.815 139.338  1.00  0.00    -0.028 C 
ATOM      4  C   UNL     1     130.192 131.063 138.614  1.00  0.00    -0.027 C 
BRANCH   4   5
ATOM      5  C   UNL     1     130.548 131.438 137.189  1.00  0.00     0.014 C 
BRANCH   5   6
ATOM      6  C   UNL     1     131.824 132.329 137.105  1.00  0.00     0.004 C 
ATOM      7  C   UNL     1     131.809 133.403 136.010  1.00  0.00     0.004 C 
ENDBRANCH   5   6
BRANCH   5   8
ATOM      8  C   UNL     1     130.551 130.186 136.255  1.00  0.00    -0.011 C 
ATOM      9  C   UNL     1     129.750 128.995 136.798  1.00  0.00     0.008 C 
ATOM     10  C   UNL     1     131.977 129.739 135.894  1.00  0.00     0.008 C 
ENDBRANCH   5   8
ENDBRANCH   4   5
ENDBRANCH   1   3
BRANCH   1  11
ATOM     11  C   UNL     1     129.054 129.853 140.906  1.00  0.00     0.002 C 
ATOM     12  C   UNL     1     127.748 129.074 141.125  1.00  0.00     0.005 C 
ATOM     13  C   UNL     1     130.019 129.336 142.009  1.00  0.00    -0.026 C 
ATOM     14  C   UNL     1     128.132 127.791 141.869  1.00  0.00     0.005 C 
ATOM     15  C   UNL     1     129.663 127.824 142.087  1.00  0.00    -0.001 C 
ATOM     16  C   UNL     1     131.523 129.580 141.704  1.00  0.00     0.007 C 
ATOM     17  C   UNL     1     129.719 130.000 143.381  1.00  0.00     0.012 C 
ATOM     18  C   UNL     1     130.376 126.909 141.027  1.00  0.00     0.000 C 
ATOM     19  C   UNL     1     132.070 128.734 140.561  1.00  0.00     0.005 C 
ATOM     20  C   UNL     1     131.882 127.231 140.851  1.00  0.00     0.003 C 
ATOM     21  C   UNL     1     130.228 125.431 141.445  1.00  0.00     0.031 C 
ATOM     22  C   UNL     1     132.572 126.304 139.770  1.00  0.00    -0.008 C 
ATOM     23  C   UNL     1     131.029 124.486 140.603  1.00  0.00    -0.027 C 
ATOM     24  C   UNL     1     132.164 124.836 139.966  1.00  0.00    -0.065 C 
ATOM     25  C   UNL     1     134.122 126.414 139.925  1.00  0.00     0.014 C 
ATOM     26  C   UNL     1     132.170 126.720 138.328  1.00  0.00     0.016 C 
ATOM     27  C   UNL     1     132.949 123.751 139.250  1.00  0.00     0.063 C 
ATOM     28  C   UNL     1     134.910 125.365 139.126  1.00  0.00     0.033 C 
ATOM     29  C   UNL     1     134.464 123.930 139.438  1.00  0.00     0.118 C 
BRANCH  29  30
ATOM     30  O   UNL     1     134.878 123.534 140.723  1.00  0.00    -0.393 OA
ATOM     31  H   UNL     1     135.254 124.326 141.188  1.00  0.00     0.210 HD
ENDBRANCH  29  30
ENDBRANCH   1  11
TORSDOF 6
ENDMDL
