MODEL 1
REMARK VINA RESULT:    -3.262      0.000      0.000
REMARK INTER + INTRA:          -3.865
REMARK INTER:                  -3.834
REMARK INTRA:                  -0.031
REMARK UNBOUND:                -0.031
REMARK SMILES O=C([O-])CCC(=O)[O-]
REMARK SMILES IDX 4 1 2 2 1 3 3 4 5 5 6 6 7 7 8 8
REMARK H PARENT
REMARK Flexibility Score: inf
ROOT
ATOM      1  C   UNL     1      18.646  18.603   8.814  1.00  0.00     0.059 C 
ENDROOT
BRANCH   1   2
ATOM      2  C   UNL     1      18.639  17.533   9.862  1.00  0.00     0.042 C 
ATOM      3  O   UNL     1      18.653  16.319   9.527  1.00  0.00    -0.550 OA
ATOM      4  O   UNL     1      18.577  17.875  11.207  1.00  0.00    -0.550 OA
ENDBRANCH   1   2
BRANCH   1   5
ATOM      5  C   UNL     1      17.232  19.120   8.527  1.00  0.00     0.059 C 
BRANCH   5   6
ATOM      6  C   UNL     1      17.249  20.536   8.040  1.00  0.00     0.042 C 
ATOM      7  O   UNL     1      17.123  20.786   6.811  1.00  0.00    -0.550 OA
ATOM      8  O   UNL     1      17.444  21.580   8.936  1.00  0.00    -0.550 OA
ENDBRANCH   5   6
ENDBRANCH   1   5
TORSDOF 3
ENDMDL
MODEL 2
REMARK VINA RESULT:    -3.250      0.144      4.087
REMARK INTER + INTRA:          -3.851
REMARK INTER:                  -3.822
REMARK INTRA:                  -0.029
REMARK UNBOUND:                -0.031
REMARK SMILES O=C([O-])CCC(=O)[O-]
REMARK SMILES IDX 4 1 2 2 1 3 3 4 5 5 6 6 7 7 8 8
REMARK H PARENT
REMARK Flexibility Score: inf
ROOT
ATOM      1  C   UNL     1      17.220  19.232   8.684  1.00  0.00     0.059 C 
ENDROOT
BRANCH   1   2
ATOM      2  C   UNL     1      17.316  20.562   8.000  1.00  0.00     0.042 C 
ATOM      3  O   UNL     1      17.222  20.637   6.746  1.00  0.00    -0.550 OA
ATOM      4  O   UNL     1      17.550  21.712   8.743  1.00  0.00    -0.550 OA
ENDBRANCH   1   2
BRANCH   1   5
ATOM      5  C   UNL     1      18.583  18.535   8.756  1.00  0.00     0.059 C 
BRANCH   5   6
ATOM      6  C   UNL     1      18.625  17.514   9.851  1.00  0.00     0.042 C 
ATOM      7  O   UNL     1      18.676  16.286   9.571  1.00  0.00    -0.550 OA
ATOM      8  O   UNL     1      18.568  17.915  11.180  1.00  0.00    -0.550 OA
ENDBRANCH   5   6
ENDBRANCH   1   5
TORSDOF 3
ENDMDL
MODEL 3
REMARK VINA RESULT:    -3.240     10.945     11.771
REMARK INTER + INTRA:          -3.838
REMARK INTER:                  -3.733
REMARK INTRA:                  -0.106
REMARK UNBOUND:                -0.031
REMARK SMILES O=C([O-])CCC(=O)[O-]
REMARK SMILES IDX 4 1 2 2 1 3 3 4 5 5 6 6 7 7 8 8
REMARK H PARENT
REMARK Flexibility Score: inf
ROOT
ATOM      1  C   UNL     1      18.024  25.996  17.011  1.00  0.00     0.059 C 
ENDROOT
BRANCH   1   2
ATOM      2  C   UNL     1      17.376  25.693  18.327  1.00  0.00     0.042 C 
ATOM      3  O   UNL     1      16.994  24.522  18.589  1.00  0.00    -0.550 OA
ATOM      4  O   UNL     1      17.158  26.710  19.248  1.00  0.00    -0.550 OA
ENDBRANCH   1   2
BRANCH   1   5
ATOM      5  C   UNL     1      19.311  26.809  17.190  1.00  0.00     0.059 C 
BRANCH   5   6
ATOM      6  C   UNL     1      20.427  25.968  17.729  1.00  0.00     0.042 C 
ATOM      7  O   UNL     1      20.666  25.949  18.966  1.00  0.00    -0.550 OA
ATOM      8  O   UNL     1      21.229  25.235  16.863  1.00  0.00    -0.550 OA
ENDBRANCH   5   6
ENDBRANCH   1   5
TORSDOF 3
ENDMDL
MODEL 4
REMARK VINA RESULT:    -3.180      4.298      5.136
REMARK INTER + INTRA:          -3.768
REMARK INTER:                  -3.688
REMARK INTRA:                  -0.080
REMARK UNBOUND:                -0.031
REMARK SMILES O=C([O-])CCC(=O)[O-]
REMARK SMILES IDX 4 1 2 2 1 3 3 4 5 5 6 6 7 7 8 8
REMARK H PARENT
REMARK Flexibility Score: inf
ROOT
ATOM      1  C   UNL     1      19.704  21.974   6.841  1.00  0.00     0.059 C 
ENDROOT
BRANCH   1   2
ATOM      2  C   UNL     1      19.241  20.549   6.850  1.00  0.00     0.042 C 
ATOM      3  O   UNL     1      19.259  19.872   5.788  1.00  0.00    -0.550 OA
ATOM      4  O   UNL     1      18.754  19.982   8.020  1.00  0.00    -0.550 OA
ENDBRANCH   1   2
BRANCH   1   5
ATOM      5  C   UNL     1      20.416  22.328   5.531  1.00  0.00     0.059 C 
BRANCH   5   6
ATOM      6  C   UNL     1      21.806  22.831   5.776  1.00  0.00     0.042 C 
ATOM      7  O   UNL     1      22.635  22.120   6.404  1.00  0.00    -0.550 OA
ATOM      8  O   UNL     1      22.175  24.100   5.346  1.00  0.00    -0.550 OA
ENDBRANCH   5   6
ENDBRANCH   1   5
TORSDOF 3
ENDMDL
MODEL 5
REMARK VINA RESULT:    -3.174      4.297      5.720
REMARK INTER + INTRA:          -3.761
REMARK INTER:                  -3.677
REMARK INTRA:                  -0.084
REMARK UNBOUND:                -0.031
REMARK SMILES O=C([O-])CCC(=O)[O-]
REMARK SMILES IDX 4 1 2 2 1 3 3 4 5 5 6 6 7 7 8 8
REMARK H PARENT
REMARK Flexibility Score: inf
ROOT
ATOM      1  C   UNL     1      20.410  22.360   5.498  1.00  0.00     0.059 C 
ENDROOT
BRANCH   1   2
ATOM      2  C   UNL     1      21.796  22.846   5.791  1.00  0.00     0.042 C 
ATOM      3  O   UNL     1      22.596  22.124   6.442  1.00  0.00    -0.550 OA
ATOM      4  O   UNL     1      22.192  24.114   5.381  1.00  0.00    -0.550 OA
ENDBRANCH   1   2
BRANCH   1   5
ATOM      5  C   UNL     1      19.640  22.041   6.784  1.00  0.00     0.059 C 
BRANCH   5   6
ATOM      6  C   UNL     1      19.235  20.601   6.844  1.00  0.00     0.042 C 
ATOM      7  O   UNL     1      19.270  19.888   5.805  1.00  0.00    -0.550 OA
ATOM      8  O   UNL     1      18.779  20.054   8.037  1.00  0.00    -0.550 OA
ENDBRANCH   5   6
ENDBRANCH   1   5
TORSDOF 3
ENDMDL
MODEL 6
REMARK VINA RESULT:    -3.117      6.221      7.187
REMARK INTER + INTRA:          -3.694
REMARK INTER:                  -3.562
REMARK INTRA:                  -0.132
REMARK UNBOUND:                -0.031
REMARK SMILES O=C([O-])CCC(=O)[O-]
REMARK SMILES IDX 4 1 2 2 1 3 3 4 5 5 6 6 7 7 8 8
REMARK H PARENT
REMARK Flexibility Score: inf
ROOT
ATOM      1  C   UNL     1      21.518  22.790   4.402  1.00  0.00     0.059 C 
ENDROOT
BRANCH   1   2
ATOM      2  C   UNL     1      21.518  22.245   5.797  1.00  0.00     0.042 C 
ATOM      3  O   UNL     1      22.590  22.194   6.457  1.00  0.00    -0.550 OA
ATOM      4  O   UNL     1      20.343  21.756   6.355  1.00  0.00    -0.550 OA
ENDBRANCH   1   2
BRANCH   1   5
ATOM      5  C   UNL     1      20.980  24.225   4.356  1.00  0.00     0.059 C 
BRANCH   5   6
ATOM      6  C   UNL     1      21.981  25.208   4.879  1.00  0.00     0.042 C 
ATOM      7  O   UNL     1      23.012  25.482   4.208  1.00  0.00    -0.550 OA
ATOM      8  O   UNL     1      21.799  25.792   6.127  1.00  0.00    -0.550 OA
ENDBRANCH   5   6
ENDBRANCH   1   5
TORSDOF 3
ENDMDL
MODEL 7
REMARK VINA RESULT:    -3.116      6.191      7.897
REMARK INTER + INTRA:          -3.694
REMARK INTER:                  -3.558
REMARK INTRA:                  -0.135
REMARK UNBOUND:                -0.031
REMARK SMILES O=C([O-])CCC(=O)[O-]
REMARK SMILES IDX 4 1 2 2 1 3 3 4 5 5 6 6 7 7 8 8
REMARK H PARENT
REMARK Flexibility Score: inf
ROOT
ATOM      1  C   UNL     1      20.940  24.205   4.386  1.00  0.00     0.059 C 
ENDROOT
BRANCH   1   2
ATOM      2  C   UNL     1      21.981  25.162   4.880  1.00  0.00     0.042 C 
ATOM      3  O   UNL     1      23.037  25.345   4.218  1.00  0.00    -0.550 OA
ATOM      4  O   UNL     1      21.805  25.821   6.091  1.00  0.00    -0.550 OA
ENDBRANCH   1   2
BRANCH   1   5
ATOM      5  C   UNL     1      21.432  22.755   4.446  1.00  0.00     0.059 C 
BRANCH   5   6
ATOM      6  C   UNL     1      21.501  22.252   5.855  1.00  0.00     0.042 C 
ATOM      7  O   UNL     1      22.611  22.168   6.444  1.00  0.00    -0.550 OA
ATOM      8  O   UNL     1      20.345  21.837   6.505  1.00  0.00    -0.550 OA
ENDBRANCH   5   6
ENDBRANCH   1   5
TORSDOF 3
ENDMDL
MODEL 8
REMARK VINA RESULT:    -3.004     10.405     11.173
REMARK INTER + INTRA:          -3.562
REMARK INTER:                  -3.502
REMARK INTRA:                  -0.060
REMARK UNBOUND:                -0.031
REMARK SMILES O=C([O-])CCC(=O)[O-]
REMARK SMILES IDX 4 1 2 2 1 3 3 4 5 5 6 6 7 7 8 8
REMARK H PARENT
REMARK Flexibility Score: inf
ROOT
ATOM      1  C   UNL     1      19.609  26.214  16.746  1.00  0.00     0.059 C 
ENDROOT
BRANCH   1   2
ATOM      2  C   UNL     1      20.916  25.496  16.601  1.00  0.00     0.042 C 
ATOM      3  O   UNL     1      21.531  25.089  17.622  1.00  0.00    -0.550 OA
ATOM      4  O   UNL     1      21.474  25.313  15.342  1.00  0.00    -0.550 OA
ENDBRANCH   1   2
BRANCH   1   5
ATOM      5  C   UNL     1      19.052  26.090  18.169  1.00  0.00     0.059 C 
BRANCH   5   6
ATOM      6  C   UNL     1      17.608  25.693  18.166  1.00  0.00     0.042 C 
ATOM      7  O   UNL     1      16.952  25.681  19.241  1.00  0.00    -0.550 OA
ATOM      8  O   UNL     1      16.997  25.297  16.982  1.00  0.00    -0.550 OA
ENDBRANCH   5   6
ENDBRANCH   1   5
TORSDOF 3
ENDMDL
MODEL 9
REMARK VINA RESULT:    -2.956      5.376      6.220
REMARK INTER + INTRA:          -3.505
REMARK INTER:                  -3.407
REMARK INTRA:                  -0.098
REMARK UNBOUND:                -0.031
REMARK SMILES O=C([O-])CCC(=O)[O-]
REMARK SMILES IDX 4 1 2 2 1 3 3 4 5 5 6 6 7 7 8 8
REMARK H PARENT
REMARK Flexibility Score: inf
ROOT
ATOM      1  C   UNL     1      20.569  24.225   7.103  1.00  0.00     0.059 C 
ENDROOT
BRANCH   1   2
ATOM      2  C   UNL     1      20.568  23.817   8.545  1.00  0.00     0.042 C 
ATOM      3  O   UNL     1      21.616  23.928   9.234  1.00  0.00    -0.550 OA
ATOM      4  O   UNL     1      19.423  23.276   9.116  1.00  0.00    -0.550 OA
ENDBRANCH   1   2
BRANCH   1   5
ATOM      5  C   UNL     1      20.357  23.022   6.177  1.00  0.00     0.059 C 
BRANCH   5   6
ATOM      6  C   UNL     1      21.643  22.564   5.562  1.00  0.00     0.042 C 
ATOM      7  O   UNL     1      21.768  22.521   4.309  1.00  0.00    -0.550 OA
ATOM      8  O   UNL     1      22.691  22.144   6.372  1.00  0.00    -0.550 OA
ENDBRANCH   5   6
ENDBRANCH   1   5
TORSDOF 3
ENDMDL
