MODEL 1
REMARK VINA RESULT:    -7.905      0.000      0.000
REMARK INTER + INTRA:          -7.905
REMARK INTER:                  -7.905
REMARK INTRA:                   0.000
REMARK UNBOUND:                 0.000
REMARK SMILES CC1=CC[C@@]2(C)CCCC(C)(C)[C@]23C[C@H]13
REMARK SMILES IDX 1 1 2 2 3 3 4 4 5 5 7 6 8 7 9 8 10 9 13 10 15 11 14 12 11 13
REMARK SMILES IDX 12 14 6 15
REMARK H PARENT
REMARK Flexibility Score: inf
ROOT
ATOM      1  C   UNL     1      -1.321 -12.753  10.250  1.00  0.00     0.039 C 
ATOM      2  C   UNL     1      -1.936 -14.124  10.200  1.00  0.00    -0.074 C 
ATOM      3  C   UNL     1      -2.262 -14.729  11.349  1.00  0.00    -0.027 C 
ATOM      4  C   UNL     1      -2.701 -16.155  11.399  1.00  0.00     0.034 C 
ATOM      5  C   UNL     1      -3.621 -16.598  10.220  1.00  0.00    -0.022 C 
ATOM      6  C   UNL     1      -5.085 -16.230  10.559  1.00  0.00     0.008 C 
ATOM      7  C   UNL     1      -6.111 -16.634   9.478  1.00  0.00     0.001 C 
ATOM      8  C   UNL     1      -5.557 -16.729   8.040  1.00  0.00     0.007 C 
ATOM      9  C   UNL     1      -4.382 -15.764   7.740  1.00  0.00    -0.029 C 
ATOM     10  C   UNL     1      -3.246 -15.921   8.844  1.00  0.00    -0.012 C 
ATOM     11  C   UNL     1      -2.286 -14.710   8.851  1.00  0.00     0.022 C 
ATOM     12  C   UNL     1      -1.749 -16.079   8.479  1.00  0.00     0.017 C 
ATOM     13  C   UNL     1      -3.864 -16.096   6.321  1.00  0.00     0.012 C 
ATOM     14  C   UNL     1      -4.964 -14.320   7.712  1.00  0.00     0.012 C 
ATOM     15  C   UNL     1      -3.479 -18.143  10.137  1.00  0.00     0.012 C 
ENDROOT
TORSDOF 0
ENDMDL
MODEL 2
REMARK VINA RESULT:    -7.595      1.276      2.780
REMARK INTER + INTRA:          -7.595
REMARK INTER:                  -7.595
REMARK INTRA:                   0.000
REMARK UNBOUND:                 0.000
REMARK SMILES CC1=CC[C@@]2(C)CCCC(C)(C)[C@]23C[C@H]13
REMARK SMILES IDX 1 1 2 2 3 3 4 4 5 5 7 6 8 7 9 8 10 9 13 10 15 11 14 12 11 13
REMARK SMILES IDX 12 14 6 15
REMARK H PARENT
REMARK Flexibility Score: inf
ROOT
ATOM      1  C   UNL     1      -3.314 -15.104  13.338  1.00  0.00     0.039 C 
ATOM      2  C   UNL     1      -3.557 -15.740  11.997  1.00  0.00    -0.074 C 
ATOM      3  C   UNL     1      -4.784 -16.199  11.712  1.00  0.00    -0.027 C 
ATOM      4  C   UNL     1      -5.065 -17.005  10.488  1.00  0.00     0.034 C 
ATOM      5  C   UNL     1      -4.298 -16.544   9.210  1.00  0.00    -0.022 C 
ATOM      6  C   UNL     1      -5.094 -15.403   8.531  1.00  0.00     0.008 C 
ATOM      7  C   UNL     1      -4.453 -14.863   7.234  1.00  0.00     0.001 C 
ATOM      8  C   UNL     1      -2.921 -15.024   7.135  1.00  0.00     0.007 C 
ATOM      9  C   UNL     1      -2.181 -14.984   8.496  1.00  0.00    -0.029 C 
ATOM     10  C   UNL     1      -2.839 -16.021   9.509  1.00  0.00    -0.012 C 
ATOM     11  C   UNL     1      -2.447 -15.716  10.972  1.00  0.00     0.022 C 
ATOM     12  C   UNL     1      -1.996 -17.019  10.340  1.00  0.00     0.017 C 
ATOM     13  C   UNL     1      -0.693 -15.304   8.221  1.00  0.00     0.012 C 
ATOM     14  C   UNL     1      -2.267 -13.523   9.027  1.00  0.00     0.012 C 
ATOM     15  C   UNL     1      -4.264 -17.783   8.273  1.00  0.00     0.012 C 
ENDROOT
TORSDOF 0
ENDMDL
MODEL 3
REMARK VINA RESULT:    -7.426      1.283      4.204
REMARK INTER + INTRA:          -7.426
REMARK INTER:                  -7.426
REMARK INTRA:                   0.000
REMARK UNBOUND:                 0.000
REMARK SMILES CC1=CC[C@@]2(C)CCCC(C)(C)[C@]23C[C@H]13
REMARK SMILES IDX 1 1 2 2 3 3 4 4 5 5 7 6 8 7 9 8 10 9 13 10 15 11 14 12 11 13
REMARK SMILES IDX 12 14 6 15
REMARK H PARENT
REMARK Flexibility Score: inf
ROOT
ATOM      1  C   UNL     1      -5.379 -16.503   6.735  1.00  0.00     0.039 C 
ATOM      2  C   UNL     1      -4.110 -16.105   7.436  1.00  0.00    -0.074 C 
ATOM      3  C   UNL     1      -3.483 -14.985   7.051  1.00  0.00    -0.027 C 
ATOM      4  C   UNL     1      -2.130 -14.617   7.562  1.00  0.00     0.034 C 
ATOM      5  C   UNL     1      -1.891 -14.937   9.071  1.00  0.00    -0.022 C 
ATOM      6  C   UNL     1      -2.431 -13.764   9.923  1.00  0.00     0.008 C 
ATOM      7  C   UNL     1      -2.239 -13.941  11.445  1.00  0.00     0.001 C 
ATOM      8  C   UNL     1      -2.161 -15.403  11.938  1.00  0.00     0.007 C 
ATOM      9  C   UNL     1      -2.975 -16.412  11.089  1.00  0.00    -0.029 C 
ATOM     10  C   UNL     1      -2.596 -16.265   9.550  1.00  0.00    -0.012 C 
ATOM     11  C   UNL     1      -3.663 -16.908   8.636  1.00  0.00     0.022 C 
ATOM     12  C   UNL     1      -2.261 -17.485   8.657  1.00  0.00     0.017 C 
ATOM     13  C   UNL     1      -2.667 -17.826  11.632  1.00  0.00     0.012 C 
ATOM     14  C   UNL     1      -4.484 -16.119  11.343  1.00  0.00     0.012 C 
ATOM     15  C   UNL     1      -0.349 -15.034   9.238  1.00  0.00     0.012 C 
ENDROOT
TORSDOF 0
ENDMDL
MODEL 4
REMARK VINA RESULT:    -6.734      1.305      3.841
REMARK INTER + INTRA:          -6.734
REMARK INTER:                  -6.734
REMARK INTRA:                   0.000
REMARK UNBOUND:                 0.000
REMARK SMILES CC1=CC[C@@]2(C)CCCC(C)(C)[C@]23C[C@H]13
REMARK SMILES IDX 1 1 2 2 3 3 4 4 5 5 7 6 8 7 9 8 10 9 13 10 15 11 14 12 11 13
REMARK SMILES IDX 12 14 6 15
REMARK H PARENT
REMARK Flexibility Score: inf
ROOT
ATOM      1  C   UNL     1      -2.750 -19.125   6.987  1.00  0.00     0.039 C 
ATOM      2  C   UNL     1      -3.271 -18.320   8.145  1.00  0.00    -0.074 C 
ATOM      3  C   UNL     1      -3.510 -18.940   9.308  1.00  0.00    -0.027 C 
ATOM      4  C   UNL     1      -4.200 -18.259  10.444  1.00  0.00     0.034 C 
ATOM      5  C   UNL     1      -3.808 -16.762  10.644  1.00  0.00    -0.022 C 
ATOM      6  C   UNL     1      -2.522 -16.691  11.501  1.00  0.00     0.008 C 
ATOM      7  C   UNL     1      -2.031 -15.257  11.796  1.00  0.00     0.001 C 
ATOM      8  C   UNL     1      -2.434 -14.191  10.754  1.00  0.00     0.007 C 
ATOM      9  C   UNL     1      -2.581 -14.729   9.308  1.00  0.00    -0.029 C 
ATOM     10  C   UNL     1      -3.545 -15.996   9.290  1.00  0.00    -0.012 C 
ATOM     11  C   UNL     1      -3.379 -16.820   7.993  1.00  0.00     0.022 C 
ATOM     12  C   UNL     1      -4.706 -16.142   8.275  1.00  0.00     0.017 C 
ATOM     13  C   UNL     1      -3.126 -13.572   8.439  1.00  0.00     0.012 C 
ATOM     14  C   UNL     1      -1.153 -15.081   8.798  1.00  0.00     0.012 C 
ATOM     15  C   UNL     1      -4.990 -16.122  11.425  1.00  0.00     0.012 C 
ENDROOT
TORSDOF 0
ENDMDL
MODEL 5
REMARK VINA RESULT:    -5.962      1.405      3.448
REMARK INTER + INTRA:          -5.962
REMARK INTER:                  -5.962
REMARK INTRA:                   0.000
REMARK UNBOUND:                 0.000
REMARK SMILES CC1=CC[C@@]2(C)CCCC(C)(C)[C@]23C[C@H]13
REMARK SMILES IDX 1 1 2 2 3 3 4 4 5 5 7 6 8 7 9 8 10 9 13 10 15 11 14 12 11 13
REMARK SMILES IDX 12 14 6 15
REMARK H PARENT
REMARK Flexibility Score: inf
ROOT
ATOM      1  C   UNL     1       0.865 -14.686   9.216  1.00  0.00     0.039 C 
ATOM      2  C   UNL     1      -0.600 -14.906   8.955  1.00  0.00    -0.074 C 
ATOM      3  C   UNL     1      -0.991 -15.266   7.726  1.00  0.00    -0.027 C 
ATOM      4  C   UNL     1      -2.431 -15.322   7.336  1.00  0.00     0.034 C 
ATOM      5  C   UNL     1      -3.387 -15.869   8.441  1.00  0.00    -0.022 C 
ATOM      6  C   UNL     1      -3.402 -17.414   8.372  1.00  0.00     0.008 C 
ATOM      7  C   UNL     1      -4.330 -18.089   9.405  1.00  0.00     0.001 C 
ATOM      8  C   UNL     1      -4.587 -17.280  10.695  1.00  0.00     0.007 C 
ATOM      9  C   UNL     1      -3.414 -16.360  11.121  1.00  0.00    -0.029 C 
ATOM     10  C   UNL     1      -2.967 -15.440   9.901  1.00  0.00    -0.012 C 
ATOM     11  C   UNL     1      -1.559 -14.844  10.122  1.00  0.00     0.022 C 
ATOM     12  C   UNL     1      -2.754 -13.913  10.047  1.00  0.00     0.017 C 
ATOM     13  C   UNL     1      -3.896 -15.528  12.331  1.00  0.00     0.012 C 
ATOM     14  C   UNL     1      -2.255 -17.282  11.604  1.00  0.00     0.012 C 
ATOM     15  C   UNL     1      -4.796 -15.319   8.083  1.00  0.00     0.012 C 
ENDROOT
TORSDOF 0
ENDMDL
MODEL 6
REMARK VINA RESULT:    -5.861      1.101      3.989
REMARK INTER + INTRA:          -5.861
REMARK INTER:                  -5.861
REMARK INTRA:                   0.000
REMARK UNBOUND:                 0.000
REMARK SMILES CC1=CC[C@@]2(C)CCCC(C)(C)[C@]23C[C@H]13
REMARK SMILES IDX 1 1 2 2 3 3 4 4 5 5 7 6 8 7 9 8 10 9 13 10 15 11 14 12 11 13
REMARK SMILES IDX 12 14 6 15
REMARK H PARENT
REMARK Flexibility Score: inf
ROOT
ATOM      1  C   UNL     1      -4.805 -15.426   4.901  1.00  0.00     0.039 C 
ATOM      2  C   UNL     1      -4.810 -15.621   6.392  1.00  0.00    -0.074 C 
ATOM      3  C   UNL     1      -5.434 -16.690   6.903  1.00  0.00    -0.027 C 
ATOM      4  C   UNL     1      -5.646 -16.859   8.371  1.00  0.00     0.034 C 
ATOM      5  C   UNL     1      -4.453 -16.393   9.262  1.00  0.00    -0.022 C 
ATOM      6  C   UNL     1      -3.426 -17.545   9.370  1.00  0.00     0.008 C 
ATOM      7  C   UNL     1      -2.196 -17.224  10.246  1.00  0.00     0.001 C 
ATOM      8  C   UNL     1      -1.828 -15.728  10.350  1.00  0.00     0.007 C 
ATOM      9  C   UNL     1      -2.186 -14.890   9.095  1.00  0.00    -0.029 C 
ATOM     10  C   UNL     1      -3.711 -15.118   8.700  1.00  0.00    -0.012 C 
ATOM     11  C   UNL     1      -3.996 -14.676   7.247  1.00  0.00     0.022 C 
ATOM     12  C   UNL     1      -4.673 -13.945   8.390  1.00  0.00     0.017 C 
ATOM     13  C   UNL     1      -1.886 -13.411   9.429  1.00  0.00     0.012 C 
ATOM     14  C   UNL     1      -1.221 -15.330   7.955  1.00  0.00     0.012 C 
ATOM     15  C   UNL     1      -5.064 -16.109  10.663  1.00  0.00     0.012 C 
ENDROOT
TORSDOF 0
ENDMDL
MODEL 7
REMARK VINA RESULT:    -5.544      1.331      3.514
REMARK INTER + INTRA:          -5.544
REMARK INTER:                  -5.544
REMARK INTRA:                   0.000
REMARK UNBOUND:                 0.000
REMARK SMILES CC1=CC[C@@]2(C)CCCC(C)(C)[C@]23C[C@H]13
REMARK SMILES IDX 1 1 2 2 3 3 4 4 5 5 7 6 8 7 9 8 10 9 13 10 15 11 14 12 11 13
REMARK SMILES IDX 12 14 6 15
REMARK H PARENT
REMARK Flexibility Score: inf
ROOT
ATOM      1  C   UNL     1      -2.001 -17.997  13.022  1.00  0.00     0.039 C 
ATOM      2  C   UNL     1      -2.271 -16.874  12.059  1.00  0.00    -0.074 C 
ATOM      3  C   UNL     1      -1.469 -15.801  12.077  1.00  0.00    -0.027 C 
ATOM      4  C   UNL     1      -1.775 -14.569  11.291  1.00  0.00     0.034 C 
ATOM      5  C   UNL     1      -2.378 -14.830   9.876  1.00  0.00    -0.022 C 
ATOM      6  C   UNL     1      -1.224 -15.073   8.874  1.00  0.00     0.008 C 
ATOM      7  C   UNL     1      -1.683 -15.325   7.422  1.00  0.00     0.001 C 
ATOM      8  C   UNL     1      -3.099 -15.921   7.267  1.00  0.00     0.007 C 
ATOM      9  C   UNL     1      -3.545 -16.831   8.440  1.00  0.00    -0.029 C 
ATOM     10  C   UNL     1      -3.348 -16.074   9.827  1.00  0.00    -0.012 C 
ATOM     11  C   UNL     1      -3.352 -17.058  11.019  1.00  0.00     0.022 C 
ATOM     12  C   UNL     1      -4.455 -16.023  10.909  1.00  0.00     0.017 C 
ATOM     13  C   UNL     1      -5.022 -17.213   8.191  1.00  0.00     0.012 C 
ATOM     14  C   UNL     1      -2.693 -18.132   8.366  1.00  0.00     0.012 C 
ATOM     15  C   UNL     1      -3.129 -13.523   9.495  1.00  0.00     0.012 C 
ENDROOT
TORSDOF 0
ENDMDL
MODEL 8
REMARK VINA RESULT:    -5.391      1.284      4.265
REMARK INTER + INTRA:          -5.391
REMARK INTER:                  -5.391
REMARK INTRA:                   0.000
REMARK UNBOUND:                 0.000
REMARK SMILES CC1=CC[C@@]2(C)CCCC(C)(C)[C@]23C[C@H]13
REMARK SMILES IDX 1 1 2 2 3 3 4 4 5 5 7 6 8 7 9 8 10 9 13 10 15 11 14 12 11 13
REMARK SMILES IDX 12 14 6 15
REMARK H PARENT
REMARK Flexibility Score: inf
ROOT
ATOM      1  C   UNL     1      -5.662 -13.144   6.881  1.00  0.00     0.039 C 
ATOM      2  C   UNL     1      -4.736 -14.250   7.308  1.00  0.00    -0.074 C 
ATOM      3  C   UNL     1      -4.145 -14.998   6.367  1.00  0.00    -0.027 C 
ATOM      4  C   UNL     1      -3.365 -16.226   6.703  1.00  0.00     0.034 C 
ATOM      5  C   UNL     1      -2.500 -16.117   7.997  1.00  0.00    -0.022 C 
ATOM      6  C   UNL     1      -1.144 -15.463   7.642  1.00  0.00     0.008 C 
ATOM      7  C   UNL     1      -0.176 -15.312   8.835  1.00  0.00     0.001 C 
ATOM      8  C   UNL     1      -0.846 -15.212  10.223  1.00  0.00     0.007 C 
ATOM      9  C   UNL     1      -2.249 -14.553  10.214  1.00  0.00    -0.029 C 
ATOM     10  C   UNL     1      -3.181 -15.262   9.136  1.00  0.00    -0.012 C 
ATOM     11  C   UNL     1      -4.403 -14.388   8.776  1.00  0.00     0.022 C 
ATOM     12  C   UNL     1      -4.623 -15.723   9.461  1.00  0.00     0.017 C 
ATOM     13  C   UNL     1      -2.822 -14.669  11.645  1.00  0.00     0.012 C 
ATOM     14  C   UNL     1      -2.048 -13.041   9.899  1.00  0.00     0.012 C 
ATOM     15  C   UNL     1      -2.264 -17.580   8.465  1.00  0.00     0.012 C 
ENDROOT
TORSDOF 0
ENDMDL
MODEL 9
REMARK VINA RESULT:    -5.271      0.945      4.449
REMARK INTER + INTRA:          -5.271
REMARK INTER:                  -5.271
REMARK INTRA:                   0.000
REMARK UNBOUND:                 0.000
REMARK SMILES CC1=CC[C@@]2(C)CCCC(C)(C)[C@]23C[C@H]13
REMARK SMILES IDX 1 1 2 2 3 3 4 4 5 5 7 6 8 7 9 8 10 9 13 10 15 11 14 12 11 13
REMARK SMILES IDX 12 14 6 15
REMARK H PARENT
REMARK Flexibility Score: inf
ROOT
ATOM      1  C   UNL     1      -6.772 -16.820   9.496  1.00  0.00     0.039 C 
ATOM      2  C   UNL     1      -5.355 -16.453   9.151  1.00  0.00    -0.074 C 
ATOM      3  C   UNL     1      -5.130 -15.670   8.088  1.00  0.00    -0.027 C 
ATOM      4  C   UNL     1      -3.755 -15.412   7.569  1.00  0.00     0.034 C 
ATOM      5  C   UNL     1      -2.662 -15.239   8.668  1.00  0.00    -0.022 C 
ATOM      6  C   UNL     1      -2.658 -13.768   9.146  1.00  0.00     0.008 C 
ATOM      7  C   UNL     1      -1.603 -13.450  10.228  1.00  0.00     0.001 C 
ATOM      8  C   UNL     1      -1.177 -14.645  11.109  1.00  0.00     0.007 C 
ATOM      9  C   UNL     1      -2.282 -15.710  11.325  1.00  0.00    -0.029 C 
ATOM     10  C   UNL     1      -2.884 -16.169   9.925  1.00  0.00    -0.012 C 
ATOM     11  C   UNL     1      -4.249 -16.871  10.094  1.00  0.00     0.022 C 
ATOM     12  C   UNL     1      -3.073 -17.659   9.550  1.00  0.00     0.017 C 
ATOM     13  C   UNL     1      -1.642 -16.887  12.096  1.00  0.00     0.012 C 
ATOM     14  C   UNL     1      -3.367 -15.071  12.240  1.00  0.00     0.012 C 
ATOM     15  C   UNL     1      -1.311 -15.561   7.970  1.00  0.00     0.012 C 
ENDROOT
TORSDOF 0
ENDMDL
