MODEL 1
REMARK VINA RESULT:    -4.176      0.000      0.000
REMARK INTER + INTRA:          -7.888
REMARK INTER:                  -6.373
REMARK INTRA:                  -1.515
REMARK UNBOUND:                -1.515
REMARK SMILES OC[C@@H]1O[C@@](CO)(O[C@H]2O[C@@H](CO)[C@@H](O)[C@@H](O)[C@@H]2O)[C@H](O)[C@@H]1O
REMARK SMILES IDX 8 1 9 2 11 3 14 4 10 5 16 6 18 7 12 8 13 9 15 11 17 13 19 15
REMARK SMILES IDX 5 17 20 18 4 19 22 20 3 21 6 22 7 23 21 25 23 27 2 29 1 30
REMARK H PARENT 13 10 15 12 17 14 19 16 7 24 21 26 23 28 1 31
REMARK Flexibility Score: inf
ROOT
ATOM      1  O   UNL     1      14.621  -5.039   6.532  1.00  0.00    -0.313 OA
ENDROOT
BRANCH   1   2
ATOM      2  C   UNL     1      13.411  -5.442   7.153  1.00  0.00     0.285 C 
ATOM      3  C   UNL     1      11.975  -4.966   8.928  1.00  0.00     0.178 C 
ATOM      4  C   UNL     1      10.711  -4.875   8.032  1.00  0.00     0.177 C 
ATOM      5  O   UNL     1      13.118  -4.540   8.207  1.00  0.00    -0.341 OA
ATOM      6  C   UNL     1      10.914  -5.697   6.744  1.00  0.00     0.179 C 
ATOM      7  C   UNL     1      12.285  -5.382   6.097  1.00  0.00     0.202 C 
BRANCH   3   8
ATOM      8  C   UNL     1      11.843  -4.108  10.190  1.00  0.00     0.191 C 
BRANCH   8   9
ATOM      9  O   UNL     1      12.077  -2.762   9.885  1.00  0.00    -0.394 OA
ATOM     10  H   UNL     1      11.497  -2.238  10.497  1.00  0.00     0.210 HD
ENDBRANCH   8   9
ENDBRANCH   3   8
BRANCH   4  11
ATOM     11  O   UNL     1      10.373  -3.541   7.736  1.00  0.00    -0.387 OA
ATOM     12  H   UNL     1      11.154  -3.113   7.301  1.00  0.00     0.211 HD
ENDBRANCH   4  11
BRANCH   6  13
ATOM     13  O   UNL     1       9.864  -5.429   5.850  1.00  0.00    -0.387 OA
ATOM     14  H   UNL     1       9.045  -5.295   6.390  1.00  0.00     0.211 HD
ENDBRANCH   6  13
BRANCH   7  15
ATOM     15  O   UNL     1      12.546  -6.266   5.033  1.00  0.00    -0.385 OA
ATOM     16  H   UNL     1      12.355  -5.790   4.184  1.00  0.00     0.211 HD
ENDBRANCH   7  15
ENDBRANCH   1   2
BRANCH   1  17
ATOM     17  C   UNL     1      15.749  -5.867   6.830  1.00  0.00     0.224 C 
ATOM     18  C   UNL     1      16.016  -6.892   5.684  1.00  0.00     0.208 C 
ATOM     19  O   UNL     1      16.871  -5.007   6.895  1.00  0.00    -0.337 OA
ATOM     20  C   UNL     1      17.431  -6.592   5.241  1.00  0.00     0.180 C 
ATOM     21  C   UNL     1      17.597  -5.155   5.702  1.00  0.00     0.179 C 
BRANCH  17  22
ATOM     22  C   UNL     1      15.638  -6.538   8.227  1.00  0.00     0.225 C 
BRANCH  22  23
ATOM     23  O   UNL     1      16.872  -7.078   8.620  1.00  0.00    -0.391 OA
ATOM     24  H   UNL     1      17.289  -6.420   9.233  1.00  0.00     0.210 HD
ENDBRANCH  22  23
ENDBRANCH  17  22
BRANCH  18  25
ATOM     25  O   UNL     1      15.894  -8.235   6.089  1.00  0.00    -0.385 OA
ATOM     26  H   UNL     1      15.308  -8.690   5.434  1.00  0.00     0.211 HD
ENDBRANCH  18  25
BRANCH  20  27
ATOM     27  O   UNL     1      18.351  -7.435   5.892  1.00  0.00    -0.387 OA
ATOM     28  H   UNL     1      18.314  -7.205   6.854  1.00  0.00     0.211 HD
ENDBRANCH  20  27
BRANCH  21  29
ATOM     29  C   UNL     1      19.055  -4.738   5.914  1.00  0.00     0.191 C 
BRANCH  29  30
ATOM     30  O   UNL     1      19.479  -5.150   7.180  1.00  0.00    -0.394 OA
ATOM     31  H   UNL     1      19.285  -4.394   7.796  1.00  0.00     0.210 HD
ENDBRANCH  29  30
ENDBRANCH  21  29
ENDBRANCH   1  17
TORSDOF 13
ENDMDL
MODEL 2
REMARK VINA RESULT:    -4.143     10.105     12.089
REMARK INTER + INTRA:          -7.837
REMARK INTER:                  -6.326
REMARK INTRA:                  -1.511
REMARK UNBOUND:                -1.515
REMARK SMILES OC[C@@H]1O[C@@](CO)(O[C@H]2O[C@@H](CO)[C@@H](O)[C@@H](O)[C@@H]2O)[C@H](O)[C@@H]1O
REMARK SMILES IDX 8 1 9 2 11 3 14 4 10 5 16 6 18 7 12 8 13 9 15 11 17 13 19 15
REMARK SMILES IDX 5 17 20 18 4 19 22 20 3 21 6 22 7 23 21 25 23 27 2 29 1 30
REMARK H PARENT 13 10 15 12 17 14 19 16 7 24 21 26 23 28 1 31
REMARK Flexibility Score: inf
ROOT
ATOM      1  O   UNL     1      18.434 -15.238   9.725  1.00  0.00    -0.313 OA
ENDROOT
BRANCH   1   2
ATOM      2  C   UNL     1      17.414 -16.096   9.238  1.00  0.00     0.285 C 
ATOM      3  C   UNL     1      16.366 -18.146   9.606  1.00  0.00     0.178 C 
ATOM      4  C   UNL     1      14.936 -17.544   9.619  1.00  0.00     0.177 C 
ATOM      5  O   UNL     1      17.297 -17.207  10.112  1.00  0.00    -0.341 OA
ATOM      6  C   UNL     1      14.909 -16.227   8.820  1.00  0.00     0.179 C 
ATOM      7  C   UNL     1      16.085 -15.307   9.229  1.00  0.00     0.202 C 
BRANCH   3   8
ATOM      8  C   UNL     1      16.454 -19.425  10.446  1.00  0.00     0.191 C 
BRANCH   8   9
ATOM      9  O   UNL     1      17.076 -19.156  11.671  1.00  0.00    -0.394 OA
ATOM     10  H   UNL     1      17.887 -19.728  11.697  1.00  0.00     0.210 HD
ENDBRANCH   8   9
ENDBRANCH   3   8
BRANCH   4  11
ATOM     11  O   UNL     1      14.457 -17.355  10.929  1.00  0.00    -0.387 OA
ATOM     12  H   UNL     1      14.625 -16.413  11.186  1.00  0.00     0.211 HD
ENDBRANCH   4  11
BRANCH   6  13
ATOM     13  O   UNL     1      13.676 -15.584   9.023  1.00  0.00    -0.387 OA
ATOM     14  H   UNL     1      13.838 -14.826   9.639  1.00  0.00     0.211 HD
ENDBRANCH   6  13
BRANCH   7  15
ATOM     15  O   UNL     1      16.168 -14.195   8.371  1.00  0.00    -0.385 OA
ATOM     16  H   UNL     1      17.069 -13.792   8.476  1.00  0.00     0.211 HD
ENDBRANCH   7  15
ENDBRANCH   1   2
BRANCH   1  17
ATOM     17  C   UNL     1      19.670 -15.316   9.009  1.00  0.00     0.224 C 
ATOM     18  C   UNL     1      20.598 -14.110   9.352  1.00  0.00     0.208 C 
ATOM     19  O   UNL     1      20.321 -16.489   9.461  1.00  0.00    -0.337 OA
ATOM     20  C   UNL     1      21.856 -14.752   9.895  1.00  0.00     0.180 C 
ATOM     21  C   UNL     1      21.335 -16.102  10.353  1.00  0.00     0.179 C 
BRANCH  17  22
ATOM     22  C   UNL     1      19.459 -15.502   7.481  1.00  0.00     0.225 C 
BRANCH  22  23
ATOM     23  O   UNL     1      20.661 -15.857   6.851  1.00  0.00    -0.391 OA
ATOM     24  H   UNL     1      20.445 -16.580   6.209  1.00  0.00     0.210 HD
ENDBRANCH  22  23
ENDBRANCH  17  22
BRANCH  18  25
ATOM     25  O   UNL     1      20.894 -13.294   8.242  1.00  0.00    -0.385 OA
ATOM     26  H   UNL     1      20.072 -13.229   7.696  1.00  0.00     0.211 HD
ENDBRANCH  18  25
BRANCH  20  27
ATOM     27  O   UNL     1      22.820 -14.905   8.882  1.00  0.00    -0.387 OA
ATOM     28  H   UNL     1      22.711 -15.822   8.523  1.00  0.00     0.211 HD
ENDBRANCH  20  27
BRANCH  21  29
ATOM     29  C   UNL     1      22.413 -17.187  10.431  1.00  0.00     0.191 C 
BRANCH  29  30
ATOM     30  O   UNL     1      22.351 -17.989   9.288  1.00  0.00    -0.394 OA
ATOM     31  H   UNL     1      21.970 -17.418   8.570  1.00  0.00     0.210 HD
ENDBRANCH  29  30
ENDBRANCH  21  29
ENDBRANCH   1  17
TORSDOF 13
ENDMDL
MODEL 3
REMARK VINA RESULT:    -4.140      9.354     11.391
REMARK INTER + INTRA:          -7.832
REMARK INTER:                  -6.188
REMARK INTRA:                  -1.645
REMARK UNBOUND:                -1.515
REMARK SMILES OC[C@@H]1O[C@@](CO)(O[C@H]2O[C@@H](CO)[C@@H](O)[C@@H](O)[C@@H]2O)[C@H](O)[C@@H]1O
REMARK SMILES IDX 8 1 9 2 11 3 14 4 10 5 16 6 18 7 12 8 13 9 15 11 17 13 19 15
REMARK SMILES IDX 5 17 20 18 4 19 22 20 3 21 6 22 7 23 21 25 23 27 2 29 1 30
REMARK H PARENT 13 10 15 12 17 14 19 16 7 24 21 26 23 28 1 31
REMARK Flexibility Score: inf
ROOT
ATOM      1  O   UNL     1      18.801 -15.886   7.732  1.00  0.00    -0.313 OA
ENDROOT
BRANCH   1   2
ATOM      2  C   UNL     1      17.846 -15.489   8.703  1.00  0.00     0.285 C 
ATOM      3  C   UNL     1      15.953 -14.166   9.029  1.00  0.00     0.178 C 
ATOM      4  C   UNL     1      15.109 -15.320   9.632  1.00  0.00     0.177 C 
ATOM      5  O   UNL     1      16.868 -14.676   8.075  1.00  0.00    -0.341 OA
ATOM      6  C   UNL     1      16.034 -16.390  10.243  1.00  0.00     0.179 C 
ATOM      7  C   UNL     1      17.172 -16.763   9.263  1.00  0.00     0.202 C 
BRANCH   3   8
ATOM      8  C   UNL     1      15.075 -13.111   8.350  1.00  0.00     0.191 C 
BRANCH   8   9
ATOM      9  O   UNL     1      13.857 -12.985   9.030  1.00  0.00    -0.394 OA
ATOM     10  H   UNL     1      13.964 -13.492   9.877  1.00  0.00     0.210 HD
ENDBRANCH   8   9
ENDBRANCH   3   8
BRANCH   4  11
ATOM     11  O   UNL     1      14.236 -15.884   8.682  1.00  0.00    -0.387 OA
ATOM     12  H   UNL     1      14.600 -15.698   7.779  1.00  0.00     0.211 HD
ENDBRANCH   4  11
BRANCH   6  13
ATOM     13  O   UNL     1      15.275 -17.522  10.583  1.00  0.00    -0.387 OA
ATOM     14  H   UNL     1      14.391 -17.427  10.147  1.00  0.00     0.211 HD
ENDBRANCH   6  13
BRANCH   7  15
ATOM     15  O   UNL     1      18.117 -17.594   9.892  1.00  0.00    -0.385 OA
ATOM     16  H   UNL     1      17.797 -18.531   9.822  1.00  0.00     0.211 HD
ENDBRANCH   7  15
ENDBRANCH   1   2
BRANCH   1  17
ATOM     17  C   UNL     1      20.114 -15.359   7.939  1.00  0.00     0.224 C 
ATOM     18  C   UNL     1      20.218 -14.627   9.314  1.00  0.00     0.208 C 
ATOM     19  O   UNL     1      20.988 -16.471   7.988  1.00  0.00    -0.337 OA
ATOM     20  C   UNL     1      21.323 -15.361  10.042  1.00  0.00     0.180 C 
ATOM     21  C   UNL     1      21.314 -16.704   9.335  1.00  0.00     0.179 C 
BRANCH  17  22
ATOM     22  C   UNL     1      20.597 -14.483   6.751  1.00  0.00     0.225 C 
BRANCH  22  23
ATOM     23  O   UNL     1      21.960 -14.178   6.876  1.00  0.00    -0.391 OA
ATOM     24  H   UNL     1      22.435 -14.695   6.176  1.00  0.00     0.210 HD
ENDBRANCH  22  23
ENDBRANCH  17  22
BRANCH  18  25
ATOM     25  O   UNL     1      20.521 -13.256   9.201  1.00  0.00    -0.385 OA
ATOM     26  H   UNL     1      20.792 -12.938  10.097  1.00  0.00     0.211 HD
ENDBRANCH  18  25
BRANCH  20  27
ATOM     27  O   UNL     1      22.559 -14.712   9.868  1.00  0.00    -0.387 OA
ATOM     28  H   UNL     1      23.257 -15.412   9.921  1.00  0.00     0.211 HD
ENDBRANCH  20  27
BRANCH  21  29
ATOM     29  C   UNL     1      22.639 -17.464   9.435  1.00  0.00     0.191 C 
BRANCH  29  30
ATOM     30  O   UNL     1      22.940 -17.704  10.778  1.00  0.00    -0.394 OA
ATOM     31  H   UNL     1      22.123 -18.108  11.176  1.00  0.00     0.210 HD
ENDBRANCH  29  30
ENDBRANCH  21  29
ENDBRANCH   1  17
TORSDOF 13
ENDMDL
MODEL 4
REMARK VINA RESULT:    -4.134     16.344     17.819
REMARK INTER + INTRA:          -7.824
REMARK INTER:                  -6.448
REMARK INTRA:                  -1.376
REMARK UNBOUND:                -1.515
REMARK SMILES OC[C@@H]1O[C@@](CO)(O[C@H]2O[C@@H](CO)[C@@H](O)[C@@H](O)[C@@H]2O)[C@H](O)[C@@H]1O
REMARK SMILES IDX 8 1 9 2 11 3 14 4 10 5 16 6 18 7 12 8 13 9 15 11 17 13 19 15
REMARK SMILES IDX 5 17 20 18 4 19 22 20 3 21 6 22 7 23 21 25 23 27 2 29 1 30
REMARK H PARENT 13 10 15 12 17 14 19 16 7 24 21 26 23 28 1 31
REMARK Flexibility Score: inf
ROOT
ATOM      1  O   UNL     1      12.857 -16.245  20.461  1.00  0.00    -0.313 OA
ENDROOT
BRANCH   1   2
ATOM      2  C   UNL     1      12.219 -17.277  19.725  1.00  0.00     0.285 C 
ATOM      3  C   UNL     1      10.331 -18.644  19.681  1.00  0.00     0.178 C 
ATOM      4  C   UNL     1       9.958 -18.279  18.220  1.00  0.00     0.177 C 
ATOM      5  O   UNL     1      10.958 -17.544  20.316  1.00  0.00    -0.341 OA
ATOM      6  C   UNL     1      11.213 -17.816  17.453  1.00  0.00     0.179 C 
ATOM      7  C   UNL     1      12.013 -16.778  18.277  1.00  0.00     0.202 C 
BRANCH   3   8
ATOM      8  C   UNL     1       9.100 -19.047  20.500  1.00  0.00     0.191 C 
BRANCH   8   9
ATOM      9  O   UNL     1       8.914 -20.434  20.442  1.00  0.00    -0.394 OA
ATOM     10  H   UNL     1       9.104 -20.773  21.355  1.00  0.00     0.210 HD
ENDBRANCH   8   9
ENDBRANCH   3   8
BRANCH   4  11
ATOM     11  O   UNL     1       8.940 -17.308  18.164  1.00  0.00    -0.387 OA
ATOM     12  H   UNL     1       8.933 -16.819  19.025  1.00  0.00     0.211 HD
ENDBRANCH   4  11
BRANCH   6  13
ATOM     13  O   UNL     1      10.829 -17.282  16.211  1.00  0.00    -0.387 OA
ATOM     14  H   UNL     1      11.320 -17.782  15.511  1.00  0.00     0.211 HD
ENDBRANCH   6  13
BRANCH   7  15
ATOM     15  O   UNL     1      13.247 -16.501  17.661  1.00  0.00    -0.385 OA
ATOM     16  H   UNL     1      13.466 -15.547  17.827  1.00  0.00     0.211 HD
ENDBRANCH   7  15
ENDBRANCH   1   2
BRANCH   1  17
ATOM     17  C   UNL     1      14.022 -16.659  21.179  1.00  0.00     0.224 C 
ATOM     18  C   UNL     1      14.637 -17.952  20.560  1.00  0.00     0.208 C 
ATOM     19  O   UNL     1      14.976 -15.625  21.025  1.00  0.00    -0.337 OA
ATOM     20  C   UNL     1      16.049 -17.552  20.192  1.00  0.00     0.180 C 
ATOM     21  C   UNL     1      15.917 -16.044  20.070  1.00  0.00     0.179 C 
BRANCH  17  22
ATOM     22  C   UNL     1      13.765 -16.783  22.706  1.00  0.00     0.225 C 
BRANCH  22  23
ATOM     23  O   UNL     1      12.734 -17.698  22.966  1.00  0.00    -0.391 OA
ATOM     24  H   UNL     1      12.145 -17.280  23.645  1.00  0.00     0.210 HD
ENDBRANCH  22  23
ENDBRANCH  17  22
BRANCH  18  25
ATOM     25  O   UNL     1      14.644 -19.051  21.442  1.00  0.00    -0.385 OA
ATOM     26  H   UNL     1      15.559 -19.425  21.441  1.00  0.00     0.211 HD
ENDBRANCH  18  25
BRANCH  20  27
ATOM     27  O   UNL     1      16.952 -17.893  21.215  1.00  0.00    -0.387 OA
ATOM     28  H   UNL     1      17.067 -17.084  21.773  1.00  0.00     0.211 HD
ENDBRANCH  20  27
BRANCH  21  29
ATOM     29  C   UNL     1      17.236 -15.291  20.259  1.00  0.00     0.191 C 
BRANCH  29  30
ATOM     30  O   UNL     1      17.468 -15.091  21.623  1.00  0.00    -0.394 OA
ATOM     31  H   UNL     1      18.170 -14.390  21.683  1.00  0.00     0.210 HD
ENDBRANCH  29  30
ENDBRANCH  21  29
ENDBRANCH   1  17
TORSDOF 13
ENDMDL
MODEL 5
REMARK VINA RESULT:    -4.020     10.706     13.639
REMARK INTER + INTRA:          -7.650
REMARK INTER:                  -6.128
REMARK INTRA:                  -1.522
REMARK UNBOUND:                -1.515
REMARK SMILES OC[C@@H]1O[C@@](CO)(O[C@H]2O[C@@H](CO)[C@@H](O)[C@@H](O)[C@@H]2O)[C@H](O)[C@@H]1O
REMARK SMILES IDX 8 1 9 2 11 3 14 4 10 5 16 6 18 7 12 8 13 9 15 11 17 13 19 15
REMARK SMILES IDX 5 17 20 18 4 19 22 20 3 21 6 22 7 23 21 25 23 27 2 29 1 30
REMARK H PARENT 13 10 15 12 17 14 19 16 7 24 21 26 23 28 1 31
REMARK Flexibility Score: inf
ROOT
ATOM      1  O   UNL     1      18.189 -17.087   8.747  1.00  0.00    -0.313 OA
ENDROOT
BRANCH   1   2
ATOM      2  C   UNL     1      19.099 -16.210   9.393  1.00  0.00     0.285 C 
ATOM      3  C   UNL     1      21.204 -16.109  10.391  1.00  0.00     0.178 C 
ATOM      4  C   UNL     1      21.679 -14.905   9.536  1.00  0.00     0.177 C 
ATOM      5  O   UNL     1      20.304 -16.912   9.648  1.00  0.00    -0.341 OA
ATOM      6  C   UNL     1      20.465 -14.094   9.041  1.00  0.00     0.179 C 
ATOM      7  C   UNL     1      19.385 -15.027   8.440  1.00  0.00     0.202 C 
BRANCH   3   8
ATOM      8  C   UNL     1      22.377 -16.981  10.850  1.00  0.00     0.191 C 
BRANCH   8   9
ATOM      9  O   UNL     1      22.736 -17.878   9.836  1.00  0.00    -0.394 OA
ATOM     10  H   UNL     1      23.627 -18.235  10.091  1.00  0.00     0.210 HD
ENDBRANCH   8   9
ENDBRANCH   3   8
BRANCH   4  11
ATOM     11  O   UNL     1      22.492 -15.312   8.461  1.00  0.00    -0.387 OA
ATOM     12  H   UNL     1      22.741 -14.507   7.940  1.00  0.00     0.211 HD
ENDBRANCH   4  11
BRANCH   6  13
ATOM     13  O   UNL     1      20.892 -13.147   8.094  1.00  0.00    -0.387 OA
ATOM     14  H   UNL     1      21.866 -13.022   8.222  1.00  0.00     0.211 HD
ENDBRANCH   6  13
BRANCH   7  15
ATOM     15  O   UNL     1      18.207 -14.309   8.164  1.00  0.00    -0.385 OA
ATOM     16  H   UNL     1      18.066 -14.316   7.182  1.00  0.00     0.211 HD
ENDBRANCH   7  15
ENDBRANCH   1   2
BRANCH   1  17
ATOM     17  C   UNL     1      16.951 -17.274   9.438  1.00  0.00     0.224 C 
ATOM     18  C   UNL     1      15.771 -17.480   8.437  1.00  0.00     0.208 C 
ATOM     19  O   UNL     1      17.085 -18.472  10.180  1.00  0.00    -0.337 OA
ATOM     20  C   UNL     1      15.202 -18.831   8.807  1.00  0.00     0.180 C 
ATOM     21  C   UNL     1      16.386 -19.482   9.499  1.00  0.00     0.179 C 
BRANCH  17  22
ATOM     22  C   UNL     1      16.675 -16.152  10.476  1.00  0.00     0.225 C 
BRANCH  22  23
ATOM     23  O   UNL     1      15.572 -16.476  11.280  1.00  0.00    -0.391 OA
ATOM     24  H   UNL     1      15.045 -17.152  10.783  1.00  0.00     0.210 HD
ENDBRANCH  22  23
ENDBRANCH  17  22
BRANCH  18  25
ATOM     25  O   UNL     1      14.782 -16.481   8.520  1.00  0.00    -0.385 OA
ATOM     26  H   UNL     1      15.205 -15.624   8.267  1.00  0.00     0.211 HD
ENDBRANCH  18  25
BRANCH  20  27
ATOM     27  O   UNL     1      14.118 -18.695   9.694  1.00  0.00    -0.387 OA
ATOM     28  H   UNL     1      13.705 -19.591   9.777  1.00  0.00     0.211 HD
ENDBRANCH  20  27
BRANCH  21  29
ATOM     29  C   UNL     1      15.997 -20.602  10.468  1.00  0.00     0.191 C 
BRANCH  29  30
ATOM     30  O   UNL     1      15.834 -20.074  11.751  1.00  0.00    -0.394 OA
ATOM     31  H   UNL     1      15.765 -20.853  12.364  1.00  0.00     0.210 HD
ENDBRANCH  29  30
ENDBRANCH  21  29
ENDBRANCH   1  17
TORSDOF 13
ENDMDL
MODEL 6
REMARK VINA RESULT:    -4.000      2.827      5.895
REMARK INTER + INTRA:          -7.620
REMARK INTER:                  -6.223
REMARK INTRA:                  -1.397
REMARK UNBOUND:                -1.515
REMARK SMILES OC[C@@H]1O[C@@](CO)(O[C@H]2O[C@@H](CO)[C@@H](O)[C@@H](O)[C@@H]2O)[C@H](O)[C@@H]1O
REMARK SMILES IDX 8 1 9 2 11 3 14 4 10 5 16 6 18 7 12 8 13 9 15 11 17 13 19 15
REMARK SMILES IDX 5 17 20 18 4 19 22 20 3 21 6 22 7 23 21 25 23 27 2 29 1 30
REMARK H PARENT 13 10 15 12 17 14 19 16 7 24 21 26 23 28 1 31
REMARK Flexibility Score: inf
ROOT
ATOM      1  O   UNL     1      15.578  -7.330   8.610  1.00  0.00    -0.313 OA
ENDROOT
BRANCH   1   2
ATOM      2  C   UNL     1      15.667  -6.354   7.584  1.00  0.00     0.285 C 
ATOM      3  C   UNL     1      17.159  -4.958   6.459  1.00  0.00     0.178 C 
ATOM      4  C   UNL     1      16.729  -5.442   5.049  1.00  0.00     0.177 C 
ATOM      5  O   UNL     1      17.031  -6.011   7.399  1.00  0.00    -0.341 OA
ATOM      6  C   UNL     1      15.291  -5.995   5.095  1.00  0.00     0.179 C 
ATOM      7  C   UNL     1      15.111  -6.972   6.281  1.00  0.00     0.202 C 
BRANCH   3   8
ATOM      8  C   UNL     1      18.608  -4.461   6.475  1.00  0.00     0.191 C 
BRANCH   8   9
ATOM      9  O   UNL     1      19.406  -5.323   7.238  1.00  0.00    -0.394 OA
ATOM     10  H   UNL     1      19.564  -6.122   6.671  1.00  0.00     0.210 HD
ENDBRANCH   8   9
ENDBRANCH   3   8
BRANCH   4  11
ATOM     11  O   UNL     1      17.624  -6.394   4.525  1.00  0.00    -0.387 OA
ATOM     12  H   UNL     1      18.184  -6.733   5.268  1.00  0.00     0.211 HD
ENDBRANCH   4  11
BRANCH   6  13
ATOM     13  O   UNL     1      14.996  -6.627   3.875  1.00  0.00    -0.387 OA
ATOM     14  H   UNL     1      14.879  -5.917   3.195  1.00  0.00     0.211 HD
ENDBRANCH   6  13
BRANCH   7  15
ATOM     15  O   UNL     1      13.757  -7.327   6.432  1.00  0.00    -0.385 OA
ATOM     16  H   UNL     1      13.714  -8.299   6.623  1.00  0.00     0.211 HD
ENDBRANCH   7  15
ENDBRANCH   1   2
BRANCH   1  17
ATOM     17  C   UNL     1      14.749  -6.959   9.714  1.00  0.00     0.224 C 
ATOM     18  C   UNL     1      13.765  -8.110  10.093  1.00  0.00     0.208 C 
ATOM     19  O   UNL     1      15.615  -6.766  10.817  1.00  0.00    -0.337 OA
ATOM     20  C   UNL     1      14.090  -8.414  11.539  1.00  0.00     0.180 C 
ATOM     21  C   UNL     1      15.512  -7.894  11.648  1.00  0.00     0.179 C 
BRANCH  17  22
ATOM     22  C   UNL     1      14.031  -5.600   9.487  1.00  0.00     0.225 C 
BRANCH  22  23
ATOM     23  O   UNL     1      13.495  -5.112  10.688  1.00  0.00    -0.391 OA
ATOM     24  H   UNL     1      14.154  -4.469  11.054  1.00  0.00     0.210 HD
ENDBRANCH  22  23
ENDBRANCH  17  22
BRANCH  18  25
ATOM     25  O   UNL     1      12.408  -7.761   9.949  1.00  0.00    -0.385 OA
ATOM     26  H   UNL     1      11.955  -7.978  10.801  1.00  0.00     0.211 HD
ENDBRANCH  18  25
BRANCH  20  27
ATOM     27  O   UNL     1      13.233  -7.712  12.406  1.00  0.00    -0.387 OA
ATOM     28  H   UNL     1      12.351  -8.158  12.354  1.00  0.00     0.211 HD
ENDBRANCH  20  27
BRANCH  21  29
ATOM     29  C   UNL     1      15.933  -7.539  13.077  1.00  0.00     0.191 C 
BRANCH  29  30
ATOM     30  O   UNL     1      15.666  -8.618  13.924  1.00  0.00    -0.394 OA
ATOM     31  H   UNL     1      16.550  -8.994  14.180  1.00  0.00     0.210 HD
ENDBRANCH  29  30
ENDBRANCH  21  29
ENDBRANCH   1  17
TORSDOF 13
ENDMDL
MODEL 7
REMARK VINA RESULT:    -3.999     10.240     13.277
REMARK INTER + INTRA:          -7.618
REMARK INTER:                  -6.121
REMARK INTRA:                  -1.497
REMARK UNBOUND:                -1.515
REMARK SMILES OC[C@@H]1O[C@@](CO)(O[C@H]2O[C@@H](CO)[C@@H](O)[C@@H](O)[C@@H]2O)[C@H](O)[C@@H]1O
REMARK SMILES IDX 8 1 9 2 11 3 14 4 10 5 16 6 18 7 12 8 13 9 15 11 17 13 19 15
REMARK SMILES IDX 5 17 20 18 4 19 22 20 3 21 6 22 7 23 21 25 23 27 2 29 1 30
REMARK H PARENT 13 10 15 12 17 14 19 16 7 24 21 26 23 28 1 31
REMARK Flexibility Score: inf
ROOT
ATOM      1  O   UNL     1      18.515 -17.182   8.054  1.00  0.00    -0.313 OA
ENDROOT
BRANCH   1   2
ATOM      2  C   UNL     1      19.246 -16.396   8.981  1.00  0.00     0.285 C 
ATOM      3  C   UNL     1      21.204 -16.341  10.247  1.00  0.00     0.178 C 
ATOM      4  C   UNL     1      21.637 -14.944   9.730  1.00  0.00     0.177 C 
ATOM      5  O   UNL     1      20.485 -17.034   9.243  1.00  0.00    -0.341 OA
ATOM      6  C   UNL     1      20.404 -14.148   9.257  1.00  0.00     0.179 C 
ATOM      7  C   UNL     1      19.506 -15.014   8.340  1.00  0.00     0.202 C 
BRANCH   3   8
ATOM      8  C   UNL     1      22.407 -17.193  10.666  1.00  0.00     0.191 C 
BRANCH   8   9
ATOM      9  O   UNL     1      22.855 -17.960   9.583  1.00  0.00    -0.394 OA
ATOM     10  H   UNL     1      22.057 -18.124   9.016  1.00  0.00     0.210 HD
ENDBRANCH   8   9
ENDBRANCH   3   8
BRANCH   4  11
ATOM     11  O   UNL     1      22.603 -15.038   8.710  1.00  0.00    -0.387 OA
ATOM     12  H   UNL     1      23.025 -15.933   8.766  1.00  0.00     0.211 HD
ENDBRANCH   4  11
BRANCH   6  13
ATOM     13  O   UNL     1      20.827 -12.986   8.592  1.00  0.00    -0.387 OA
ATOM     14  H   UNL     1      21.799 -12.890   8.756  1.00  0.00     0.211 HD
ENDBRANCH   6  13
BRANCH   7  15
ATOM     15  O   UNL     1      18.294 -14.352   8.066  1.00  0.00    -0.385 OA
ATOM     16  H   UNL     1      17.613 -15.039   7.843  1.00  0.00     0.211 HD
ENDBRANCH   7  15
ENDBRANCH   1   2
BRANCH   1  17
ATOM     17  C   UNL     1      17.286 -17.710   8.561  1.00  0.00     0.224 C 
ATOM     18  C   UNL     1      17.193 -17.539  10.109  1.00  0.00     0.208 C 
ATOM     19  O   UNL     1      16.251 -16.931   7.990  1.00  0.00    -0.337 OA
ATOM     20  C   UNL     1      15.939 -16.719  10.318  1.00  0.00     0.180 C 
ATOM     21  C   UNL     1      15.794 -16.035   8.971  1.00  0.00     0.179 C 
BRANCH  17  22
ATOM     22  C   UNL     1      17.032 -19.171   8.098  1.00  0.00     0.225 C 
BRANCH  22  23
ATOM     23  O   UNL     1      15.720 -19.568   8.395  1.00  0.00    -0.391 OA
ATOM     24  H   UNL     1      15.244 -19.654   7.530  1.00  0.00     0.210 HD
ENDBRANCH  22  23
ENDBRANCH  17  22
BRANCH  18  25
ATOM     25  O   UNL     1      17.114 -18.760  10.807  1.00  0.00    -0.385 OA
ATOM     26  H   UNL     1      17.031 -19.480  10.134  1.00  0.00     0.211 HD
ENDBRANCH  18  25
BRANCH  20  27
ATOM     27  O   UNL     1      14.833 -17.549  10.579  1.00  0.00    -0.387 OA
ATOM     28  H   UNL     1      14.739 -17.594  11.563  1.00  0.00     0.211 HD
ENDBRANCH  20  27
BRANCH  21  29
ATOM     29  C   UNL     1      14.364 -15.588   8.655  1.00  0.00     0.191 C 
BRANCH  29  30
ATOM     30  O   UNL     1      13.831 -14.914   9.757  1.00  0.00    -0.394 OA
ATOM     31  H   UNL     1      14.272 -14.023   9.776  1.00  0.00     0.210 HD
ENDBRANCH  29  30
ENDBRANCH  21  29
ENDBRANCH   1  17
TORSDOF 13
ENDMDL
MODEL 8
REMARK VINA RESULT:    -3.933     10.279     12.120
REMARK INTER + INTRA:          -7.517
REMARK INTER:                  -6.305
REMARK INTRA:                  -1.211
REMARK UNBOUND:                -1.515
REMARK SMILES OC[C@@H]1O[C@@](CO)(O[C@H]2O[C@@H](CO)[C@@H](O)[C@@H](O)[C@@H]2O)[C@H](O)[C@@H]1O
REMARK SMILES IDX 8 1 9 2 11 3 14 4 10 5 16 6 18 7 12 8 13 9 15 11 17 13 19 15
REMARK SMILES IDX 5 17 20 18 4 19 22 20 3 21 6 22 7 23 21 25 23 27 2 29 1 30
REMARK H PARENT 13 10 15 12 17 14 19 16 7 24 21 26 23 28 1 31
REMARK Flexibility Score: inf
ROOT
ATOM      1  O   UNL     1      19.442 -15.746   9.844  1.00  0.00    -0.313 OA
ENDROOT
BRANCH   1   2
ATOM      2  C   UNL     1      18.303 -16.390   9.297  1.00  0.00     0.285 C 
ATOM      3  C   UNL     1      16.797 -18.136   9.648  1.00  0.00     0.178 C 
ATOM      4  C   UNL     1      15.541 -17.238   9.496  1.00  0.00     0.177 C 
ATOM      5  O   UNL     1      17.868 -17.392  10.202  1.00  0.00    -0.341 OA
ATOM      6  C   UNL     1      15.877 -15.999   8.643  1.00  0.00     0.179 C 
ATOM      7  C   UNL     1      17.188 -15.333   9.126  1.00  0.00     0.202 C 
BRANCH   3   8
ATOM      8  C   UNL     1      16.526 -19.348  10.546  1.00  0.00     0.191 C 
BRANCH   8   9
ATOM      9  O   UNL     1      17.116 -19.159  11.802  1.00  0.00    -0.394 OA
ATOM     10  H   UNL     1      16.963 -18.206  12.035  1.00  0.00     0.210 HD
ENDBRANCH   8   9
ENDBRANCH   3   8
BRANCH   4  11
ATOM     11  O   UNL     1      15.006 -16.867  10.744  1.00  0.00    -0.387 OA
ATOM     12  H   UNL     1      14.626 -15.955  10.659  1.00  0.00     0.211 HD
ENDBRANCH   4  11
BRANCH   6  13
ATOM     13  O   UNL     1      14.805 -15.091   8.698  1.00  0.00    -0.387 OA
ATOM     14  H   UNL     1      14.240 -15.254   7.900  1.00  0.00     0.211 HD
ENDBRANCH   6  13
BRANCH   7  15
ATOM     15  O   UNL     1      17.589 -14.322   8.233  1.00  0.00    -0.385 OA
ATOM     16  H   UNL     1      16.952 -13.566   8.319  1.00  0.00     0.211 HD
ENDBRANCH   7  15
ENDBRANCH   1   2
BRANCH   1  17
ATOM     17  C   UNL     1      20.680 -16.094   9.218  1.00  0.00     0.224 C 
ATOM     18  C   UNL     1      20.440 -16.859   7.878  1.00  0.00     0.208 C 
ATOM     19  O   UNL     1      21.322 -14.874   8.895  1.00  0.00    -0.337 OA
ATOM     20  C   UNL     1      21.133 -16.009   6.837  1.00  0.00     0.180 C 
ATOM     21  C   UNL     1      21.160 -14.652   7.517  1.00  0.00     0.179 C 
BRANCH  17  22
ATOM     22  C   UNL     1      21.641 -16.845  10.179  1.00  0.00     0.225 C 
BRANCH  22  23
ATOM     23  O   UNL     1      21.972 -16.044  11.282  1.00  0.00    -0.391 OA
ATOM     24  H   UNL     1      21.450 -16.387  12.051  1.00  0.00     0.210 HD
ENDBRANCH  22  23
ENDBRANCH  17  22
BRANCH  18  25
ATOM     25  O   UNL     1      20.957 -18.169   7.878  1.00  0.00    -0.385 OA
ATOM     26  H   UNL     1      20.188 -18.790   7.842  1.00  0.00     0.211 HD
ENDBRANCH  18  25
BRANCH  20  27
ATOM     27  O   UNL     1      22.440 -16.473   6.596  1.00  0.00    -0.387 OA
ATOM     28  H   UNL     1      22.538 -17.317   7.104  1.00  0.00     0.211 HD
ENDBRANCH  20  27
BRANCH  21  29
ATOM     29  C   UNL     1      22.258 -13.721   6.998  1.00  0.00     0.191 C 
BRANCH  29  30
ATOM     30  O   UNL     1      23.415 -13.892   7.763  1.00  0.00    -0.394 OA
ATOM     31  H   UNL     1      23.457 -14.859   7.989  1.00  0.00     0.210 HD
ENDBRANCH  29  30
ENDBRANCH  21  29
ENDBRANCH   1  17
TORSDOF 13
ENDMDL
MODEL 9
REMARK VINA RESULT:    -3.874     15.082     17.628
REMARK INTER + INTRA:          -7.427
REMARK INTER:                  -5.870
REMARK INTRA:                  -1.557
REMARK UNBOUND:                -1.515
REMARK SMILES OC[C@@H]1O[C@@](CO)(O[C@H]2O[C@@H](CO)[C@@H](O)[C@@H](O)[C@@H]2O)[C@H](O)[C@@H]1O
REMARK SMILES IDX 8 1 9 2 11 3 14 4 10 5 16 6 18 7 12 8 13 9 15 11 17 13 19 15
REMARK SMILES IDX 5 17 20 18 4 19 22 20 3 21 6 22 7 23 21 25 23 27 2 29 1 30
REMARK H PARENT 13 10 15 12 17 14 19 16 7 24 21 26 23 28 1 31
REMARK Flexibility Score: inf
ROOT
ATOM      1  O   UNL     1      16.679 -14.627  21.346  1.00  0.00    -0.313 OA
ENDROOT
BRANCH   1   2
ATOM      2  C   UNL     1      17.445 -14.047  20.302  1.00  0.00     0.285 C 
ATOM      3  C   UNL     1      17.544 -12.224  18.851  1.00  0.00     0.178 C 
ATOM      4  C   UNL     1      19.002 -11.854  19.230  1.00  0.00     0.177 C 
ATOM      5  O   UNL     1      16.877 -12.792  19.964  1.00  0.00    -0.341 OA
ATOM      6  C   UNL     1      19.741 -13.095  19.766  1.00  0.00     0.179 C 
ATOM      7  C   UNL     1      18.885 -13.836  20.821  1.00  0.00     0.202 C 
BRANCH   3   8
ATOM      8  C   UNL     1      16.751 -11.003  18.375  1.00  0.00     0.191 C 
BRANCH   8   9
ATOM      9  O   UNL     1      17.528 -10.232  17.501  1.00  0.00    -0.394 OA
ATOM     10  H   UNL     1      18.016 -10.879  16.927  1.00  0.00     0.210 HD
ENDBRANCH   8   9
ENDBRANCH   3   8
BRANCH   4  11
ATOM     11  O   UNL     1      19.051 -10.793  20.155  1.00  0.00    -0.387 OA
ATOM     12  H   UNL     1      19.995 -10.669  20.433  1.00  0.00     0.211 HD
ENDBRANCH   4  11
BRANCH   6  13
ATOM     13  O   UNL     1      20.977 -12.703  20.309  1.00  0.00    -0.387 OA
ATOM     14  H   UNL     1      20.829 -11.853  20.795  1.00  0.00     0.211 HD
ENDBRANCH   6  13
BRANCH   7  15
ATOM     15  O   UNL     1      19.478 -15.065  21.168  1.00  0.00    -0.385 OA
ATOM     16  H   UNL     1      20.270 -14.874  21.735  1.00  0.00     0.211 HD
ENDBRANCH   7  15
ENDBRANCH   1   2
BRANCH   1  17
ATOM     17  C   UNL     1      16.117 -15.905  21.032  1.00  0.00     0.224 C 
ATOM     18  C   UNL     1      16.687 -17.017  21.968  1.00  0.00     0.208 C 
ATOM     19  O   UNL     1      14.730 -15.807  21.293  1.00  0.00    -0.337 OA
ATOM     20  C   UNL     1      15.463 -17.595  22.644  1.00  0.00     0.180 C 
ATOM     21  C   UNL     1      14.474 -16.451  22.515  1.00  0.00     0.179 C 
BRANCH  17  22
ATOM     22  C   UNL     1      16.249 -16.257  19.525  1.00  0.00     0.225 C 
BRANCH  22  23
ATOM     23  O   UNL     1      15.500 -17.401  19.213  1.00  0.00    -0.391 OA
ATOM     24  H   UNL     1      14.632 -17.086  18.855  1.00  0.00     0.210 HD
ENDBRANCH  22  23
ENDBRANCH  17  22
BRANCH  18  25
ATOM     25  O   UNL     1      17.400 -18.019  21.282  1.00  0.00    -0.385 OA
ATOM     26  H   UNL     1      16.736 -18.645  20.900  1.00  0.00     0.211 HD
ENDBRANCH  18  25
BRANCH  20  27
ATOM     27  O   UNL     1      15.002 -18.734  21.959  1.00  0.00    -0.387 OA
ATOM     28  H   UNL     1      14.829 -18.453  21.025  1.00  0.00     0.211 HD
ENDBRANCH  20  27
BRANCH  21  29
ATOM     29  C   UNL     1      13.009 -16.890  22.585  1.00  0.00     0.191 C 
BRANCH  29  30
ATOM     30  O   UNL     1      12.833 -17.761  23.663  1.00  0.00    -0.394 OA
ATOM     31  H   UNL     1      13.311 -17.349  24.432  1.00  0.00     0.210 HD
ENDBRANCH  29  30
ENDBRANCH  21  29
ENDBRANCH   1  17
TORSDOF 13
ENDMDL
