MODEL 1
REMARK VINA RESULT:    -3.047      0.000      0.000
REMARK INTER + INTRA:          -4.147
REMARK INTER:                  -3.937
REMARK INTRA:                  -0.209
REMARK UNBOUND:                -0.209
REMARK SMILES CCCCCCC(=O)[O-]
REMARK SMILES IDX 5 1 6 2 7 3 8 4 9 5 4 6 3 7 2 8 1 9
REMARK H PARENT
REMARK Flexibility Score: inf
ROOT
ATOM      1  C   UNL     1     111.748  65.337 217.858  1.00  0.00     0.006 C 
ENDROOT
BRANCH   1   2
ATOM      2  C   UNL     1     113.147  65.898 218.133  1.00  0.00     0.053 C 
BRANCH   2   3
ATOM      3  C   UNL     1     113.506  66.930 217.111  1.00  0.00     0.041 C 
ATOM      4  O   UNL     1     114.000  66.582 216.006  1.00  0.00    -0.550 OA
ATOM      5  O   UNL     1     113.251  68.273 217.359  1.00  0.00    -0.550 OA
ENDBRANCH   2   3
ENDBRANCH   1   2
BRANCH   1   6
ATOM      6  C   UNL     1     111.828  63.941 217.229  1.00  0.00     0.000 C 
BRANCH   6   7
ATOM      7  C   UNL     1     111.569  64.005 215.717  1.00  0.00    -0.000 C 
BRANCH   7   8
ATOM      8  C   UNL     1     110.362  63.156 215.289  1.00  0.00    -0.003 C 
ATOM      9  C   UNL     1     110.319  61.795 215.984  1.00  0.00     0.004 C 
ENDBRANCH   7   8
ENDBRANCH   6   7
ENDBRANCH   1   6
TORSDOF 5
ENDMDL
MODEL 2
REMARK VINA RESULT:    -2.976      0.697      1.242
REMARK INTER + INTRA:          -4.055
REMARK INTER:                  -3.800
REMARK INTRA:                  -0.255
REMARK UNBOUND:                -0.209
REMARK SMILES CCCCCCC(=O)[O-]
REMARK SMILES IDX 5 1 6 2 7 3 8 4 9 5 4 6 3 7 2 8 1 9
REMARK H PARENT
REMARK Flexibility Score: inf
ROOT
ATOM      1  C   UNL     1     112.387  64.703 217.887  1.00  0.00     0.006 C 
ENDROOT
BRANCH   1   2
ATOM      2  C   UNL     1     112.126  66.017 217.146  1.00  0.00     0.053 C 
BRANCH   2   3
ATOM      3  C   UNL     1     113.398  66.789 216.983  1.00  0.00     0.041 C 
ATOM      4  O   UNL     1     113.409  68.035 217.160  1.00  0.00    -0.550 OA
ATOM      5  O   UNL     1     114.580  66.124 216.684  1.00  0.00    -0.550 OA
ENDBRANCH   2   3
ENDBRANCH   1   2
BRANCH   1   6
ATOM      6  C   UNL     1     111.995  63.497 217.025  1.00  0.00     0.000 C 
BRANCH   6   7
ATOM      7  C   UNL     1     111.478  63.948 215.652  1.00  0.00    -0.000 C 
BRANCH   7   8
ATOM      8  C   UNL     1     110.245  63.153 215.195  1.00  0.00    -0.003 C 
ATOM      9  C   UNL     1     110.092  61.824 215.934  1.00  0.00     0.004 C 
ENDBRANCH   7   8
ENDBRANCH   6   7
ENDBRANCH   1   6
TORSDOF 5
ENDMDL
MODEL 3
REMARK VINA RESULT:    -2.935      2.204      4.002
REMARK INTER + INTRA:          -4.002
REMARK INTER:                  -3.607
REMARK INTRA:                  -0.395
REMARK UNBOUND:                -0.209
REMARK SMILES CCCCCCC(=O)[O-]
REMARK SMILES IDX 5 1 6 2 7 3 8 4 9 5 4 6 3 7 2 8 1 9
REMARK H PARENT
REMARK Flexibility Score: inf
ROOT
ATOM      1  C   UNL     1     111.665  65.512 218.157  1.00  0.00     0.006 C 
ENDROOT
BRANCH   1   2
ATOM      2  C   UNL     1     112.418  65.593 216.826  1.00  0.00     0.053 C 
BRANCH   2   3
ATOM      3  C   UNL     1     113.566  66.547 216.930  1.00  0.00     0.041 C 
ATOM      4  O   UNL     1     114.747  66.134 216.792  1.00  0.00    -0.550 OA
ATOM      5  O   UNL     1     113.329  67.901 217.131  1.00  0.00    -0.550 OA
ENDBRANCH   2   3
ENDBRANCH   1   2
BRANCH   1   6
ATOM      6  C   UNL     1     112.476  64.735 219.201  1.00  0.00     0.000 C 
BRANCH   6   7
ATOM      7  C   UNL     1     112.518  65.489 220.537  1.00  0.00    -0.000 C 
BRANCH   7   8
ATOM      8  C   UNL     1     111.758  66.824 220.487  1.00  0.00    -0.003 C 
ATOM      9  C   UNL     1     112.677  68.034 220.650  1.00  0.00     0.004 C 
ENDBRANCH   7   8
ENDBRANCH   6   7
ENDBRANCH   1   6
TORSDOF 5
ENDMDL
MODEL 4
REMARK VINA RESULT:    -2.929     15.454     16.040
REMARK INTER + INTRA:          -3.995
REMARK INTER:                  -3.713
REMARK INTRA:                  -0.282
REMARK UNBOUND:                -0.209
REMARK SMILES CCCCCCC(=O)[O-]
REMARK SMILES IDX 5 1 6 2 7 3 8 4 9 5 4 6 3 7 2 8 1 9
REMARK H PARENT
REMARK Flexibility Score: inf
ROOT
ATOM      1  C   UNL     1      99.235  64.401 226.081  1.00  0.00     0.006 C 
ENDROOT
BRANCH   1   2
ATOM      2  C   UNL     1      99.683  65.703 225.411  1.00  0.00     0.053 C 
BRANCH   2   3
ATOM      3  C   UNL     1     100.954  65.491 224.651  1.00  0.00     0.041 C 
ATOM      4  O   UNL     1     101.213  64.364 224.153  1.00  0.00    -0.550 OA
ATOM      5  O   UNL     1     101.829  66.551 224.450  1.00  0.00    -0.550 OA
ENDBRANCH   2   3
ENDBRANCH   1   2
BRANCH   1   6
ATOM      6  C   UNL     1      97.756  64.114 225.795  1.00  0.00     0.000 C 
BRANCH   6   7
ATOM      7  C   UNL     1      97.200  65.089 224.747  1.00  0.00    -0.000 C 
BRANCH   7   8
ATOM      8  C   UNL     1      95.827  65.657 225.139  1.00  0.00    -0.003 C 
ATOM      9  C   UNL     1      95.359  65.179 226.513  1.00  0.00     0.004 C 
ENDBRANCH   7   8
ENDBRANCH   6   7
ENDBRANCH   1   6
TORSDOF 5
ENDMDL
MODEL 5
REMARK VINA RESULT:    -2.916     16.777     17.510
REMARK INTER + INTRA:          -3.977
REMARK INTER:                  -3.813
REMARK INTRA:                  -0.165
REMARK UNBOUND:                -0.209
REMARK SMILES CCCCCCC(=O)[O-]
REMARK SMILES IDX 5 1 6 2 7 3 8 4 9 5 4 6 3 7 2 8 1 9
REMARK H PARENT
REMARK Flexibility Score: inf
ROOT
ATOM      1  C   UNL     1     113.588  55.426 229.585  1.00  0.00     0.006 C 
ENDROOT
BRANCH   1   2
ATOM      2  C   UNL     1     113.775  54.081 228.877  1.00  0.00     0.053 C 
BRANCH   2   3
ATOM      3  C   UNL     1     113.281  54.158 227.466  1.00  0.00     0.041 C 
ATOM      4  O   UNL     1     112.569  53.233 226.993  1.00  0.00    -0.550 OA
ATOM      5  O   UNL     1     113.567  55.273 226.690  1.00  0.00    -0.550 OA
ENDBRANCH   2   3
ENDBRANCH   1   2
BRANCH   1   6
ATOM      6  C   UNL     1     113.109  55.228 231.028  1.00  0.00     0.000 C 
BRANCH   6   7
ATOM      7  C   UNL     1     113.178  53.748 231.431  1.00  0.00    -0.000 C 
BRANCH   7   8
ATOM      8  C   UNL     1     112.889  53.529 232.925  1.00  0.00    -0.003 C 
ATOM      9  C   UNL     1     114.122  53.075 233.705  1.00  0.00     0.004 C 
ENDBRANCH   7   8
ENDBRANCH   6   7
ENDBRANCH   1   6
TORSDOF 5
ENDMDL
MODEL 6
REMARK VINA RESULT:    -2.872     17.904     18.460
REMARK INTER + INTRA:          -3.921
REMARK INTER:                  -3.675
REMARK INTRA:                  -0.246
REMARK UNBOUND:                -0.209
REMARK SMILES CCCCCCC(=O)[O-]
REMARK SMILES IDX 5 1 6 2 7 3 8 4 9 5 4 6 3 7 2 8 1 9
REMARK H PARENT
REMARK Flexibility Score: inf
ROOT
ATOM      1  C   UNL     1     112.669  55.093 231.647  1.00  0.00     0.006 C 
ENDROOT
BRANCH   1   2
ATOM      2  C   UNL     1     113.147  53.654 231.858  1.00  0.00     0.053 C 
BRANCH   2   3
ATOM      3  C   UNL     1     113.370  53.384 233.313  1.00  0.00     0.041 C 
ATOM      4  O   UNL     1     114.325  52.651 233.682  1.00  0.00    -0.550 OA
ATOM      5  O   UNL     1     112.552  53.981 234.264  1.00  0.00    -0.550 OA
ENDBRANCH   2   3
ENDBRANCH   1   2
BRANCH   1   6
ATOM      6  C   UNL     1     113.533  55.813 230.605  1.00  0.00     0.000 C 
BRANCH   6   7
ATOM      7  C   UNL     1     113.071  55.477 229.180  1.00  0.00    -0.000 C 
BRANCH   7   8
ATOM      8  C   UNL     1     114.212  54.939 228.301  1.00  0.00    -0.003 C 
ATOM      9  C   UNL     1     114.190  53.417 228.171  1.00  0.00     0.004 C 
ENDBRANCH   7   8
ENDBRANCH   6   7
ENDBRANCH   1   6
TORSDOF 5
ENDMDL
MODEL 7
REMARK VINA RESULT:    -2.871      1.699      2.419
REMARK INTER + INTRA:          -3.920
REMARK INTER:                  -3.682
REMARK INTRA:                  -0.238
REMARK UNBOUND:                -0.209
REMARK SMILES CCCCCCC(=O)[O-]
REMARK SMILES IDX 5 1 6 2 7 3 8 4 9 5 4 6 3 7 2 8 1 9
REMARK H PARENT
REMARK Flexibility Score: inf
ROOT
ATOM      1  C   UNL     1     111.939  64.749 216.700  1.00  0.00     0.006 C 
ENDROOT
BRANCH   1   2
ATOM      2  C   UNL     1     112.322  65.938 217.586  1.00  0.00     0.053 C 
BRANCH   2   3
ATOM      3  C   UNL     1     113.357  66.782 216.911  1.00  0.00     0.041 C 
ATOM      4  O   UNL     1     114.166  66.262 216.098  1.00  0.00    -0.550 OA
ATOM      5  O   UNL     1     113.396  68.151 217.142  1.00  0.00    -0.550 OA
ENDBRANCH   2   3
ENDBRANCH   1   2
BRANCH   1   6
ATOM      6  C   UNL     1     111.952  63.440 217.498  1.00  0.00     0.000 C 
BRANCH   6   7
ATOM      7  C   UNL     1     112.659  63.627 218.848  1.00  0.00    -0.000 C 
BRANCH   7   8
ATOM      8  C   UNL     1     112.083  62.719 219.947  1.00  0.00    -0.003 C 
ATOM      9  C   UNL     1     111.540  61.400 219.400  1.00  0.00     0.004 C 
ENDBRANCH   7   8
ENDBRANCH   6   7
ENDBRANCH   1   6
TORSDOF 5
ENDMDL
MODEL 8
REMARK VINA RESULT:    -2.869     11.204     12.991
REMARK INTER + INTRA:          -3.917
REMARK INTER:                  -3.511
REMARK INTRA:                  -0.406
REMARK UNBOUND:                -0.209
REMARK SMILES CCCCCCC(=O)[O-]
REMARK SMILES IDX 5 1 6 2 7 3 8 4 9 5 4 6 3 7 2 8 1 9
REMARK H PARENT
REMARK Flexibility Score: inf
ROOT
ATOM      1  C   UNL     1     100.719  58.187 217.616  1.00  0.00     0.006 C 
ENDROOT
BRANCH   1   2
ATOM      2  C   UNL     1     100.138  59.603 217.681  1.00  0.00     0.053 C 
BRANCH   2   3
ATOM      3  C   UNL     1     100.130  60.102 219.091  1.00  0.00     0.041 C 
ATOM      4  O   UNL     1     100.896  61.041 219.435  1.00  0.00    -0.550 OA
ATOM      5  O   UNL     1      99.243  59.564 220.014  1.00  0.00    -0.550 OA
ENDBRANCH   2   3
ENDBRANCH   1   2
BRANCH   1   6
ATOM      6  C   UNL     1     102.245  58.211 217.759  1.00  0.00     0.000 C 
BRANCH   6   7
ATOM      7  C   UNL     1     102.694  57.416 218.993  1.00  0.00    -0.000 C 
BRANCH   7   8
ATOM      8  C   UNL     1     103.179  58.323 220.135  1.00  0.00    -0.003 C 
ATOM      9  C   UNL     1     104.061  59.470 219.645  1.00  0.00     0.004 C 
ENDBRANCH   7   8
ENDBRANCH   6   7
ENDBRANCH   1   6
TORSDOF 5
ENDMDL
MODEL 9
REMARK VINA RESULT:    -2.818      1.506      2.161
REMARK INTER + INTRA:          -3.850
REMARK INTER:                  -3.677
REMARK INTRA:                  -0.173
REMARK UNBOUND:                -0.209
REMARK SMILES CCCCCCC(=O)[O-]
REMARK SMILES IDX 5 1 6 2 7 3 8 4 9 5 4 6 3 7 2 8 1 9
REMARK H PARENT
REMARK Flexibility Score: inf
ROOT
ATOM      1  C   UNL     1     111.439  63.932 216.586  1.00  0.00     0.006 C 
ENDROOT
BRANCH   1   2
ATOM      2  C   UNL     1     112.525  65.008 216.485  1.00  0.00     0.053 C 
BRANCH   2   3
ATOM      3  C   UNL     1     112.220  66.148 217.404  1.00  0.00     0.041 C 
ATOM      4  O   UNL     1     112.685  67.294 217.167  1.00  0.00    -0.550 OA
ATOM      5  O   UNL     1     111.384  65.957 218.496  1.00  0.00    -0.550 OA
ENDBRANCH   2   3
ENDBRANCH   1   2
BRANCH   1   6
ATOM      6  C   UNL     1     110.802  63.661 215.218  1.00  0.00     0.000 C 
BRANCH   6   7
ATOM      7  C   UNL     1     109.981  62.364 215.241  1.00  0.00    -0.000 C 
BRANCH   7   8
ATOM      8  C   UNL     1     110.323  61.470 216.444  1.00  0.00    -0.003 C 
ATOM      9  C   UNL     1     109.232  60.443 216.746  1.00  0.00     0.004 C 
ENDBRANCH   7   8
ENDBRANCH   6   7
ENDBRANCH   1   6
TORSDOF 5
ENDMDL
