MODEL 1
REMARK VINA RESULT:    -3.306      0.000      0.000
REMARK INTER + INTRA:          -6.043
REMARK INTER:                  -5.046
REMARK INTRA:                  -0.998
REMARK UNBOUND:                -0.998
REMARK SMILES CCCCCCCCCCC(=O)[O-]
REMARK SMILES IDX 7 1 8 2 9 3 10 4 11 5 12 6 13 7 6 8 5 9 4 10 3 11 2 12 1 13
REMARK H PARENT
REMARK Flexibility Score: inf
ROOT
ATOM      1  C   UNL     1      -8.517  16.485 -11.771  1.00  0.00     0.000 C 
ENDROOT
BRANCH   1   2
ATOM      2  C   UNL     1      -7.632  15.287 -12.146  1.00  0.00     0.000 C 
BRANCH   2   3
ATOM      3  C   UNL     1      -8.091  14.593 -13.439  1.00  0.00     0.006 C 
BRANCH   3   4
ATOM      4  C   UNL     1      -7.439  13.219 -13.636  1.00  0.00     0.053 C 
BRANCH   4   5
ATOM      5  C   UNL     1      -5.958  13.364 -13.794  1.00  0.00     0.041 C 
ATOM      6  O   UNL     1      -5.177  12.847 -12.952  1.00  0.00    -0.550 OA
ATOM      7  O   UNL     1      -5.441  14.111 -14.844  1.00  0.00    -0.550 OA
ENDBRANCH   4   5
ENDBRANCH   3   4
ENDBRANCH   2   3
ENDBRANCH   1   2
BRANCH   1   8
ATOM      8  C   UNL     1      -8.933  17.273 -13.018  1.00  0.00     0.000 C 
BRANCH   8   9
ATOM      9  C   UNL     1      -8.386  18.705 -12.974  1.00  0.00    -0.000 C 
BRANCH   9  10
ATOM     10  C   UNL     1      -7.676  19.063 -14.288  1.00  0.00    -0.000 C 
BRANCH  10  11
ATOM     11  C   UNL     1      -6.913  17.873 -14.891  1.00  0.00    -0.000 C 
BRANCH  11  12
ATOM     12  C   UNL     1      -5.509  17.706 -14.290  1.00  0.00    -0.003 C 
ATOM     13  C   UNL     1      -4.890  19.060 -13.957  1.00  0.00     0.004 C 
ENDBRANCH  11  12
ENDBRANCH  10  11
ENDBRANCH   9  10
ENDBRANCH   8   9
ENDBRANCH   1   8
TORSDOF 9
ENDMDL
MODEL 2
REMARK VINA RESULT:    -3.251      1.040      1.671
REMARK INTER + INTRA:          -5.960
REMARK INTER:                  -5.419
REMARK INTRA:                  -0.541
REMARK UNBOUND:                -0.998
REMARK SMILES CCCCCCCCCCC(=O)[O-]
REMARK SMILES IDX 7 1 8 2 9 3 10 4 11 5 12 6 13 7 6 8 5 9 4 10 3 11 2 12 1 13
REMARK H PARENT
REMARK Flexibility Score: inf
ROOT
ATOM      1  C   UNL     1      -8.621  16.153 -11.830  1.00  0.00     0.000 C 
ENDROOT
BRANCH   1   2
ATOM      2  C   UNL     1      -7.536  15.195 -12.347  1.00  0.00     0.000 C 
BRANCH   2   3
ATOM      3  C   UNL     1      -7.967  14.444 -13.617  1.00  0.00     0.006 C 
BRANCH   3   4
ATOM      4  C   UNL     1      -7.318  13.058 -13.732  1.00  0.00     0.053 C 
BRANCH   4   5
ATOM      5  C   UNL     1      -5.835  13.189 -13.881  1.00  0.00     0.041 C 
ATOM      6  O   UNL     1      -5.343  13.646 -14.947  1.00  0.00    -0.550 OA
ATOM      7  O   UNL     1      -4.993  12.759 -12.864  1.00  0.00    -0.550 OA
ENDBRANCH   4   5
ENDBRANCH   3   4
ENDBRANCH   2   3
ENDBRANCH   1   2
BRANCH   1   8
ATOM      8  C   UNL     1      -9.107  17.086 -12.946  1.00  0.00     0.000 C 
BRANCH   8   9
ATOM      9  C   UNL     1      -8.269  18.370 -12.996  1.00  0.00    -0.000 C 
BRANCH   9  10
ATOM     10  C   UNL     1      -7.411  18.417 -14.269  1.00  0.00    -0.000 C 
BRANCH  10  11
ATOM     11  C   UNL     1      -6.867  19.823 -14.565  1.00  0.00    -0.000 C 
BRANCH  11  12
ATOM     12  C   UNL     1      -7.213  20.835 -13.462  1.00  0.00    -0.003 C 
ATOM     13  C   UNL     1      -6.000  21.125 -12.583  1.00  0.00     0.004 C 
ENDBRANCH  11  12
ENDBRANCH  10  11
ENDBRANCH   9  10
ENDBRANCH   8   9
ENDBRANCH   1   8
TORSDOF 9
ENDMDL
MODEL 3
REMARK VINA RESULT:    -3.240      2.084      4.661
REMARK INTER + INTRA:          -5.943
REMARK INTER:                  -5.296
REMARK INTRA:                  -0.647
REMARK UNBOUND:                -0.998
REMARK SMILES CCCCCCCCCCC(=O)[O-]
REMARK SMILES IDX 7 1 8 2 9 3 10 4 11 5 12 6 13 7 6 8 5 9 4 10 3 11 2 12 1 13
REMARK H PARENT
REMARK Flexibility Score: inf
ROOT
ATOM      1  C   UNL     1      -9.096  16.766 -12.756  1.00  0.00     0.000 C 
ENDROOT
BRANCH   1   2
ATOM      2  C   UNL     1      -8.440  18.134 -12.511  1.00  0.00     0.000 C 
BRANCH   2   3
ATOM      3  C   UNL     1      -8.206  18.919 -13.812  1.00  0.00     0.006 C 
BRANCH   3   4
ATOM      4  C   UNL     1      -6.967  18.436 -14.577  1.00  0.00     0.053 C 
BRANCH   4   5
ATOM      5  C   UNL     1      -5.744  18.567 -13.725  1.00  0.00     0.041 C 
ATOM      6  O   UNL     1      -5.365  19.702 -13.332  1.00  0.00    -0.550 OA
ATOM      7  O   UNL     1      -4.996  17.442 -13.405  1.00  0.00    -0.550 OA
ENDBRANCH   4   5
ENDBRANCH   3   4
ENDBRANCH   2   3
ENDBRANCH   1   2
BRANCH   1   8
ATOM      8  C   UNL     1      -8.163  15.626 -12.334  1.00  0.00     0.000 C 
BRANCH   8   9
ATOM      9  C   UNL     1      -7.425  15.040 -13.544  1.00  0.00    -0.000 C 
BRANCH   9  10
ATOM     10  C   UNL     1      -8.148  13.795 -14.079  1.00  0.00    -0.000 C 
BRANCH  10  11
ATOM     11  C   UNL     1      -7.232  12.896 -14.924  1.00  0.00    -0.000 C 
BRANCH  11  12
ATOM     12  C   UNL     1      -5.744  13.218 -14.727  1.00  0.00    -0.003 C 
ATOM     13  C   UNL     1      -5.126  12.325 -13.655  1.00  0.00     0.004 C 
ENDBRANCH  11  12
ENDBRANCH  10  11
ENDBRANCH   9  10
ENDBRANCH   8   9
ENDBRANCH   1   8
TORSDOF 9
ENDMDL
MODEL 4
REMARK VINA RESULT:    -3.108      1.369      1.959
REMARK INTER + INTRA:          -5.741
REMARK INTER:                  -5.244
REMARK INTRA:                  -0.498
REMARK UNBOUND:                -0.998
REMARK SMILES CCCCCCCCCCC(=O)[O-]
REMARK SMILES IDX 7 1 8 2 9 3 10 4 11 5 12 6 13 7 6 8 5 9 4 10 3 11 2 12 1 13
REMARK H PARENT
REMARK Flexibility Score: inf
ROOT
ATOM      1  C   UNL     1      -7.346  16.537 -13.633  1.00  0.00     0.000 C 
ENDROOT
BRANCH   1   2
ATOM      2  C   UNL     1      -7.425  15.466 -14.733  1.00  0.00     0.000 C 
BRANCH   2   3
ATOM      3  C   UNL     1      -8.260  14.246 -14.312  1.00  0.00     0.006 C 
BRANCH   3   4
ATOM      4  C   UNL     1      -7.405  12.991 -14.095  1.00  0.00     0.053 C 
BRANCH   4   5
ATOM      5  C   UNL     1      -6.406  13.224 -13.006  1.00  0.00     0.041 C 
ATOM      6  O   UNL     1      -5.201  12.895 -13.171  1.00  0.00    -0.550 OA
ATOM      7  O   UNL     1      -6.813  13.758 -11.791  1.00  0.00    -0.550 OA
ENDBRANCH   4   5
ENDBRANCH   3   4
ENDBRANCH   2   3
ENDBRANCH   1   2
BRANCH   1   8
ATOM      8  C   UNL     1      -8.590  17.433 -13.648  1.00  0.00     0.000 C 
BRANCH   8   9
ATOM      9  C   UNL     1      -8.360  18.710 -12.830  1.00  0.00    -0.000 C 
BRANCH   9  10
ATOM     10  C   UNL     1      -7.702  19.800 -13.688  1.00  0.00    -0.000 C 
BRANCH  10  11
ATOM     11  C   UNL     1      -6.874  20.790 -12.854  1.00  0.00    -0.000 C 
BRANCH  11  12
ATOM     12  C   UNL     1      -5.376  20.736 -13.187  1.00  0.00    -0.003 C 
ATOM     13  C   UNL     1      -5.062  19.569 -14.119  1.00  0.00     0.004 C 
ENDBRANCH  11  12
ENDBRANCH  10  11
ENDBRANCH   9  10
ENDBRANCH   8   9
ENDBRANCH   1   8
TORSDOF 9
ENDMDL
MODEL 5
REMARK VINA RESULT:    -3.040      2.840      5.391
REMARK INTER + INTRA:          -5.637
REMARK INTER:                  -4.972
REMARK INTRA:                  -0.665
REMARK UNBOUND:                -0.998
REMARK SMILES CCCCCCCCCCC(=O)[O-]
REMARK SMILES IDX 7 1 8 2 9 3 10 4 11 5 12 6 13 7 6 8 5 9 4 10 3 11 2 12 1 13
REMARK H PARENT
REMARK Flexibility Score: inf
ROOT
ATOM      1  C   UNL     1      -8.530  17.175 -13.420  1.00  0.00     0.000 C 
ENDROOT
BRANCH   1   2
ATOM      2  C   UNL     1      -8.297  18.677 -13.193  1.00  0.00     0.000 C 
BRANCH   2   3
ATOM      3  C   UNL     1      -7.863  19.409 -14.474  1.00  0.00     0.006 C 
BRANCH   3   4
ATOM      4  C   UNL     1      -6.969  20.622 -14.186  1.00  0.00     0.053 C 
BRANCH   4   5
ATOM      5  C   UNL     1      -5.936  20.275 -13.160  1.00  0.00     0.041 C 
ATOM      6  O   UNL     1      -5.902  20.891 -12.062  1.00  0.00    -0.550 OA
ATOM      7  O   UNL     1      -4.980  19.307 -13.436  1.00  0.00    -0.550 OA
ENDBRANCH   4   5
ENDBRANCH   3   4
ENDBRANCH   2   3
ENDBRANCH   1   2
BRANCH   1   8
ATOM      8  C   UNL     1      -7.670  16.655 -14.578  1.00  0.00     0.000 C 
BRANCH   8   9
ATOM      9  C   UNL     1      -6.492  15.820 -14.058  1.00  0.00    -0.000 C 
BRANCH   9  10
ATOM     10  C   UNL     1      -6.012  14.825 -15.125  1.00  0.00    -0.000 C 
BRANCH  10  11
ATOM     11  C   UNL     1      -6.225  13.361 -14.707  1.00  0.00    -0.000 C 
BRANCH  11  12
ATOM     12  C   UNL     1      -7.561  13.142 -13.983  1.00  0.00    -0.003 C 
ATOM     13  C   UNL     1      -8.688  12.883 -14.978  1.00  0.00     0.004 C 
ENDBRANCH  11  12
ENDBRANCH  10  11
ENDBRANCH   9  10
ENDBRANCH   8   9
ENDBRANCH   1   8
TORSDOF 9
ENDMDL
MODEL 6
REMARK VINA RESULT:    -3.030      2.058      4.527
REMARK INTER + INTRA:          -5.622
REMARK INTER:                  -4.764
REMARK INTRA:                  -0.858
REMARK UNBOUND:                -0.998
REMARK SMILES CCCCCCCCCCC(=O)[O-]
REMARK SMILES IDX 7 1 8 2 9 3 10 4 11 5 12 6 13 7 6 8 5 9 4 10 3 11 2 12 1 13
REMARK H PARENT
REMARK Flexibility Score: inf
ROOT
ATOM      1  C   UNL     1      -5.748  19.726 -13.806  1.00  0.00     0.000 C 
ENDROOT
BRANCH   1   2
ATOM      2  C   UNL     1      -7.248  20.049 -13.713  1.00  0.00     0.000 C 
BRANCH   2   3
ATOM      3  C   UNL     1      -8.130  18.794 -13.818  1.00  0.00     0.006 C 
BRANCH   3   4
ATOM      4  C   UNL     1      -8.545  18.248 -12.446  1.00  0.00     0.053 C 
BRANCH   4   5
ATOM      5  C   UNL     1      -8.417  16.757 -12.419  1.00  0.00     0.041 C 
ATOM      6  O   UNL     1      -9.294  16.036 -12.964  1.00  0.00    -0.550 OA
ATOM      7  O   UNL     1      -7.356  16.162 -11.750  1.00  0.00    -0.550 OA
ENDBRANCH   4   5
ENDBRANCH   3   4
ENDBRANCH   2   3
ENDBRANCH   1   2
BRANCH   1   8
ATOM      8  C   UNL     1      -5.486  18.624 -14.840  1.00  0.00     0.000 C 
BRANCH   8   9
ATOM      9  C   UNL     1      -4.885  17.378 -14.178  1.00  0.00    -0.000 C 
BRANCH   9  10
ATOM     10  C   UNL     1      -4.943  16.170 -15.125  1.00  0.00    -0.000 C 
BRANCH  10  11
ATOM     11  C   UNL     1      -6.254  15.378 -14.993  1.00  0.00    -0.000 C 
BRANCH  11  12
ATOM     12  C   UNL     1      -6.056  14.018 -14.308  1.00  0.00    -0.003 C 
ATOM     13  C   UNL     1      -7.388  13.301 -14.116  1.00  0.00     0.004 C 
ENDBRANCH  11  12
ENDBRANCH  10  11
ENDBRANCH   9  10
ENDBRANCH   8   9
ENDBRANCH   1   8
TORSDOF 9
ENDMDL
MODEL 7
REMARK VINA RESULT:    -2.993      2.759      5.357
REMARK INTER + INTRA:          -5.566
REMARK INTER:                  -4.571
REMARK INTRA:                  -0.995
REMARK UNBOUND:                -0.998
REMARK SMILES CCCCCCCCCCC(=O)[O-]
REMARK SMILES IDX 7 1 8 2 9 3 10 4 11 5 12 6 13 7 6 8 5 9 4 10 3 11 2 12 1 13
REMARK H PARENT
REMARK Flexibility Score: inf
ROOT
ATOM      1  C   UNL     1      -6.080  15.702 -15.125  1.00  0.00     0.000 C 
ENDROOT
BRANCH   1   2
ATOM      2  C   UNL     1      -5.043  16.767 -14.737  1.00  0.00     0.000 C 
BRANCH   2   3
ATOM      3  C   UNL     1      -5.586  18.199 -14.871  1.00  0.00     0.006 C 
BRANCH   3   4
ATOM      4  C   UNL     1      -7.118  18.256 -14.814  1.00  0.00     0.053 C 
BRANCH   4   5
ATOM      5  C   UNL     1      -7.566  19.486 -14.088  1.00  0.00     0.041 C 
ATOM      6  O   UNL     1      -7.921  20.508 -14.732  1.00  0.00    -0.550 OA
ATOM      7  O   UNL     1      -7.545  19.520 -12.700  1.00  0.00    -0.550 OA
ENDBRANCH   4   5
ENDBRANCH   3   4
ENDBRANCH   2   3
ENDBRANCH   1   2
BRANCH   1   8
ATOM      8  C   UNL     1      -5.568  14.293 -14.805  1.00  0.00     0.000 C 
BRANCH   8   9
ATOM      9  C   UNL     1      -6.727  13.349 -14.461  1.00  0.00    -0.000 C 
BRANCH   9  10
ATOM     10  C   UNL     1      -7.849  14.100 -13.729  1.00  0.00    -0.000 C 
BRANCH  10  11
ATOM     11  C   UNL     1      -7.514  14.375 -12.255  1.00  0.00    -0.000 C 
BRANCH  11  12
ATOM     12  C   UNL     1      -7.819  15.821 -11.839  1.00  0.00    -0.003 C 
ATOM     13  C   UNL     1      -9.088  16.331 -12.514  1.00  0.00     0.004 C 
ENDBRANCH  11  12
ENDBRANCH  10  11
ENDBRANCH   9  10
ENDBRANCH   8   9
ENDBRANCH   1   8
TORSDOF 9
ENDMDL
MODEL 8
REMARK VINA RESULT:    -2.992      2.957      5.530
REMARK INTER + INTRA:          -5.563
REMARK INTER:                  -4.718
REMARK INTRA:                  -0.846
REMARK UNBOUND:                -0.998
REMARK SMILES CCCCCCCCCCC(=O)[O-]
REMARK SMILES IDX 7 1 8 2 9 3 10 4 11 5 12 6 13 7 6 8 5 9 4 10 3 11 2 12 1 13
REMARK H PARENT
REMARK Flexibility Score: inf
ROOT
ATOM      1  C   UNL     1      -5.580  17.042 -14.305  1.00  0.00     0.000 C 
ENDROOT
BRANCH   1   2
ATOM      2  C   UNL     1      -5.351  18.432 -14.919  1.00  0.00     0.000 C 
BRANCH   2   3
ATOM      3  C   UNL     1      -4.877  19.465 -13.885  1.00  0.00     0.006 C 
BRANCH   3   4
ATOM      4  C   UNL     1      -5.764  20.717 -13.852  1.00  0.00     0.053 C 
BRANCH   4   5
ATOM      5  C   UNL     1      -7.200  20.333 -13.677  1.00  0.00     0.041 C 
ATOM      6  O   UNL     1      -7.599  19.856 -12.582  1.00  0.00    -0.550 OA
ATOM      7  O   UNL     1      -8.087  20.457 -14.738  1.00  0.00    -0.550 OA
ENDBRANCH   4   5
ENDBRANCH   3   4
ENDBRANCH   2   3
ENDBRANCH   1   2
BRANCH   1   8
ATOM      8  C   UNL     1      -7.058  16.642 -14.385  1.00  0.00     0.000 C 
BRANCH   8   9
ATOM      9  C   UNL     1      -7.643  16.407 -12.987  1.00  0.00    -0.000 C 
BRANCH   9  10
ATOM     10  C   UNL     1      -8.010  14.930 -12.786  1.00  0.00    -0.000 C 
BRANCH  10  11
ATOM     11  C   UNL     1      -8.297  14.206 -14.111  1.00  0.00    -0.000 C 
BRANCH  11  12
ATOM     12  C   UNL     1      -7.553  12.867 -14.226  1.00  0.00    -0.003 C 
ATOM     13  C   UNL     1      -6.157  12.961 -13.618  1.00  0.00     0.004 C 
ENDBRANCH  11  12
ENDBRANCH  10  11
ENDBRANCH   9  10
ENDBRANCH   8   9
ENDBRANCH   1   8
TORSDOF 9
ENDMDL
