MODEL 1
REMARK VINA RESULT:    -7.891      0.000      0.000
REMARK INTER + INTRA:          -8.353
REMARK INTER:                  -8.353
REMARK INTRA:                   0.000
REMARK UNBOUND:                 0.000
REMARK SMILES CC1(C)[C@H](O)CC[C@@]2(C)[C@H]1CC[C@]1(C)[C@H]2C=CC2=C(O)C(=O)C(=O)[C@@]21C
REMARK SMILES IDX 1 1 2 2 10 3 11 4 12 5 13 6 15 7 8 8 7 9 6 10 4 11 9 12
REMARK SMILES IDX 16 13 17 14 18 15 19 16 21 17 22 18 23 19 24 20 25 21 26 22
REMARK SMILES IDX 14 23 3 24 5 25 20 27
REMARK H PARENT 5 26 20 28
REMARK Flexibility Score: inf
ROOT
ATOM      1  C   UNL     1      18.861  33.631  11.788  1.00  0.00     0.014 C 
ATOM      2  C   UNL     1      20.169  34.358  12.213  1.00  0.00    -0.006 C 
ATOM      3  C   UNL     1      21.358  33.831  11.296  1.00  0.00     0.004 C 
ATOM      4  C   UNL     1      21.903  32.430  11.693  1.00  0.00     0.005 C 
ATOM      5  C   UNL     1      22.846  31.838  10.631  1.00  0.00     0.009 C 
ATOM      6  C   UNL     1      24.029  32.772  10.207  1.00  0.00    -0.009 C 
ATOM      7  C   UNL     1      23.441  34.224   9.872  1.00  0.00     0.025 C 
ATOM      8  C   UNL     1      22.527  34.856  11.019  1.00  0.00    -0.022 C 
ATOM      9  C   UNL     1      21.978  36.275  10.567  1.00  0.00     0.010 C 
ATOM     10  C   UNL     1      20.457  36.416  10.678  1.00  0.00     0.033 C 
ATOM     11  C   UNL     1      19.987  35.913  12.055  1.00  0.00     0.120 C 
ATOM     12  C   UNL     1      23.352  35.146  12.312  1.00  0.00     0.012 C 
ATOM     13  C   UNL     1      22.691  34.220   8.517  1.00  0.00    -0.022 C 
ATOM     14  C   UNL     1      22.898  33.340   7.538  1.00  0.00     0.005 C 
ATOM     15  C   UNL     1      23.788  32.209   7.751  1.00  0.00     0.012 C 
ATOM     16  C   UNL     1      23.648  31.028   7.152  1.00  0.00     0.171 C 
ATOM     17  C   UNL     1      24.443  30.040   7.839  1.00  0.00     0.264 C 
ATOM     18  O   UNL     1      24.538  28.820   7.542  1.00  0.00    -0.282 OA
ATOM     19  C   UNL     1      25.077  30.704   8.954  1.00  0.00     0.217 C 
ATOM     20  O   UNL     1      25.847  30.135   9.772  1.00  0.00    -0.289 OA
ATOM     21  C   UNL     1      24.750  32.185   8.913  1.00  0.00     0.069 C 
ATOM     22  C   UNL     1      26.024  32.963   8.500  1.00  0.00     0.026 C 
ATOM     23  C   UNL     1      25.088  32.817  11.355  1.00  0.00     0.013 C 
ATOM     24  C   UNL     1      20.397  34.042  13.712  1.00  0.00     0.014 C 
ENDROOT
BRANCH  11  25
ATOM     25  O   UNL     1      18.671  36.333  12.331  1.00  0.00    -0.393 OA
ATOM     26  H   UNL     1      18.674  37.321  12.440  1.00  0.00     0.210 HD
ENDBRANCH  11  25
BRANCH  16  27
ATOM     27  O   UNL     1      22.792  30.776   6.084  1.00  0.00    -0.504 OA
ATOM     28  H   UNL     1      21.873  31.201   6.043  1.00  0.00     0.293 HD
ENDBRANCH  16  27
TORSDOF 2
ENDMDL
MODEL 2
REMARK VINA RESULT:    -7.139      1.878      3.059
REMARK INTER + INTRA:          -7.556
REMARK INTER:                  -7.556
REMARK INTRA:                   0.000
REMARK UNBOUND:                 0.000
REMARK SMILES CC1(C)[C@H](O)CC[C@@]2(C)[C@H]1CC[C@]1(C)[C@H]2C=CC2=C(O)C(=O)C(=O)[C@@]21C
REMARK SMILES IDX 1 1 2 2 10 3 11 4 12 5 13 6 15 7 8 8 7 9 6 10 4 11 9 12
REMARK SMILES IDX 16 13 17 14 18 15 19 16 21 17 22 18 23 19 24 20 25 21 26 22
REMARK SMILES IDX 14 23 3 24 5 25 20 27
REMARK H PARENT 5 26 20 28
REMARK Flexibility Score: inf
ROOT
ATOM      1  C   UNL     1      21.344  35.793  10.243  1.00  0.00     0.014 C 
ATOM      2  C   UNL     1      21.990  34.692  11.133  1.00  0.00    -0.006 C 
ATOM      3  C   UNL     1      23.040  33.886  10.250  1.00  0.00     0.004 C 
ATOM      4  C   UNL     1      22.403  32.853   9.278  1.00  0.00     0.005 C 
ATOM      5  C   UNL     1      23.413  32.300   8.256  1.00  0.00     0.009 C 
ATOM      6  C   UNL     1      24.724  31.712   8.877  1.00  0.00    -0.009 C 
ATOM      7  C   UNL     1      25.315  32.772   9.923  1.00  0.00     0.025 C 
ATOM      8  C   UNL     1      24.274  33.276  11.025  1.00  0.00    -0.022 C 
ATOM      9  C   UNL     1      24.957  34.340  11.983  1.00  0.00     0.010 C 
ATOM     10  C   UNL     1      24.180  35.654  12.106  1.00  0.00     0.033 C 
ATOM     11  C   UNL     1      22.694  35.356  12.373  1.00  0.00     0.120 C 
ATOM     12  C   UNL     1      23.837  32.114  11.972  1.00  0.00     0.012 C 
ATOM     13  C   UNL     1      25.959  33.975   9.191  1.00  0.00    -0.022 C 
ATOM     14  C   UNL     1      26.415  33.945   7.939  1.00  0.00     0.005 C 
ATOM     15  C   UNL     1      26.206  32.765   7.116  1.00  0.00     0.012 C 
ATOM     16  C   UNL     1      26.074  32.796   5.791  1.00  0.00     0.171 C 
ATOM     17  C   UNL     1      25.523  31.545   5.331  1.00  0.00     0.264 C 
ATOM     18  O   UNL     1      25.262  31.237   4.138  1.00  0.00    -0.282 OA
ATOM     19  C   UNL     1      25.288  30.727   6.499  1.00  0.00     0.217 C 
ATOM     20  O   UNL     1      24.808  29.564   6.464  1.00  0.00    -0.289 OA
ATOM     21  C   UNL     1      25.799  31.449   7.731  1.00  0.00     0.069 C 
ATOM     22  C   UNL     1      27.080  30.734   8.229  1.00  0.00     0.026 C 
ATOM     23  C   UNL     1      24.406  30.338   9.549  1.00  0.00     0.013 C 
ATOM     24  C   UNL     1      20.839  33.791  11.647  1.00  0.00     0.014 C 
ENDROOT
BRANCH  11  25
ATOM     25  O   UNL     1      22.015  36.505  12.828  1.00  0.00    -0.393 OA
ATOM     26  H   UNL     1      21.038  36.345  12.743  1.00  0.00     0.210 HD
ENDBRANCH  11  25
BRANCH  16  27
ATOM     27  O   UNL     1      26.342  33.903   4.991  1.00  0.00    -0.504 OA
ATOM     28  H   UNL     1      26.262  33.846   3.983  1.00  0.00     0.293 HD
ENDBRANCH  16  27
TORSDOF 2
ENDMDL
MODEL 3
REMARK VINA RESULT:    -6.973      1.299      6.508
REMARK INTER + INTRA:          -7.380
REMARK INTER:                  -7.380
REMARK INTRA:                   0.000
REMARK UNBOUND:                 0.000
REMARK SMILES CC1(C)[C@H](O)CC[C@@]2(C)[C@H]1CC[C@]1(C)[C@H]2C=CC2=C(O)C(=O)C(=O)[C@@]21C
REMARK SMILES IDX 1 1 2 2 10 3 11 4 12 5 13 6 15 7 8 8 7 9 6 10 4 11 9 12
REMARK SMILES IDX 16 13 17 14 18 15 19 16 21 17 22 18 23 19 24 20 25 21 26 22
REMARK SMILES IDX 14 23 3 24 5 25 20 27
REMARK H PARENT 5 26 20 28
REMARK Flexibility Score: inf
ROOT
ATOM      1  C   UNL     1      22.654  31.103   6.884  1.00  0.00     0.014 C 
ATOM      2  C   UNL     1      23.924  31.652   7.596  1.00  0.00    -0.006 C 
ATOM      3  C   UNL     1      23.461  32.523   8.844  1.00  0.00     0.004 C 
ATOM      4  C   UNL     1      22.942  33.943   8.481  1.00  0.00     0.005 C 
ATOM      5  C   UNL     1      22.250  34.643   9.665  1.00  0.00     0.009 C 
ATOM      6  C   UNL     1      23.099  34.704  10.980  1.00  0.00    -0.009 C 
ATOM      7  C   UNL     1      23.674  33.241  11.286  1.00  0.00     0.025 C 
ATOM      8  C   UNL     1      24.456  32.561  10.071  1.00  0.00    -0.022 C 
ATOM      9  C   UNL     1      24.953  31.110  10.477  1.00  0.00     0.010 C 
ATOM     10  C   UNL     1      24.529  30.012   9.497  1.00  0.00     0.033 C 
ATOM     11  C   UNL     1      24.836  30.455   8.055  1.00  0.00     0.120 C 
ATOM     12  C   UNL     1      25.762  33.343   9.723  1.00  0.00     0.012 C 
ATOM     13  C   UNL     1      22.559  32.303  11.809  1.00  0.00    -0.022 C 
ATOM     14  C   UNL     1      21.433  32.715  12.393  1.00  0.00     0.005 C 
ATOM     15  C   UNL     1      21.124  34.135  12.456  1.00  0.00     0.012 C 
ATOM     16  C   UNL     1      19.886  34.627  12.460  1.00  0.00     0.171 C 
ATOM     17  C   UNL     1      19.925  36.038  12.160  1.00  0.00     0.264 C 
ATOM     18  O   UNL     1      18.936  36.811  12.077  1.00  0.00    -0.282 OA
ATOM     19  C   UNL     1      21.310  36.386  11.934  1.00  0.00     0.217 C 
ATOM     20  O   UNL     1      21.710  37.545  11.647  1.00  0.00    -0.289 OA
ATOM     21  C   UNL     1      22.184  35.175  12.197  1.00  0.00     0.069 C 
ATOM     22  C   UNL     1      22.967  35.404  13.513  1.00  0.00     0.026 C 
ATOM     23  C   UNL     1      24.237  35.760  10.810  1.00  0.00     0.013 C 
ATOM     24  C   UNL     1      24.703  32.490   6.551  1.00  0.00     0.014 C 
ENDROOT
BRANCH  11  25
ATOM     25  O   UNL     1      24.785  29.366   7.163  1.00  0.00    -0.393 OA
ATOM     26  H   UNL     1      25.692  29.235   6.777  1.00  0.00     0.210 HD
ENDBRANCH  11  25
BRANCH  16  27
ATOM     27  O   UNL     1      18.731  33.871  12.634  1.00  0.00    -0.504 OA
ATOM     28  H   UNL     1      17.929  33.999  12.028  1.00  0.00     0.293 HD
ENDBRANCH  16  27
TORSDOF 2
ENDMDL
MODEL 4
REMARK VINA RESULT:    -6.806      1.789      3.372
REMARK INTER + INTRA:          -7.204
REMARK INTER:                  -7.204
REMARK INTRA:                   0.000
REMARK UNBOUND:                 0.000
REMARK SMILES CC1(C)[C@H](O)CC[C@@]2(C)[C@H]1CC[C@]1(C)[C@H]2C=CC2=C(O)C(=O)C(=O)[C@@]21C
REMARK SMILES IDX 1 1 2 2 10 3 11 4 12 5 13 6 15 7 8 8 7 9 6 10 4 11 9 12
REMARK SMILES IDX 16 13 17 14 18 15 19 16 21 17 22 18 23 19 24 20 25 21 26 22
REMARK SMILES IDX 14 23 3 24 5 25 20 27
REMARK H PARENT 5 26 20 28
REMARK Flexibility Score: inf
ROOT
ATOM      1  C   UNL     1      22.840  35.556  14.523  1.00  0.00     0.014 C 
ATOM      2  C   UNL     1      21.917  35.749  13.286  1.00  0.00    -0.006 C 
ATOM      3  C   UNL     1      22.538  34.942  12.064  1.00  0.00     0.004 C 
ATOM      4  C   UNL     1      23.748  35.641  11.381  1.00  0.00     0.005 C 
ATOM      5  C   UNL     1      24.489  34.716  10.399  1.00  0.00     0.009 C 
ATOM      6  C   UNL     1      23.581  34.041   9.317  1.00  0.00    -0.009 C 
ATOM      7  C   UNL     1      22.311  33.392  10.047  1.00  0.00     0.025 C 
ATOM      8  C   UNL     1      21.508  34.388  11.003  1.00  0.00    -0.022 C 
ATOM      9  C   UNL     1      20.295  33.632  11.692  1.00  0.00     0.010 C 
ATOM     10  C   UNL     1      20.270  33.761  13.218  1.00  0.00     0.033 C 
ATOM     11  C   UNL     1      20.468  35.234  13.619  1.00  0.00     0.120 C 
ATOM     12  C   UNL     1      20.843  35.545  10.193  1.00  0.00     0.012 C 
ATOM     13  C   UNL     1      22.707  32.104  10.811  1.00  0.00    -0.022 C 
ATOM     14  C   UNL     1      23.774  31.355  10.532  1.00  0.00     0.005 C 
ATOM     15  C   UNL     1      24.735  31.799   9.535  1.00  0.00     0.012 C 
ATOM     16  C   UNL     1      26.032  31.501   9.568  1.00  0.00     0.171 C 
ATOM     17  C   UNL     1      26.751  32.375   8.672  1.00  0.00     0.264 C 
ATOM     18  O   UNL     1      27.993  32.373   8.464  1.00  0.00    -0.282 OA
ATOM     19  C   UNL     1      25.784  33.277   8.091  1.00  0.00     0.217 C 
ATOM     20  O   UNL     1      26.069  34.179   7.259  1.00  0.00    -0.289 OA
ATOM     21  C   UNL     1      24.393  32.898   8.560  1.00  0.00     0.069 C 
ATOM     22  C   UNL     1      23.624  32.267   7.373  1.00  0.00     0.026 C 
ATOM     23  C   UNL     1      23.166  35.107   8.253  1.00  0.00     0.013 C 
ATOM     24  C   UNL     1      21.843  37.272  13.008  1.00  0.00     0.014 C 
ENDROOT
BRANCH  11  25
ATOM     25  O   UNL     1      20.115  35.449  14.967  1.00  0.00    -0.393 OA
ATOM     26  H   UNL     1      19.359  36.093  14.993  1.00  0.00     0.210 HD
ENDBRANCH  11  25
BRANCH  16  27
ATOM     27  O   UNL     1      26.610  30.556  10.410  1.00  0.00    -0.504 OA
ATOM     28  H   UNL     1      26.627  29.575  10.155  1.00  0.00     0.293 HD
ENDBRANCH  16  27
TORSDOF 2
ENDMDL
MODEL 5
REMARK VINA RESULT:    -6.796      1.762      6.542
REMARK INTER + INTRA:          -7.194
REMARK INTER:                  -7.194
REMARK INTRA:                   0.000
REMARK UNBOUND:                 0.000
REMARK SMILES CC1(C)[C@H](O)CC[C@@]2(C)[C@H]1CC[C@]1(C)[C@H]2C=CC2=C(O)C(=O)C(=O)[C@@]21C
REMARK SMILES IDX 1 1 2 2 10 3 11 4 12 5 13 6 15 7 8 8 7 9 6 10 4 11 9 12
REMARK SMILES IDX 16 13 17 14 18 15 19 16 21 17 22 18 23 19 24 20 25 21 26 22
REMARK SMILES IDX 14 23 3 24 5 25 20 27
REMARK H PARENT 5 26 20 28
REMARK Flexibility Score: inf
ROOT
ATOM      1  C   UNL     1      24.800  29.441   8.509  1.00  0.00     0.014 C 
ATOM      2  C   UNL     1      25.296  30.852   8.080  1.00  0.00    -0.006 C 
ATOM      3  C   UNL     1      24.519  31.941   8.940  1.00  0.00     0.004 C 
ATOM      4  C   UNL     1      23.062  32.213   8.469  1.00  0.00     0.005 C 
ATOM      5  C   UNL     1      22.259  33.052   9.479  1.00  0.00     0.009 C 
ATOM      6  C   UNL     1      22.941  34.394   9.909  1.00  0.00    -0.009 C 
ATOM      7  C   UNL     1      24.459  34.088  10.322  1.00  0.00     0.025 C 
ATOM      8  C   UNL     1      25.300  33.284   9.228  1.00  0.00    -0.022 C 
ATOM      9  C   UNL     1      26.772  33.012   9.755  1.00  0.00     0.010 C 
ATOM     10  C   UNL     1      27.193  31.541   9.692  1.00  0.00     0.033 C 
ATOM     11  C   UNL     1      26.849  30.961   8.308  1.00  0.00     0.120 C 
ATOM     12  C   UNL     1      25.494  34.123   7.927  1.00  0.00     0.012 C 
ATOM     13  C   UNL     1      24.529  33.377  11.695  1.00  0.00    -0.022 C 
ATOM     14  C   UNL     1      23.581  33.438  12.630  1.00  0.00     0.005 C 
ATOM     15  C   UNL     1      22.318  34.102  12.345  1.00  0.00     0.012 C 
ATOM     16  C   UNL     1      21.156  33.759  12.898  1.00  0.00     0.171 C 
ATOM     17  C   UNL     1      20.072  34.346  12.148  1.00  0.00     0.264 C 
ATOM     18  O   UNL     1      18.843  34.222  12.390  1.00  0.00    -0.282 OA
ATOM     19  C   UNL     1      20.661  35.070  11.044  1.00  0.00     0.217 C 
ATOM     20  O   UNL     1      20.000  35.706  10.182  1.00  0.00    -0.289 OA
ATOM     21  C   UNL     1      22.173  35.020  11.157  1.00  0.00     0.069 C 
ATOM     22  C   UNL     1      22.686  36.422  11.568  1.00  0.00     0.026 C 
ATOM     23  C   UNL     1      22.846  35.421   8.735  1.00  0.00     0.013 C 
ATOM     24  C   UNL     1      25.014  30.990   6.562  1.00  0.00     0.014 C 
ENDROOT
BRANCH  11  25
ATOM     25  O   UNL     1      27.515  29.739   8.086  1.00  0.00    -0.393 OA
ATOM     26  H   UNL     1      28.393  29.772   8.549  1.00  0.00     0.210 HD
ENDBRANCH  11  25
BRANCH  16  27
ATOM     27  O   UNL     1      21.014  32.892  13.977  1.00  0.00    -0.504 OA
ATOM     28  H   UNL     1      20.187  32.920  14.561  1.00  0.00     0.293 HD
ENDBRANCH  16  27
TORSDOF 2
ENDMDL
MODEL 6
REMARK VINA RESULT:    -6.750      2.176      6.546
REMARK INTER + INTRA:          -7.144
REMARK INTER:                  -7.144
REMARK INTRA:                   0.000
REMARK UNBOUND:                 0.000
REMARK SMILES CC1(C)[C@H](O)CC[C@@]2(C)[C@H]1CC[C@]1(C)[C@H]2C=CC2=C(O)C(=O)C(=O)[C@@]21C
REMARK SMILES IDX 1 1 2 2 10 3 11 4 12 5 13 6 15 7 8 8 7 9 6 10 4 11 9 12
REMARK SMILES IDX 16 13 17 14 18 15 19 16 21 17 22 18 23 19 24 20 25 21 26 22
REMARK SMILES IDX 14 23 3 24 5 25 20 27
REMARK H PARENT 5 26 20 28
REMARK Flexibility Score: inf
ROOT
ATOM      1  C   UNL     1      26.666  34.114   6.523  1.00  0.00     0.014 C 
ATOM      2  C   UNL     1      26.432  32.738   7.209  1.00  0.00    -0.006 C 
ATOM      3  C   UNL     1      25.472  32.955   8.458  1.00  0.00     0.004 C 
ATOM      4  C   UNL     1      26.170  33.560   9.709  1.00  0.00     0.005 C 
ATOM      5  C   UNL     1      25.169  34.013  10.787  1.00  0.00     0.009 C 
ATOM      6  C   UNL     1      24.137  32.920  11.227  1.00  0.00    -0.009 C 
ATOM      7  C   UNL     1      23.488  32.271   9.914  1.00  0.00     0.025 C 
ATOM      8  C   UNL     1      24.542  31.737   8.840  1.00  0.00    -0.022 C 
ATOM      9  C   UNL     1      23.790  31.146   7.575  1.00  0.00     0.010 C 
ATOM     10  C   UNL     1      24.256  31.738   6.242  1.00  0.00     0.033 C 
ATOM     11  C   UNL     1      25.794  31.733   6.180  1.00  0.00     0.120 C 
ATOM     12  C   UNL     1      25.372  30.540   9.402  1.00  0.00     0.012 C 
ATOM     13  C   UNL     1      22.482  33.245   9.252  1.00  0.00    -0.022 C 
ATOM     14  C   UNL     1      21.858  34.238   9.886  1.00  0.00     0.005 C 
ATOM     15  C   UNL     1      22.202  34.552  11.264  1.00  0.00     0.012 C 
ATOM     16  C   UNL     1      22.119  35.772  11.792  1.00  0.00     0.171 C 
ATOM     17  C   UNL     1      22.864  35.816  13.027  1.00  0.00     0.264 C 
ATOM     18  O   UNL     1      23.001  36.814  13.781  1.00  0.00    -0.282 OA
ATOM     19  C   UNL     1      23.455  34.510  13.214  1.00  0.00     0.217 C 
ATOM     20  O   UNL     1      24.176  34.195  14.197  1.00  0.00    -0.289 OA
ATOM     21  C   UNL     1      22.987  33.581  12.110  1.00  0.00     0.069 C 
ATOM     22  C   UNL     1      21.995  32.556  12.712  1.00  0.00     0.026 C 
ATOM     23  C   UNL     1      24.859  31.856  12.114  1.00  0.00     0.013 C 
ATOM     24  C   UNL     1      27.824  32.196   7.625  1.00  0.00     0.014 C 
ENDROOT
BRANCH  11  25
ATOM     25  O   UNL     1      26.255  31.942   4.865  1.00  0.00    -0.393 OA
ATOM     26  H   UNL     1      27.230  31.752   4.841  1.00  0.00     0.210 HD
ENDBRANCH  11  25
BRANCH  16  27
ATOM     27  O   UNL     1      21.487  36.856  11.191  1.00  0.00    -0.504 OA
ATOM     28  H   UNL     1      22.019  37.545  10.672  1.00  0.00     0.293 HD
ENDBRANCH  16  27
TORSDOF 2
ENDMDL
MODEL 7
REMARK VINA RESULT:    -6.494      4.171      7.705
REMARK INTER + INTRA:          -6.873
REMARK INTER:                  -6.873
REMARK INTRA:                   0.000
REMARK UNBOUND:                 0.000
REMARK SMILES CC1(C)[C@H](O)CC[C@@]2(C)[C@H]1CC[C@]1(C)[C@H]2C=CC2=C(O)C(=O)C(=O)[C@@]21C
REMARK SMILES IDX 1 1 2 2 10 3 11 4 12 5 13 6 15 7 8 8 7 9 6 10 4 11 9 12
REMARK SMILES IDX 16 13 17 14 18 15 19 16 21 17 22 18 23 19 24 20 25 21 26 22
REMARK SMILES IDX 14 23 3 24 5 25 20 27
REMARK H PARENT 5 26 20 28
REMARK Flexibility Score: inf
ROOT
ATOM      1  C   UNL     1      28.541  26.093   8.211  1.00  0.00     0.014 C 
ATOM      2  C   UNL     1      27.332  26.315   9.166  1.00  0.00    -0.006 C 
ATOM      3  C   UNL     1      26.604  27.666   8.749  1.00  0.00     0.004 C 
ATOM      4  C   UNL     1      27.329  28.959   9.221  1.00  0.00     0.005 C 
ATOM      5  C   UNL     1      26.757  30.231   8.568  1.00  0.00     0.009 C 
ATOM      6  C   UNL     1      25.207  30.404   8.711  1.00  0.00    -0.009 C 
ATOM      7  C   UNL     1      24.498  29.033   8.283  1.00  0.00     0.025 C 
ATOM      8  C   UNL     1      25.051  27.733   9.027  1.00  0.00    -0.022 C 
ATOM      9  C   UNL     1      24.299  26.436   8.504  1.00  0.00     0.010 C 
ATOM     10  C   UNL     1      25.238  25.326   8.024  1.00  0.00     0.033 C 
ATOM     11  C   UNL     1      26.346  25.093   9.067  1.00  0.00     0.120 C 
ATOM     12  C   UNL     1      24.746  27.776  10.557  1.00  0.00     0.012 C 
ATOM     13  C   UNL     1      24.539  28.842   6.747  1.00  0.00    -0.022 C 
ATOM     14  C   UNL     1      24.673  29.830   5.863  1.00  0.00     0.005 C 
ATOM     15  C   UNL     1      24.926  31.187   6.321  1.00  0.00     0.012 C 
ATOM     16  C   UNL     1      25.618  32.090   5.627  1.00  0.00     0.171 C 
ATOM     17  C   UNL     1      25.996  33.179   6.494  1.00  0.00     0.264 C 
ATOM     18  O   UNL     1      26.661  34.197   6.167  1.00  0.00    -0.282 OA
ATOM     19  C   UNL     1      25.502  32.864   7.815  1.00  0.00     0.217 C 
ATOM     20  O   UNL     1      25.657  33.603   8.823  1.00  0.00    -0.289 OA
ATOM     21  C   UNL     1      24.700  31.578   7.760  1.00  0.00     0.069 C 
ATOM     22  C   UNL     1      23.201  31.921   7.936  1.00  0.00     0.026 C 
ATOM     23  C   UNL     1      24.866  30.809  10.181  1.00  0.00     0.013 C 
ATOM     24  C   UNL     1      27.898  26.372  10.608  1.00  0.00     0.014 C 
ENDROOT
BRANCH  11  25
ATOM     25  O   UNL     1      27.016  23.875   8.839  1.00  0.00    -0.393 OA
ATOM     26  H   UNL     1      26.463  23.324   8.225  1.00  0.00     0.210 HD
ENDBRANCH  11  25
BRANCH  16  27
ATOM     27  O   UNL     1      25.994  31.950   4.295  1.00  0.00    -0.504 OA
ATOM     28  H   UNL     1      26.241  31.042   3.917  1.00  0.00     0.293 HD
ENDBRANCH  16  27
TORSDOF 2
ENDMDL
MODEL 8
REMARK VINA RESULT:    -6.391      2.360      6.646
REMARK INTER + INTRA:          -6.765
REMARK INTER:                  -6.765
REMARK INTRA:                   0.000
REMARK UNBOUND:                 0.000
REMARK SMILES CC1(C)[C@H](O)CC[C@@]2(C)[C@H]1CC[C@]1(C)[C@H]2C=CC2=C(O)C(=O)C(=O)[C@@]21C
REMARK SMILES IDX 1 1 2 2 10 3 11 4 12 5 13 6 15 7 8 8 7 9 6 10 4 11 9 12
REMARK SMILES IDX 16 13 17 14 18 15 19 16 21 17 22 18 23 19 24 20 25 21 26 22
REMARK SMILES IDX 14 23 3 24 5 25 20 27
REMARK H PARENT 5 26 20 28
REMARK Flexibility Score: inf
ROOT
ATOM      1  C   UNL     1      28.179  33.588  10.156  1.00  0.00     0.014 C 
ATOM      2  C   UNL     1      27.078  32.659   9.567  1.00  0.00    -0.006 C 
ATOM      3  C   UNL     1      25.660  33.185  10.062  1.00  0.00     0.004 C 
ATOM      4  C   UNL     1      25.314  32.812  11.532  1.00  0.00     0.005 C 
ATOM      5  C   UNL     1      24.079  33.564  12.059  1.00  0.00     0.009 C 
ATOM      6  C   UNL     1      22.801  33.443  11.162  1.00  0.00    -0.009 C 
ATOM      7  C   UNL     1      23.208  33.766   9.646  1.00  0.00     0.025 C 
ATOM      8  C   UNL     1      24.444  32.920   9.090  1.00  0.00    -0.022 C 
ATOM      9  C   UNL     1      24.775  33.344   7.597  1.00  0.00     0.010 C 
ATOM     10  C   UNL     1      26.239  33.731   7.372  1.00  0.00     0.033 C 
ATOM     11  C   UNL     1      27.161  32.667   7.996  1.00  0.00     0.120 C 
ATOM     12  C   UNL     1      24.102  31.400   9.003  1.00  0.00     0.012 C 
ATOM     13  C   UNL     1      23.453  35.282   9.447  1.00  0.00    -0.022 C 
ATOM     14  C   UNL     1      22.944  36.240  10.222  1.00  0.00     0.005 C 
ATOM     15  C   UNL     1      22.205  35.889  11.425  1.00  0.00     0.012 C 
ATOM     16  C   UNL     1      22.159  36.648  12.518  1.00  0.00     0.171 C 
ATOM     17  C   UNL     1      21.667  35.867  13.627  1.00  0.00     0.264 C 
ATOM     18  O   UNL     1      21.504  36.269  14.809  1.00  0.00    -0.282 OA
ATOM     19  C   UNL     1      21.436  34.528  13.136  1.00  0.00     0.217 C 
ATOM     20  O   UNL     1      21.003  33.580  13.843  1.00  0.00    -0.289 OA
ATOM     21  C   UNL     1      21.696  34.486  11.643  1.00  0.00     0.069 C 
ATOM     22  C   UNL     1      20.342  34.344  10.906  1.00  0.00     0.026 C 
ATOM     23  C   UNL     1      22.196  32.011  11.315  1.00  0.00     0.013 C 
ATOM     24  C   UNL     1      27.380  31.224  10.066  1.00  0.00     0.014 C 
ENDROOT
BRANCH  11  25
ATOM     25  O   UNL     1      28.483  32.796   7.526  1.00  0.00    -0.393 OA
ATOM     26  H   UNL     1      28.771  31.919   7.160  1.00  0.00     0.210 HD
ENDBRANCH  11  25
BRANCH  16  27
ATOM     27  O   UNL     1      22.606  37.963  12.592  1.00  0.00    -0.504 OA
ATOM     28  H   UNL     1      22.702  38.430  13.487  1.00  0.00     0.293 HD
ENDBRANCH  16  27
TORSDOF 2
ENDMDL
MODEL 9
REMARK VINA RESULT:    -6.389      2.166      6.598
REMARK INTER + INTRA:          -6.762
REMARK INTER:                  -6.762
REMARK INTRA:                   0.000
REMARK UNBOUND:                 0.000
REMARK SMILES CC1(C)[C@H](O)CC[C@@]2(C)[C@H]1CC[C@]1(C)[C@H]2C=CC2=C(O)C(=O)C(=O)[C@@]21C
REMARK SMILES IDX 1 1 2 2 10 3 11 4 12 5 13 6 15 7 8 8 7 9 6 10 4 11 9 12
REMARK SMILES IDX 16 13 17 14 18 15 19 16 21 17 22 18 23 19 24 20 25 21 26 22
REMARK SMILES IDX 14 23 3 24 5 25 20 27
REMARK H PARENT 5 26 20 28
REMARK Flexibility Score: inf
ROOT
ATOM      1  C   UNL     1      26.208  33.535   7.715  1.00  0.00     0.014 C 
ATOM      2  C   UNL     1      26.606  32.906   9.081  1.00  0.00    -0.006 C 
ATOM      3  C   UNL     1      25.397  33.102  10.096  1.00  0.00     0.004 C 
ATOM      4  C   UNL     1      25.281  34.535  10.688  1.00  0.00     0.005 C 
ATOM      5  C   UNL     1      23.954  34.761  11.436  1.00  0.00     0.009 C 
ATOM      6  C   UNL     1      23.631  33.698  12.540  1.00  0.00    -0.009 C 
ATOM      7  C   UNL     1      23.828  32.236  11.916  1.00  0.00     0.025 C 
ATOM      8  C   UNL     1      25.240  31.994  11.211  1.00  0.00    -0.022 C 
ATOM      9  C   UNL     1      25.310  30.529  10.605  1.00  0.00     0.010 C 
ATOM     10  C   UNL     1      25.702  30.487   9.125  1.00  0.00     0.033 C 
ATOM     11  C   UNL     1      26.934  31.379   8.888  1.00  0.00     0.120 C 
ATOM     12  C   UNL     1      26.410  32.051  12.242  1.00  0.00     0.012 C 
ATOM     13  C   UNL     1      22.669  31.884  10.950  1.00  0.00    -0.022 C 
ATOM     14  C   UNL     1      21.458  32.440  10.984  1.00  0.00     0.005 C 
ATOM     15  C   UNL     1      21.190  33.547  11.888  1.00  0.00     0.012 C 
ATOM     16  C   UNL     1      20.307  34.513  11.640  1.00  0.00     0.171 C 
ATOM     17  C   UNL     1      20.543  35.623  12.531  1.00  0.00     0.264 C 
ATOM     18  O   UNL     1      19.897  36.703  12.565  1.00  0.00    -0.282 OA
ATOM     19  C   UNL     1      21.684  35.279  13.348  1.00  0.00     0.217 C 
ATOM     20  O   UNL     1      22.168  36.026  14.239  1.00  0.00    -0.289 OA
ATOM     21  C   UNL     1      22.124  33.863  13.030  1.00  0.00     0.069 C 
ATOM     22  C   UNL     1      21.752  32.948  14.223  1.00  0.00     0.026 C 
ATOM     23  C   UNL     1      24.556  33.939  13.775  1.00  0.00     0.013 C 
ATOM     24  C   UNL     1      27.894  33.627   9.554  1.00  0.00     0.014 C 
ENDROOT
BRANCH  11  25
ATOM     25  O   UNL     1      27.529  31.109   7.639  1.00  0.00    -0.393 OA
ATOM     26  H   UNL     1      27.165  31.751   6.974  1.00  0.00     0.210 HD
ENDBRANCH  11  25
BRANCH  16  27
ATOM     27  O   UNL     1      19.366  34.485  10.616  1.00  0.00    -0.504 OA
ATOM     28  H   UNL     1      18.380  34.366  10.819  1.00  0.00     0.293 HD
ENDBRANCH  16  27
TORSDOF 2
ENDMDL
