MODEL 1
REMARK VINA RESULT:    -6.523      0.000      0.000
REMARK INTER + INTRA:          -8.227
REMARK INTER:                  -7.857
REMARK INTRA:                  -0.370
REMARK UNBOUND:                -0.370
REMARK SMILES O=c1c(O)c(-c2ccc(O)cc2O)oc2cc(O)cc(O)c12
REMARK SMILES IDX 5 1 3 2 2 3 1 4 22 5 20 6 19 7 17 8 16 9 15 10 14 11 6 12
REMARK SMILES IDX 8 13 7 14 9 15 11 16 12 17 10 18 13 20 4 22 21 24 18 26
REMARK H PARENT 10 19 13 21 4 23 21 25 18 27
REMARK Flexibility Score: inf
ROOT
ATOM      1  C   UNL     1     -34.333   0.821  16.180  1.00  0.00     0.184 A 
ATOM      2  C   UNL     1     -35.252   1.680  16.811  1.00  0.00     0.208 A 
ATOM      3  C   UNL     1     -35.287   1.724  18.214  1.00  0.00     0.238 A 
ATOM      4  O   UNL     1     -36.113   2.484  18.790  1.00  0.00    -0.285 OA
ATOM      5  C   UNL     1     -34.397   0.924  18.958  1.00  0.00     0.111 A 
ATOM      6  C   UNL     1     -34.365   0.912  20.374  1.00  0.00     0.134 A 
ATOM      7  C   UNL     1     -33.443   0.092  21.041  1.00  0.00     0.093 A 
ATOM      8  C   UNL     1     -32.554  -0.712  20.324  1.00  0.00     0.123 A 
ATOM      9  C   UNL     1     -32.581  -0.705  18.926  1.00  0.00     0.094 A 
ATOM     10  C   UNL     1     -33.493   0.103  18.242  1.00  0.00     0.146 A 
ATOM     11  O   UNL     1     -33.501   0.089  16.914  1.00  0.00    -0.451 OA
ENDROOT
BRANCH   1  12
ATOM     12  C   UNL     1     -34.254   0.712  14.705  1.00  0.00     0.063 A 
ATOM     13  C   UNL     1     -33.861   1.736  12.532  1.00  0.00     0.047 A 
ATOM     14  C   UNL     1     -33.910   1.830  13.925  1.00  0.00     0.020 A 
ATOM     15  C   UNL     1     -34.167   0.527  11.898  1.00  0.00     0.119 A 
ATOM     16  C   UNL     1     -34.524  -0.587  12.663  1.00  0.00     0.093 A 
ATOM     17  C   UNL     1     -34.572  -0.502  14.063  1.00  0.00     0.130 A 
BRANCH  15  18
ATOM     18  O   UNL     1     -34.122   0.421  10.509  1.00  0.00    -0.508 OA
ATOM     19  H   UNL     1     -33.897  -0.456  10.053  1.00  0.00     0.293 HD
ENDBRANCH  15  18
BRANCH  17  20
ATOM     20  O   UNL     1     -34.924  -1.623  14.814  1.00  0.00    -0.507 OA
ATOM     21  H   UNL     1     -34.560  -2.544  14.598  1.00  0.00     0.293 HD
ENDBRANCH  17  20
ENDBRANCH   1  12
BRANCH   2  22
ATOM     22  O   UNL     1     -36.096   2.492  16.048  1.00  0.00    -0.502 OA
ATOM     23  H   UNL     1     -37.059   2.670  16.307  1.00  0.00     0.293 HD
ENDBRANCH   2  22
BRANCH   6  24
ATOM     24  O   UNL     1     -35.239   1.705  21.118  1.00  0.00    -0.507 OA
ATOM     25  H   UNL     1     -34.944   2.165  21.972  1.00  0.00     0.293 HD
ENDBRANCH   6  24
BRANCH   8  26
ATOM     26  O   UNL     1     -31.648  -1.516  21.013  1.00  0.00    -0.508 OA
ATOM     27  H   UNL     1     -31.675  -1.598  22.023  1.00  0.00     0.293 HD
ENDBRANCH   8  26
TORSDOF 6
ENDMDL
MODEL 2
REMARK VINA RESULT:    -6.287      3.722      4.515
REMARK INTER + INTRA:          -7.942
REMARK INTER:                  -7.482
REMARK INTRA:                  -0.461
REMARK UNBOUND:                -0.370
REMARK SMILES O=c1c(O)c(-c2ccc(O)cc2O)oc2cc(O)cc(O)c12
REMARK SMILES IDX 5 1 3 2 2 3 1 4 22 5 20 6 19 7 17 8 16 9 15 10 14 11 6 12
REMARK SMILES IDX 8 13 7 14 9 15 11 16 12 17 10 18 13 20 4 22 21 24 18 26
REMARK H PARENT 10 19 13 21 4 23 21 25 18 27
REMARK Flexibility Score: inf
ROOT
ATOM      1  C   UNL     1     -33.436   2.638  15.393  1.00  0.00     0.184 A 
ATOM      2  C   UNL     1     -34.362   3.375  16.155  1.00  0.00     0.208 A 
ATOM      3  C   UNL     1     -33.898   4.437  16.947  1.00  0.00     0.238 A 
ATOM      4  O   UNL     1     -34.718   5.098  17.641  1.00  0.00    -0.285 OA
ATOM      5  C   UNL     1     -32.525   4.753  16.952  1.00  0.00     0.111 A 
ATOM      6  C   UNL     1     -31.976   5.810  17.719  1.00  0.00     0.134 A 
ATOM      7  C   UNL     1     -30.597   6.066  17.663  1.00  0.00     0.093 A 
ATOM      8  C   UNL     1     -29.760   5.291  16.857  1.00  0.00     0.123 A 
ATOM      9  C   UNL     1     -30.296   4.246  16.098  1.00  0.00     0.094 A 
ATOM     10  C   UNL     1     -31.666   3.973  16.141  1.00  0.00     0.146 A 
ATOM     11  O   UNL     1     -32.149   2.973  15.413  1.00  0.00    -0.451 OA
ENDROOT
BRANCH   1  12
ATOM     12  C   UNL     1     -33.854   1.495  14.549  1.00  0.00     0.063 A 
ATOM     13  C   UNL     1     -34.660  -0.793  14.346  1.00  0.00     0.047 A 
ATOM     14  C   UNL     1     -34.293   0.296  15.140  1.00  0.00     0.020 A 
ATOM     15  C   UNL     1     -34.584  -0.704  12.951  1.00  0.00     0.119 A 
ATOM     16  C   UNL     1     -34.135   0.478  12.355  1.00  0.00     0.093 A 
ATOM     17  C   UNL     1     -33.767   1.577  13.145  1.00  0.00     0.130 A 
BRANCH  15  18
ATOM     18  O   UNL     1     -34.947  -1.783  12.149  1.00  0.00    -0.508 OA
ATOM     19  H   UNL     1     -35.821  -2.277  12.291  1.00  0.00     0.293 HD
ENDBRANCH  15  18
BRANCH  17  20
ATOM     20  O   UNL     1     -33.327   2.753  12.536  1.00  0.00    -0.507 OA
ATOM     21  H   UNL     1     -32.559   2.755  11.875  1.00  0.00     0.293 HD
ENDBRANCH  17  20
ENDBRANCH   1  12
BRANCH   2  22
ATOM     22  O   UNL     1     -35.724   3.065  16.101  1.00  0.00    -0.502 OA
ATOM     23  H   UNL     1     -36.441   3.776  16.026  1.00  0.00     0.293 HD
ENDBRANCH   2  22
BRANCH   6  24
ATOM     24  O   UNL     1     -32.786   6.603  18.531  1.00  0.00    -0.507 OA
ATOM     25  H   UNL     1     -33.553   7.145  18.152  1.00  0.00     0.293 HD
ENDBRANCH   6  24
BRANCH   8  26
ATOM     26  O   UNL     1     -28.395   5.568  16.820  1.00  0.00    -0.508 OA
ATOM     27  H   UNL     1     -27.924   6.013  17.600  1.00  0.00     0.293 HD
ENDBRANCH   8  26
TORSDOF 6
ENDMDL
MODEL 3
REMARK VINA RESULT:    -6.238      3.320      4.646
REMARK INTER + INTRA:          -7.884
REMARK INTER:                  -7.558
REMARK INTRA:                  -0.326
REMARK UNBOUND:                -0.370
REMARK SMILES O=c1c(O)c(-c2ccc(O)cc2O)oc2cc(O)cc(O)c12
REMARK SMILES IDX 5 1 3 2 2 3 1 4 22 5 20 6 19 7 17 8 16 9 15 10 14 11 6 12
REMARK SMILES IDX 8 13 7 14 9 15 11 16 12 17 10 18 13 20 4 22 21 24 18 26
REMARK H PARENT 10 19 13 21 4 23 21 25 18 27
REMARK Flexibility Score: inf
ROOT
ATOM      1  C   UNL     1     -33.337   3.103  15.829  1.00  0.00     0.184 A 
ATOM      2  C   UNL     1     -32.405   2.685  16.797  1.00  0.00     0.208 A 
ATOM      3  C   UNL     1     -32.223   3.467  17.948  1.00  0.00     0.238 A 
ATOM      4  O   UNL     1     -31.383   3.105  18.817  1.00  0.00    -0.285 OA
ATOM      5  C   UNL     1     -32.985   4.640  18.119  1.00  0.00     0.111 A 
ATOM      6  C   UNL     1     -32.866   5.482  19.252  1.00  0.00     0.134 A 
ATOM      7  C   UNL     1     -33.667   6.630  19.352  1.00  0.00     0.093 A 
ATOM      8  C   UNL     1     -34.582   6.951  18.347  1.00  0.00     0.123 A 
ATOM      9  C   UNL     1     -34.704   6.123  17.226  1.00  0.00     0.094 A 
ATOM     10  C   UNL     1     -33.914   4.977  17.106  1.00  0.00     0.146 A 
ATOM     11  O   UNL     1     -34.046   4.210  16.030  1.00  0.00    -0.451 OA
ENDROOT
BRANCH   1  12
ATOM     12  C   UNL     1     -33.566   2.336  14.583  1.00  0.00     0.063 A 
ATOM     13  C   UNL     1     -33.390   2.142  12.163  1.00  0.00     0.047 A 
ATOM     14  C   UNL     1     -33.150   2.851  13.342  1.00  0.00     0.020 A 
ATOM     15  C   UNL     1     -34.060   0.914  12.205  1.00  0.00     0.119 A 
ATOM     16  C   UNL     1     -34.490   0.400  13.431  1.00  0.00     0.093 A 
ATOM     17  C   UNL     1     -34.250   1.105  14.621  1.00  0.00     0.130 A 
BRANCH  15  18
ATOM     18  O   UNL     1     -34.306   0.198  11.035  1.00  0.00    -0.508 OA
ATOM     19  H   UNL     1     -33.584   0.064  10.336  1.00  0.00     0.293 HD
ENDBRANCH  15  18
BRANCH  17  20
ATOM     20  O   UNL     1     -34.680   0.576  15.839  1.00  0.00    -0.507 OA
ATOM     21  H   UNL     1     -34.025   0.325  16.570  1.00  0.00     0.293 HD
ENDBRANCH  17  20
ENDBRANCH   1  12
BRANCH   2  22
ATOM     22  O   UNL     1     -31.691   1.495  16.619  1.00  0.00    -0.502 OA
ATOM     23  H   UNL     1     -31.492   0.863  17.385  1.00  0.00     0.293 HD
ENDBRANCH   2  22
BRANCH   6  24
ATOM     24  O   UNL     1     -31.963   5.188  20.274  1.00  0.00    -0.507 OA
ATOM     25  H   UNL     1     -30.968   5.110  20.099  1.00  0.00     0.293 HD
ENDBRANCH   6  24
BRANCH   8  26
ATOM     26  O   UNL     1     -35.365   8.096  18.473  1.00  0.00    -0.508 OA
ATOM     27  H   UNL     1     -36.216   8.217  17.935  1.00  0.00     0.293 HD
ENDBRANCH   8  26
TORSDOF 6
ENDMDL
MODEL 4
REMARK VINA RESULT:    -6.110      5.091      5.822
REMARK INTER + INTRA:          -7.730
REMARK INTER:                  -7.297
REMARK INTRA:                  -0.433
REMARK UNBOUND:                -0.370
REMARK SMILES O=c1c(O)c(-c2ccc(O)cc2O)oc2cc(O)cc(O)c12
REMARK SMILES IDX 5 1 3 2 2 3 1 4 22 5 20 6 19 7 17 8 16 9 15 10 14 11 6 12
REMARK SMILES IDX 8 13 7 14 9 15 11 16 12 17 10 18 13 20 4 22 21 24 18 26
REMARK H PARENT 10 19 13 21 4 23 21 25 18 27
REMARK Flexibility Score: inf
ROOT
ATOM      1  C   UNL     1     -32.342   3.880  16.410  1.00  0.00     0.184 A 
ATOM      2  C   UNL     1     -32.690   4.642  17.540  1.00  0.00     0.208 A 
ATOM      3  C   UNL     1     -31.753   5.548  18.062  1.00  0.00     0.238 A 
ATOM      4  O   UNL     1     -32.051   6.230  19.081  1.00  0.00    -0.285 OA
ATOM      5  C   UNL     1     -30.498   5.688  17.438  1.00  0.00     0.111 A 
ATOM      6  C   UNL     1     -29.499   6.582  17.898  1.00  0.00     0.134 A 
ATOM      7  C   UNL     1     -28.276   6.668  17.216  1.00  0.00     0.093 A 
ATOM      8  C   UNL     1     -28.033   5.884  16.086  1.00  0.00     0.123 A 
ATOM      9  C   UNL     1     -29.014   5.000  15.627  1.00  0.00     0.094 A 
ATOM     10  C   UNL     1     -30.239   4.897  16.294  1.00  0.00     0.146 A 
ATOM     11  O   UNL     1     -31.153   4.047  15.840  1.00  0.00    -0.451 OA
ENDROOT
BRANCH   1  12
ATOM     12  C   UNL     1     -33.275   2.893  15.817  1.00  0.00     0.063 A 
ATOM     13  C   UNL     1     -35.283   2.394  14.536  1.00  0.00     0.047 A 
ATOM     14  C   UNL     1     -34.388   3.322  15.072  1.00  0.00     0.020 A 
ATOM     15  C   UNL     1     -35.086   1.024  14.747  1.00  0.00     0.119 A 
ATOM     16  C   UNL     1     -33.991   0.588  15.498  1.00  0.00     0.093 A 
ATOM     17  C   UNL     1     -33.085   1.514  16.037  1.00  0.00     0.130 A 
BRANCH  15  18
ATOM     18  O   UNL     1     -35.973   0.088  14.218  1.00  0.00    -0.508 OA
ATOM     19  H   UNL     1     -36.449  -0.583  14.810  1.00  0.00     0.293 HD
ENDBRANCH  15  18
BRANCH  17  20
ATOM     20  O   UNL     1     -31.993   1.064  16.780  1.00  0.00    -0.507 OA
ATOM     21  H   UNL     1     -32.111   0.490  17.606  1.00  0.00     0.293 HD
ENDBRANCH  17  20
ENDBRANCH   1  12
BRANCH   2  22
ATOM     22  O   UNL     1     -33.957   4.512  18.116  1.00  0.00    -0.502 OA
ATOM     23  H   UNL     1     -34.089   4.341  19.105  1.00  0.00     0.293 HD
ENDBRANCH   2  22
BRANCH   6  24
ATOM     24  O   UNL     1     -29.713   7.380  19.022  1.00  0.00    -0.507 OA
ATOM     25  H   UNL     1     -29.363   7.118  19.936  1.00  0.00     0.293 HD
ENDBRANCH   6  24
BRANCH   8  26
ATOM     26  O   UNL     1     -26.810   5.991  15.427  1.00  0.00    -0.508 OA
ATOM     27  H   UNL     1     -25.952   6.181  15.933  1.00  0.00     0.293 HD
ENDBRANCH   8  26
TORSDOF 6
ENDMDL
MODEL 5
REMARK VINA RESULT:    -6.084     14.937     16.904
REMARK INTER + INTRA:          -7.698
REMARK INTER:                  -7.268
REMARK INTRA:                  -0.430
REMARK UNBOUND:                -0.370
REMARK SMILES O=c1c(O)c(-c2ccc(O)cc2O)oc2cc(O)cc(O)c12
REMARK SMILES IDX 5 1 3 2 2 3 1 4 22 5 20 6 19 7 17 8 16 9 15 10 14 11 6 12
REMARK SMILES IDX 8 13 7 14 9 15 11 16 12 17 10 18 13 20 4 22 21 24 18 26
REMARK H PARENT 10 19 13 21 4 23 21 25 18 27
REMARK Flexibility Score: inf
ROOT
ATOM      1  C   UNL     1     -26.919   1.131   2.189  1.00  0.00     0.184 A 
ATOM      2  C   UNL     1     -27.870   1.927   1.523  1.00  0.00     0.208 A 
ATOM      3  C   UNL     1     -27.676   3.315   1.471  1.00  0.00     0.238 A 
ATOM      4  O   UNL     1     -28.526   4.039   0.884  1.00  0.00    -0.285 OA
ATOM      5  C   UNL     1     -26.532   3.882   2.069  1.00  0.00     0.111 A 
ATOM      6  C   UNL     1     -26.259   5.271   2.058  1.00  0.00     0.134 A 
ATOM      7  C   UNL     1     -25.093   5.756   2.670  1.00  0.00     0.093 A 
ATOM      8  C   UNL     1     -24.197   4.882   3.288  1.00  0.00     0.123 A 
ATOM      9  C   UNL     1     -24.460   3.509   3.303  1.00  0.00     0.094 A 
ATOM     10  C   UNL     1     -25.617   3.006   2.701  1.00  0.00     0.146 A 
ATOM     11  O   UNL     1     -25.846   1.698   2.731  1.00  0.00    -0.451 OA
ENDROOT
BRANCH   1  12
ATOM     12  C   UNL     1     -27.070  -0.339   2.297  1.00  0.00     0.063 A 
ATOM     13  C   UNL     1     -26.920  -2.554   1.299  1.00  0.00     0.047 A 
ATOM     14  C   UNL     1     -26.752  -1.170   1.208  1.00  0.00     0.020 A 
ATOM     15  C   UNL     1     -27.418  -3.126   2.474  1.00  0.00     0.119 A 
ATOM     16  C   UNL     1     -27.751  -2.308   3.557  1.00  0.00     0.093 A 
ATOM     17  C   UNL     1     -27.583  -0.917   3.475  1.00  0.00     0.130 A 
BRANCH  15  18
ATOM     18  O   UNL     1     -27.591  -4.505   2.577  1.00  0.00    -0.508 OA
ATOM     19  H   UNL     1     -26.803  -5.127   2.717  1.00  0.00     0.293 HD
ENDBRANCH  15  18
BRANCH  17  20
ATOM     20  O   UNL     1     -27.914  -0.113   4.567  1.00  0.00    -0.507 OA
ATOM     21  H   UNL     1     -27.989  -0.492   5.503  1.00  0.00     0.293 HD
ENDBRANCH  17  20
ENDBRANCH   1  12
BRANCH   2  22
ATOM     22  O   UNL     1     -28.975   1.334   0.904  1.00  0.00    -0.502 OA
ATOM     23  H   UNL     1     -29.918   1.445   1.256  1.00  0.00     0.293 HD
ENDBRANCH   2  22
BRANCH   6  24
ATOM     24  O   UNL     1     -27.134   6.170   1.446  1.00  0.00    -0.507 OA
ATOM     25  H   UNL     1     -27.439   6.047   0.488  1.00  0.00     0.293 HD
ENDBRANCH   6  24
BRANCH   8  26
ATOM     26  O   UNL     1     -23.046   5.390   3.887  1.00  0.00    -0.508 OA
ATOM     27  H   UNL     1     -22.603   6.237   3.548  1.00  0.00     0.293 HD
ENDBRANCH   8  26
TORSDOF 6
ENDMDL
MODEL 6
REMARK VINA RESULT:    -5.977     14.101     16.872
REMARK INTER + INTRA:          -7.569
REMARK INTER:                  -7.148
REMARK INTRA:                  -0.422
REMARK UNBOUND:                -0.370
REMARK SMILES O=c1c(O)c(-c2ccc(O)cc2O)oc2cc(O)cc(O)c12
REMARK SMILES IDX 5 1 3 2 2 3 1 4 22 5 20 6 19 7 17 8 16 9 15 10 14 11 6 12
REMARK SMILES IDX 8 13 7 14 9 15 11 16 12 17 10 18 13 20 4 22 21 24 18 26
REMARK H PARENT 10 19 13 21 4 23 21 25 18 27
REMARK Flexibility Score: inf
ROOT
ATOM      1  C   UNL     1     -26.702   2.956   2.715  1.00  0.00     0.184 A 
ATOM      2  C   UNL     1     -27.461   3.752   1.838  1.00  0.00     0.208 A 
ATOM      3  C   UNL     1     -27.096   5.095   1.652  1.00  0.00     0.238 A 
ATOM      4  O   UNL     1     -27.775   5.820   0.875  1.00  0.00    -0.285 OA
ATOM      5  C   UNL     1     -25.974   5.612   2.330  1.00  0.00     0.111 A 
ATOM      6  C   UNL     1     -25.536   6.952   2.195  1.00  0.00     0.134 A 
ATOM      7  C   UNL     1     -24.404   7.388   2.900  1.00  0.00     0.093 A 
ATOM      8  C   UNL     1     -23.702   6.513   3.732  1.00  0.00     0.123 A 
ATOM      9  C   UNL     1     -24.128   5.189   3.869  1.00  0.00     0.094 A 
ATOM     10  C   UNL     1     -25.256   4.735   3.179  1.00  0.00     0.146 A 
ATOM     11  O   UNL     1     -25.642   3.474   3.329  1.00  0.00    -0.451 OA
ENDROOT
BRANCH   1  12
ATOM     12  C   UNL     1     -27.040   1.537   2.972  1.00  0.00     0.063 A 
ATOM     13  C   UNL     1     -26.981  -0.801   2.297  1.00  0.00     0.047 A 
ATOM     14  C   UNL     1     -26.639   0.534   2.071  1.00  0.00     0.020 A 
ATOM     15  C   UNL     1     -27.739  -1.152   3.420  1.00  0.00     0.119 A 
ATOM     16  C   UNL     1     -28.156  -0.162   4.313  1.00  0.00     0.093 A 
ATOM     17  C   UNL     1     -27.814   1.181   4.095  1.00  0.00     0.130 A 
BRANCH  15  18
ATOM     18  O   UNL     1     -28.088  -2.481   3.656  1.00  0.00    -0.508 OA
ATOM     19  H   UNL     1     -28.944  -2.725   4.141  1.00  0.00     0.293 HD
ENDBRANCH  15  18
BRANCH  17  20
ATOM     20  O   UNL     1     -28.231   2.159   4.999  1.00  0.00    -0.507 OA
ATOM     21  H   UNL     1     -28.242   3.142   4.753  1.00  0.00     0.293 HD
ENDBRANCH  17  20
ENDBRANCH   1  12
BRANCH   2  22
ATOM     22  O   UNL     1     -28.545   3.203   1.148  1.00  0.00    -0.502 OA
ATOM     23  H   UNL     1     -28.858   3.562   0.254  1.00  0.00     0.293 HD
ENDBRANCH   2  22
BRANCH   6  24
ATOM     24  O   UNL     1     -26.215   7.849   1.370  1.00  0.00    -0.507 OA
ATOM     25  H   UNL     1     -27.207   7.756   1.185  1.00  0.00     0.293 HD
ENDBRANCH   6  24
BRANCH   8  26
ATOM     26  O   UNL     1     -22.580   6.973   4.419  1.00  0.00    -0.508 OA
ATOM     27  H   UNL     1     -21.883   7.553   3.965  1.00  0.00     0.293 HD
ENDBRANCH   8  26
TORSDOF 6
ENDMDL
MODEL 7
REMARK VINA RESULT:    -5.954      2.685      6.096
REMARK INTER + INTRA:          -7.542
REMARK INTER:                  -7.111
REMARK INTRA:                  -0.431
REMARK UNBOUND:                -0.370
REMARK SMILES O=c1c(O)c(-c2ccc(O)cc2O)oc2cc(O)cc(O)c12
REMARK SMILES IDX 5 1 3 2 2 3 1 4 22 5 20 6 19 7 17 8 16 9 15 10 14 11 6 12
REMARK SMILES IDX 8 13 7 14 9 15 11 16 12 17 10 18 13 20 4 22 21 24 18 26
REMARK H PARENT 10 19 13 21 4 23 21 25 18 27
REMARK Flexibility Score: inf
ROOT
ATOM      1  C   UNL     1     -32.356   0.270  17.056  1.00  0.00     0.184 A 
ATOM      2  C   UNL     1     -33.467  -0.039  16.250  1.00  0.00     0.208 A 
ATOM      3  C   UNL     1     -34.177   1.007  15.641  1.00  0.00     0.238 A 
ATOM      4  O   UNL     1     -35.181   0.742  14.924  1.00  0.00    -0.285 OA
ATOM      5  C   UNL     1     -33.757   2.339  15.835  1.00  0.00     0.111 A 
ATOM      6  C   UNL     1     -34.414   3.451  15.254  1.00  0.00     0.134 A 
ATOM      7  C   UNL     1     -33.928   4.746  15.489  1.00  0.00     0.093 A 
ATOM      8  C   UNL     1     -32.801   4.950  16.289  1.00  0.00     0.123 A 
ATOM      9  C   UNL     1     -32.148   3.856  16.865  1.00  0.00     0.094 A 
ATOM     10  C   UNL     1     -32.617   2.558  16.645  1.00  0.00     0.146 A 
ATOM     11  O   UNL     1     -31.981   1.537  17.207  1.00  0.00    -0.451 OA
ENDROOT
BRANCH   1  12
ATOM     12  C   UNL     1     -31.572  -0.783  17.742  1.00  0.00     0.063 A 
ATOM     13  C   UNL     1     -30.004  -2.642  17.651  1.00  0.00     0.047 A 
ATOM     14  C   UNL     1     -30.722  -1.630  17.009  1.00  0.00     0.020 A 
ATOM     15  C   UNL     1     -30.133  -2.829  19.032  1.00  0.00     0.119 A 
ATOM     16  C   UNL     1     -30.986  -2.002  19.767  1.00  0.00     0.093 A 
ATOM     17  C   UNL     1     -31.709  -0.982  19.131  1.00  0.00     0.130 A 
BRANCH  15  18
ATOM     18  O   UNL     1     -29.421  -3.835  19.683  1.00  0.00    -0.508 OA
ATOM     19  H   UNL     1     -29.888  -4.649  20.066  1.00  0.00     0.293 HD
ENDBRANCH  15  18
BRANCH  17  20
ATOM     20  O   UNL     1     -32.553  -0.159  19.879  1.00  0.00    -0.507 OA
ATOM     21  H   UNL     1     -32.860  -0.417  20.809  1.00  0.00     0.293 HD
ENDBRANCH  17  20
ENDBRANCH   1  12
BRANCH   2  22
ATOM     22  O   UNL     1     -33.839  -1.371  16.043  1.00  0.00    -0.502 OA
ATOM     23  H   UNL     1     -33.464  -1.928  15.284  1.00  0.00     0.293 HD
ENDBRANCH   2  22
BRANCH   6  24
ATOM     24  O   UNL     1     -35.541   3.279  14.450  1.00  0.00    -0.507 OA
ATOM     25  H   UNL     1     -36.473   3.234  14.842  1.00  0.00     0.293 HD
ENDBRANCH   6  24
BRANCH   8  26
ATOM     26  O   UNL     1     -32.340   6.247  16.504  1.00  0.00    -0.508 OA
ATOM     27  H   UNL     1     -32.352   6.943  15.767  1.00  0.00     0.293 HD
ENDBRANCH   8  26
TORSDOF 6
ENDMDL
MODEL 8
REMARK VINA RESULT:    -5.942     14.509     17.174
REMARK INTER + INTRA:          -7.527
REMARK INTER:                  -7.147
REMARK INTRA:                  -0.380
REMARK UNBOUND:                -0.370
REMARK SMILES O=c1c(O)c(-c2ccc(O)cc2O)oc2cc(O)cc(O)c12
REMARK SMILES IDX 5 1 3 2 2 3 1 4 22 5 20 6 19 7 17 8 16 9 15 10 14 11 6 12
REMARK SMILES IDX 8 13 7 14 9 15 11 16 12 17 10 18 13 20 4 22 21 24 18 26
REMARK H PARENT 10 19 13 21 4 23 21 25 18 27
REMARK Flexibility Score: inf
ROOT
ATOM      1  C   UNL     1     -26.304   2.566   2.580  1.00  0.00     0.184 A 
ATOM      2  C   UNL     1     -24.941   2.868   2.400  1.00  0.00     0.208 A 
ATOM      3  C   UNL     1     -24.553   4.212   2.294  1.00  0.00     0.238 A 
ATOM      4  O   UNL     1     -23.335   4.494   2.123  1.00  0.00    -0.285 OA
ATOM      5  C   UNL     1     -25.525   5.228   2.385  1.00  0.00     0.111 A 
ATOM      6  C   UNL     1     -25.217   6.607   2.293  1.00  0.00     0.134 A 
ATOM      7  C   UNL     1     -26.243   7.558   2.402  1.00  0.00     0.093 A 
ATOM      8  C   UNL     1     -27.566   7.159   2.603  1.00  0.00     0.123 A 
ATOM      9  C   UNL     1     -27.877   5.799   2.695  1.00  0.00     0.094 A 
ATOM     10  C   UNL     1     -26.870   4.836   2.586  1.00  0.00     0.146 A 
ATOM     11  O   UNL     1     -27.193   3.550   2.674  1.00  0.00    -0.451 OA
ENDROOT
BRANCH   1  12
ATOM     12  C   UNL     1     -26.787   1.169   2.682  1.00  0.00     0.063 A 
ATOM     13  C   UNL     1     -27.063  -1.043   1.706  1.00  0.00     0.047 A 
ATOM     14  C   UNL     1     -26.584   0.266   1.623  1.00  0.00     0.020 A 
ATOM     15  C   UNL     1     -27.761  -1.466   2.843  1.00  0.00     0.119 A 
ATOM     16  C   UNL     1     -27.981  -0.572   3.895  1.00  0.00     0.093 A 
ATOM     17  C   UNL     1     -27.501   0.744   3.821  1.00  0.00     0.130 A 
BRANCH  15  18
ATOM     18  O   UNL     1     -28.245  -2.770   2.938  1.00  0.00    -0.508 OA
ATOM     19  H   UNL     1     -29.064  -3.068   2.421  1.00  0.00     0.293 HD
ENDBRANCH  15  18
BRANCH  17  20
ATOM     20  O   UNL     1     -27.721   1.624   4.881  1.00  0.00    -0.507 OA
ATOM     21  H   UNL     1     -28.207   2.504   4.750  1.00  0.00     0.293 HD
ENDBRANCH  17  20
ENDBRANCH   1  12
BRANCH   2  22
ATOM     22  O   UNL     1     -23.993   1.843   2.352  1.00  0.00    -0.502 OA
ATOM     23  H   UNL     1     -23.428   1.663   1.531  1.00  0.00     0.293 HD
ENDBRANCH   2  22
BRANCH   6  24
ATOM     24  O   UNL     1     -23.905   7.037   2.095  1.00  0.00    -0.507 OA
ATOM     25  H   UNL     1     -23.637   7.570   1.275  1.00  0.00     0.293 HD
ENDBRANCH   6  24
BRANCH   8  26
ATOM     26  O   UNL     1     -28.565   8.125   2.708  1.00  0.00    -0.508 OA
ATOM     27  H   UNL     1     -28.787   8.743   1.936  1.00  0.00     0.293 HD
ENDBRANCH   8  26
TORSDOF 6
ENDMDL
MODEL 9
REMARK VINA RESULT:    -5.886     13.618     16.142
REMARK INTER + INTRA:          -7.461
REMARK INTER:                  -7.042
REMARK INTRA:                  -0.419
REMARK UNBOUND:                -0.370
REMARK SMILES O=c1c(O)c(-c2ccc(O)cc2O)oc2cc(O)cc(O)c12
REMARK SMILES IDX 5 1 3 2 2 3 1 4 22 5 20 6 19 7 17 8 16 9 15 10 14 11 6 12
REMARK SMILES IDX 8 13 7 14 9 15 11 16 12 17 10 18 13 20 4 22 21 24 18 26
REMARK H PARENT 10 19 13 21 4 23 21 25 18 27
REMARK Flexibility Score: inf
ROOT
ATOM      1  C   UNL     1     -26.807   2.591   3.386  1.00  0.00     0.184 A 
ATOM      2  C   UNL     1     -27.523   2.258   4.551  1.00  0.00     0.208 A 
ATOM      3  C   UNL     1     -27.902   0.923   4.756  1.00  0.00     0.238 A 
ATOM      4  O   UNL     1     -28.553   0.615   5.793  1.00  0.00    -0.285 OA
ATOM      5  C   UNL     1     -27.548  -0.056   3.806  1.00  0.00     0.111 A 
ATOM      6  C   UNL     1     -27.888  -1.424   3.940  1.00  0.00     0.134 A 
ATOM      7  C   UNL     1     -27.491  -2.339   2.952  1.00  0.00     0.093 A 
ATOM      8  C   UNL     1     -26.761  -1.914   1.839  1.00  0.00     0.123 A 
ATOM      9  C   UNL     1     -26.423  -0.565   1.702  1.00  0.00     0.094 A 
ATOM     10  C   UNL     1     -26.811   0.363   2.673  1.00  0.00     0.146 A 
ATOM     11  O   UNL     1     -26.480   1.640   2.517  1.00  0.00    -0.451 OA
ENDROOT
BRANCH   1  12
ATOM     12  C   UNL     1     -26.390   3.983   3.097  1.00  0.00     0.063 A 
ATOM     13  C   UNL     1     -26.822   6.142   2.060  1.00  0.00     0.047 A 
ATOM     14  C   UNL     1     -27.226   4.839   2.357  1.00  0.00     0.020 A 
ATOM     15  C   UNL     1     -25.573   6.606   2.487  1.00  0.00     0.119 A 
ATOM     16  C   UNL     1     -24.728   5.759   3.210  1.00  0.00     0.093 A 
ATOM     17  C   UNL     1     -25.127   4.449   3.515  1.00  0.00     0.130 A 
BRANCH  15  18
ATOM     18  O   UNL     1     -25.159   7.904   2.195  1.00  0.00    -0.508 OA
ATOM     19  H   UNL     1     -25.821   8.670   2.137  1.00  0.00     0.293 HD
ENDBRANCH  15  18
BRANCH  17  20
ATOM     20  O   UNL     1     -24.277   3.617   4.243  1.00  0.00    -0.507 OA
ATOM     21  H   UNL     1     -23.546   3.991   4.837  1.00  0.00     0.293 HD
ENDBRANCH  17  20
ENDBRANCH   1  12
BRANCH   2  22
ATOM     22  O   UNL     1     -27.827   3.243   5.496  1.00  0.00    -0.502 OA
ATOM     23  H   UNL     1     -28.532   3.952   5.334  1.00  0.00     0.293 HD
ENDBRANCH   2  22
BRANCH   6  24
ATOM     24  O   UNL     1     -28.614  -1.879   5.040  1.00  0.00    -0.507 OA
ATOM     25  H   UNL     1     -29.578  -2.179   4.955  1.00  0.00     0.293 HD
ENDBRANCH   6  24
BRANCH   8  26
ATOM     26  O   UNL     1     -26.379  -2.844   0.875  1.00  0.00    -0.508 OA
ATOM     27  H   UNL     1     -26.425  -2.629  -0.115  1.00  0.00     0.293 HD
ENDBRANCH   8  26
TORSDOF 6
ENDMDL
