MODEL 1
REMARK VINA RESULT:     5.872      0.000      0.000
REMARK INTER + INTRA:           7.589
REMARK INTER:                   7.074
REMARK INTRA:                   0.515
REMARK UNBOUND:                 0.515
REMARK SMILES O=c1ccn([C@H]2O[C@H](CO)[C@@H](O)[C@@H]2O)c(=O)[nH]1
REMARK SMILES IDX 6 1 13 2 11 3 8 4 7 5 5 6 3 7 4 8 2 9 17 10 1 11 15 12 16 14
REMARK SMILES IDX 14 15 12 17 9 19 10 20
REMARK H PARENT 17 13 14 16 12 18 10 21
REMARK Flexibility Score: inf
ROOT
ATOM      1  C   UNL     1      43.222  -4.822   2.300  1.00  0.00     0.255 C 
ATOM      2  C   UNL     1      43.458  -3.739   3.344  1.00  0.00     0.196 C 
ATOM      3  C   UNL     1      43.261  -2.482   2.541  1.00  0.00     0.179 C 
ATOM      4  C   UNL     1      42.253  -2.925   1.481  1.00  0.00     0.178 C 
ATOM      5  O   UNL     1      42.351  -4.324   1.306  1.00  0.00    -0.347 OA
ENDROOT
BRANCH   1   6
ATOM      6  N   UNL     1      42.675  -6.050   2.913  1.00  0.00    -0.271 N 
ATOM      7  C   UNL     1      42.137  -8.379   2.703  1.00  0.00     0.090 A 
ATOM      8  C   UNL     1      42.626  -7.193   2.162  1.00  0.00     0.099 A 
ATOM      9  C   UNL     1      41.707  -8.381   4.026  1.00  0.00     0.253 A 
ATOM     10  N   UNL     1      41.777  -7.240   4.761  1.00  0.00    -0.274 N 
ATOM     11  O   UNL     1      41.258  -9.439   4.541  1.00  0.00    -0.269 OA
ATOM     12  C   UNL     1      42.260  -6.086   4.223  1.00  0.00     0.330 A 
ATOM     13  H   UNL     1      41.460  -7.251   5.757  1.00  0.00     0.175 HD
ATOM     14  O   UNL     1      42.325  -5.054   4.947  1.00  0.00    -0.248 OA
ENDBRANCH   1   6
BRANCH   2  15
ATOM     15  O   UNL     1      44.759  -3.823   3.863  1.00  0.00    -0.386 OA
ATOM     16  H   UNL     1      45.375  -3.634   3.108  1.00  0.00     0.211 HD
ENDBRANCH   2  15
BRANCH   3  17
ATOM     17  O   UNL     1      42.735  -1.446   3.327  1.00  0.00    -0.387 OA
ATOM     18  H   UNL     1      43.504  -1.032   3.800  1.00  0.00     0.211 HD
ENDBRANCH   3  17
BRANCH   4  19
ATOM     19  C   UNL     1      42.480  -2.210   0.144  1.00  0.00     0.191 C 
BRANCH  19  20
ATOM     20  O   UNL     1      42.854  -0.875   0.361  1.00  0.00    -0.394 OA
ATOM     21  H   UNL     1      43.160  -0.814   1.302  1.00  0.00     0.210 HD
ENDBRANCH  19  20
ENDBRANCH   4  19
TORSDOF 5
ENDMDL
MODEL 2
REMARK VINA RESULT:     8.861      2.227      5.542
REMARK INTER + INTRA:          11.189
REMARK INTER:                  10.652
REMARK INTRA:                   0.537
REMARK UNBOUND:                 0.515
REMARK SMILES O=c1ccn([C@H]2O[C@H](CO)[C@@H](O)[C@@H]2O)c(=O)[nH]1
REMARK SMILES IDX 6 1 13 2 11 3 8 4 7 5 5 6 3 7 4 8 2 9 17 10 1 11 15 12 16 14
REMARK SMILES IDX 14 15 12 17 9 19 10 20
REMARK H PARENT 17 13 14 16 12 18 10 21
REMARK Flexibility Score: inf
ROOT
ATOM      1  C   UNL     1      42.533  -3.685   2.592  1.00  0.00     0.255 C 
ATOM      2  C   UNL     1      43.703  -3.385   3.519  1.00  0.00     0.196 C 
ATOM      3  C   UNL     1      43.844  -4.680   4.273  1.00  0.00     0.179 C 
ATOM      4  C   UNL     1      43.357  -5.708   3.252  1.00  0.00     0.178 C 
ATOM      5  O   UNL     1      42.492  -5.072   2.333  1.00  0.00    -0.347 OA
ENDROOT
BRANCH   1   6
ATOM      6  N   UNL     1      42.634  -2.917   1.334  1.00  0.00    -0.271 N 
ATOM      7  C   UNL     1      42.538  -2.892  -1.064  1.00  0.00     0.090 A 
ATOM      8  C   UNL     1      42.471  -3.577   0.147  1.00  0.00     0.099 A 
ATOM      9  C   UNL     1      42.765  -1.520  -1.042  1.00  0.00     0.253 A 
ATOM     10  N   UNL     1      42.909  -0.878   0.148  1.00  0.00    -0.274 N 
ATOM     11  O   UNL     1      42.833  -0.875  -2.121  1.00  0.00    -0.269 OA
ATOM     12  C   UNL     1      42.839  -1.557   1.326  1.00  0.00     0.330 A 
ATOM     13  H   UNL     1      43.072   0.154   0.157  1.00  0.00     0.175 HD
ATOM     14  O   UNL     1      42.960  -0.918   2.408  1.00  0.00    -0.248 OA
ENDBRANCH   1   6
BRANCH   2  15
ATOM     15  O   UNL     1      43.398  -2.318   4.378  1.00  0.00    -0.386 OA
ATOM     16  H   UNL     1      42.608  -1.861   3.988  1.00  0.00     0.211 HD
ENDBRANCH   2  15
BRANCH   3  17
ATOM     17  O   UNL     1      45.179  -4.925   4.629  1.00  0.00    -0.387 OA
ATOM     18  H   UNL     1      45.438  -5.773   4.184  1.00  0.00     0.211 HD
ENDBRANCH   3  17
BRANCH   4  19
ATOM     19  C   UNL     1      42.640  -6.884   3.925  1.00  0.00     0.191 C 
BRANCH  19  20
ATOM     20  O   UNL     1      41.966  -7.657   2.967  1.00  0.00    -0.394 OA
ATOM     21  H   UNL     1      41.314  -8.219   3.461  1.00  0.00     0.210 HD
ENDBRANCH  19  20
ENDBRANCH   4  19
TORSDOF 5
ENDMDL
