MODEL 1
REMARK VINA RESULT:    -4.389      0.000      0.000
REMARK INTER + INTRA:          -7.989
REMARK INTER:                  -6.699
REMARK INTRA:                  -1.290
REMARK UNBOUND:                -1.290
REMARK SMILES OC[C@@H]1O[C@@H](O[C@@]2(CO)O[C@@H](CO)[C@H](O)[C@@H]2O)[C@@H](O)[C@@H](O)[C@@H]1O
REMARK SMILES IDX 6 1 5 2 3 3 22 4 4 5 20 6 18 7 2 8 1 9 23 11 21 13 19 15
REMARK SMILES IDX 7 17 16 18 10 19 14 20 11 21 8 22 9 23 17 25 15 27 12 29
REMARK SMILES IDX 13 30
REMARK H PARENT 1 10 23 12 21 14 19 16 9 24 17 26 15 28 13 31
REMARK Flexibility Score: inf
ROOT
ATOM      1  O   UNL     1       0.479  14.196  -8.030  1.00  0.00    -0.313 OA
ENDROOT
BRANCH   1   2
ATOM      2  C   UNL     1      -0.571  13.944  -8.960  1.00  0.00     0.285 C 
ATOM      3  C   UNL     1      -2.221  14.601  -7.418  1.00  0.00     0.178 C 
ATOM      4  C   UNL     1      -2.805  13.175  -7.279  1.00  0.00     0.177 C 
ATOM      5  O   UNL     1      -1.681  14.799  -8.717  1.00  0.00    -0.341 OA
ATOM      6  C   UNL     1      -1.702  12.133  -7.557  1.00  0.00     0.179 C 
ATOM      7  C   UNL     1      -1.008  12.462  -8.895  1.00  0.00     0.202 C 
BRANCH   3   8
ATOM      8  C   UNL     1      -3.287  15.675  -7.168  1.00  0.00     0.191 C 
BRANCH   8   9
ATOM      9  O   UNL     1      -4.044  15.886  -8.328  1.00  0.00    -0.394 OA
ATOM     10  H   UNL     1      -4.792  15.235  -8.292  1.00  0.00     0.210 HD
ENDBRANCH   8   9
ENDBRANCH   3   8
BRANCH   4  11
ATOM     11  O   UNL     1      -3.865  13.002  -8.186  1.00  0.00    -0.387 OA
ATOM     12  H   UNL     1      -4.074  12.031  -8.204  1.00  0.00     0.211 HD
ENDBRANCH   4  11
BRANCH   6  13
ATOM     13  O   UNL     1      -0.765  12.135  -6.509  1.00  0.00    -0.387 OA
ATOM     14  H   UNL     1      -1.281  12.199  -5.663  1.00  0.00     0.211 HD
ENDBRANCH   6  13
BRANCH   7  15
ATOM     15  O   UNL     1       0.065  11.590  -9.154  1.00  0.00    -0.385 OA
ATOM     16  H   UNL     1       0.783  11.781  -8.498  1.00  0.00     0.211 HD
ENDBRANCH   7  15
ENDBRANCH   1   2
BRANCH   1  17
ATOM     17  C   UNL     1       1.620  14.865  -8.569  1.00  0.00     0.224 C 
ATOM     18  C   UNL     1       2.619  13.838  -9.149  1.00  0.00     0.208 C 
ATOM     19  O   UNL     1       2.264  15.492  -7.477  1.00  0.00    -0.337 OA
ATOM     20  C   UNL     1       3.372  13.411  -7.916  1.00  0.00     0.180 C 
ATOM     21  C   UNL     1       3.328  14.666  -7.047  1.00  0.00     0.179 C 
BRANCH  17  22
ATOM     22  C   UNL     1       1.221  15.984  -9.575  1.00  0.00     0.225 C 
BRANCH  22  23
ATOM     23  O   UNL     1       2.204  16.985  -9.643  1.00  0.00    -0.391 OA
ATOM     24  H   UNL     1       1.733  17.858  -9.590  1.00  0.00     0.210 HD
ENDBRANCH  22  23
ENDBRANCH  17  22
BRANCH  18  25
ATOM     25  O   UNL     1       3.491  14.447 -10.072  1.00  0.00    -0.385 OA
ATOM     26  H   UNL     1       4.141  13.755 -10.358  1.00  0.00     0.211 HD
ENDBRANCH  18  25
BRANCH  20  27
ATOM     27  O   UNL     1       4.691  13.031  -8.215  1.00  0.00    -0.387 OA
ATOM     28  H   UNL     1       5.060  12.626  -7.388  1.00  0.00     0.211 HD
ENDBRANCH  20  27
BRANCH  21  29
ATOM     29  C   UNL     1       3.153  14.326  -5.561  1.00  0.00     0.191 C 
BRANCH  29  30
ATOM     30  O   UNL     1       3.899  13.187  -5.229  1.00  0.00    -0.394 OA
ATOM     31  H   UNL     1       3.979  12.647  -6.059  1.00  0.00     0.210 HD
ENDBRANCH  29  30
ENDBRANCH  21  29
ENDBRANCH   1  17
TORSDOF 13
ENDMDL
MODEL 2
REMARK VINA RESULT:    -4.233      9.401     11.759
REMARK INTER + INTRA:          -7.750
REMARK INTER:                  -5.893
REMARK INTRA:                  -1.857
REMARK UNBOUND:                -1.290
REMARK SMILES OC[C@@H]1O[C@@H](O[C@@]2(CO)O[C@@H](CO)[C@H](O)[C@@H]2O)[C@@H](O)[C@@H](O)[C@@H]1O
REMARK SMILES IDX 6 1 5 2 3 3 22 4 4 5 20 6 18 7 2 8 1 9 23 11 21 13 19 15
REMARK SMILES IDX 7 17 16 18 10 19 14 20 11 21 8 22 9 23 17 25 15 27 12 29
REMARK SMILES IDX 13 30
REMARK H PARENT 1 10 23 12 21 14 19 16 9 24 17 26 15 28 13 31
REMARK Flexibility Score: inf
ROOT
ATOM      1  O   UNL     1       0.149   4.185  -7.522  1.00  0.00    -0.313 OA
ENDROOT
BRANCH   1   2
ATOM      2  C   UNL     1       0.922   3.121  -8.073  1.00  0.00     0.285 C 
ATOM      3  C   UNL     1       2.763   4.533  -8.456  1.00  0.00     0.178 C 
ATOM      4  C   UNL     1       2.639   4.447  -9.996  1.00  0.00     0.177 C 
ATOM      5  O   UNL     1       2.309   3.333  -7.848  1.00  0.00    -0.341 OA
ATOM      6  C   UNL     1       1.171   4.180 -10.384  1.00  0.00     0.179 C 
ATOM      7  C   UNL     1       0.638   2.972  -9.586  1.00  0.00     0.202 C 
BRANCH   3   8
ATOM      8  C   UNL     1       4.213   4.781  -8.019  1.00  0.00     0.191 C 
BRANCH   8   9
ATOM      9  O   UNL     1       4.876   5.573  -8.966  1.00  0.00    -0.394 OA
ATOM     10  H   UNL     1       4.221   5.744  -9.691  1.00  0.00     0.210 HD
ENDBRANCH   8   9
ENDBRANCH   3   8
BRANCH   4  11
ATOM     11  O   UNL     1       3.458   3.414 -10.485  1.00  0.00    -0.387 OA
ATOM     12  H   UNL     1       3.696   3.652 -11.419  1.00  0.00     0.211 HD
ENDBRANCH   4  11
BRANCH   6  13
ATOM     13  O   UNL     1       0.389   5.319 -10.123  1.00  0.00    -0.387 OA
ATOM     14  H   UNL     1      -0.082   5.544 -10.968  1.00  0.00     0.211 HD
ENDBRANCH   6  13
BRANCH   7  15
ATOM     15  O   UNL     1      -0.726   2.739  -9.840  1.00  0.00    -0.385 OA
ATOM     16  H   UNL     1      -0.882   1.760  -9.810  1.00  0.00     0.211 HD
ENDBRANCH   7  15
ENDBRANCH   1   2
BRANCH   1  17
ATOM     17  C   UNL     1      -0.460   3.903  -6.261  1.00  0.00     0.224 C 
ATOM     18  C   UNL     1      -0.988   2.450  -6.233  1.00  0.00     0.208 C 
ATOM     19  O   UNL     1      -1.588   4.751  -6.169  1.00  0.00    -0.337 OA
ATOM     20  C   UNL     1      -2.322   2.594  -6.918  1.00  0.00     0.180 C 
ATOM     21  C   UNL     1      -2.736   4.016  -6.546  1.00  0.00     0.179 C 
BRANCH  17  22
ATOM     22  C   UNL     1       0.477   4.249  -5.068  1.00  0.00     0.225 C 
BRANCH  22  23
ATOM     23  O   UNL     1       1.449   3.254  -4.875  1.00  0.00    -0.391 OA
ATOM     24  H   UNL     1       0.967   2.419  -4.638  1.00  0.00     0.210 HD
ENDBRANCH  22  23
ENDBRANCH  17  22
BRANCH  18  25
ATOM     25  O   UNL     1      -1.159   2.001  -4.909  1.00  0.00    -0.385 OA
ATOM     26  H   UNL     1      -0.975   2.774  -4.315  1.00  0.00     0.211 HD
ENDBRANCH  18  25
BRANCH  20  27
ATOM     27  O   UNL     1      -3.250   1.645  -6.458  1.00  0.00    -0.387 OA
ATOM     28  H   UNL     1      -3.510   1.103  -7.247  1.00  0.00     0.211 HD
ENDBRANCH  20  27
BRANCH  21  29
ATOM     29  C   UNL     1      -3.448   4.725  -7.706  1.00  0.00     0.191 C 
BRANCH  29  30
ATOM     30  O   UNL     1      -2.553   4.958  -8.760  1.00  0.00    -0.394 OA
ATOM     31  H   UNL     1      -1.639   4.860  -8.384  1.00  0.00     0.210 HD
ENDBRANCH  29  30
ENDBRANCH  21  29
ENDBRANCH   1  17
TORSDOF 13
ENDMDL
MODEL 3
REMARK VINA RESULT:    -4.193      9.210     11.385
REMARK INTER + INTRA:          -7.690
REMARK INTER:                  -6.109
REMARK INTRA:                  -1.581
REMARK UNBOUND:                -1.290
REMARK SMILES OC[C@@H]1O[C@@H](O[C@@]2(CO)O[C@@H](CO)[C@H](O)[C@@H]2O)[C@@H](O)[C@@H](O)[C@@H]1O
REMARK SMILES IDX 6 1 5 2 3 3 22 4 4 5 20 6 18 7 2 8 1 9 23 11 21 13 19 15
REMARK SMILES IDX 7 17 16 18 10 19 14 20 11 21 8 22 9 23 17 25 15 27 12 29
REMARK SMILES IDX 13 30
REMARK H PARENT 1 10 23 12 21 14 19 16 9 24 17 26 15 28 13 31
REMARK Flexibility Score: inf
ROOT
ATOM      1  O   UNL     1       5.456   4.371  -9.048  1.00  0.00    -0.313 OA
ENDROOT
BRANCH   1   2
ATOM      2  C   UNL     1       4.480   3.611  -8.339  1.00  0.00     0.285 C 
ATOM      3  C   UNL     1       3.522   2.810 -10.332  1.00  0.00     0.178 C 
ATOM      4  C   UNL     1       2.200   3.588 -10.130  1.00  0.00     0.177 C 
ATOM      5  O   UNL     1       4.096   2.461  -9.081  1.00  0.00    -0.341 OA
ATOM      6  C   UNL     1       2.467   4.858  -9.298  1.00  0.00     0.179 C 
ATOM      7  C   UNL     1       3.243   4.483  -8.019  1.00  0.00     0.202 C 
BRANCH   3   8
ATOM      8  C   UNL     1       3.304   1.525 -11.141  1.00  0.00     0.191 C 
BRANCH   8   9
ATOM      9  O   UNL     1       2.157   1.642 -11.937  1.00  0.00    -0.394 OA
ATOM     10  H   UNL     1       2.460   2.020 -12.803  1.00  0.00     0.210 HD
ENDBRANCH   8   9
ENDBRANCH   3   8
BRANCH   4  11
ATOM     11  O   UNL     1       1.262   2.774  -9.471  1.00  0.00    -0.387 OA
ATOM     12  H   UNL     1       0.519   2.614 -10.110  1.00  0.00     0.211 HD
ENDBRANCH   4  11
BRANCH   6  13
ATOM     13  O   UNL     1       3.201   5.785 -10.059  1.00  0.00    -0.387 OA
ATOM     14  H   UNL     1       3.473   5.320 -10.894  1.00  0.00     0.211 HD
ENDBRANCH   6  13
BRANCH   7  15
ATOM     15  O   UNL     1       3.588   5.620  -7.265  1.00  0.00    -0.385 OA
ATOM     16  H   UNL     1       2.887   6.308  -7.405  1.00  0.00     0.211 HD
ENDBRANCH   7  15
ENDBRANCH   1   2
BRANCH   1  17
ATOM     17  C   UNL     1       6.788   4.272  -8.541  1.00  0.00     0.224 C 
ATOM     18  C   UNL     1       6.842   4.759  -7.075  1.00  0.00     0.208 C 
ATOM     19  O   UNL     1       7.569   5.172  -9.301  1.00  0.00    -0.337 OA
ATOM     20  C   UNL     1       6.951   6.251  -7.250  1.00  0.00     0.180 C 
ATOM     21  C   UNL     1       7.705   6.376  -8.573  1.00  0.00     0.179 C 
BRANCH  17  22
ATOM     22  C   UNL     1       7.388   2.850  -8.747  1.00  0.00     0.225 C 
BRANCH  22  23
ATOM     23  O   UNL     1       8.786   2.899  -8.881  1.00  0.00    -0.391 OA
ATOM     24  H   UNL     1       8.981   3.461  -9.677  1.00  0.00     0.210 HD
ENDBRANCH  22  23
ENDBRANCH  17  22
BRANCH  18  25
ATOM     25  O   UNL     1       7.980   4.256  -6.416  1.00  0.00    -0.385 OA
ATOM     26  H   UNL     1       8.149   3.349  -6.782  1.00  0.00     0.211 HD
ENDBRANCH  18  25
BRANCH  20  27
ATOM     27  O   UNL     1       7.654   6.852  -6.193  1.00  0.00    -0.387 OA
ATOM     28  H   UNL     1       7.314   6.436  -5.359  1.00  0.00     0.211 HD
ENDBRANCH  20  27
BRANCH  21  29
ATOM     29  C   UNL     1       7.191   7.552  -9.414  1.00  0.00     0.191 C 
BRANCH  29  30
ATOM     30  O   UNL     1       5.826   7.394  -9.693  1.00  0.00    -0.394 OA
ATOM     31  H   UNL     1       5.333   7.907  -9.000  1.00  0.00     0.210 HD
ENDBRANCH  29  30
ENDBRANCH  21  29
ENDBRANCH   1  17
TORSDOF 13
ENDMDL
MODEL 4
REMARK VINA RESULT:    -4.114      9.519     10.910
REMARK INTER + INTRA:          -7.569
REMARK INTER:                  -5.871
REMARK INTRA:                  -1.698
REMARK UNBOUND:                -1.290
REMARK SMILES OC[C@@H]1O[C@@H](O[C@@]2(CO)O[C@@H](CO)[C@H](O)[C@@H]2O)[C@@H](O)[C@@H](O)[C@@H]1O
REMARK SMILES IDX 6 1 5 2 3 3 22 4 4 5 20 6 18 7 2 8 1 9 23 11 21 13 19 15
REMARK SMILES IDX 7 17 16 18 10 19 14 20 11 21 8 22 9 23 17 25 15 27 12 29
REMARK SMILES IDX 13 30
REMARK H PARENT 1 10 23 12 21 14 19 16 9 24 17 26 15 28 13 31
REMARK Flexibility Score: inf
ROOT
ATOM      1  O   UNL     1       2.366   3.121  -8.113  1.00  0.00    -0.313 OA
ENDROOT
BRANCH   1   2
ATOM      2  C   UNL     1       1.827   4.088  -9.011  1.00  0.00     0.285 C 
ATOM      3  C   UNL     1      -0.321   3.137  -8.892  1.00  0.00     0.178 C 
ATOM      4  C   UNL     1      -0.301   2.654 -10.362  1.00  0.00     0.177 C 
ATOM      5  O   UNL     1       0.451   4.320  -8.741  1.00  0.00    -0.341 OA
ATOM      6  C   UNL     1       1.154   2.397 -10.803  1.00  0.00     0.179 C 
ATOM      7  C   UNL     1       2.019   3.631 -10.477  1.00  0.00     0.202 C 
BRANCH   3   8
ATOM      8  C   UNL     1      -1.749   3.426  -8.411  1.00  0.00     0.191 C 
BRANCH   8   9
ATOM      9  O   UNL     1      -2.121   4.732  -8.756  1.00  0.00    -0.394 OA
ATOM     10  H   UNL     1      -2.576   5.109  -7.958  1.00  0.00     0.210 HD
ENDBRANCH   8   9
ENDBRANCH   3   8
BRANCH   4  11
ATOM     11  O   UNL     1      -0.887   3.626 -11.192  1.00  0.00    -0.387 OA
ATOM     12  H   UNL     1      -0.502   4.502 -10.926  1.00  0.00     0.211 HD
ENDBRANCH   4  11
BRANCH   6  13
ATOM     13  O   UNL     1       1.661   1.260 -10.149  1.00  0.00    -0.387 OA
ATOM     14  H   UNL     1       2.063   0.681 -10.849  1.00  0.00     0.211 HD
ENDBRANCH   6  13
BRANCH   7  15
ATOM     15  O   UNL     1       3.375   3.414 -10.781  1.00  0.00    -0.385 OA
ATOM     16  H   UNL     1       3.912   3.635  -9.977  1.00  0.00     0.211 HD
ENDBRANCH   7  15
ENDBRANCH   1   2
BRANCH   1  17
ATOM     17  C   UNL     1       2.936   3.655  -6.917  1.00  0.00     0.224 C 
ATOM     18  C   UNL     1       3.324   5.138  -7.122  1.00  0.00     0.208 C 
ATOM     19  O   UNL     1       4.139   2.944  -6.699  1.00  0.00    -0.337 OA
ATOM     20  C   UNL     1       4.671   5.015  -7.785  1.00  0.00     0.180 C 
ATOM     21  C   UNL     1       5.214   3.714  -7.196  1.00  0.00     0.179 C 
BRANCH  17  22
ATOM     22  C   UNL     1       2.026   3.416  -5.677  1.00  0.00     0.225 C 
BRANCH  22  23
ATOM     23  O   UNL     1       0.929   4.292  -5.670  1.00  0.00    -0.391 OA
ATOM     24  H   UNL     1       1.292   5.212  -5.572  1.00  0.00     0.210 HD
ENDBRANCH  22  23
ENDBRANCH  17  22
BRANCH  18  25
ATOM     25  O   UNL     1       3.441   5.805  -5.888  1.00  0.00    -0.385 OA
ATOM     26  H   UNL     1       2.966   6.671  -5.980  1.00  0.00     0.211 HD
ENDBRANCH  18  25
BRANCH  20  27
ATOM     27  O   UNL     1       5.501   6.107  -7.488  1.00  0.00    -0.387 OA
ATOM     28  H   UNL     1       6.403   5.734  -7.312  1.00  0.00     0.211 HD
ENDBRANCH  20  27
BRANCH  21  29
ATOM     29  C   UNL     1       5.999   2.901  -8.234  1.00  0.00     0.191 C 
BRANCH  29  30
ATOM     30  O   UNL     1       6.064   3.594  -9.451  1.00  0.00    -0.394 OA
ATOM     31  H   UNL     1       5.929   2.921 -10.168  1.00  0.00     0.210 HD
ENDBRANCH  29  30
ENDBRANCH  21  29
ENDBRANCH   1  17
TORSDOF 13
ENDMDL
MODEL 5
REMARK VINA RESULT:    -4.051     10.841     13.010
REMARK INTER + INTRA:          -7.473
REMARK INTER:                  -5.938
REMARK INTRA:                  -1.536
REMARK UNBOUND:                -1.290
REMARK SMILES OC[C@@H]1O[C@@H](O[C@@]2(CO)O[C@@H](CO)[C@H](O)[C@@H]2O)[C@@H](O)[C@@H](O)[C@@H]1O
REMARK SMILES IDX 6 1 5 2 3 3 22 4 4 5 20 6 18 7 2 8 1 9 23 11 21 13 19 15
REMARK SMILES IDX 7 17 16 18 10 19 14 20 11 21 8 22 9 23 17 25 15 27 12 29
REMARK SMILES IDX 13 30
REMARK H PARENT 1 10 23 12 21 14 19 16 9 24 17 26 15 28 13 31
REMARK Flexibility Score: inf
ROOT
ATOM      1  O   UNL     1       4.105   9.960 -18.928  1.00  0.00    -0.313 OA
ENDROOT
BRANCH   1   2
ATOM      2  C   UNL     1       3.984  10.941 -19.955  1.00  0.00     0.285 C 
ATOM      3  C   UNL     1       5.343  12.465 -18.786  1.00  0.00     0.178 C 
ATOM      4  C   UNL     1       4.183  13.456 -18.525  1.00  0.00     0.177 C 
ATOM      5  O   UNL     1       5.141  11.766 -20.006  1.00  0.00    -0.341 OA
ATOM      6  C   UNL     1       2.846  12.690 -18.481  1.00  0.00     0.179 C 
ATOM      7  C   UNL     1       2.718  11.802 -19.736  1.00  0.00     0.202 C 
BRANCH   3   8
ATOM      8  C   UNL     1       6.696  13.184 -18.858  1.00  0.00     0.191 C 
BRANCH   8   9
ATOM      9  O   UNL     1       7.443  12.926 -17.701  1.00  0.00    -0.394 OA
ATOM     10  H   UNL     1       6.852  12.401 -17.101  1.00  0.00     0.210 HD
ENDBRANCH   8   9
ENDBRANCH   3   8
BRANCH   4  11
ATOM     11  O   UNL     1       4.145  14.426 -19.542  1.00  0.00    -0.387 OA
ATOM     12  H   UNL     1       3.568  14.063 -20.264  1.00  0.00     0.211 HD
ENDBRANCH   4  11
BRANCH   6  13
ATOM     13  O   UNL     1       2.782  11.901 -17.318  1.00  0.00    -0.387 OA
ATOM     14  H   UNL     1       3.406  11.140 -17.453  1.00  0.00     0.211 HD
ENDBRANCH   6  13
BRANCH   7  15
ATOM     15  O   UNL     1       1.553  11.016 -19.703  1.00  0.00    -0.385 OA
ATOM     16  H   UNL     1       1.103  11.166 -18.832  1.00  0.00     0.211 HD
ENDBRANCH   7  15
ENDBRANCH   1   2
BRANCH   1  17
ATOM     17  C   UNL     1       4.164   8.608 -19.384  1.00  0.00     0.224 C 
ATOM     18  C   UNL     1       3.765   7.640 -18.247  1.00  0.00     0.208 C 
ATOM     19  O   UNL     1       5.522   8.351 -19.684  1.00  0.00    -0.337 OA
ATOM     20  C   UNL     1       5.059   7.508 -17.487  1.00  0.00     0.180 C 
ATOM     21  C   UNL     1       6.108   7.687 -18.583  1.00  0.00     0.179 C 
BRANCH  17  22
ATOM     22  C   UNL     1       3.352   8.396 -20.696  1.00  0.00     0.225 C 
BRANCH  22  23
ATOM     23  O   UNL     1       1.994   8.162 -20.425  1.00  0.00    -0.391 OA
ATOM     24  H   UNL     1       1.814   8.518 -19.515  1.00  0.00     0.210 HD
ENDBRANCH  22  23
ENDBRANCH  17  22
BRANCH  18  25
ATOM     25  O   UNL     1       3.367   6.392 -18.762  1.00  0.00    -0.385 OA
ATOM     26  H   UNL     1       3.652   6.366 -19.713  1.00  0.00     0.211 HD
ENDBRANCH  18  25
BRANCH  20  27
ATOM     27  O   UNL     1       5.171   6.257 -16.859  1.00  0.00    -0.387 OA
ATOM     28  H   UNL     1       4.726   5.602 -17.457  1.00  0.00     0.211 HD
ENDBRANCH  20  27
BRANCH  21  29
ATOM     29  C   UNL     1       7.324   8.480 -18.085  1.00  0.00     0.191 C 
BRANCH  29  30
ATOM     30  O   UNL     1       7.207   9.830 -18.444  1.00  0.00    -0.394 OA
ATOM     31  H   UNL     1       6.842  10.304 -17.652  1.00  0.00     0.210 HD
ENDBRANCH  29  30
ENDBRANCH  21  29
ENDBRANCH   1  17
TORSDOF 13
ENDMDL
MODEL 6
REMARK VINA RESULT:    -4.041      9.512     11.313
REMARK INTER + INTRA:          -7.457
REMARK INTER:                  -5.719
REMARK INTRA:                  -1.738
REMARK UNBOUND:                -1.290
REMARK SMILES OC[C@@H]1O[C@@H](O[C@@]2(CO)O[C@@H](CO)[C@H](O)[C@@H]2O)[C@@H](O)[C@@H](O)[C@@H]1O
REMARK SMILES IDX 6 1 5 2 3 3 22 4 4 5 20 6 18 7 2 8 1 9 23 11 21 13 19 15
REMARK SMILES IDX 7 17 16 18 10 19 14 20 11 21 8 22 9 23 17 25 15 27 12 29
REMARK SMILES IDX 13 30
REMARK H PARENT 1 10 23 12 21 14 19 16 9 24 17 26 15 28 13 31
REMARK Flexibility Score: inf
ROOT
ATOM      1  O   UNL     1       2.396   3.214  -8.719  1.00  0.00    -0.313 OA
ENDROOT
BRANCH   1   2
ATOM      2  C   UNL     1       1.172   3.937  -8.815  1.00  0.00     0.285 C 
ATOM      3  C   UNL     1       0.058   2.104  -9.779  1.00  0.00     0.178 C 
ATOM      4  C   UNL     1      -0.113   2.798 -11.151  1.00  0.00     0.177 C 
ATOM      5  O   UNL     1       0.057   3.060  -8.728  1.00  0.00    -0.341 OA
ATOM      6  C   UNL     1       1.025   3.817 -11.362  1.00  0.00     0.179 C 
ATOM      7  C   UNL     1       1.122   4.744 -10.133  1.00  0.00     0.202 C 
BRANCH   3   8
ATOM      8  C   UNL     1      -1.065   1.092  -9.514  1.00  0.00     0.191 C 
BRANCH   8   9
ATOM      9  O   UNL     1      -2.231   1.756  -9.109  1.00  0.00    -0.394 OA
ATOM     10  H   UNL     1      -2.261   1.682  -8.120  1.00  0.00     0.210 HD
ENDBRANCH   8   9
ENDBRANCH   3   8
BRANCH   4  11
ATOM     11  O   UNL     1      -1.356   3.453 -11.204  1.00  0.00    -0.387 OA
ATOM     12  H   UNL     1      -1.178   4.385 -11.496  1.00  0.00     0.211 HD
ENDBRANCH   4  11
BRANCH   6  13
ATOM     13  O   UNL     1       2.243   3.142 -11.561  1.00  0.00    -0.387 OA
ATOM     14  H   UNL     1       2.190   2.713 -12.456  1.00  0.00     0.211 HD
ENDBRANCH   6  13
BRANCH   7  15
ATOM     15  O   UNL     1       2.203   5.638 -10.238  1.00  0.00    -0.385 OA
ATOM     16  H   UNL     1       1.874   6.548 -10.018  1.00  0.00     0.211 HD
ENDBRANCH   7  15
ENDBRANCH   1   2
BRANCH   1  17
ATOM     17  C   UNL     1       2.846   2.956  -7.388  1.00  0.00     0.224 C 
ATOM     18  C   UNL     1       2.359   4.069  -6.431  1.00  0.00     0.208 C 
ATOM     19  O   UNL     1       4.258   3.036  -7.424  1.00  0.00    -0.337 OA
ATOM     20  C   UNL     1       3.400   5.136  -6.645  1.00  0.00     0.180 C 
ATOM     21  C   UNL     1       4.647   4.321  -6.984  1.00  0.00     0.179 C 
BRANCH  17  22
ATOM     22  C   UNL     1       2.477   1.520  -6.912  1.00  0.00     0.225 C 
BRANCH  22  23
ATOM     23  O   UNL     1       1.152   1.459  -6.450  1.00  0.00    -0.391 OA
ATOM     24  H   UNL     1       1.167   1.720  -5.492  1.00  0.00     0.210 HD
ENDBRANCH  22  23
ENDBRANCH  17  22
BRANCH  18  25
ATOM     25  O   UNL     1       2.372   3.627  -5.094  1.00  0.00    -0.385 OA
ATOM     26  H   UNL     1       1.795   2.821  -5.049  1.00  0.00     0.211 HD
ENDBRANCH  18  25
BRANCH  20  27
ATOM     27  O   UNL     1       3.588   5.920  -5.495  1.00  0.00    -0.387 OA
ATOM     28  H   UNL     1       2.881   5.651  -4.854  1.00  0.00     0.211 HD
ENDBRANCH  20  27
BRANCH  21  29
ATOM     29  C   UNL     1       5.499   5.004  -8.062  1.00  0.00     0.191 C 
BRANCH  29  30
ATOM     30  O   UNL     1       4.686   5.484  -9.097  1.00  0.00    -0.394 OA
ATOM     31  H   UNL     1       5.001   6.403  -9.303  1.00  0.00     0.210 HD
ENDBRANCH  29  30
ENDBRANCH  21  29
ENDBRANCH   1  17
TORSDOF 13
ENDMDL
MODEL 7
REMARK VINA RESULT:    -4.000      9.876     11.012
REMARK INTER + INTRA:          -7.395
REMARK INTER:                  -5.733
REMARK INTRA:                  -1.662
REMARK UNBOUND:                -1.290
REMARK SMILES OC[C@@H]1O[C@@H](O[C@@]2(CO)O[C@@H](CO)[C@H](O)[C@@H]2O)[C@@H](O)[C@@H](O)[C@@H]1O
REMARK SMILES IDX 6 1 5 2 3 3 22 4 4 5 20 6 18 7 2 8 1 9 23 11 21 13 19 15
REMARK SMILES IDX 7 17 16 18 10 19 14 20 11 21 8 22 9 23 17 25 15 27 12 29
REMARK SMILES IDX 13 30
REMARK H PARENT 1 10 23 12 21 14 19 16 9 24 17 26 15 28 13 31
REMARK Flexibility Score: inf
ROOT
ATOM      1  O   UNL     1      -2.343  12.464 -18.925  1.00  0.00    -0.313 OA
ENDROOT
BRANCH   1   2
ATOM      2  C   UNL     1      -3.549  13.110 -19.324  1.00  0.00     0.285 C 
ATOM      3  C   UNL     1      -4.082  13.689 -17.108  1.00  0.00     0.178 C 
ATOM      4  C   UNL     1      -5.308  12.745 -17.048  1.00  0.00     0.177 C 
ATOM      5  O   UNL     1      -3.879  14.165 -18.431  1.00  0.00    -0.341 OA
ATOM      6  C   UNL     1      -5.096  11.560 -18.011  1.00  0.00     0.179 C 
ATOM      7  C   UNL     1      -4.709  12.090 -19.407  1.00  0.00     0.202 C 
BRANCH   3   8
ATOM      8  C   UNL     1      -4.253  14.897 -16.179  1.00  0.00     0.191 C 
BRANCH   8   9
ATOM      9  O   UNL     1      -3.267  14.887 -15.184  1.00  0.00    -0.394 OA
ATOM     10  H   UNL     1      -2.622  15.601 -15.427  1.00  0.00     0.210 HD
ENDBRANCH   8   9
ENDBRANCH   3   8
BRANCH   4  11
ATOM     11  O   UNL     1      -6.471  13.450 -17.406  1.00  0.00    -0.387 OA
ATOM     12  H   UNL     1      -6.182  14.354 -17.696  1.00  0.00     0.211 HD
ENDBRANCH   4  11
BRANCH   6  13
ATOM     13  O   UNL     1      -4.090  10.712 -17.515  1.00  0.00    -0.387 OA
ATOM     14  H   UNL     1      -3.292  10.847 -18.092  1.00  0.00     0.211 HD
ENDBRANCH   6  13
BRANCH   7  15
ATOM     15  O   UNL     1      -4.421  11.044 -20.301  1.00  0.00    -0.385 OA
ATOM     16  H   UNL     1      -5.193  10.422 -20.308  1.00  0.00     0.211 HD
ENDBRANCH   7  15
ENDBRANCH   1   2
BRANCH   1  17
ATOM     17  C   UNL     1      -1.186  12.810 -19.688  1.00  0.00     0.224 C 
ATOM     18  C   UNL     1       0.024  11.956 -19.246  1.00  0.00     0.208 C 
ATOM     19  O   UNL     1      -0.883  14.152 -19.362  1.00  0.00    -0.337 OA
ATOM     20  C   UNL     1       0.513  12.717 -18.041  1.00  0.00     0.180 C 
ATOM     21  C   UNL     1       0.135  14.157 -18.381  1.00  0.00     0.179 C 
BRANCH  17  22
ATOM     22  C   UNL     1      -1.459  12.757 -21.220  1.00  0.00     0.225 C 
BRANCH  22  23
ATOM     23  O   UNL     1      -1.639  11.436 -21.663  1.00  0.00    -0.391 OA
ATOM     24  H   UNL     1      -1.647  11.461 -22.656  1.00  0.00     0.210 HD
ENDBRANCH  22  23
ENDBRANCH  17  22
BRANCH  18  25
ATOM     25  O   UNL     1       1.014  11.927 -20.246  1.00  0.00    -0.385 OA
ATOM     26  H   UNL     1       1.748  12.525 -19.946  1.00  0.00     0.211 HD
ENDBRANCH  18  25
BRANCH  20  27
ATOM     27  O   UNL     1       1.898  12.572 -17.859  1.00  0.00    -0.387 OA
ATOM     28  H   UNL     1       2.324  13.329 -18.337  1.00  0.00     0.211 HD
ENDBRANCH  20  27
BRANCH  21  29
ATOM     29  C   UNL     1      -0.341  14.930 -17.144  1.00  0.00     0.191 C 
BRANCH  29  30
ATOM     30  O   UNL     1      -0.485  14.063 -16.052  1.00  0.00    -0.394 OA
ATOM     31  H   UNL     1      -0.740  14.625 -15.274  1.00  0.00     0.210 HD
ENDBRANCH  29  30
ENDBRANCH  21  29
ENDBRANCH   1  17
TORSDOF 13
ENDMDL
MODEL 8
REMARK VINA RESULT:    -3.999      1.677      5.550
REMARK INTER + INTRA:          -7.393
REMARK INTER:                  -5.669
REMARK INTRA:                  -1.724
REMARK UNBOUND:                -1.290
REMARK SMILES OC[C@@H]1O[C@@H](O[C@@]2(CO)O[C@@H](CO)[C@H](O)[C@@H]2O)[C@@H](O)[C@@H](O)[C@@H]1O
REMARK SMILES IDX 6 1 5 2 3 3 22 4 4 5 20 6 18 7 2 8 1 9 23 11 21 13 19 15
REMARK SMILES IDX 7 17 16 18 10 19 14 20 11 21 8 22 9 23 17 25 15 27 12 29
REMARK SMILES IDX 13 30
REMARK H PARENT 1 10 23 12 21 14 19 16 9 24 17 26 15 28 13 31
REMARK Flexibility Score: inf
ROOT
ATOM      1  O   UNL     1      -0.103  14.244  -9.391  1.00  0.00    -0.313 OA
ENDROOT
BRANCH   1   2
ATOM      2  C   UNL     1       0.457  15.380  -8.737  1.00  0.00     0.285 C 
ATOM      3  C   UNL     1       1.938  15.790 -10.517  1.00  0.00     0.178 C 
ATOM      4  C   UNL     1       3.196  15.435  -9.688  1.00  0.00     0.177 C 
ATOM      5  O   UNL     1       0.923  16.332  -9.684  1.00  0.00    -0.341 OA
ATOM      6  C   UNL     1       2.821  14.424  -8.585  1.00  0.00     0.179 C 
ATOM      7  C   UNL     1       1.605  14.950  -7.794  1.00  0.00     0.202 C 
BRANCH   3   8
ATOM      8  C   UNL     1       2.257  16.810 -11.618  1.00  0.00     0.191 C 
BRANCH   8   9
ATOM      9  O   UNL     1       3.416  16.431 -12.309  1.00  0.00    -0.394 OA
ATOM     10  H   UNL     1       4.085  17.144 -12.136  1.00  0.00     0.210 HD
ENDBRANCH   8   9
ENDBRANCH   3   8
BRANCH   4  11
ATOM     11  O   UNL     1       3.730  16.599  -9.107  1.00  0.00    -0.387 OA
ATOM     12  H   UNL     1       3.636  16.499  -8.124  1.00  0.00     0.211 HD
ENDBRANCH   4  11
BRANCH   6  13
ATOM     13  O   UNL     1       2.526  13.175  -9.159  1.00  0.00    -0.387 OA
ATOM     14  H   UNL     1       2.292  12.564  -8.410  1.00  0.00     0.211 HD
ENDBRANCH   6  13
BRANCH   7  15
ATOM     15  O   UNL     1       1.169  14.024  -6.830  1.00  0.00    -0.385 OA
ATOM     16  H   UNL     1       1.882  13.930  -6.147  1.00  0.00     0.211 HD
ENDBRANCH   7  15
ENDBRANCH   1   2
BRANCH   1  17
ATOM     17  C   UNL     1      -1.515  14.300  -9.601  1.00  0.00     0.224 C 
ATOM     18  C   UNL     1      -2.171  15.268  -8.590  1.00  0.00     0.208 C 
ATOM     19  O   UNL     1      -2.010  13.007  -9.311  1.00  0.00    -0.337 OA
ATOM     20  C   UNL     1      -2.322  14.389  -7.376  1.00  0.00     0.180 C 
ATOM     21  C   UNL     1      -2.511  13.003  -7.990  1.00  0.00     0.179 C 
BRANCH  17  22
ATOM     22  C   UNL     1      -1.874  14.610 -11.084  1.00  0.00     0.225 C 
BRANCH  22  23
ATOM     23  O   UNL     1      -1.627  15.956 -11.399  1.00  0.00    -0.391 OA
ATOM     24  H   UNL     1      -2.186  16.505 -10.788  1.00  0.00     0.210 HD
ENDBRANCH  22  23
ENDBRANCH  17  22
BRANCH  18  25
ATOM     25  O   UNL     1      -3.431  15.698  -9.047  1.00  0.00    -0.385 OA
ATOM     26  H   UNL     1      -4.020  15.767  -8.251  1.00  0.00     0.211 HD
ENDBRANCH  18  25
BRANCH  20  27
ATOM     27  O   UNL     1      -3.424  14.766  -6.592  1.00  0.00    -0.387 OA
ATOM     28  H   UNL     1      -3.351  14.258  -5.743  1.00  0.00     0.211 HD
ENDBRANCH  20  27
BRANCH  21  29
ATOM     29  C   UNL     1      -1.807  11.914  -7.170  1.00  0.00     0.191 C 
BRANCH  29  30
ATOM     30  O   UNL     1      -0.480  11.764  -7.595  1.00  0.00    -0.394 OA
ATOM     31  H   UNL     1      -0.140  12.675  -7.793  1.00  0.00     0.210 HD
ENDBRANCH  29  30
ENDBRANCH  21  29
ENDBRANCH   1  17
TORSDOF 13
ENDMDL
MODEL 9
REMARK VINA RESULT:    -3.941     11.539     13.882
REMARK INTER + INTRA:          -7.304
REMARK INTER:                  -5.651
REMARK INTRA:                  -1.653
REMARK UNBOUND:                -1.290
REMARK SMILES OC[C@@H]1O[C@@H](O[C@@]2(CO)O[C@@H](CO)[C@H](O)[C@@H]2O)[C@@H](O)[C@@H](O)[C@@H]1O
REMARK SMILES IDX 6 1 5 2 3 3 22 4 4 5 20 6 18 7 2 8 1 9 23 11 21 13 19 15
REMARK SMILES IDX 7 17 16 18 10 19 14 20 11 21 8 22 9 23 17 25 15 27 12 29
REMARK SMILES IDX 13 30
REMARK H PARENT 1 10 23 12 21 14 19 16 9 24 17 26 15 28 13 31
REMARK Flexibility Score: inf
ROOT
ATOM      1  O   UNL     1       5.350   8.440 -18.942  1.00  0.00    -0.313 OA
ENDROOT
BRANCH   1   2
ATOM      2  C   UNL     1       5.033   7.842 -17.688  1.00  0.00     0.285 C 
ATOM      3  C   UNL     1       7.185   6.916 -17.481  1.00  0.00     0.178 C 
ATOM      4  C   UNL     1       6.684   5.459 -17.630  1.00  0.00     0.177 C 
ATOM      5  O   UNL     1       6.192   7.729 -16.873  1.00  0.00    -0.341 OA
ATOM      6  C   UNL     1       5.393   5.438 -18.474  1.00  0.00     0.179 C 
ATOM      7  C   UNL     1       4.384   6.454 -17.899  1.00  0.00     0.202 C 
BRANCH   3   8
ATOM      8  C   UNL     1       8.460   6.990 -16.632  1.00  0.00     0.191 C 
BRANCH   8   9
ATOM      9  O   UNL     1       8.132   7.075 -15.272  1.00  0.00    -0.394 OA
ATOM     10  H   UNL     1       8.963   6.861 -14.774  1.00  0.00     0.210 HD
ENDBRANCH   8   9
ENDBRANCH   3   8
BRANCH   4  11
ATOM     11  O   UNL     1       6.434   4.907 -16.362  1.00  0.00    -0.387 OA
ATOM     12  H   UNL     1       7.242   5.077 -15.810  1.00  0.00     0.211 HD
ENDBRANCH   4  11
BRANCH   6  13
ATOM     13  O   UNL     1       5.689   5.751 -19.813  1.00  0.00    -0.387 OA
ATOM     14  H   UNL     1       5.954   4.900 -20.253  1.00  0.00     0.211 HD
ENDBRANCH   6  13
BRANCH   7  15
ATOM     15  O   UNL     1       3.221   6.536 -18.684  1.00  0.00    -0.385 OA
ATOM     16  H   UNL     1       3.415   6.130 -19.568  1.00  0.00     0.211 HD
ENDBRANCH   7  15
ENDBRANCH   1   2
BRANCH   1  17
ATOM     17  C   UNL     1       4.986   9.816 -19.068  1.00  0.00     0.224 C 
ATOM     18  C   UNL     1       3.715  10.113 -18.240  1.00  0.00     0.208 C 
ATOM     19  O   UNL     1       4.646  10.013 -20.427  1.00  0.00    -0.337 OA
ATOM     20  C   UNL     1       2.625   9.673 -19.182  1.00  0.00     0.180 C 
ATOM     21  C   UNL     1       3.240   9.943 -20.554  1.00  0.00     0.179 C 
BRANCH  17  22
ATOM     22  C   UNL     1       6.176  10.768 -18.746  1.00  0.00     0.225 C 
BRANCH  22  23
ATOM     23  O   UNL     1       7.379  10.055 -18.611  1.00  0.00    -0.391 OA
ATOM     24  H   UNL     1       7.180   9.253 -18.061  1.00  0.00     0.210 HD
ENDBRANCH  22  23
ENDBRANCH  17  22
BRANCH  18  25
ATOM     25  O   UNL     1       3.602  11.489 -17.965  1.00  0.00    -0.385 OA
ATOM     26  H   UNL     1       4.463  11.909 -18.225  1.00  0.00     0.211 HD
ENDBRANCH  18  25
BRANCH  20  27
ATOM     27  O   UNL     1       1.441  10.404 -18.990  1.00  0.00    -0.387 OA
ATOM     28  H   UNL     1       1.120  10.660 -19.893  1.00  0.00     0.211 HD
ENDBRANCH  20  27
BRANCH  21  29
ATOM     29  C   UNL     1       2.865   8.858 -21.571  1.00  0.00     0.191 C 
BRANCH  29  30
ATOM     30  O   UNL     1       3.580   7.680 -21.317  1.00  0.00    -0.394 OA
ATOM     31  H   UNL     1       2.973   6.925 -21.538  1.00  0.00     0.210 HD
ENDBRANCH  29  30
ENDBRANCH  21  29
ENDBRANCH   1  17
TORSDOF 13
ENDMDL
