MODEL 1
REMARK VINA RESULT:    -4.559      0.000      0.000
REMARK INTER + INTRA:          -8.932
REMARK INTER:                  -6.957
REMARK INTRA:                  -1.975
REMARK UNBOUND:                -1.975
REMARK SMILES OC[C@@H]1O[C@H](O[C@]2(CO)O[C@H](CO)[C@@H](O)[C@@H]2O)[C@@H](O)[C@H](O)[C@H]1O
REMARK SMILES IDX 6 1 5 2 3 3 22 4 4 5 20 6 18 7 2 8 1 9 23 11 21 13 19 15
REMARK SMILES IDX 7 17 16 18 10 19 14 20 11 21 8 22 9 23 17 25 15 27 12 29
REMARK SMILES IDX 13 30
REMARK H PARENT 1 10 23 12 21 14 19 16 9 24 17 26 15 28 13 31
REMARK Flexibility Score: inf
ROOT
ATOM      1  O   UNL     1       3.776 -16.107  15.945  1.00  0.00    -0.313 OA
ENDROOT
BRANCH   1   2
ATOM      2  C   UNL     1       4.973 -16.554  15.317  1.00  0.00     0.285 C 
ATOM      3  C   UNL     1       6.120 -17.692  17.102  1.00  0.00     0.178 C 
ATOM      4  C   UNL     1       6.231 -19.040  16.323  1.00  0.00     0.177 C 
ATOM      5  O   UNL     1       6.049 -16.552  16.252  1.00  0.00    -0.341 OA
ATOM      6  C   UNL     1       5.948 -18.848  14.820  1.00  0.00     0.179 C 
ATOM      7  C   UNL     1       4.724 -17.937  14.649  1.00  0.00     0.202 C 
BRANCH   3   8
ATOM      8  C   UNL     1       5.035 -17.685  18.203  1.00  0.00     0.191 C 
BRANCH   8   9
ATOM      9  O   UNL     1       4.913 -16.425  18.802  1.00  0.00    -0.394 OA
ATOM     10  H   UNL     1       3.962 -16.158  18.695  1.00  0.00     0.210 HD
ENDBRANCH   8   9
ENDBRANCH   3   8
BRANCH   4  11
ATOM     11  O   UNL     1       7.494 -19.632  16.509  1.00  0.00    -0.387 OA
ATOM     12  H   UNL     1       7.624 -20.300  15.785  1.00  0.00     0.211 HD
ENDBRANCH   4  11
BRANCH   6  13
ATOM     13  O   UNL     1       5.758 -20.087  14.182  1.00  0.00    -0.387 OA
ATOM     14  H   UNL     1       6.155 -20.025  13.273  1.00  0.00     0.211 HD
ENDBRANCH   6  13
BRANCH   7  15
ATOM     15  O   UNL     1       4.390 -17.792  13.290  1.00  0.00    -0.385 OA
ATOM     16  H   UNL     1       4.934 -18.441  12.771  1.00  0.00     0.211 HD
ENDBRANCH   7  15
ENDBRANCH   1   2
BRANCH   1  17
ATOM     17  C   UNL     1       3.299 -14.838  15.493  1.00  0.00     0.224 C 
ATOM     18  C   UNL     1       2.733 -13.993  16.662  1.00  0.00     0.208 C 
ATOM     19  O   UNL     1       4.417 -14.153  14.960  1.00  0.00    -0.337 OA
ATOM     20  C   UNL     1       3.292 -12.614  16.420  1.00  0.00     0.180 C 
ATOM     21  C   UNL     1       4.540 -12.891  15.582  1.00  0.00     0.179 C 
BRANCH  17  22
ATOM     22  C   UNL     1       2.275 -14.994  14.335  1.00  0.00     0.225 C 
BRANCH  22  23
ATOM     23  O   UNL     1       1.072 -14.341  14.641  1.00  0.00    -0.391 OA
ATOM     24  H   UNL     1       0.593 -14.224  13.779  1.00  0.00     0.210 HD
ENDBRANCH  22  23
ENDBRANCH  17  22
BRANCH  18  25
ATOM     25  O   UNL     1       3.204 -14.476  17.896  1.00  0.00    -0.385 OA
ATOM     26  H   UNL     1       3.790 -13.770  18.275  1.00  0.00     0.211 HD
ENDBRANCH  18  25
BRANCH  20  27
ATOM     27  O   UNL     1       2.370 -11.845  15.693  1.00  0.00    -0.387 OA
ATOM     28  H   UNL     1       1.808 -12.484  15.181  1.00  0.00     0.211 HD
ENDBRANCH  20  27
BRANCH  21  29
ATOM     29  C   UNL     1       5.815 -12.870  16.434  1.00  0.00     0.191 C 
BRANCH  29  30
ATOM     30  O   UNL     1       5.821 -13.971  17.299  1.00  0.00    -0.394 OA
ATOM     31  H   UNL     1       5.046 -13.849  17.907  1.00  0.00     0.210 HD
ENDBRANCH  29  30
ENDBRANCH  21  29
ENDBRANCH   1  17
TORSDOF 13
ENDMDL
MODEL 2
REMARK VINA RESULT:    -4.411      2.318      4.159
REMARK INTER + INTRA:          -8.707
REMARK INTER:                  -6.954
REMARK INTRA:                  -1.753
REMARK UNBOUND:                -1.975
REMARK SMILES OC[C@@H]1O[C@H](O[C@]2(CO)O[C@H](CO)[C@@H](O)[C@@H]2O)[C@@H](O)[C@H](O)[C@H]1O
REMARK SMILES IDX 6 1 5 2 3 3 22 4 4 5 20 6 18 7 2 8 1 9 23 11 21 13 19 15
REMARK SMILES IDX 7 17 16 18 10 19 14 20 11 21 8 22 9 23 17 25 15 27 12 29
REMARK SMILES IDX 13 30
REMARK H PARENT 1 10 23 12 21 14 19 16 9 24 17 26 15 28 13 31
REMARK Flexibility Score: inf
ROOT
ATOM      1  O   UNL     1       3.815 -12.575  14.876  1.00  0.00    -0.313 OA
ENDROOT
BRANCH   1   2
ATOM      2  C   UNL     1       4.449 -13.626  15.598  1.00  0.00     0.285 C 
ATOM      3  C   UNL     1       2.920 -15.465  15.319  1.00  0.00     0.178 C 
ATOM      4  C   UNL     1       3.995 -16.411  14.697  1.00  0.00     0.177 C 
ATOM      5  O   UNL     1       3.469 -14.478  16.187  1.00  0.00    -0.341 OA
ATOM      6  C   UNL     1       5.421 -15.879  14.937  1.00  0.00     0.179 C 
ATOM      7  C   UNL     1       5.450 -14.368  14.666  1.00  0.00     0.202 C 
BRANCH   3   8
ATOM      8  C   UNL     1       1.928 -14.872  14.293  1.00  0.00     0.191 C 
BRANCH   8   9
ATOM      9  O   UNL     1       1.038 -13.973  14.893  1.00  0.00    -0.394 OA
ATOM     10  H   UNL     1       1.257 -13.970  15.862  1.00  0.00     0.210 HD
ENDBRANCH   8   9
ENDBRANCH   3   8
BRANCH   4  11
ATOM     11  O   UNL     1       3.872 -17.719  15.200  1.00  0.00    -0.387 OA
ATOM     12  H   UNL     1       3.016 -18.093  14.863  1.00  0.00     0.211 HD
ENDBRANCH   4  11
BRANCH   6  13
ATOM     13  O   UNL     1       6.353 -16.562  14.134  1.00  0.00    -0.387 OA
ATOM     14  H   UNL     1       5.847 -17.132  13.497  1.00  0.00     0.211 HD
ENDBRANCH   6  13
BRANCH   7  15
ATOM     15  O   UNL     1       6.752 -13.855  14.807  1.00  0.00    -0.385 OA
ATOM     16  H   UNL     1       7.009 -13.935  15.763  1.00  0.00     0.211 HD
ENDBRANCH   7  15
ENDBRANCH   1   2
BRANCH   1  17
ATOM     17  C   UNL     1       4.133 -11.258  15.328  1.00  0.00     0.224 C 
ATOM     18  C   UNL     1       2.872 -10.362  15.406  1.00  0.00     0.208 C 
ATOM     19  O   UNL     1       4.653 -11.396  16.638  1.00  0.00    -0.337 OA
ATOM     20  C   UNL     1       3.016  -9.641  16.722  1.00  0.00     0.180 C 
ATOM     21  C   UNL     1       3.929 -10.568  17.524  1.00  0.00     0.179 C 
BRANCH  17  22
ATOM     22  C   UNL     1       5.255 -10.614  14.466  1.00  0.00     0.225 C 
BRANCH  22  23
ATOM     23  O   UNL     1       4.772  -9.495  13.774  1.00  0.00    -0.391 OA
ATOM     24  H   UNL     1       5.517  -9.183  13.198  1.00  0.00     0.210 HD
ENDBRANCH  22  23
ENDBRANCH  17  22
BRANCH  18  25
ATOM     25  O   UNL     1       1.706 -11.149  15.433  1.00  0.00    -0.385 OA
ATOM     26  H   UNL     1       1.490 -11.308  16.389  1.00  0.00     0.211 HD
ENDBRANCH  18  25
BRANCH  20  27
ATOM     27  O   UNL     1       3.632  -8.396  16.519  1.00  0.00    -0.387 OA
ATOM     28  H   UNL     1       3.442  -8.135  15.580  1.00  0.00     0.211 HD
ENDBRANCH  20  27
BRANCH  21  29
ATOM     29  C   UNL     1       3.135 -11.446  18.499  1.00  0.00     0.191 C 
BRANCH  29  30
ATOM     30  O   UNL     1       2.350 -12.356  17.782  1.00  0.00    -0.394 OA
ATOM     31  H   UNL     1       1.961 -11.848  17.023  1.00  0.00     0.210 HD
ENDBRANCH  29  30
ENDBRANCH  21  29
ENDBRANCH   1  17
TORSDOF 13
ENDMDL
MODEL 3
REMARK VINA RESULT:    -4.338      1.475      5.935
REMARK INTER + INTRA:          -8.596
REMARK INTER:                  -7.171
REMARK INTRA:                  -1.425
REMARK UNBOUND:                -1.975
REMARK SMILES OC[C@@H]1O[C@H](O[C@]2(CO)O[C@H](CO)[C@@H](O)[C@@H]2O)[C@@H](O)[C@H](O)[C@H]1O
REMARK SMILES IDX 6 1 5 2 3 3 22 4 4 5 20 6 18 7 2 8 1 9 23 11 21 13 19 15
REMARK SMILES IDX 7 17 16 18 10 19 14 20 11 21 8 22 9 23 17 25 15 27 12 29
REMARK SMILES IDX 13 30
REMARK H PARENT 1 10 23 12 21 14 19 16 9 24 17 26 15 28 13 31
REMARK Flexibility Score: inf
ROOT
ATOM      1  O   UNL     1       4.241 -16.729  15.440  1.00  0.00    -0.313 OA
ENDROOT
BRANCH   1   2
ATOM      2  C   UNL     1       4.872 -15.465  15.610  1.00  0.00     0.285 C 
ATOM      3  C   UNL     1       3.307 -13.943  14.594  1.00  0.00     0.178 C 
ATOM      4  C   UNL     1       3.151 -13.069  15.878  1.00  0.00     0.177 C 
ATOM      5  O   UNL     1       4.563 -14.609  14.513  1.00  0.00    -0.341 OA
ATOM      6  C   UNL     1       4.271 -13.356  16.895  1.00  0.00     0.179 C 
ATOM      7  C   UNL     1       4.487 -14.873  16.997  1.00  0.00     0.202 C 
BRANCH   3   8
ATOM      8  C   UNL     1       2.113 -14.886  14.321  1.00  0.00     0.191 C 
BRANCH   8   9
ATOM      9  O   UNL     1       0.890 -14.269  14.611  1.00  0.00    -0.394 OA
ATOM     10  H   UNL     1       0.414 -14.176  13.744  1.00  0.00     0.210 HD
ENDBRANCH   8   9
ENDBRANCH   3   8
BRANCH   4  11
ATOM     11  O   UNL     1       3.122 -11.699  15.558  1.00  0.00    -0.387 OA
ATOM     12  H   UNL     1       3.231 -11.616  14.574  1.00  0.00     0.211 HD
ENDBRANCH   4  11
BRANCH   6  13
ATOM     13  O   UNL     1       3.966 -12.797  18.150  1.00  0.00    -0.387 OA
ATOM     14  H   UNL     1       4.819 -12.688  18.649  1.00  0.00     0.211 HD
ENDBRANCH   6  13
BRANCH   7  15
ATOM     15  O   UNL     1       5.456 -15.181  17.968  1.00  0.00    -0.385 OA
ATOM     16  H   UNL     1       5.739 -16.123  17.828  1.00  0.00     0.211 HD
ENDBRANCH   7  15
ENDBRANCH   1   2
BRANCH   1  17
ATOM     17  C   UNL     1       5.096 -17.858  15.627  1.00  0.00     0.224 C 
ATOM     18  C   UNL     1       5.098 -18.784  14.385  1.00  0.00     0.208 C 
ATOM     19  O   UNL     1       6.406 -17.348  15.796  1.00  0.00    -0.337 OA
ATOM     20  C   UNL     1       6.554 -19.124  14.187  1.00  0.00     0.180 C 
ATOM     21  C   UNL     1       7.275 -17.961  14.867  1.00  0.00     0.179 C 
BRANCH  17  22
ATOM     22  C   UNL     1       4.744 -18.629  16.930  1.00  0.00     0.225 C 
BRANCH  22  23
ATOM     23  O   UNL     1       5.532 -18.184  18.001  1.00  0.00    -0.391 OA
ATOM     24  H   UNL     1       6.475 -18.260  17.702  1.00  0.00     0.210 HD
ENDBRANCH  22  23
ENDBRANCH  17  22
BRANCH  18  25
ATOM     25  O   UNL     1       4.624 -18.096  13.254  1.00  0.00    -0.385 OA
ATOM     26  H   UNL     1       5.027 -17.189  13.280  1.00  0.00     0.211 HD
ENDBRANCH  18  25
BRANCH  20  27
ATOM     27  O   UNL     1       6.853 -20.335  14.830  1.00  0.00    -0.387 OA
ATOM     28  H   UNL     1       7.113 -20.106  15.761  1.00  0.00     0.211 HD
ENDBRANCH  20  27
BRANCH  21  29
ATOM     29  C   UNL     1       7.750 -16.914  13.853  1.00  0.00     0.191 C 
BRANCH  29  30
ATOM     30  O   UNL     1       7.579 -17.405  12.553  1.00  0.00    -0.394 OA
ATOM     31  H   UNL     1       8.487 -17.630  12.221  1.00  0.00     0.210 HD
ENDBRANCH  29  30
ENDBRANCH  21  29
ENDBRANCH   1  17
TORSDOF 13
ENDMDL
MODEL 4
REMARK VINA RESULT:    -4.196      2.436      6.344
REMARK INTER + INTRA:          -8.379
REMARK INTER:                  -6.279
REMARK INTRA:                  -2.099
REMARK UNBOUND:                -1.975
REMARK SMILES OC[C@@H]1O[C@H](O[C@]2(CO)O[C@H](CO)[C@@H](O)[C@@H]2O)[C@@H](O)[C@H](O)[C@H]1O
REMARK SMILES IDX 6 1 5 2 3 3 22 4 4 5 20 6 18 7 2 8 1 9 23 11 21 13 19 15
REMARK SMILES IDX 7 17 16 18 10 19 14 20 11 21 8 22 9 23 17 25 15 27 12 29
REMARK SMILES IDX 13 30
REMARK H PARENT 1 10 23 12 21 14 19 16 9 24 17 26 15 28 13 31
REMARK Flexibility Score: inf
ROOT
ATOM      1  O   UNL     1       4.856 -12.972  15.996  1.00  0.00    -0.313 OA
ENDROOT
BRANCH   1   2
ATOM      2  C   UNL     1       4.799 -12.084  14.884  1.00  0.00     0.285 C 
ATOM      3  C   UNL     1       3.477 -10.256  15.726  1.00  0.00     0.178 C 
ATOM      4  C   UNL     1       4.569  -9.181  15.426  1.00  0.00     0.177 C 
ATOM      5  O   UNL     1       3.553 -11.392  14.871  1.00  0.00    -0.341 OA
ATOM      6  C   UNL     1       5.649  -9.724  14.471  1.00  0.00     0.179 C 
ATOM      7  C   UNL     1       6.040 -11.145  14.905  1.00  0.00     0.202 C 
BRANCH   3   8
ATOM      8  C   UNL     1       3.359 -10.639  17.218  1.00  0.00     0.191 C 
BRANCH   8   9
ATOM      9  O   UNL     1       2.471 -11.705  17.411  1.00  0.00    -0.394 OA
ATOM     10  H   UNL     1       2.803 -12.449  16.843  1.00  0.00     0.210 HD
ENDBRANCH   8   9
ENDBRANCH   3   8
BRANCH   4  11
ATOM     11  O   UNL     1       3.996  -8.010  14.898  1.00  0.00    -0.387 OA
ATOM     12  H   UNL     1       3.046  -7.981  15.186  1.00  0.00     0.211 HD
ENDBRANCH   4  11
BRANCH   6  13
ATOM     13  O   UNL     1       6.768  -8.872  14.440  1.00  0.00    -0.387 OA
ATOM     14  H   UNL     1       7.535  -9.363  14.837  1.00  0.00     0.211 HD
ENDBRANCH   6  13
BRANCH   7  15
ATOM     15  O   UNL     1       7.075 -11.652  14.098  1.00  0.00    -0.385 OA
ATOM     16  H   UNL     1       7.095 -12.638  14.212  1.00  0.00     0.211 HD
ENDBRANCH   7  15
ENDBRANCH   1   2
BRANCH   1  17
ATOM     17  C   UNL     1       4.903 -14.358  15.656  1.00  0.00     0.224 C 
ATOM     18  C   UNL     1       4.200 -15.232  16.725  1.00  0.00     0.208 C 
ATOM     19  O   UNL     1       4.192 -14.500  14.439  1.00  0.00    -0.337 OA
ATOM     20  C   UNL     1       3.383 -16.209  15.918  1.00  0.00     0.180 C 
ATOM     21  C   UNL     1       3.188 -15.480  14.589  1.00  0.00     0.179 C 
BRANCH  17  22
ATOM     22  C   UNL     1       6.359 -14.829  15.381  1.00  0.00     0.225 C 
BRANCH  22  23
ATOM     23  O   UNL     1       6.690 -14.662  14.029  1.00  0.00    -0.391 OA
ATOM     24  H   UNL     1       5.850 -14.408  13.567  1.00  0.00     0.210 HD
ENDBRANCH  22  23
ENDBRANCH  17  22
BRANCH  18  25
ATOM     25  O   UNL     1       3.340 -14.450  17.516  1.00  0.00    -0.385 OA
ATOM     26  H   UNL     1       3.888 -13.711  17.891  1.00  0.00     0.211 HD
ENDBRANCH  18  25
BRANCH  20  27
ATOM     27  O   UNL     1       4.109 -17.396  15.728  1.00  0.00    -0.387 OA
ATOM     28  H   UNL     1       4.693 -17.248  14.938  1.00  0.00     0.211 HD
ENDBRANCH  20  27
BRANCH  21  29
ATOM     29  C   UNL     1       1.811 -14.809  14.505  1.00  0.00     0.191 C 
BRANCH  29  30
ATOM     30  O   UNL     1       1.822 -13.618  15.239  1.00  0.00    -0.394 OA
ATOM     31  H   UNL     1       2.020 -12.895  14.589  1.00  0.00     0.210 HD
ENDBRANCH  29  30
ENDBRANCH  21  29
ENDBRANCH   1  17
TORSDOF 13
ENDMDL
MODEL 5
REMARK VINA RESULT:    -4.101      2.021      2.783
REMARK INTER + INTRA:          -8.234
REMARK INTER:                  -6.625
REMARK INTRA:                  -1.609
REMARK UNBOUND:                -1.975
REMARK SMILES OC[C@@H]1O[C@H](O[C@]2(CO)O[C@H](CO)[C@@H](O)[C@@H]2O)[C@@H](O)[C@H](O)[C@H]1O
REMARK SMILES IDX 6 1 5 2 3 3 22 4 4 5 20 6 18 7 2 8 1 9 23 11 21 13 19 15
REMARK SMILES IDX 7 17 16 18 10 19 14 20 11 21 8 22 9 23 17 25 15 27 12 29
REMARK SMILES IDX 13 30
REMARK H PARENT 1 10 23 12 21 14 19 16 9 24 17 26 15 28 13 31
REMARK Flexibility Score: inf
ROOT
ATOM      1  O   UNL     1       5.204 -14.591  16.008  1.00  0.00    -0.313 OA
ENDROOT
BRANCH   1   2
ATOM      2  C   UNL     1       5.272 -15.151  14.701  1.00  0.00     0.285 C 
ATOM      3  C   UNL     1       7.368 -16.334  14.734  1.00  0.00     0.178 C 
ATOM      4  C   UNL     1       6.729 -17.706  14.351  1.00  0.00     0.177 C 
ATOM      5  O   UNL     1       6.627 -15.214  14.263  1.00  0.00    -0.341 OA
ATOM      6  C   UNL     1       5.299 -17.529  13.805  1.00  0.00     0.179 C 
ATOM      7  C   UNL     1       4.542 -16.525  14.686  1.00  0.00     0.202 C 
BRANCH   3   8
ATOM      8  C   UNL     1       7.755 -16.210  16.225  1.00  0.00     0.191 C 
BRANCH   8   9
ATOM      9  O   UNL     1       8.122 -14.901  16.558  1.00  0.00    -0.394 OA
ATOM     10  H   UNL     1       8.228 -14.415  15.698  1.00  0.00     0.210 HD
ENDBRANCH   8   9
ENDBRANCH   3   8
BRANCH   4  11
ATOM     11  O   UNL     1       7.525 -18.395  13.418  1.00  0.00    -0.387 OA
ATOM     12  H   UNL     1       8.139 -17.735  13.000  1.00  0.00     0.211 HD
ENDBRANCH   4  11
BRANCH   6  13
ATOM     13  O   UNL     1       4.628 -18.764  13.743  1.00  0.00    -0.387 OA
ATOM     14  H   UNL     1       4.571 -19.031  12.787  1.00  0.00     0.211 HD
ENDBRANCH   6  13
BRANCH   7  15
ATOM     15  O   UNL     1       3.208 -16.387  14.261  1.00  0.00    -0.385 OA
ATOM     16  H   UNL     1       2.661 -16.135  15.051  1.00  0.00     0.211 HD
ENDBRANCH   7  15
ENDBRANCH   1   2
BRANCH   1  17
ATOM     17  C   UNL     1       4.378 -13.431  16.123  1.00  0.00     0.224 C 
ATOM     18  C   UNL     1       5.129 -12.261  16.806  1.00  0.00     0.208 C 
ATOM     19  O   UNL     1       4.056 -13.033  14.803  1.00  0.00    -0.337 OA
ATOM     20  C   UNL     1       4.773 -11.060  15.967  1.00  0.00     0.180 C 
ATOM     21  C   UNL     1       4.406 -11.678  14.618  1.00  0.00     0.179 C 
BRANCH  17  22
ATOM     22  C   UNL     1       3.034 -13.757  16.833  1.00  0.00     0.225 C 
BRANCH  22  23
ATOM     23  O   UNL     1       2.037 -14.066  15.897  1.00  0.00    -0.391 OA
ATOM     24  H   UNL     1       2.041 -15.054  15.804  1.00  0.00     0.210 HD
ENDBRANCH  22  23
ENDBRANCH  17  22
BRANCH  18  25
ATOM     25  O   UNL     1       6.519 -12.467  16.754  1.00  0.00    -0.385 OA
ATOM     26  H   UNL     1       6.660 -13.447  16.668  1.00  0.00     0.211 HD
ENDBRANCH  18  25
BRANCH  20  27
ATOM     27  O   UNL     1       3.667 -10.399  16.525  1.00  0.00    -0.387 OA
ATOM     28  H   UNL     1       3.905  -9.436  16.571  1.00  0.00     0.211 HD
ENDBRANCH  20  27
BRANCH  21  29
ATOM     29  C   UNL     1       5.564 -11.587  13.617  1.00  0.00     0.191 C 
BRANCH  29  30
ATOM     30  O   UNL     1       5.305 -10.570  12.690  1.00  0.00    -0.394 OA
ATOM     31  H   UNL     1       4.383 -10.254  12.876  1.00  0.00     0.210 HD
ENDBRANCH  29  30
ENDBRANCH  21  29
ENDBRANCH   1  17
TORSDOF 13
ENDMDL
MODEL 6
REMARK VINA RESULT:    -4.022      2.708      4.428
REMARK INTER + INTRA:          -8.112
REMARK INTER:                  -6.040
REMARK INTRA:                  -2.072
REMARK UNBOUND:                -1.975
REMARK SMILES OC[C@@H]1O[C@H](O[C@]2(CO)O[C@H](CO)[C@@H](O)[C@@H]2O)[C@@H](O)[C@H](O)[C@H]1O
REMARK SMILES IDX 6 1 5 2 3 3 22 4 4 5 20 6 18 7 2 8 1 9 23 11 21 13 19 15
REMARK SMILES IDX 7 17 16 18 10 19 14 20 11 21 8 22 9 23 17 25 15 27 12 29
REMARK SMILES IDX 13 30
REMARK H PARENT 1 10 23 12 21 14 19 16 9 24 17 26 15 28 13 31
REMARK Flexibility Score: inf
ROOT
ATOM      1  O   UNL     1       4.448 -12.014  15.658  1.00  0.00    -0.313 OA
ENDROOT
BRANCH   1   2
ATOM      2  C   UNL     1       4.137 -12.940  14.623  1.00  0.00     0.285 C 
ATOM      3  C   UNL     1       5.866 -14.599  14.851  1.00  0.00     0.178 C 
ATOM      4  C   UNL     1       4.864 -15.783  15.027  1.00  0.00     0.177 C 
ATOM      5  O   UNL     1       5.333 -13.513  14.100  1.00  0.00    -0.341 OA
ATOM      6  C   UNL     1       3.439 -15.384  14.599  1.00  0.00     0.179 C 
ATOM      7  C   UNL     1       3.116 -13.988  15.152  1.00  0.00     0.202 C 
BRANCH   3   8
ATOM      8  C   UNL     1       6.543 -14.142  16.163  1.00  0.00     0.191 C 
BRANCH   8   9
ATOM      9  O   UNL     1       7.296 -12.975  15.979  1.00  0.00    -0.394 OA
ATOM     10  H   UNL     1       6.765 -12.237  16.377  1.00  0.00     0.210 HD
ENDBRANCH   8   9
ENDBRANCH   3   8
BRANCH   4  11
ATOM     11  O   UNL     1       5.288 -16.918  14.313  1.00  0.00    -0.387 OA
ATOM     12  H   UNL     1       4.750 -17.691  14.627  1.00  0.00     0.211 HD
ENDBRANCH   4  11
BRANCH   6  13
ATOM     13  O   UNL     1       2.498 -16.337  15.030  1.00  0.00    -0.387 OA
ATOM     14  H   UNL     1       2.999 -17.117  15.387  1.00  0.00     0.211 HD
ENDBRANCH   6  13
BRANCH   7  15
ATOM     15  O   UNL     1       1.796 -13.615  14.840  1.00  0.00    -0.385 OA
ATOM     16  H   UNL     1       1.533 -14.090  14.008  1.00  0.00     0.211 HD
ENDBRANCH   7  15
ENDBRANCH   1   2
BRANCH   1  17
ATOM     17  C   UNL     1       4.165 -10.648  15.348  1.00  0.00     0.224 C 
ATOM     18  C   UNL     1       5.062  -9.681  16.159  1.00  0.00     0.208 C 
ATOM     19  O   UNL     1       4.465 -10.475  13.975  1.00  0.00    -0.337 OA
ATOM     20  C   UNL     1       5.502  -8.654  15.147  1.00  0.00     0.180 C 
ATOM     21  C   UNL     1       5.366  -9.400  13.819  1.00  0.00     0.179 C 
BRANCH  17  22
ATOM     22  C   UNL     1       2.653 -10.326  15.519  1.00  0.00     0.225 C 
BRANCH  22  23
ATOM     23  O   UNL     1       2.118 -11.015  16.617  1.00  0.00    -0.391 OA
ATOM     24  H   UNL     1       1.137 -10.869  16.584  1.00  0.00     0.210 HD
ENDBRANCH  22  23
ENDBRANCH  17  22
BRANCH  18  25
ATOM     25  O   UNL     1       6.191 -10.355  16.658  1.00  0.00    -0.385 OA
ATOM     26  H   UNL     1       6.499 -10.969  15.941  1.00  0.00     0.211 HD
ENDBRANCH  18  25
BRANCH  20  27
ATOM     27  O   UNL     1       4.638  -7.548  15.182  1.00  0.00    -0.387 OA
ATOM     28  H   UNL     1       3.720  -7.909  15.299  1.00  0.00     0.211 HD
ENDBRANCH  20  27
BRANCH  21  29
ATOM     29  C   UNL     1       6.716  -9.939  13.329  1.00  0.00     0.191 C 
BRANCH  29  30
ATOM     30  O   UNL     1       6.894 -11.250  13.788  1.00  0.00    -0.394 OA
ATOM     31  H   UNL     1       6.539 -11.269  14.714  1.00  0.00     0.210 HD
ENDBRANCH  29  30
ENDBRANCH  21  29
ENDBRANCH   1  17
TORSDOF 13
ENDMDL
MODEL 7
REMARK VINA RESULT:    -3.996      1.823      5.873
REMARK INTER + INTRA:          -8.074
REMARK INTER:                  -5.979
REMARK INTRA:                  -2.095
REMARK UNBOUND:                -1.975
REMARK SMILES OC[C@@H]1O[C@H](O[C@]2(CO)O[C@H](CO)[C@@H](O)[C@@H]2O)[C@@H](O)[C@H](O)[C@H]1O
REMARK SMILES IDX 6 1 5 2 3 3 22 4 4 5 20 6 18 7 2 8 1 9 23 11 21 13 19 15
REMARK SMILES IDX 7 17 16 18 10 19 14 20 11 21 8 22 9 23 17 25 15 27 12 29
REMARK SMILES IDX 13 30
REMARK H PARENT 1 10 23 12 21 14 19 16 9 24 17 26 15 28 13 31
REMARK Flexibility Score: inf
ROOT
ATOM      1  O   UNL     1       5.136 -14.416  14.790  1.00  0.00    -0.313 OA
ENDROOT
BRANCH   1   2
ATOM      2  C   UNL     1       4.486 -13.760  15.873  1.00  0.00     0.285 C 
ATOM      3  C   UNL     1       5.568 -11.610  15.923  1.00  0.00     0.178 C 
ATOM      4  C   UNL     1       4.236 -10.810  15.770  1.00  0.00     0.177 C 
ATOM      5  O   UNL     1       5.396 -12.884  16.534  1.00  0.00    -0.341 OA
ATOM      6  C   UNL     1       3.009 -11.699  16.051  1.00  0.00     0.179 C 
ATOM      7  C   UNL     1       3.198 -13.056  15.357  1.00  0.00     0.202 C 
BRANCH   3   8
ATOM      8  C   UNL     1       6.417 -11.676  14.634  1.00  0.00     0.191 C 
BRANCH   8   9
ATOM      9  O   UNL     1       7.523 -12.522  14.784  1.00  0.00    -0.394 OA
ATOM     10  H   UNL     1       7.968 -12.250  15.629  1.00  0.00     0.210 HD
ENDBRANCH   8   9
ENDBRANCH   3   8
BRANCH   4  11
ATOM     11  O   UNL     1       4.222  -9.682  16.610  1.00  0.00    -0.387 OA
ATOM     12  H   UNL     1       4.068  -9.998  17.539  1.00  0.00     0.211 HD
ENDBRANCH   4  11
BRANCH   6  13
ATOM     13  O   UNL     1       1.824 -11.069  15.630  1.00  0.00    -0.387 OA
ATOM     14  H   UNL     1       1.550 -10.430  16.341  1.00  0.00     0.211 HD
ENDBRANCH   6  13
BRANCH   7  15
ATOM     15  O   UNL     1       2.067 -13.874  15.532  1.00  0.00    -0.385 OA
ATOM     16  H   UNL     1       2.031 -14.144  16.487  1.00  0.00     0.211 HD
ENDBRANCH   7  15
ENDBRANCH   1   2
BRANCH   1  17
ATOM     17  C   UNL     1       5.324 -15.822  14.964  1.00  0.00     0.224 C 
ATOM     18  C   UNL     1       6.570 -16.330  14.198  1.00  0.00     0.208 C 
ATOM     19  O   UNL     1       5.544 -16.031  16.347  1.00  0.00    -0.337 OA
ATOM     20  C   UNL     1       7.252 -17.250  15.180  1.00  0.00     0.180 C 
ATOM     21  C   UNL     1       6.748 -16.745  16.531  1.00  0.00     0.179 C 
BRANCH  17  22
ATOM     22  C   UNL     1       4.042 -16.618  14.590  1.00  0.00     0.225 C 
BRANCH  22  23
ATOM     23  O   UNL     1       4.314 -17.554  13.581  1.00  0.00    -0.391 OA
ATOM     24  H   UNL     1       4.796 -18.302  14.020  1.00  0.00     0.210 HD
ENDBRANCH  22  23
ENDBRANCH  17  22
BRANCH  18  25
ATOM     25  O   UNL     1       7.431 -15.262  13.889  1.00  0.00    -0.385 OA
ATOM     26  H   UNL     1       7.883 -15.496  13.036  1.00  0.00     0.211 HD
ENDBRANCH  18  25
BRANCH  20  27
ATOM     27  O   UNL     1       6.837 -18.573  14.961  1.00  0.00    -0.387 OA
ATOM     28  H   UNL     1       6.152 -18.774  15.652  1.00  0.00     0.211 HD
ENDBRANCH  20  27
BRANCH  21  29
ATOM     29  C   UNL     1       7.775 -15.835  17.218  1.00  0.00     0.191 C 
BRANCH  29  30
ATOM     30  O   UNL     1       7.663 -14.534  16.714  1.00  0.00    -0.394 OA
ATOM     31  H   UNL     1       8.146 -13.948  17.353  1.00  0.00     0.210 HD
ENDBRANCH  29  30
ENDBRANCH  21  29
ENDBRANCH   1  17
TORSDOF 13
ENDMDL
MODEL 8
REMARK VINA RESULT:    -3.943      1.932      6.268
REMARK INTER + INTRA:          -7.993
REMARK INTER:                  -6.727
REMARK INTRA:                  -1.266
REMARK UNBOUND:                -1.975
REMARK SMILES OC[C@@H]1O[C@H](O[C@]2(CO)O[C@H](CO)[C@@H](O)[C@@H]2O)[C@@H](O)[C@H](O)[C@H]1O
REMARK SMILES IDX 6 1 5 2 3 3 22 4 4 5 20 6 18 7 2 8 1 9 23 11 21 13 19 15
REMARK SMILES IDX 7 17 16 18 10 19 14 20 11 21 8 22 9 23 17 25 15 27 12 29
REMARK SMILES IDX 13 30
REMARK H PARENT 1 10 23 12 21 14 19 16 9 24 17 26 15 28 13 31
REMARK Flexibility Score: inf
ROOT
ATOM      1  O   UNL     1       4.888 -14.106  15.522  1.00  0.00    -0.313 OA
ENDROOT
BRANCH   1   2
ATOM      2  C   UNL     1       4.558 -12.963  16.304  1.00  0.00     0.285 C 
ATOM      3  C   UNL     1       5.308 -11.137  14.925  1.00  0.00     0.178 C 
ATOM      4  C   UNL     1       3.910 -10.443  14.888  1.00  0.00     0.177 C 
ATOM      5  O   UNL     1       5.516 -11.928  16.090  1.00  0.00    -0.341 OA
ATOM      6  C   UNL     1       2.973 -11.003  15.975  1.00  0.00     0.179 C 
ATOM      7  C   UNL     1       3.092 -12.534  16.006  1.00  0.00     0.202 C 
BRANCH   3   8
ATOM      8  C   UNL     1       5.679 -11.883  13.623  1.00  0.00     0.191 C 
BRANCH   8   9
ATOM      9  O   UNL     1       5.475 -11.083  12.492  1.00  0.00    -0.394 OA
ATOM     10  H   UNL     1       5.328 -11.707  11.733  1.00  0.00     0.210 HD
ENDBRANCH   8   9
ENDBRANCH   3   8
BRANCH   4  11
ATOM     11  O   UNL     1       4.033  -9.048  15.022  1.00  0.00    -0.387 OA
ATOM     12  H   UNL     1       3.269  -8.630  14.543  1.00  0.00     0.211 HD
ENDBRANCH   4  11
BRANCH   6  13
ATOM     13  O   UNL     1       1.645 -10.597  15.752  1.00  0.00    -0.387 OA
ATOM     14  H   UNL     1       1.052 -11.193  16.281  1.00  0.00     0.211 HD
ENDBRANCH   6  13
BRANCH   7  15
ATOM     15  O   UNL     1       2.200 -13.090  16.940  1.00  0.00    -0.385 OA
ATOM     16  H   UNL     1       1.278 -12.844  16.665  1.00  0.00     0.211 HD
ENDBRANCH   7  15
ENDBRANCH   1   2
BRANCH   1  17
ATOM     17  C   UNL     1       4.895 -15.342  16.239  1.00  0.00     0.224 C 
ATOM     18  C   UNL     1       3.624 -16.178  15.947  1.00  0.00     0.208 C 
ATOM     19  O   UNL     1       6.015 -16.072  15.773  1.00  0.00    -0.337 OA
ATOM     20  C   UNL     1       4.146 -17.578  15.747  1.00  0.00     0.180 C 
ATOM     21  C   UNL     1       5.600 -17.348  15.336  1.00  0.00     0.179 C 
BRANCH  17  22
ATOM     22  C   UNL     1       5.110 -15.116  17.762  1.00  0.00     0.225 C 
BRANCH  22  23
ATOM     23  O   UNL     1       4.054 -15.668  18.501  1.00  0.00    -0.391 OA
ATOM     24  H   UNL     1       3.288 -15.745  17.875  1.00  0.00     0.210 HD
ENDBRANCH  22  23
ENDBRANCH  17  22
BRANCH  18  25
ATOM     25  O   UNL     1       3.004 -15.740  14.763  1.00  0.00    -0.385 OA
ATOM     26  H   UNL     1       2.589 -16.539  14.344  1.00  0.00     0.211 HD
ENDBRANCH  18  25
BRANCH  20  27
ATOM     27  O   UNL     1       4.081 -18.289  16.956  1.00  0.00    -0.387 OA
ATOM     28  H   UNL     1       3.704 -19.182  16.741  1.00  0.00     0.211 HD
ENDBRANCH  20  27
BRANCH  21  29
ATOM     29  C   UNL     1       5.784 -17.446  13.816  1.00  0.00     0.191 C 
BRANCH  29  30
ATOM     30  O   UNL     1       4.620 -17.962  13.233  1.00  0.00    -0.394 OA
ATOM     31  H   UNL     1       4.894 -18.339  12.357  1.00  0.00     0.210 HD
ENDBRANCH  29  30
ENDBRANCH  21  29
ENDBRANCH   1  17
TORSDOF 13
ENDMDL
MODEL 9
REMARK VINA RESULT:    -3.922      1.529      2.338
REMARK INTER + INTRA:          -7.960
REMARK INTER:                  -6.255
REMARK INTRA:                  -1.705
REMARK UNBOUND:                -1.975
REMARK SMILES OC[C@@H]1O[C@H](O[C@]2(CO)O[C@H](CO)[C@@H](O)[C@@H]2O)[C@@H](O)[C@H](O)[C@H]1O
REMARK SMILES IDX 6 1 5 2 3 3 22 4 4 5 20 6 18 7 2 8 1 9 23 11 21 13 19 15
REMARK SMILES IDX 7 17 16 18 10 19 14 20 11 21 8 22 9 23 17 25 15 27 12 29
REMARK SMILES IDX 13 30
REMARK H PARENT 1 10 23 12 21 14 19 16 9 24 17 26 15 28 13 31
REMARK Flexibility Score: inf
ROOT
ATOM      1  O   UNL     1       4.968 -15.659  15.753  1.00  0.00    -0.313 OA
ENDROOT
BRANCH   1   2
ATOM      2  C   UNL     1       4.724 -17.007  15.366  1.00  0.00     0.285 C 
ATOM      3  C   UNL     1       6.733 -17.595  14.177  1.00  0.00     0.178 C 
ATOM      4  C   UNL     1       7.048 -18.823  15.088  1.00  0.00     0.177 C 
ATOM      5  O   UNL     1       5.347 -17.279  14.112  1.00  0.00    -0.341 OA
ATOM      6  C   UNL     1       5.824 -19.228  15.931  1.00  0.00     0.179 C 
ATOM      7  C   UNL     1       5.167 -17.965  16.509  1.00  0.00     0.202 C 
BRANCH   3   8
ATOM      8  C   UNL     1       7.615 -16.357  14.456  1.00  0.00     0.191 C 
BRANCH   8   9
ATOM      9  O   UNL     1       7.193 -15.243  13.719  1.00  0.00    -0.394 OA
ATOM     10  H   UNL     1       8.012 -14.848  13.320  1.00  0.00     0.210 HD
ENDBRANCH   8   9
ENDBRANCH   3   8
BRANCH   4  11
ATOM     11  O   UNL     1       7.499 -19.917  14.328  1.00  0.00    -0.387 OA
ATOM     12  H   UNL     1       8.227 -19.593  13.734  1.00  0.00     0.211 HD
ENDBRANCH   4  11
BRANCH   6  13
ATOM     13  O   UNL     1       6.190 -20.126  16.950  1.00  0.00    -0.387 OA
ATOM     14  H   UNL     1       5.436 -20.760  17.082  1.00  0.00     0.211 HD
ENDBRANCH   6  13
BRANCH   7  15
ATOM     15  O   UNL     1       4.084 -18.296  17.343  1.00  0.00    -0.385 OA
ATOM     16  H   UNL     1       3.565 -17.467  17.512  1.00  0.00     0.211 HD
ENDBRANCH   7  15
ENDBRANCH   1   2
BRANCH   1  17
ATOM     17  C   UNL     1       3.933 -14.738  15.405  1.00  0.00     0.224 C 
ATOM     18  C   UNL     1       3.602 -13.783  16.579  1.00  0.00     0.208 C 
ATOM     19  O   UNL     1       4.431 -13.956  14.334  1.00  0.00    -0.337 OA
ATOM     20  C   UNL     1       3.489 -12.428  15.928  1.00  0.00     0.180 C 
ATOM     21  C   UNL     1       4.324 -12.587  14.658  1.00  0.00     0.179 C 
BRANCH  17  22
ATOM     22  C   UNL     1       2.670 -15.472  14.874  1.00  0.00     0.225 C 
BRANCH  22  23
ATOM     23  O   UNL     1       2.115 -14.785  13.785  1.00  0.00    -0.391 OA
ATOM     24  H   UNL     1       1.354 -14.261  14.148  1.00  0.00     0.210 HD
ENDBRANCH  22  23
ENDBRANCH  17  22
BRANCH  18  25
ATOM     25  O   UNL     1       4.652 -13.764  17.514  1.00  0.00    -0.385 OA
ATOM     26  H   UNL     1       4.239 -13.859  18.412  1.00  0.00     0.211 HD
ENDBRANCH  18  25
BRANCH  20  27
ATOM     27  O   UNL     1       2.149 -12.162  15.608  1.00  0.00    -0.387 OA
ATOM     28  H   UNL     1       1.730 -11.786  16.427  1.00  0.00     0.211 HD
ENDBRANCH  20  27
BRANCH  21  29
ATOM     29  C   UNL     1       5.730 -11.995  14.822  1.00  0.00     0.191 C 
BRANCH  29  30
ATOM     30  O   UNL     1       6.605 -12.984  15.286  1.00  0.00    -0.394 OA
ATOM     31  H   UNL     1       6.165 -13.395  16.075  1.00  0.00     0.210 HD
ENDBRANCH  29  30
ENDBRANCH  21  29
ENDBRANCH   1  17
TORSDOF 13
ENDMDL
