MODEL 1
REMARK VINA RESULT:    -5.287      0.000      0.000
REMARK INTER + INTRA:          -9.597
REMARK INTER:                  -8.069
REMARK INTRA:                  -1.527
REMARK UNBOUND:                -1.527
REMARK SMILES OC[C@@H]1O[C@H](O[C@@]2(CO)O[C@H](CO)[C@H](O)[C@H]2O)[C@@H](O)[C@@H](O)[C@@H]1O
REMARK SMILES IDX 6 1 5 2 3 3 22 4 4 5 20 6 18 7 2 8 1 9 23 11 21 13 19 15
REMARK SMILES IDX 7 17 16 18 10 19 14 20 11 21 8 22 9 23 17 25 15 27 12 29
REMARK SMILES IDX 13 30
REMARK H PARENT 1 10 23 12 21 14 19 16 9 24 17 26 15 28 13 31
REMARK Flexibility Score: inf
ROOT
ATOM      1  O   UNL     1      32.244  11.253  30.989  1.00  0.00    -0.313 OA
ENDROOT
BRANCH   1   2
ATOM      2  C   UNL     1      31.532  10.146  30.458  1.00  0.00     0.285 C 
ATOM      3  C   UNL     1      30.345   9.535  28.538  1.00  0.00     0.178 C 
ATOM      4  C   UNL     1      31.535   8.903  27.767  1.00  0.00     0.177 C 
ATOM      5  O   UNL     1      30.808  10.613  29.328  1.00  0.00    -0.341 OA
ATOM      6  C   UNL     1      32.840   9.023  28.585  1.00  0.00     0.179 C 
ATOM      7  C   UNL     1      32.558   9.029  30.095  1.00  0.00     0.202 C 
BRANCH   3   8
ATOM      8  C   UNL     1      29.229  10.034  27.606  1.00  0.00     0.191 C 
BRANCH   8   9
ATOM      9  O   UNL     1      29.585  11.263  27.036  1.00  0.00    -0.394 OA
ATOM     10  H   UNL     1      30.289  11.073  26.361  1.00  0.00     0.210 HD
ENDBRANCH   8   9
ENDBRANCH   3   8
BRANCH   4  11
ATOM     11  O   UNL     1      31.731   9.535  26.525  1.00  0.00    -0.387 OA
ATOM     12  H   UNL     1      32.498   9.088  26.078  1.00  0.00     0.211 HD
ENDBRANCH   4  11
BRANCH   6  13
ATOM     13  O   UNL     1      33.703   7.961  28.271  1.00  0.00    -0.387 OA
ATOM     14  H   UNL     1      34.622   8.335  28.232  1.00  0.00     0.211 HD
ENDBRANCH   6  13
BRANCH   7  15
ATOM     15  O   UNL     1      32.069   7.770  30.480  1.00  0.00    -0.385 OA
ATOM     16  H   UNL     1      32.349   7.632  31.424  1.00  0.00     0.211 HD
ENDBRANCH   7  15
ENDBRANCH   1   2
BRANCH   1  17
ATOM     17  C   UNL     1      31.527  12.107  31.885  1.00  0.00     0.224 C 
ATOM     18  C   UNL     1      31.286  13.513  31.305  1.00  0.00     0.208 C 
ATOM     19  O   UNL     1      32.377  12.303  32.996  1.00  0.00    -0.337 OA
ATOM     20  C   UNL     1      32.616  14.185  31.520  1.00  0.00     0.180 C 
ATOM     21  C   UNL     1      33.202  13.417  32.720  1.00  0.00     0.179 C 
BRANCH  17  22
ATOM     22  C   UNL     1      30.218  11.464  32.421  1.00  0.00     0.225 C 
BRANCH  22  23
ATOM     23  O   UNL     1      29.111  11.873  31.660  1.00  0.00    -0.391 OA
ATOM     24  H   UNL     1      28.850  11.103  31.088  1.00  0.00     0.210 HD
ENDBRANCH  22  23
ENDBRANCH  17  22
BRANCH  18  25
ATOM     25  O   UNL     1      30.950  13.516  29.942  1.00  0.00    -0.385 OA
ATOM     26  H   UNL     1      30.961  14.463  29.646  1.00  0.00     0.211 HD
ENDBRANCH  18  25
BRANCH  20  27
ATOM     27  O   UNL     1      32.459  15.559  31.766  1.00  0.00    -0.387 OA
ATOM     28  H   UNL     1      31.521  15.687  32.071  1.00  0.00     0.211 HD
ENDBRANCH  20  27
BRANCH  21  29
ATOM     29  C   UNL     1      33.348  14.252  34.000  1.00  0.00     0.191 C 
BRANCH  29  30
ATOM     30  O   UNL     1      32.087  14.502  34.558  1.00  0.00    -0.394 OA
ATOM     31  H   UNL     1      31.489  13.784  34.223  1.00  0.00     0.210 HD
ENDBRANCH  29  30
ENDBRANCH  21  29
ENDBRANCH   1  17
TORSDOF 13
ENDMDL
MODEL 2
REMARK VINA RESULT:    -5.273      3.541      5.451
REMARK INTER + INTRA:          -9.575
REMARK INTER:                  -8.273
REMARK INTRA:                  -1.302
REMARK UNBOUND:                -1.527
REMARK SMILES OC[C@@H]1O[C@H](O[C@@]2(CO)O[C@H](CO)[C@H](O)[C@H]2O)[C@@H](O)[C@@H](O)[C@@H]1O
REMARK SMILES IDX 6 1 5 2 3 3 22 4 4 5 20 6 18 7 2 8 1 9 23 11 21 13 19 15
REMARK SMILES IDX 7 17 16 18 10 19 14 20 11 21 8 22 9 23 17 25 15 27 12 29
REMARK SMILES IDX 13 30
REMARK H PARENT 1 10 23 12 21 14 19 16 9 24 17 26 15 28 13 31
REMARK Flexibility Score: inf
ROOT
ATOM      1  O   UNL     1      34.126   8.223  30.535  1.00  0.00    -0.313 OA
ENDROOT
BRANCH   1   2
ATOM      2  C   UNL     1      32.824   8.785  30.494  1.00  0.00     0.285 C 
ATOM      3  C   UNL     1      31.098   9.195  28.968  1.00  0.00     0.178 C 
ATOM      4  C   UNL     1      30.321   7.871  29.195  1.00  0.00     0.177 C 
ATOM      5  O   UNL     1      32.485   8.965  29.125  1.00  0.00    -0.341 OA
ATOM      6  C   UNL     1      31.052   6.978  30.222  1.00  0.00     0.179 C 
ATOM      7  C   UNL     1      31.847   7.818  31.232  1.00  0.00     0.202 C 
BRANCH   3   8
ATOM      8  C   UNL     1      30.841   9.808  27.582  1.00  0.00     0.191 C 
BRANCH   8   9
ATOM      9  O   UNL     1      31.774   9.323  26.656  1.00  0.00    -0.394 OA
ATOM     10  H   UNL     1      32.585   9.891  26.742  1.00  0.00     0.210 HD
ENDBRANCH   8   9
ENDBRANCH   3   8
BRANCH   4  11
ATOM     11  O   UNL     1      30.186   7.147  27.996  1.00  0.00    -0.387 OA
ATOM     12  H   UNL     1      30.854   6.412  28.012  1.00  0.00     0.211 HD
ENDBRANCH   4  11
BRANCH   6  13
ATOM     13  O   UNL     1      30.124   6.173  30.905  1.00  0.00    -0.387 OA
ATOM     14  H   UNL     1      30.068   5.313  30.412  1.00  0.00     0.211 HD
ENDBRANCH   6  13
BRANCH   7  15
ATOM     15  O   UNL     1      30.954   8.544  32.036  1.00  0.00    -0.385 OA
ATOM     16  H   UNL     1      30.648   7.925  32.752  1.00  0.00     0.211 HD
ENDBRANCH   7  15
ENDBRANCH   1   2
BRANCH   1  17
ATOM     17  C   UNL     1      35.070   8.857  31.404  1.00  0.00     0.224 C 
ATOM     18  C   UNL     1      36.509   8.349  31.194  1.00  0.00     0.208 C 
ATOM     19  O   UNL     1      34.721   8.457  32.712  1.00  0.00    -0.337 OA
ATOM     20  C   UNL     1      36.503   7.041  31.939  1.00  0.00     0.180 C 
ATOM     21  C   UNL     1      35.396   7.247  32.991  1.00  0.00     0.179 C 
BRANCH  17  22
ATOM     22  C   UNL     1      34.987  10.409  31.364  1.00  0.00     0.225 C 
BRANCH  22  23
ATOM     23  O   UNL     1      35.827  10.930  30.367  1.00  0.00    -0.391 OA
ATOM     24  H   UNL     1      36.070  10.176  29.768  1.00  0.00     0.210 HD
ENDBRANCH  22  23
ENDBRANCH  17  22
BRANCH  18  25
ATOM     25  O   UNL     1      36.849   8.145  29.848  1.00  0.00    -0.385 OA
ATOM     26  H   UNL     1      37.189   9.011  29.503  1.00  0.00     0.211 HD
ENDBRANCH  18  25
BRANCH  20  27
ATOM     27  O   UNL     1      37.760   6.771  32.505  1.00  0.00    -0.387 OA
ATOM     28  H   UNL     1      38.417   6.790  31.758  1.00  0.00     0.211 HD
ENDBRANCH  20  27
BRANCH  21  29
ATOM     29  C   UNL     1      35.896   7.284  34.442  1.00  0.00     0.191 C 
BRANCH  29  30
ATOM     30  O   UNL     1      36.203   5.988  34.878  1.00  0.00    -0.394 OA
ATOM     31  H   UNL     1      37.127   6.029  35.238  1.00  0.00     0.210 HD
ENDBRANCH  29  30
ENDBRANCH  21  29
ENDBRANCH   1  17
TORSDOF 13
ENDMDL
MODEL 3
REMARK VINA RESULT:    -5.236      3.027      4.439
REMARK INTER + INTRA:          -9.518
REMARK INTER:                  -7.999
REMARK INTRA:                  -1.519
REMARK UNBOUND:                -1.527
REMARK SMILES OC[C@@H]1O[C@H](O[C@@]2(CO)O[C@H](CO)[C@H](O)[C@H]2O)[C@@H](O)[C@@H](O)[C@@H]1O
REMARK SMILES IDX 6 1 5 2 3 3 22 4 4 5 20 6 18 7 2 8 1 9 23 11 21 13 19 15
REMARK SMILES IDX 7 17 16 18 10 19 14 20 11 21 8 22 9 23 17 25 15 27 12 29
REMARK SMILES IDX 13 30
REMARK H PARENT 1 10 23 12 21 14 19 16 9 24 17 26 15 28 13 31
REMARK Flexibility Score: inf
ROOT
ATOM      1  O   UNL     1      32.519   8.569  30.886  1.00  0.00    -0.313 OA
ENDROOT
BRANCH   1   2
ATOM      2  C   UNL     1      31.273   8.518  30.208  1.00  0.00     0.285 C 
ATOM      3  C   UNL     1      29.523   9.932  29.570  1.00  0.00     0.178 C 
ATOM      4  C   UNL     1      30.066  10.290  28.161  1.00  0.00     0.177 C 
ATOM      5  O   UNL     1      30.603   9.744  30.463  1.00  0.00    -0.341 OA
ATOM      6  C   UNL     1      31.431   9.609  27.913  1.00  0.00     0.179 C 
ATOM      7  C   UNL     1      31.549   8.289  28.690  1.00  0.00     0.202 C 
BRANCH   3   8
ATOM      8  C   UNL     1      28.579  11.005  30.135  1.00  0.00     0.191 C 
BRANCH   8   9
ATOM      9  O   UNL     1      27.468  11.166  29.295  1.00  0.00    -0.394 OA
ATOM     10  H   UNL     1      27.009  11.999  29.585  1.00  0.00     0.210 HD
ENDBRANCH   8   9
ENDBRANCH   3   8
BRANCH   4  11
ATOM     11  O   UNL     1      30.233  11.680  28.017  1.00  0.00    -0.387 OA
ATOM     12  H   UNL     1      30.599  12.029  28.872  1.00  0.00     0.211 HD
ENDBRANCH   4  11
BRANCH   6  13
ATOM     13  O   UNL     1      31.605   9.365  26.540  1.00  0.00    -0.387 OA
ATOM     14  H   UNL     1      32.552   9.573  26.327  1.00  0.00     0.211 HD
ENDBRANCH   6  13
BRANCH   7  15
ATOM     15  O   UNL     1      30.641   7.358  28.161  1.00  0.00    -0.385 OA
ATOM     16  H   UNL     1      31.159   6.531  27.970  1.00  0.00     0.211 HD
ENDBRANCH   7  15
ENDBRANCH   1   2
BRANCH   1  17
ATOM     17  C   UNL     1      32.575   7.940  32.170  1.00  0.00     0.224 C 
ATOM     18  C   UNL     1      32.745   8.949  33.322  1.00  0.00     0.208 C 
ATOM     19  O   UNL     1      33.758   7.170  32.172  1.00  0.00    -0.337 OA
ATOM     20  C   UNL     1      34.217   9.262  33.263  1.00  0.00     0.180 C 
ATOM     21  C   UNL     1      34.814   7.997  32.618  1.00  0.00     0.179 C 
BRANCH  17  22
ATOM     22  C   UNL     1      31.394   6.962  32.421  1.00  0.00     0.225 C 
BRANCH  22  23
ATOM     23  O   UNL     1      30.657   7.346  33.553  1.00  0.00    -0.391 OA
ATOM     24  H   UNL     1      30.116   6.559  33.829  1.00  0.00     0.210 HD
ENDBRANCH  22  23
ENDBRANCH  17  22
BRANCH  18  25
ATOM     25  O   UNL     1      31.989  10.121  33.167  1.00  0.00    -0.385 OA
ATOM     26  H   UNL     1      31.112   9.849  32.793  1.00  0.00     0.211 HD
ENDBRANCH  18  25
BRANCH  20  27
ATOM     27  O   UNL     1      34.732   9.526  34.544  1.00  0.00    -0.387 OA
ATOM     28  H   UNL     1      33.966   9.827  35.101  1.00  0.00     0.211 HD
ENDBRANCH  20  27
BRANCH  21  29
ATOM     29  C   UNL     1      35.725   7.179  33.545  1.00  0.00     0.191 C 
BRANCH  29  30
ATOM     30  O   UNL     1      34.953   6.479  34.482  1.00  0.00    -0.394 OA
ATOM     31  H   UNL     1      34.019   6.504  34.146  1.00  0.00     0.210 HD
ENDBRANCH  29  30
ENDBRANCH  21  29
ENDBRANCH   1  17
TORSDOF 13
ENDMDL
MODEL 4
REMARK VINA RESULT:    -5.153      2.870      5.619
REMARK INTER + INTRA:          -9.392
REMARK INTER:                  -8.163
REMARK INTRA:                  -1.229
REMARK UNBOUND:                -1.527
REMARK SMILES OC[C@@H]1O[C@H](O[C@@]2(CO)O[C@H](CO)[C@H](O)[C@H]2O)[C@@H](O)[C@@H](O)[C@@H]1O
REMARK SMILES IDX 6 1 5 2 3 3 22 4 4 5 20 6 18 7 2 8 1 9 23 11 21 13 19 15
REMARK SMILES IDX 7 17 16 18 10 19 14 20 11 21 8 22 9 23 17 25 15 27 12 29
REMARK SMILES IDX 13 30
REMARK H PARENT 1 10 23 12 21 14 19 16 9 24 17 26 15 28 13 31
REMARK Flexibility Score: inf
ROOT
ATOM      1  O   UNL     1      32.154   9.330  29.622  1.00  0.00    -0.313 OA
ENDROOT
BRANCH   1   2
ATOM      2  C   UNL     1      32.714   8.504  30.630  1.00  0.00     0.285 C 
ATOM      3  C   UNL     1      34.800   7.907  31.503  1.00  0.00     0.178 C 
ATOM      4  C   UNL     1      34.863   8.989  32.613  1.00  0.00     0.177 C 
ATOM      5  O   UNL     1      34.109   8.417  30.379  1.00  0.00    -0.341 OA
ATOM      6  C   UNL     1      33.611   9.894  32.565  1.00  0.00     0.179 C 
ATOM      7  C   UNL     1      32.391   9.136  32.019  1.00  0.00     0.202 C 
BRANCH   3   8
ATOM      8  C   UNL     1      36.191   7.421  31.064  1.00  0.00     0.191 C 
BRANCH   8   9
ATOM      9  O   UNL     1      36.693   8.242  30.045  1.00  0.00    -0.394 OA
ATOM     10  H   UNL     1      36.535   9.181  30.330  1.00  0.00     0.210 HD
ENDBRANCH   8   9
ENDBRANCH   3   8
BRANCH   4  11
ATOM     11  O   UNL     1      36.002   9.803  32.469  1.00  0.00    -0.387 OA
ATOM     12  H   UNL     1      35.920  10.284  31.603  1.00  0.00     0.211 HD
ENDBRANCH   4  11
BRANCH   6  13
ATOM     13  O   UNL     1      33.324  10.386  33.849  1.00  0.00    -0.387 OA
ATOM     14  H   UNL     1      34.103  10.167  34.424  1.00  0.00     0.211 HD
ENDBRANCH   6  13
BRANCH   7  15
ATOM     15  O   UNL     1      32.016   8.140  32.936  1.00  0.00    -0.385 OA
ATOM     16  H   UNL     1      32.768   8.049  33.580  1.00  0.00     0.211 HD
ENDBRANCH   7  15
ENDBRANCH   1   2
BRANCH   1  17
ATOM     17  C   UNL     1      30.875   8.941  29.111  1.00  0.00     0.224 C 
ATOM     18  C   UNL     1      30.617   9.465  27.685  1.00  0.00     0.208 C 
ATOM     19  O   UNL     1      29.920   9.590  29.924  1.00  0.00    -0.337 OA
ATOM     20  C   UNL     1      30.230  10.900  27.933  1.00  0.00     0.180 C 
ATOM     21  C   UNL     1      29.668  10.864  29.367  1.00  0.00     0.179 C 
BRANCH  17  22
ATOM     22  C   UNL     1      30.612   7.414  29.227  1.00  0.00     0.225 C 
BRANCH  22  23
ATOM     23  O   UNL     1      30.118   6.897  28.019  1.00  0.00    -0.391 OA
ATOM     24  H   UNL     1      29.137   7.053  28.016  1.00  0.00     0.210 HD
ENDBRANCH  22  23
ENDBRANCH  17  22
BRANCH  18  25
ATOM     25  O   UNL     1      31.738   9.399  26.844  1.00  0.00    -0.385 OA
ATOM     26  H   UNL     1      31.936   8.437  26.705  1.00  0.00     0.211 HD
ENDBRANCH  18  25
BRANCH  20  27
ATOM     27  O   UNL     1      29.295  11.345  26.983  1.00  0.00    -0.387 OA
ATOM     28  H   UNL     1      28.679  11.964  27.459  1.00  0.00     0.211 HD
ENDBRANCH  20  27
BRANCH  21  29
ATOM     29  C   UNL     1      28.165  11.158  29.469  1.00  0.00     0.191 C 
BRANCH  29  30
ATOM     30  O   UNL     1      27.930  12.529  29.295  1.00  0.00    -0.394 OA
ATOM     31  H   UNL     1      28.133  12.726  28.344  1.00  0.00     0.210 HD
ENDBRANCH  29  30
ENDBRANCH  21  29
ENDBRANCH   1  17
TORSDOF 13
ENDMDL
MODEL 5
REMARK VINA RESULT:    -4.852      2.634      5.690
REMARK INTER + INTRA:          -8.933
REMARK INTER:                  -7.843
REMARK INTRA:                  -1.090
REMARK UNBOUND:                -1.527
REMARK SMILES OC[C@@H]1O[C@H](O[C@@]2(CO)O[C@H](CO)[C@H](O)[C@H]2O)[C@@H](O)[C@@H](O)[C@@H]1O
REMARK SMILES IDX 6 1 5 2 3 3 22 4 4 5 20 6 18 7 2 8 1 9 23 11 21 13 19 15
REMARK SMILES IDX 7 17 16 18 10 19 14 20 11 21 8 22 9 23 17 25 15 27 12 29
REMARK SMILES IDX 13 30
REMARK H PARENT 1 10 23 12 21 14 19 16 9 24 17 26 15 28 13 31
REMARK Flexibility Score: inf
ROOT
ATOM      1  O   UNL     1      32.474   9.579  29.438  1.00  0.00    -0.313 OA
ENDROOT
BRANCH   1   2
ATOM      2  C   UNL     1      32.990   9.257  30.721  1.00  0.00     0.285 C 
ATOM      3  C   UNL     1      34.904   8.335  31.701  1.00  0.00     0.178 C 
ATOM      4  C   UNL     1      35.664   9.668  31.933  1.00  0.00     0.177 C 
ATOM      5  O   UNL     1      34.128   8.429  30.522  1.00  0.00    -0.341 OA
ATOM      6  C   UNL     1      34.846  10.864  31.395  1.00  0.00     0.179 C 
ATOM      7  C   UNL     1      33.336  10.586  31.460  1.00  0.00     0.202 C 
BRANCH   3   8
ATOM      8  C   UNL     1      35.844   7.124  31.593  1.00  0.00     0.191 C 
BRANCH   8   9
ATOM      9  O   UNL     1      36.729   7.098  32.679  1.00  0.00    -0.394 OA
ATOM     10  H   UNL     1      36.374   7.735  33.354  1.00  0.00     0.210 HD
ENDBRANCH   8   9
ENDBRANCH   3   8
BRANCH   4  11
ATOM     11  O   UNL     1      36.914   9.662  31.287  1.00  0.00    -0.387 OA
ATOM     12  H   UNL     1      37.227  10.603  31.229  1.00  0.00     0.211 HD
ENDBRANCH   4  11
BRANCH   6  13
ATOM     13  O   UNL     1      35.144  12.021  32.134  1.00  0.00    -0.387 OA
ATOM     14  H   UNL     1      36.079  11.928  32.454  1.00  0.00     0.211 HD
ENDBRANCH   6  13
BRANCH   7  15
ATOM     15  O   UNL     1      32.935  10.518  32.804  1.00  0.00    -0.385 OA
ATOM     16  H   UNL     1      33.363  11.286  33.268  1.00  0.00     0.211 HD
ENDBRANCH   7  15
ENDBRANCH   1   2
BRANCH   1  17
ATOM     17  C   UNL     1      31.188   9.044  29.112  1.00  0.00     0.224 C 
ATOM     18  C   UNL     1      30.748   9.382  27.675  1.00  0.00     0.208 C 
ATOM     19  O   UNL     1      30.268   9.709  29.950  1.00  0.00    -0.337 OA
ATOM     20  C   UNL     1      30.268  10.803  27.810  1.00  0.00     0.180 C 
ATOM     21  C   UNL     1      29.856  10.890  29.292  1.00  0.00     0.179 C 
BRANCH  17  22
ATOM     22  C   UNL     1      31.066   7.525  29.417  1.00  0.00     0.225 C 
BRANCH  22  23
ATOM     23  O   UNL     1      29.823   7.228  29.999  1.00  0.00    -0.391 OA
ATOM     24  H   UNL     1      29.963   7.201  30.983  1.00  0.00     0.210 HD
ENDBRANCH  22  23
ENDBRANCH  17  22
BRANCH  18  25
ATOM     25  O   UNL     1      31.782   9.301  26.730  1.00  0.00    -0.385 OA
ATOM     26  H   UNL     1      32.411   8.605  27.052  1.00  0.00     0.211 HD
ENDBRANCH  18  25
BRANCH  20  27
ATOM     27  O   UNL     1      29.210  11.069  26.924  1.00  0.00    -0.387 OA
ATOM     28  H   UNL     1      29.132  12.059  26.864  1.00  0.00     0.211 HD
ENDBRANCH  20  27
BRANCH  21  29
ATOM     29  C   UNL     1      28.351  11.085  29.523  1.00  0.00     0.191 C 
BRANCH  29  30
ATOM     30  O   UNL     1      27.975  12.388  29.170  1.00  0.00    -0.394 OA
ATOM     31  H   UNL     1      28.710  12.746  28.607  1.00  0.00     0.210 HD
ENDBRANCH  29  30
ENDBRANCH  21  29
ENDBRANCH   1  17
TORSDOF 13
ENDMDL
MODEL 6
REMARK VINA RESULT:    -4.834      1.542      6.345
REMARK INTER + INTRA:          -8.905
REMARK INTER:                  -8.126
REMARK INTRA:                  -0.779
REMARK UNBOUND:                -1.527
REMARK SMILES OC[C@@H]1O[C@H](O[C@@]2(CO)O[C@H](CO)[C@H](O)[C@H]2O)[C@@H](O)[C@@H](O)[C@@H]1O
REMARK SMILES IDX 6 1 5 2 3 3 22 4 4 5 20 6 18 7 2 8 1 9 23 11 21 13 19 15
REMARK SMILES IDX 7 17 16 18 10 19 14 20 11 21 8 22 9 23 17 25 15 27 12 29
REMARK SMILES IDX 13 30
REMARK H PARENT 1 10 23 12 21 14 19 16 9 24 17 26 15 28 13 31
REMARK Flexibility Score: inf
ROOT
ATOM      1  O   UNL     1      31.693  10.481  29.433  1.00  0.00    -0.313 OA
ENDROOT
BRANCH   1   2
ATOM      2  C   UNL     1      31.368  11.072  30.681  1.00  0.00     0.285 C 
ATOM      3  C   UNL     1      32.329  12.436  32.320  1.00  0.00     0.178 C 
ATOM      4  C   UNL     1      31.835  13.795  31.756  1.00  0.00     0.177 C 
ATOM      5  O   UNL     1      32.581  11.541  31.255  1.00  0.00    -0.341 OA
ATOM      6  C   UNL     1      31.039  13.586  30.449  1.00  0.00     0.179 C 
ATOM      7  C   UNL     1      30.340  12.218  30.429  1.00  0.00     0.202 C 
BRANCH   3   8
ATOM      8  C   UNL     1      33.598  12.572  33.177  1.00  0.00     0.191 C 
BRANCH   8   9
ATOM      9  O   UNL     1      33.427  13.571  34.145  1.00  0.00    -0.394 OA
ATOM     10  H   UNL     1      33.538  13.134  35.031  1.00  0.00     0.210 HD
ENDBRANCH   8   9
ENDBRANCH   3   8
BRANCH   4  11
ATOM     11  O   UNL     1      32.914  14.656  31.484  1.00  0.00    -0.387 OA
ATOM     12  H   UNL     1      33.747  14.114  31.511  1.00  0.00     0.211 HD
ENDBRANCH   4  11
BRANCH   6  13
ATOM     13  O   UNL     1      30.084  14.605  30.300  1.00  0.00    -0.387 OA
ATOM     14  H   UNL     1      30.530  15.353  29.822  1.00  0.00     0.211 HD
ENDBRANCH   6  13
BRANCH   7  15
ATOM     15  O   UNL     1      29.334  12.198  31.409  1.00  0.00    -0.385 OA
ATOM     16  H   UNL     1      28.823  13.045  31.309  1.00  0.00     0.211 HD
ENDBRANCH   7  15
ENDBRANCH   1   2
BRANCH   1  17
ATOM     17  C   UNL     1      32.118   9.114  29.462  1.00  0.00     0.224 C 
ATOM     18  C   UNL     1      31.817   8.368  28.149  1.00  0.00     0.208 C 
ATOM     19  O   UNL     1      31.320   8.483  30.441  1.00  0.00    -0.337 OA
ATOM     20  C   UNL     1      30.350   8.053  28.284  1.00  0.00     0.180 C 
ATOM     21  C   UNL     1      30.143   8.021  29.810  1.00  0.00     0.179 C 
BRANCH  17  22
ATOM     22  C   UNL     1      33.599   8.947  29.903  1.00  0.00     0.225 C 
BRANCH  22  23
ATOM     23  O   UNL     1      34.380   8.438  28.852  1.00  0.00    -0.391 OA
ATOM     24  H   UNL     1      33.778   7.891  28.282  1.00  0.00     0.210 HD
ENDBRANCH  22  23
ENDBRANCH  17  22
BRANCH  18  25
ATOM     25  O   UNL     1      32.050   9.131  26.995  1.00  0.00    -0.385 OA
ATOM     26  H   UNL     1      31.253   9.708  26.867  1.00  0.00     0.211 HD
ENDBRANCH  18  25
BRANCH  20  27
ATOM     27  O   UNL     1      30.031   6.837  27.656  1.00  0.00    -0.387 OA
ATOM     28  H   UNL     1      29.042   6.749  27.693  1.00  0.00     0.211 HD
ENDBRANCH  20  27
BRANCH  21  29
ATOM     29  C   UNL     1      29.789   6.638  30.376  1.00  0.00     0.191 C 
BRANCH  29  30
ATOM     30  O   UNL     1      30.613   6.341  31.469  1.00  0.00    -0.394 OA
ATOM     31  H   UNL     1      30.592   5.354  31.572  1.00  0.00     0.210 HD
ENDBRANCH  29  30
ENDBRANCH  21  29
ENDBRANCH   1  17
TORSDOF 13
ENDMDL
MODEL 7
REMARK VINA RESULT:    -4.762      3.045      4.753
REMARK INTER + INTRA:          -8.794
REMARK INTER:                  -7.264
REMARK INTRA:                  -1.531
REMARK UNBOUND:                -1.527
REMARK SMILES OC[C@@H]1O[C@H](O[C@@]2(CO)O[C@H](CO)[C@H](O)[C@H]2O)[C@@H](O)[C@@H](O)[C@@H]1O
REMARK SMILES IDX 6 1 5 2 3 3 22 4 4 5 20 6 18 7 2 8 1 9 23 11 21 13 19 15
REMARK SMILES IDX 7 17 16 18 10 19 14 20 11 21 8 22 9 23 17 25 15 27 12 29
REMARK SMILES IDX 13 30
REMARK H PARENT 1 10 23 12 21 14 19 16 9 24 17 26 15 28 13 31
REMARK Flexibility Score: inf
ROOT
ATOM      1  O   UNL     1      33.562   8.341  30.428  1.00  0.00    -0.313 OA
ENDROOT
BRANCH   1   2
ATOM      2  C   UNL     1      32.198   8.730  30.467  1.00  0.00     0.285 C 
ATOM      3  C   UNL     1      30.743  10.259  29.459  1.00  0.00     0.178 C 
ATOM      4  C   UNL     1      30.256   9.335  28.311  1.00  0.00     0.177 C 
ATOM      5  O   UNL     1      32.090   9.963  29.769  1.00  0.00    -0.341 OA
ATOM      6  C   UNL     1      30.963   7.963  28.377  1.00  0.00     0.179 C 
ATOM      7  C   UNL     1      31.345   7.596  29.819  1.00  0.00     0.202 C 
BRANCH   3   8
ATOM      8  C   UNL     1      30.618  11.752  29.117  1.00  0.00     0.191 C 
BRANCH   8   9
ATOM      9  O   UNL     1      29.291  12.068  28.795  1.00  0.00    -0.394 OA
ATOM     10  H   UNL     1      28.985  11.384  28.141  1.00  0.00     0.210 HD
ENDBRANCH   8   9
ENDBRANCH   3   8
BRANCH   4  11
ATOM     11  O   UNL     1      30.515   9.907  27.052  1.00  0.00    -0.387 OA
ATOM     12  H   UNL     1      31.393   9.560  26.740  1.00  0.00     0.211 HD
ENDBRANCH   4  11
BRANCH   6  13
ATOM     13  O   UNL     1      30.131   6.966  27.841  1.00  0.00    -0.387 OA
ATOM     14  H   UNL     1      29.386   6.834  28.485  1.00  0.00     0.211 HD
ENDBRANCH   6  13
BRANCH   7  15
ATOM     15  O   UNL     1      30.176   7.375  30.565  1.00  0.00    -0.385 OA
ATOM     16  H   UNL     1      30.014   8.202  31.093  1.00  0.00     0.211 HD
ENDBRANCH   7  15
ENDBRANCH   1   2
BRANCH   1  17
ATOM     17  C   UNL     1      34.350   8.651  31.581  1.00  0.00     0.224 C 
ATOM     18  C   UNL     1      35.453   9.687  31.289  1.00  0.00     0.208 C 
ATOM     19  O   UNL     1      35.035   7.463  31.914  1.00  0.00    -0.337 OA
ATOM     20  C   UNL     1      36.515   8.851  30.625  1.00  0.00     0.180 C 
ATOM     21  C   UNL     1      36.248   7.441  31.188  1.00  0.00     0.179 C 
BRANCH  17  22
ATOM     22  C   UNL     1      33.493   9.045  32.816  1.00  0.00     0.225 C 
BRANCH  22  23
ATOM     23  O   UNL     1      33.722  10.381  33.181  1.00  0.00    -0.391 OA
ATOM     24  H   UNL     1      34.406  10.740  32.556  1.00  0.00     0.210 HD
ENDBRANCH  22  23
ENDBRANCH  17  22
BRANCH  18  25
ATOM     25  O   UNL     1      35.045  10.726  30.439  1.00  0.00    -0.385 OA
ATOM     26  H   UNL     1      34.633  10.301  29.643  1.00  0.00     0.211 HD
ENDBRANCH  18  25
BRANCH  20  27
ATOM     27  O   UNL     1      37.801   9.331  30.924  1.00  0.00    -0.387 OA
ATOM     28  H   UNL     1      38.444   8.671  30.550  1.00  0.00     0.211 HD
ENDBRANCH  20  27
BRANCH  21  29
ATOM     29  C   UNL     1      37.358   6.898  32.097  1.00  0.00     0.191 C 
BRANCH  29  30
ATOM     30  O   UNL     1      37.359   7.586  33.319  1.00  0.00    -0.394 OA
ATOM     31  H   UNL     1      37.513   6.902  34.021  1.00  0.00     0.210 HD
ENDBRANCH  29  30
ENDBRANCH  21  29
ENDBRANCH   1  17
TORSDOF 13
ENDMDL
MODEL 8
REMARK VINA RESULT:    -4.761      2.394      5.161
REMARK INTER + INTRA:          -8.793
REMARK INTER:                  -7.504
REMARK INTRA:                  -1.289
REMARK UNBOUND:                -1.527
REMARK SMILES OC[C@@H]1O[C@H](O[C@@]2(CO)O[C@H](CO)[C@H](O)[C@H]2O)[C@@H](O)[C@@H](O)[C@@H]1O
REMARK SMILES IDX 6 1 5 2 3 3 22 4 4 5 20 6 18 7 2 8 1 9 23 11 21 13 19 15
REMARK SMILES IDX 7 17 16 18 10 19 14 20 11 21 8 22 9 23 17 25 15 27 12 29
REMARK SMILES IDX 13 30
REMARK H PARENT 1 10 23 12 21 14 19 16 9 24 17 26 15 28 13 31
REMARK Flexibility Score: inf
ROOT
ATOM      1  O   UNL     1      31.095  10.239  31.689  1.00  0.00    -0.313 OA
ENDROOT
BRANCH   1   2
ATOM      2  C   UNL     1      30.918  11.077  30.558  1.00  0.00     0.285 C 
ATOM      3  C   UNL     1      29.886  11.057  28.459  1.00  0.00     0.178 C 
ATOM      4  C   UNL     1      28.536  11.681  28.901  1.00  0.00     0.177 C 
ATOM      5  O   UNL     1      30.412  10.266  29.507  1.00  0.00    -0.341 OA
ATOM      6  C   UNL     1      28.530  11.948  30.423  1.00  0.00     0.179 C 
ATOM      7  C   UNL     1      29.945  12.232  30.948  1.00  0.00     0.202 C 
BRANCH   3   8
ATOM      8  C   UNL     1      29.760  10.198  27.191  1.00  0.00     0.191 C 
BRANCH   8   9
ATOM      9  O   UNL     1      30.984   9.581  26.898  1.00  0.00    -0.394 OA
ATOM     10  H   UNL     1      31.133   8.893  27.600  1.00  0.00     0.210 HD
ENDBRANCH   8   9
ENDBRANCH   3   8
BRANCH   4  11
ATOM     11  O   UNL     1      27.457  10.828  28.598  1.00  0.00    -0.387 OA
ATOM     12  H   UNL     1      27.834   9.994  28.210  1.00  0.00     0.211 HD
ENDBRANCH   4  11
BRANCH   6  13
ATOM     13  O   UNL     1      27.691  13.036  30.717  1.00  0.00    -0.387 OA
ATOM     14  H   UNL     1      27.378  13.403  29.849  1.00  0.00     0.211 HD
ENDBRANCH   6  13
BRANCH   7  15
ATOM     15  O   UNL     1      30.398  13.453  30.423  1.00  0.00    -0.385 OA
ATOM     16  H   UNL     1      31.219  13.693  30.929  1.00  0.00     0.211 HD
ENDBRANCH   7  15
ENDBRANCH   1   2
BRANCH   1  17
ATOM     17  C   UNL     1      32.063   9.193  31.567  1.00  0.00     0.224 C 
ATOM     18  C   UNL     1      31.425   7.792  31.514  1.00  0.00     0.208 C 
ATOM     19  O   UNL     1      32.812   9.216  32.764  1.00  0.00    -0.337 OA
ATOM     20  C   UNL     1      31.120   7.520  32.964  1.00  0.00     0.180 C 
ATOM     21  C   UNL     1      32.154   8.391  33.704  1.00  0.00     0.179 C 
BRANCH  17  22
ATOM     22  C   UNL     1      33.063   9.423  30.400  1.00  0.00     0.225 C 
BRANCH  22  23
ATOM     23  O   UNL     1      32.767   8.583  29.313  1.00  0.00    -0.391 OA
ATOM     24  H   UNL     1      33.111   9.034  28.497  1.00  0.00     0.210 HD
ENDBRANCH  22  23
ENDBRANCH  17  22
BRANCH  18  25
ATOM     25  O   UNL     1      30.252   7.730  30.747  1.00  0.00    -0.385 OA
ATOM     26  H   UNL     1      30.306   6.900  30.207  1.00  0.00     0.211 HD
ENDBRANCH  18  25
BRANCH  20  27
ATOM     27  O   UNL     1      31.236   6.152  33.260  1.00  0.00    -0.387 OA
ATOM     28  H   UNL     1      30.432   5.908  33.792  1.00  0.00     0.211 HD
ENDBRANCH  20  27
BRANCH  21  29
ATOM     29  C   UNL     1      33.209   7.598  34.488  1.00  0.00     0.191 C 
BRANCH  29  30
ATOM     30  O   UNL     1      34.083   6.954  33.602  1.00  0.00    -0.394 OA
ATOM     31  H   UNL     1      34.072   5.993  33.851  1.00  0.00     0.210 HD
ENDBRANCH  29  30
ENDBRANCH  21  29
ENDBRANCH   1  17
TORSDOF 13
ENDMDL
MODEL 9
REMARK VINA RESULT:    -4.594      2.525      4.346
REMARK INTER + INTRA:          -8.538
REMARK INTER:                  -7.403
REMARK INTRA:                  -1.135
REMARK UNBOUND:                -1.527
REMARK SMILES OC[C@@H]1O[C@H](O[C@@]2(CO)O[C@H](CO)[C@H](O)[C@H]2O)[C@@H](O)[C@@H](O)[C@@H]1O
REMARK SMILES IDX 6 1 5 2 3 3 22 4 4 5 20 6 18 7 2 8 1 9 23 11 21 13 19 15
REMARK SMILES IDX 7 17 16 18 10 19 14 20 11 21 8 22 9 23 17 25 15 27 12 29
REMARK SMILES IDX 13 30
REMARK H PARENT 1 10 23 12 21 14 19 16 9 24 17 26 15 28 13 31
REMARK Flexibility Score: inf
ROOT
ATOM      1  O   UNL     1      32.264  10.641  30.793  1.00  0.00    -0.313 OA
ENDROOT
BRANCH   1   2
ATOM      2  C   UNL     1      30.919  10.188  30.799  1.00  0.00     0.285 C 
ATOM      3  C   UNL     1      28.753  11.003  30.460  1.00  0.00     0.178 C 
ATOM      4  C   UNL     1      28.660  10.681  28.945  1.00  0.00     0.177 C 
ATOM      5  O   UNL     1      30.086  11.338  30.794  1.00  0.00    -0.341 OA
ATOM      6  C   UNL     1      29.981  10.059  28.437  1.00  0.00     0.179 C 
ATOM      7  C   UNL     1      30.699   9.281  29.549  1.00  0.00     0.202 C 
BRANCH   3   8
ATOM      8  C   UNL     1      27.821  12.149  30.884  1.00  0.00     0.191 C 
BRANCH   8   9
ATOM      9  O   UNL     1      26.502  11.868  30.504  1.00  0.00    -0.394 OA
ATOM     10  H   UNL     1      26.527  11.626  29.541  1.00  0.00     0.210 HD
ENDBRANCH   8   9
ENDBRANCH   3   8
BRANCH   4  11
ATOM     11  O   UNL     1      28.400  11.841  28.192  1.00  0.00    -0.387 OA
ATOM     12  H   UNL     1      29.111  12.503  28.403  1.00  0.00     0.211 HD
ENDBRANCH   4  11
BRANCH   6  13
ATOM     13  O   UNL     1      29.723   9.202  27.354  1.00  0.00    -0.387 OA
ATOM     14  H   UNL     1      30.560   9.146  26.822  1.00  0.00     0.211 HD
ENDBRANCH   6  13
BRANCH   7  15
ATOM     15  O   UNL     1      29.938   8.151  29.891  1.00  0.00    -0.385 OA
ATOM     16  H   UNL     1      29.987   7.530  29.116  1.00  0.00     0.211 HD
ENDBRANCH   7  15
ENDBRANCH   1   2
BRANCH   1  17
ATOM     17  C   UNL     1      33.139  10.066  31.768  1.00  0.00     0.224 C 
ATOM     18  C   UNL     1      34.452  10.856  31.931  1.00  0.00     0.208 C 
ATOM     19  O   UNL     1      33.523   8.810  31.251  1.00  0.00    -0.337 OA
ATOM     20  C   UNL     1      35.257  10.395  30.745  1.00  0.00     0.180 C 
ATOM     21  C   UNL     1      34.671   9.001  30.449  1.00  0.00     0.179 C 
BRANCH  17  22
ATOM     22  C   UNL     1      32.442   9.805  33.132  1.00  0.00     0.225 C 
BRANCH  22  23
ATOM     23  O   UNL     1      33.387   9.537  34.135  1.00  0.00    -0.391 OA
ATOM     24  H   UNL     1      32.982   9.818  34.998  1.00  0.00     0.210 HD
ENDBRANCH  22  23
ENDBRANCH  17  22
BRANCH  18  25
ATOM     25  O   UNL     1      34.285  12.249  31.899  1.00  0.00    -0.385 OA
ATOM     26  H   UNL     1      33.986  12.481  30.982  1.00  0.00     0.211 HD
ENDBRANCH  18  25
BRANCH  20  27
ATOM     27  O   UNL     1      36.630  10.367  31.042  1.00  0.00    -0.387 OA
ATOM     28  H   UNL     1      36.942  11.311  31.029  1.00  0.00     0.211 HD
ENDBRANCH  20  27
BRANCH  21  29
ATOM     29  C   UNL     1      35.642   7.838  30.692  1.00  0.00     0.191 C 
BRANCH  29  30
ATOM     30  O   UNL     1      35.668   7.509  32.054  1.00  0.00    -0.394 OA
ATOM     31  H   UNL     1      35.838   8.357  32.541  1.00  0.00     0.210 HD
ENDBRANCH  29  30
ENDBRANCH  21  29
ENDBRANCH   1  17
TORSDOF 13
ENDMDL
