MODEL 1
REMARK VINA RESULT:    -7.057      0.000      0.000
REMARK INTER + INTRA:          -7.263
REMARK INTER:                  -7.263
REMARK INTRA:                   0.000
REMARK UNBOUND:                 0.000
REMARK SMILES C=C1[C@@H](O)C[C@@]23C[C@@H]1C(C)(C)[C@H]2CC[C@H]3C
REMARK SMILES IDX 16 1 15 2 14 3 13 4 12 5 6 6 7 7 8 8 9 9 10 10 11 11 2 12
REMARK SMILES IDX 1 13 3 14 5 15 4 16
REMARK H PARENT 4 17
REMARK Flexibility Score: inf
ROOT
ATOM      1  C   UNL     1     135.531 124.797 143.535  1.00  0.00     0.008 C 
ATOM      2  C   UNL     1     134.798 124.332 142.269  1.00  0.00    -0.008 C 
ATOM      3  C   UNL     1     133.978 123.023 142.481  1.00  0.00     0.004 C 
ATOM      4  C   UNL     1     133.978 122.269 141.124  1.00  0.00     0.005 C 
ATOM      5  C   UNL     1     134.612 123.289 140.197  1.00  0.00     0.002 C 
ATOM      6  C   UNL     1     135.669 123.999 141.036  1.00  0.00    -0.020 C 
ATOM      7  C   UNL     1     136.090 125.065 140.037  1.00  0.00     0.016 C 
ATOM      8  C   UNL     1     136.358 124.172 138.793  1.00  0.00     0.023 C 
ATOM      9  C   UNL     1     135.218 123.075 138.797  1.00  0.00    -0.025 C 
ATOM     10  C   UNL     1     135.673 121.609 138.578  1.00  0.00     0.012 C 
ATOM     11  C   UNL     1     134.189 123.410 137.689  1.00  0.00     0.012 C 
ATOM     12  C   UNL     1     137.723 123.552 138.991  1.00  0.00    -0.045 C 
ATOM     13  C   UNL     1     138.567 123.410 137.958  1.00  0.00     0.011 C 
ATOM     14  C   UNL     1     138.092 123.018 140.363  1.00  0.00     0.140 C 
ATOM     15  C   UNL     1     136.936 123.115 141.417  1.00  0.00     0.044 C 
ENDROOT
BRANCH  14  16
ATOM     16  O   UNL     1     139.251 123.663 140.833  1.00  0.00    -0.389 OA
ATOM     17  H   UNL     1     139.570 123.165 141.631  1.00  0.00     0.211 HD
ENDBRANCH  14  16
TORSDOF 1
ENDMDL
MODEL 2
REMARK VINA RESULT:    -4.751      1.917      3.281
REMARK INTER + INTRA:          -4.890
REMARK INTER:                  -4.890
REMARK INTRA:                   0.000
REMARK UNBOUND:                 0.000
REMARK SMILES C=C1[C@@H](O)C[C@@]23C[C@@H]1C(C)(C)[C@H]2CC[C@H]3C
REMARK SMILES IDX 16 1 15 2 14 3 13 4 12 5 6 6 7 7 8 8 9 9 10 10 11 11 2 12
REMARK SMILES IDX 1 13 3 14 5 15 4 16
REMARK H PARENT 4 17
REMARK Flexibility Score: inf
ROOT
ATOM      1  C   UNL     1     132.585 123.655 142.263  1.00  0.00     0.008 C 
ATOM      2  C   UNL     1     134.068 123.309 142.455  1.00  0.00    -0.008 C 
ATOM      3  C   UNL     1     134.840 124.363 143.305  1.00  0.00     0.004 C 
ATOM      4  C   UNL     1     136.303 124.374 142.788  1.00  0.00     0.005 C 
ATOM      5  C   UNL     1     136.309 123.192 141.836  1.00  0.00     0.002 C 
ATOM      6  C   UNL     1     134.933 123.195 141.179  1.00  0.00    -0.020 C 
ATOM      7  C   UNL     1     135.041 121.897 140.394  1.00  0.00     0.016 C 
ATOM      8  C   UNL     1     136.398 122.134 139.675  1.00  0.00     0.023 C 
ATOM      9  C   UNL     1     137.331 122.843 140.738  1.00  0.00    -0.025 C 
ATOM     10  C   UNL     1     138.108 124.092 140.248  1.00  0.00     0.012 C 
ATOM     11  C   UNL     1     138.375 121.824 141.256  1.00  0.00     0.012 C 
ATOM     12  C   UNL     1     136.113 123.040 138.499  1.00  0.00    -0.045 C 
ATOM     13  C   UNL     1     136.729 122.850 137.322  1.00  0.00     0.011 C 
ATOM     14  C   UNL     1     135.177 124.219 138.693  1.00  0.00     0.140 C 
ATOM     15  C   UNL     1     134.669 124.393 140.166  1.00  0.00     0.044 C 
ENDROOT
BRANCH  14  16
ATOM     16  O   UNL     1     134.094 124.125 137.799  1.00  0.00    -0.389 OA
ATOM     17  H   UNL     1     133.263 124.070 138.339  1.00  0.00     0.211 HD
ENDBRANCH  14  16
TORSDOF 1
ENDMDL
MODEL 3
REMARK VINA RESULT:    -4.670      1.325      3.845
REMARK INTER + INTRA:          -4.807
REMARK INTER:                  -4.807
REMARK INTRA:                   0.000
REMARK UNBOUND:                 0.000
REMARK SMILES C=C1[C@@H](O)C[C@@]23C[C@@H]1C(C)(C)[C@H]2CC[C@H]3C
REMARK SMILES IDX 16 1 15 2 14 3 13 4 12 5 6 6 7 7 8 8 9 9 10 10 11 11 2 12
REMARK SMILES IDX 1 13 3 14 5 15 4 16
REMARK H PARENT 4 17
REMARK Flexibility Score: inf
ROOT
ATOM      1  C   UNL     1     136.869 121.887 137.367  1.00  0.00     0.008 C 
ATOM      2  C   UNL     1     135.659 122.435 138.134  1.00  0.00    -0.008 C 
ATOM      3  C   UNL     1     135.045 123.711 137.482  1.00  0.00     0.004 C 
ATOM      4  C   UNL     1     134.456 124.567 138.636  1.00  0.00     0.005 C 
ATOM      5  C   UNL     1     134.590 123.630 139.822  1.00  0.00     0.002 C 
ATOM      6  C   UNL     1     135.895 122.874 139.597  1.00  0.00    -0.020 C 
ATOM      7  C   UNL     1     135.805 121.894 140.756  1.00  0.00     0.016 C 
ATOM      8  C   UNL     1     135.510 122.883 141.918  1.00  0.00     0.023 C 
ATOM      9  C   UNL     1     134.513 123.959 141.325  1.00  0.00    -0.025 C 
ATOM     10  C   UNL     1     134.852 125.444 141.613  1.00  0.00     0.012 C 
ATOM     11  C   UNL     1     133.092 123.693 141.879  1.00  0.00     0.012 C 
ATOM     12  C   UNL     1     136.831 123.507 142.304  1.00  0.00    -0.045 C 
ATOM     13  C   UNL     1     137.130 123.740 143.591  1.00  0.00     0.011 C 
ATOM     14  C   UNL     1     137.784 123.941 141.204  1.00  0.00     0.140 C 
ATOM     15  C   UNL     1     137.217 123.746 139.756  1.00  0.00     0.044 C 
ENDROOT
BRANCH  14  16
ATOM     16  O   UNL     1     139.018 123.280 141.350  1.00  0.00    -0.389 OA
ATOM     17  H   UNL     1     139.657 123.694 140.714  1.00  0.00     0.211 HD
ENDBRANCH  14  16
TORSDOF 1
ENDMDL
