MODEL 1
REMARK VINA RESULT:    -2.895      0.000      0.000
REMARK INTER + INTRA:          -3.422
REMARK INTER:                  -3.319
REMARK INTRA:                  -0.103
REMARK UNBOUND:                -0.103
REMARK SMILES COc1ccc(C(C)=O)cc1O
REMARK SMILES IDX 6 1 10 2 11 3 3 4 4 5 5 6 7 7 8 8 9 9 12 10 2 12 1 13
REMARK H PARENT 12 11
REMARK Flexibility Score: inf
ROOT
ATOM      1  C   UNL     1      31.716  24.369  29.710  1.00  0.00     0.021 A 
ATOM      2  C   UNL     1      31.841  23.386  28.710  1.00  0.00     0.062 A 
ATOM      3  C   UNL     1      33.069  23.153  28.081  1.00  0.00     0.158 A 
ATOM      4  C   UNL     1      34.201  23.904  28.442  1.00  0.00     0.160 A 
ATOM      5  C   UNL     1      34.081  24.886  29.441  1.00  0.00     0.051 A 
ATOM      6  C   UNL     1      32.853  25.115  30.066  1.00  0.00     0.016 A 
ENDROOT
BRANCH   1   7
ATOM      7  C   UNL     1      30.415  24.625  30.386  1.00  0.00     0.159 C 
ATOM      8  C   UNL     1      30.198  24.308  31.836  1.00  0.00     0.093 C 
ATOM      9  O   UNL     1      29.458  25.124  29.733  1.00  0.00    -0.295 OA
ENDBRANCH   1   7
BRANCH   3  10
ATOM     10  O   UNL     1      33.143  22.169  27.095  1.00  0.00    -0.504 OA
ATOM     11  H   UNL     1      33.113  22.391  26.107  1.00  0.00     0.293 HD
ENDBRANCH   3  10
BRANCH   4  12
ATOM     12  O   UNL     1      35.421  23.648  27.793  1.00  0.00    -0.493 OA
ATOM     13  C   UNL     1      36.703  23.941  28.339  1.00  0.00     0.278 C 
ENDBRANCH   4  12
TORSDOF 3
ENDMDL
MODEL 2
REMARK VINA RESULT:    -2.819      1.883      2.551
REMARK INTER + INTRA:          -3.334
REMARK INTER:                  -3.206
REMARK INTRA:                  -0.128
REMARK UNBOUND:                -0.103
REMARK SMILES COc1ccc(C(C)=O)cc1O
REMARK SMILES IDX 6 1 10 2 11 3 3 4 4 5 5 6 7 7 8 8 9 9 12 10 2 12 1 13
REMARK H PARENT 12 11
REMARK Flexibility Score: inf
ROOT
ATOM      1  C   UNL     1      31.363  24.766  31.346  1.00  0.00     0.021 A 
ATOM      2  C   UNL     1      30.519  24.177  30.385  1.00  0.00     0.062 A 
ATOM      3  C   UNL     1      30.967  23.953  29.078  1.00  0.00     0.158 A 
ATOM      4  C   UNL     1      32.273  24.315  28.706  1.00  0.00     0.160 A 
ATOM      5  C   UNL     1      33.119  24.903  29.663  1.00  0.00     0.051 A 
ATOM      6  C   UNL     1      32.668  25.125  30.967  1.00  0.00     0.016 A 
ENDROOT
BRANCH   1   7
ATOM      7  C   UNL     1      30.899  25.009  32.739  1.00  0.00     0.159 C 
ATOM      8  C   UNL     1      31.857  25.124  33.887  1.00  0.00     0.093 C 
ATOM      9  O   UNL     1      29.665  25.125  32.977  1.00  0.00    -0.295 OA
ENDBRANCH   1   7
BRANCH   3  10
ATOM     10  O   UNL     1      30.094  23.368  28.161  1.00  0.00    -0.504 OA
ATOM     11  H   UNL     1      30.351  22.554  27.614  1.00  0.00     0.293 HD
ENDBRANCH   3  10
BRANCH   4  12
ATOM     12  O   UNL     1      32.694  24.077  27.387  1.00  0.00    -0.493 OA
ATOM     13  C   UNL     1      33.343  22.888  26.950  1.00  0.00     0.278 C 
ENDBRANCH   4  12
TORSDOF 3
ENDMDL
MODEL 3
REMARK VINA RESULT:    -2.683      1.026      4.628
REMARK INTER + INTRA:          -3.178
REMARK INTER:                  -3.052
REMARK INTRA:                  -0.126
REMARK UNBOUND:                -0.103
REMARK SMILES COc1ccc(C(C)=O)cc1O
REMARK SMILES IDX 6 1 10 2 11 3 3 4 4 5 5 6 7 7 8 8 9 9 12 10 2 12 1 13
REMARK H PARENT 12 11
REMARK Flexibility Score: inf
ROOT
ATOM      1  C   UNL     1      33.618  23.997  28.633  1.00  0.00     0.021 A 
ATOM      2  C   UNL     1      32.400  23.465  28.171  1.00  0.00     0.062 A 
ATOM      3  C   UNL     1      31.196  23.757  28.822  1.00  0.00     0.158 A 
ATOM      4  C   UNL     1      31.189  24.591  29.954  1.00  0.00     0.160 A 
ATOM      5  C   UNL     1      32.403  25.125  30.418  1.00  0.00     0.051 A 
ATOM      6  C   UNL     1      33.603  24.830  29.765  1.00  0.00     0.016 A 
ENDROOT
BRANCH   1   7
ATOM      7  C   UNL     1      34.905  23.693  27.950  1.00  0.00     0.159 C 
ATOM      8  C   UNL     1      36.218  24.202  28.466  1.00  0.00     0.093 C 
ATOM      9  O   UNL     1      34.907  22.988  26.904  1.00  0.00    -0.295 OA
ENDBRANCH   1   7
BRANCH   3  10
ATOM     10  O   UNL     1      30.014  23.205  28.327  1.00  0.00    -0.504 OA
ATOM     11  H   UNL     1      29.869  22.204  28.268  1.00  0.00     0.293 HD
ENDBRANCH   3  10
BRANCH   4  12
ATOM     12  O   UNL     1      29.965  24.866  30.586  1.00  0.00    -0.493 OA
ATOM     13  C   UNL     1      29.752  24.810  31.993  1.00  0.00     0.278 C 
ENDBRANCH   4  12
TORSDOF 3
ENDMDL
MODEL 4
REMARK VINA RESULT:    -2.585      2.715      4.362
REMARK INTER + INTRA:          -3.066
REMARK INTER:                  -2.970
REMARK INTRA:                  -0.096
REMARK UNBOUND:                -0.103
REMARK SMILES COc1ccc(C(C)=O)cc1O
REMARK SMILES IDX 6 1 10 2 11 3 3 4 4 5 5 6 7 7 8 8 9 9 12 10 2 12 1 13
REMARK H PARENT 12 11
REMARK Flexibility Score: inf
ROOT
ATOM      1  C   UNL     1      30.853  24.888  29.619  1.00  0.00     0.021 A 
ATOM      2  C   UNL     1      32.249  24.858  29.804  1.00  0.00     0.062 A 
ATOM      3  C   UNL     1      32.805  24.936  31.086  1.00  0.00     0.158 A 
ATOM      4  C   UNL     1      31.971  25.048  32.213  1.00  0.00     0.160 A 
ATOM      5  C   UNL     1      30.577  25.078  32.032  1.00  0.00     0.051 A 
ATOM      6  C   UNL     1      30.027  24.999  30.750  1.00  0.00     0.016 A 
ENDROOT
BRANCH   1   7
ATOM      7  C   UNL     1      30.251  24.805  28.261  1.00  0.00     0.159 C 
ATOM      8  C   UNL     1      31.042  24.362  27.066  1.00  0.00     0.093 C 
ATOM      9  O   UNL     1      29.039  25.113  28.094  1.00  0.00    -0.295 OA
ENDBRANCH   1   7
BRANCH   3  10
ATOM     10  O   UNL     1      34.193  24.903  31.219  1.00  0.00    -0.504 OA
ATOM     11  H   UNL     1      34.664  24.207  31.784  1.00  0.00     0.293 HD
ENDBRANCH   3  10
BRANCH   4  12
ATOM     12  O   UNL     1      32.558  25.125  33.487  1.00  0.00    -0.493 OA
ATOM     13  C   UNL     1      31.902  24.771  34.700  1.00  0.00     0.278 C 
ENDBRANCH   4  12
TORSDOF 3
ENDMDL
MODEL 5
REMARK VINA RESULT:    -2.270      3.766      4.585
REMARK INTER + INTRA:          -2.705
REMARK INTER:                  -2.586
REMARK INTRA:                  -0.119
REMARK UNBOUND:                -0.103
REMARK SMILES COc1ccc(C(C)=O)cc1O
REMARK SMILES IDX 6 1 10 2 11 3 3 4 4 5 5 6 7 7 8 8 9 9 12 10 2 12 1 13
REMARK H PARENT 12 11
REMARK Flexibility Score: inf
ROOT
ATOM      1  C   UNL     1      33.402  24.890  33.340  1.00  0.00     0.021 A 
ATOM      2  C   UNL     1      34.663  24.653  33.918  1.00  0.00     0.062 A 
ATOM      3  C   UNL     1      35.824  24.651  33.135  1.00  0.00     0.158 A 
ATOM      4  C   UNL     1      35.743  24.886  31.752  1.00  0.00     0.160 A 
ATOM      5  C   UNL     1      34.485  25.123  31.170  1.00  0.00     0.051 A 
ATOM      6  C   UNL     1      33.330  25.125  31.956  1.00  0.00     0.016 A 
ENDROOT
BRANCH   1   7
ATOM      7  C   UNL     1      32.162  24.895  34.162  1.00  0.00     0.159 C 
ATOM      8  C   UNL     1      30.798  24.968  33.541  1.00  0.00     0.093 C 
ATOM      9  O   UNL     1      32.243  24.836  35.419  1.00  0.00    -0.295 OA
ENDBRANCH   1   7
BRANCH   3  10
ATOM     10  O   UNL     1      37.050  24.411  33.754  1.00  0.00    -0.504 OA
ATOM     11  H   UNL     1      37.758  25.130  33.848  1.00  0.00     0.293 HD
ENDBRANCH   3  10
BRANCH   4  12
ATOM     12  O   UNL     1      36.924  24.878  30.992  1.00  0.00    -0.493 OA
ATOM     13  C   UNL     1      36.972  24.993  29.574  1.00  0.00     0.278 C 
ENDBRANCH   4  12
TORSDOF 3
ENDMDL
MODEL 6
REMARK VINA RESULT:    -2.223      2.372      3.215
REMARK INTER + INTRA:          -2.651
REMARK INTER:                  -2.522
REMARK INTRA:                  -0.129
REMARK UNBOUND:                -0.103
REMARK SMILES COc1ccc(C(C)=O)cc1O
REMARK SMILES IDX 6 1 10 2 11 3 3 4 4 5 5 6 7 7 8 8 9 9 12 10 2 12 1 13
REMARK H PARENT 12 11
REMARK Flexibility Score: inf
ROOT
ATOM      1  C   UNL     1      32.050  25.046  31.893  1.00  0.00     0.021 A 
ATOM      2  C   UNL     1      33.353  25.070  32.427  1.00  0.00     0.062 A 
ATOM      3  C   UNL     1      34.473  25.094  31.588  1.00  0.00     0.158 A 
ATOM      4  C   UNL     1      34.310  25.095  30.192  1.00  0.00     0.160 A 
ATOM      5  C   UNL     1      33.011  25.071  29.654  1.00  0.00     0.051 A 
ATOM      6  C   UNL     1      31.896  25.047  30.495  1.00  0.00     0.016 A 
ENDROOT
BRANCH   1   7
ATOM      7  C   UNL     1      30.852  25.020  32.774  1.00  0.00     0.159 C 
ATOM      8  C   UNL     1      29.458  25.009  32.219  1.00  0.00     0.093 C 
ATOM      9  O   UNL     1      30.996  25.006  34.027  1.00  0.00    -0.295 OA
ENDBRANCH   1   7
BRANCH   3  10
ATOM     10  O   UNL     1      35.743  25.117  32.165  1.00  0.00    -0.504 OA
ATOM     11  H   UNL     1      36.402  24.356  32.049  1.00  0.00     0.293 HD
ENDBRANCH   3  10
BRANCH   4  12
ATOM     12  O   UNL     1      35.453  25.120  29.376  1.00  0.00    -0.493 OA
ATOM     13  C   UNL     1      35.708  24.203  28.316  1.00  0.00     0.278 C 
ENDBRANCH   4  12
TORSDOF 3
ENDMDL
