MODEL 1
REMARK VINA RESULT:    -3.167      0.000      0.000
REMARK INTER + INTRA:          -3.550
REMARK INTER:                  -3.538
REMARK INTRA:                  -0.012
REMARK UNBOUND:                -0.012
REMARK SMILES CCCC(=O)[O-]
REMARK SMILES IDX 3 1 4 2 5 3 6 4 2 5 1 6
REMARK H PARENT
REMARK Flexibility Score: inf
ROOT
ATOM      1  C   UNL     1     131.328 133.213 133.498  1.00  0.00     0.052 C 
ENDROOT
BRANCH   1   2
ATOM      2  C   UNL     1     132.761 133.489 133.836  1.00  0.00     0.041 C 
ATOM      3  O   UNL     1     133.591 132.545 133.900  1.00  0.00    -0.550 OA
ATOM      4  O   UNL     1     133.172 134.787 134.113  1.00  0.00    -0.550 OA
ENDBRANCH   1   2
BRANCH   1   5
ATOM      5  C   UNL     1     131.104 131.739 133.137  1.00  0.00     0.003 C 
ATOM      6  C   UNL     1     129.622 131.372 133.080  1.00  0.00     0.004 C 
ENDBRANCH   1   5
TORSDOF 2
ENDMDL
MODEL 2
REMARK VINA RESULT:    -3.157      3.012      3.817
REMARK INTER + INTRA:          -3.538
REMARK INTER:                  -3.529
REMARK INTRA:                  -0.010
REMARK UNBOUND:                -0.012
REMARK SMILES CCCC(=O)[O-]
REMARK SMILES IDX 3 1 4 2 5 3 6 4 2 5 1 6
REMARK H PARENT
REMARK Flexibility Score: inf
ROOT
ATOM      1  C   UNL     1     133.098 136.203 133.522  1.00  0.00     0.052 C 
ENDROOT
BRANCH   1   2
ATOM      2  C   UNL     1     133.392 134.754 133.770  1.00  0.00     0.041 C 
ATOM      3  O   UNL     1     134.580 134.366 133.926  1.00  0.00    -0.550 OA
ATOM      4  O   UNL     1     132.357 133.829 133.794  1.00  0.00    -0.550 OA
ENDBRANCH   1   2
BRANCH   1   5
ATOM      5  C   UNL     1     131.652 136.417 133.057  1.00  0.00     0.003 C 
ATOM      6  C   UNL     1     131.252 137.891 133.062  1.00  0.00     0.004 C 
ENDBRANCH   1   5
TORSDOF 2
ENDMDL
MODEL 3
REMARK VINA RESULT:    -3.145      2.932      3.689
REMARK INTER + INTRA:          -3.525
REMARK INTER:                  -3.512
REMARK INTRA:                  -0.013
REMARK UNBOUND:                -0.012
REMARK SMILES CCCC(=O)[O-]
REMARK SMILES IDX 3 1 4 2 5 3 6 4 2 5 1 6
REMARK H PARENT
REMARK Flexibility Score: inf
ROOT
ATOM      1  C   UNL     1     134.104 131.383 133.415  1.00  0.00     0.052 C 
ENDROOT
BRANCH   1   2
ATOM      2  C   UNL     1     133.840 132.807 133.800  1.00  0.00     0.041 C 
ATOM      3  O   UNL     1     134.793 133.623 133.904  1.00  0.00    -0.550 OA
ATOM      4  O   UNL     1     132.544 133.223 134.077  1.00  0.00    -0.550 OA
ENDBRANCH   1   2
BRANCH   1   5
ATOM      5  C   UNL     1     135.580 131.153 133.066  1.00  0.00     0.003 C 
ATOM      6  C   UNL     1     135.967 129.677 133.119  1.00  0.00     0.004 C 
ENDBRANCH   1   5
TORSDOF 2
ENDMDL
MODEL 4
REMARK VINA RESULT:    -3.098      2.231      3.326
REMARK INTER + INTRA:          -3.472
REMARK INTER:                  -3.463
REMARK INTRA:                  -0.009
REMARK UNBOUND:                -0.012
REMARK SMILES CCCC(=O)[O-]
REMARK SMILES IDX 3 1 4 2 5 3 6 4 2 5 1 6
REMARK H PARENT
REMARK Flexibility Score: inf
ROOT
ATOM      1  C   UNL     1     131.702 134.788 133.304  1.00  0.00     0.052 C 
ENDROOT
BRANCH   1   2
ATOM      2  C   UNL     1     132.542 133.637 133.767  1.00  0.00     0.041 C 
ATOM      3  O   UNL     1     132.239 132.459 133.442  1.00  0.00    -0.550 OA
ATOM      4  O   UNL     1     133.642 133.864 134.585  1.00  0.00    -0.550 OA
ENDBRANCH   1   2
BRANCH   1   5
ATOM      5  C   UNL     1     132.488 136.105 133.315  1.00  0.00     0.003 C 
ATOM      6  C   UNL     1     131.586 137.323 133.116  1.00  0.00     0.004 C 
ENDBRANCH   1   5
TORSDOF 2
ENDMDL
MODEL 5
REMARK VINA RESULT:    -3.075      3.007      4.754
REMARK INTER + INTRA:          -3.446
REMARK INTER:                  -3.437
REMARK INTRA:                  -0.009
REMARK UNBOUND:                -0.012
REMARK SMILES CCCC(=O)[O-]
REMARK SMILES IDX 3 1 4 2 5 3 6 4 2 5 1 6
REMARK H PARENT
REMARK Flexibility Score: inf
ROOT
ATOM      1  C   UNL     1     134.617 135.574 133.386  1.00  0.00     0.052 C 
ENDROOT
BRANCH   1   2
ATOM      2  C   UNL     1     133.461 134.746 133.858  1.00  0.00     0.041 C 
ATOM      3  O   UNL     1     132.292 135.013 133.476  1.00  0.00    -0.550 OA
ATOM      4  O   UNL     1     133.673 133.700 134.747  1.00  0.00    -0.550 OA
ENDBRANCH   1   2
BRANCH   1   5
ATOM      5  C   UNL     1     135.921 134.767 133.359  1.00  0.00     0.003 C 
ATOM      6  C   UNL     1     137.147 135.648 133.126  1.00  0.00     0.004 C 
ENDBRANCH   1   5
TORSDOF 2
ENDMDL
MODEL 6
REMARK VINA RESULT:    -3.047      3.392      5.179
REMARK INTER + INTRA:          -3.415
REMARK INTER:                  -3.410
REMARK INTRA:                  -0.005
REMARK UNBOUND:                -0.012
REMARK SMILES CCCC(=O)[O-]
REMARK SMILES IDX 3 1 4 2 5 3 6 4 2 5 1 6
REMARK H PARENT
REMARK Flexibility Score: inf
ROOT
ATOM      1  C   UNL     1     136.195 134.074 133.490  1.00  0.00     0.052 C 
ENDROOT
BRANCH   1   2
ATOM      2  C   UNL     1     134.787 133.562 133.526  1.00  0.00     0.041 C 
ATOM      3  O   UNL     1     134.347 132.849 132.586  1.00  0.00    -0.550 OA
ATOM      4  O   UNL     1     133.951 133.901 134.583  1.00  0.00    -0.550 OA
ENDBRANCH   1   2
BRANCH   1   5
ATOM      5  C   UNL     1     136.248 135.562 133.119  1.00  0.00     0.003 C 
ATOM      6  C   UNL     1     137.678 136.099 133.072  1.00  0.00     0.004 C 
ENDBRANCH   1   5
TORSDOF 2
ENDMDL
MODEL 7
REMARK VINA RESULT:    -2.931      2.015      2.417
REMARK INTER + INTRA:          -3.285
REMARK INTER:                  -3.245
REMARK INTRA:                  -0.040
REMARK UNBOUND:                -0.012
REMARK SMILES CCCC(=O)[O-]
REMARK SMILES IDX 3 1 4 2 5 3 6 4 2 5 1 6
REMARK H PARENT
REMARK Flexibility Score: inf
ROOT
ATOM      1  C   UNL     1     133.670 133.660 134.567  1.00  0.00     0.052 C 
ENDROOT
BRANCH   1   2
ATOM      2  C   UNL     1     134.783 134.245 133.752  1.00  0.00     0.041 C 
ATOM      3  O   UNL     1     135.796 133.552 133.471  1.00  0.00    -0.550 OA
ATOM      4  O   UNL     1     134.716 135.567 133.333  1.00  0.00    -0.550 OA
ENDBRANCH   1   2
BRANCH   1   5
ATOM      5  C   UNL     1     132.617 132.980 133.683  1.00  0.00     0.003 C 
ATOM      6  C   UNL     1     131.437 133.900 133.372  1.00  0.00     0.004 C 
ENDBRANCH   1   5
TORSDOF 2
ENDMDL
MODEL 8
REMARK VINA RESULT:    -2.930      2.942      3.499
REMARK INTER + INTRA:          -3.285
REMARK INTER:                  -3.245
REMARK INTRA:                  -0.040
REMARK UNBOUND:                -0.012
REMARK SMILES CCCC(=O)[O-]
REMARK SMILES IDX 3 1 4 2 5 3 6 4 2 5 1 6
REMARK H PARENT
REMARK Flexibility Score: inf
ROOT
ATOM      1  C   UNL     1     133.650 133.685 134.548  1.00  0.00     0.052 C 
ENDROOT
BRANCH   1   2
ATOM      2  C   UNL     1     134.206 132.560 133.729  1.00  0.00     0.041 C 
ATOM      3  O   UNL     1     133.482 131.574 133.432  1.00  0.00    -0.550 OA
ATOM      4  O   UNL     1     135.534 132.586 133.322  1.00  0.00    -0.550 OA
ENDBRANCH   1   2
BRANCH   1   5
ATOM      5  C   UNL     1     132.962 134.739 133.672  1.00  0.00     0.003 C 
ATOM      6  C   UNL     1     133.888 135.906 133.331  1.00  0.00     0.004 C 
ENDBRANCH   1   5
TORSDOF 2
ENDMDL
MODEL 9
REMARK VINA RESULT:    -2.873     13.841     14.761
REMARK INTER + INTRA:          -3.221
REMARK INTER:                  -3.216
REMARK INTRA:                  -0.005
REMARK UNBOUND:                -0.012
REMARK SMILES CCCC(=O)[O-]
REMARK SMILES IDX 3 1 4 2 5 3 6 4 2 5 1 6
REMARK H PARENT
REMARK Flexibility Score: inf
ROOT
ATOM      1  C   UNL     1     139.583 143.437 126.981  1.00  0.00     0.052 C 
ENDROOT
BRANCH   1   2
ATOM      2  C   UNL     1     138.225 143.205 126.392  1.00  0.00     0.041 C 
ATOM      3  O   UNL     1     137.673 144.100 125.698  1.00  0.00    -0.550 OA
ATOM      4  O   UNL     1     137.555 142.014 126.639  1.00  0.00    -0.550 OA
ENDBRANCH   1   2
BRANCH   1   5
ATOM      5  C   UNL     1     140.582 142.357 126.547  1.00  0.00     0.003 C 
ATOM      6  C   UNL     1     142.027 142.738 126.866  1.00  0.00     0.004 C 
ENDBRANCH   1   5
TORSDOF 2
ENDMDL
