MODEL 1
REMARK VINA RESULT:    -4.230      0.000      0.000
REMARK INTER + INTRA:          -4.230
REMARK INTER:                  -4.230
REMARK INTRA:                   0.000
REMARK UNBOUND:                 0.000
REMARK SMILES C=C1CCC[C@]2(C)C=C3OC(=O)C(C)=C3C[C@@H]12
REMARK SMILES IDX 14 1 13 2 15 3 16 4 17 5 2 6 1 7 3 8 4 9 5 10 6 11 8 12 9 13
REMARK SMILES IDX 10 14 11 15 12 16 7 17
REMARK H PARENT
REMARK Flexibility Score: inf
ROOT
ATOM      1  C   UNL     1     -25.975  53.252  34.388  1.00  0.00     0.053 C 
ATOM      2  C   UNL     1     -26.610  54.480  33.817  1.00  0.00     0.041 C 
ATOM      3  C   UNL     1     -26.866  55.612  34.464  1.00  0.00     0.005 C 
ATOM      4  C   UNL     1     -26.537  55.993  35.878  1.00  0.00     0.049 C 
ATOM      5  C   UNL     1     -27.471  57.161  36.308  1.00  0.00     0.029 C 
ATOM      6  C   UNL     1     -27.225  57.739  37.695  1.00  0.00    -0.073 C 
ATOM      7  C   UNL     1     -26.267  57.297  38.530  1.00  0.00     0.008 C 
ATOM      8  C   UNL     1     -28.187  58.814  38.146  1.00  0.00     0.031 C 
ATOM      9  C   UNL     1     -28.300  59.925  37.093  1.00  0.00     0.005 C 
ATOM     10  C   UNL     1     -28.572  59.367  35.682  1.00  0.00     0.012 C 
ATOM     11  C   UNL     1     -27.519  58.314  35.238  1.00  0.00    -0.004 C 
ATOM     12  C   UNL     1     -27.925  57.747  33.883  1.00  0.00     0.027 C 
ATOM     13  C   UNL     1     -27.554  56.511  33.551  1.00  0.00     0.131 C 
ATOM     14  O   UNL     1     -27.757  55.888  32.328  1.00  0.00    -0.423 OA
ATOM     15  C   UNL     1     -27.185  54.630  32.476  1.00  0.00     0.339 C 
ATOM     16  O   UNL     1     -27.175  53.754  31.573  1.00  0.00    -0.246 OA
ATOM     17  C   UNL     1     -26.133  58.984  35.065  1.00  0.00     0.016 C 
ENDROOT
TORSDOF 0
ENDMDL
MODEL 2
REMARK VINA RESULT:    -3.881      9.424     11.875
REMARK INTER + INTRA:          -3.881
REMARK INTER:                  -3.881
REMARK INTRA:                   0.000
REMARK UNBOUND:                 0.000
REMARK SMILES C=C1CCC[C@]2(C)C=C3OC(=O)C(C)=C3C[C@@H]12
REMARK SMILES IDX 14 1 13 2 15 3 16 4 17 5 2 6 1 7 3 8 4 9 5 10 6 11 8 12 9 13
REMARK SMILES IDX 10 14 11 15 12 16 7 17
REMARK H PARENT
REMARK Flexibility Score: inf
ROOT
ATOM      1  C   UNL     1     -24.035  58.809  46.074  1.00  0.00     0.053 C 
ATOM      2  C   UNL     1     -24.864  57.668  46.573  1.00  0.00     0.041 C 
ATOM      3  C   UNL     1     -25.113  56.531  45.932  1.00  0.00     0.005 C 
ATOM      4  C   UNL     1     -24.595  56.054  44.607  1.00  0.00     0.049 C 
ATOM      5  C   UNL     1     -25.550  54.950  44.068  1.00  0.00     0.029 C 
ATOM      6  C   UNL     1     -25.135  54.286  42.761  1.00  0.00    -0.073 C 
ATOM      7  C   UNL     1     -24.018  54.604  42.083  1.00  0.00     0.008 C 
ATOM      8  C   UNL     1     -26.105  53.275  42.195  1.00  0.00     0.031 C 
ATOM      9  C   UNL     1     -26.489  52.231  43.252  1.00  0.00     0.005 C 
ATOM     10  C   UNL     1     -26.934  52.879  44.578  1.00  0.00     0.012 C 
ATOM     11  C   UNL     1     -25.876  53.859  45.154  1.00  0.00    -0.004 C 
ATOM     12  C   UNL     1     -26.443  54.524  46.402  1.00  0.00     0.027 C 
ATOM     13  C   UNL     1     -26.020  55.740  46.748  1.00  0.00     0.131 C 
ATOM     14  O   UNL     1     -26.362  56.436  47.898  1.00  0.00    -0.423 OA
ATOM     15  C   UNL     1     -25.660  57.633  47.804  1.00  0.00     0.339 C 
ATOM     16  O   UNL     1     -25.717  58.549  48.665  1.00  0.00    -0.246 OA
ATOM     17  C   UNL     1     -24.604  53.083  45.579  1.00  0.00     0.016 C 
ENDROOT
TORSDOF 0
ENDMDL
MODEL 3
REMARK VINA RESULT:    -3.862      2.594      5.673
REMARK INTER + INTRA:          -3.862
REMARK INTER:                  -3.862
REMARK INTRA:                   0.000
REMARK UNBOUND:                 0.000
REMARK SMILES C=C1CCC[C@]2(C)C=C3OC(=O)C(C)=C3C[C@@H]12
REMARK SMILES IDX 14 1 13 2 15 3 16 4 17 5 2 6 1 7 3 8 4 9 5 10 6 11 8 12 9 13
REMARK SMILES IDX 10 14 11 15 12 16 7 17
REMARK H PARENT
REMARK Flexibility Score: inf
ROOT
ATOM      1  C   UNL     1     -28.969  60.125  36.212  1.00  0.00     0.053 C 
ATOM      2  C   UNL     1     -27.942  59.117  36.619  1.00  0.00     0.041 C 
ATOM      3  C   UNL     1     -27.515  58.086  35.896  1.00  0.00     0.005 C 
ATOM      4  C   UNL     1     -27.874  57.697  34.492  1.00  0.00     0.049 C 
ATOM      5  C   UNL     1     -27.538  56.191  34.293  1.00  0.00     0.029 C 
ATOM      6  C   UNL     1     -27.761  55.635  32.892  1.00  0.00    -0.073 C 
ATOM      7  C   UNL     1     -28.218  56.368  31.861  1.00  0.00     0.008 C 
ATOM      8  C   UNL     1     -27.517  54.154  32.721  1.00  0.00     0.031 C 
ATOM      9  C   UNL     1     -26.136  53.759  33.262  1.00  0.00     0.005 C 
ATOM     10  C   UNL     1     -25.894  54.291  34.688  1.00  0.00     0.012 C 
ATOM     11  C   UNL     1     -26.093  55.828  34.799  1.00  0.00    -0.004 C 
ATOM     12  C   UNL     1     -25.935  56.245  36.256  1.00  0.00     0.027 C 
ATOM     13  C   UNL     1     -26.572  57.327  36.702  1.00  0.00     0.131 C 
ATOM     14  O   UNL     1     -26.457  57.891  37.965  1.00  0.00    -0.423 OA
ATOM     15  C   UNL     1     -27.301  58.996  37.932  1.00  0.00     0.339 C 
ATOM     16  O   UNL     1     -27.479  59.770  38.908  1.00  0.00    -0.246 OA
ATOM     17  C   UNL     1     -25.004  56.568  33.983  1.00  0.00     0.016 C 
ENDROOT
TORSDOF 0
ENDMDL
MODEL 4
REMARK VINA RESULT:    -3.857      8.190      9.797
REMARK INTER + INTRA:          -3.857
REMARK INTER:                  -3.857
REMARK INTRA:                   0.000
REMARK UNBOUND:                 0.000
REMARK SMILES C=C1CCC[C@]2(C)C=C3OC(=O)C(C)=C3C[C@@H]12
REMARK SMILES IDX 14 1 13 2 15 3 16 4 17 5 2 6 1 7 3 8 4 9 5 10 6 11 8 12 9 13
REMARK SMILES IDX 10 14 11 15 12 16 7 17
REMARK H PARENT
REMARK Flexibility Score: inf
ROOT
ATOM      1  C   UNL     1     -27.050  46.999  43.251  1.00  0.00     0.053 C 
ATOM      2  C   UNL     1     -26.799  48.002  42.170  1.00  0.00     0.041 C 
ATOM      3  C   UNL     1     -26.402  49.260  42.335  1.00  0.00     0.005 C 
ATOM      4  C   UNL     1     -26.038  49.984  43.598  1.00  0.00     0.049 C 
ATOM      5  C   UNL     1     -26.149  51.515  43.343  1.00  0.00     0.029 C 
ATOM      6  C   UNL     1     -25.735  52.417  44.499  1.00  0.00    -0.073 C 
ATOM      7  C   UNL     1     -25.292  51.960  45.683  1.00  0.00     0.008 C 
ATOM      8  C   UNL     1     -25.925  53.901  44.281  1.00  0.00     0.031 C 
ATOM      9  C   UNL     1     -25.278  54.350  42.964  1.00  0.00     0.005 C 
ATOM     10  C   UNL     1     -25.699  53.465  41.775  1.00  0.00     0.012 C 
ATOM     11  C   UNL     1     -25.423  51.956  42.020  1.00  0.00    -0.004 C 
ATOM     12  C   UNL     1     -25.962  51.155  40.840  1.00  0.00     0.027 C 
ATOM     13  C   UNL     1     -26.354  49.895  41.027  1.00  0.00     0.131 C 
ATOM     14  O   UNL     1     -26.774  49.007  40.047  1.00  0.00    -0.423 OA
ATOM     15  C   UNL     1     -27.058  47.834  40.737  1.00  0.00     0.339 C 
ATOM     16  O   UNL     1     -27.481  46.784  40.188  1.00  0.00    -0.246 OA
ATOM     17  C   UNL     1     -23.897  51.698  42.097  1.00  0.00     0.016 C 
ENDROOT
TORSDOF 0
ENDMDL
MODEL 5
REMARK VINA RESULT:    -3.790      9.057     11.478
REMARK INTER + INTRA:          -3.790
REMARK INTER:                  -3.790
REMARK INTRA:                   0.000
REMARK UNBOUND:                 0.000
REMARK SMILES C=C1CCC[C@]2(C)C=C3OC(=O)C(C)=C3C[C@@H]12
REMARK SMILES IDX 14 1 13 2 15 3 16 4 17 5 2 6 1 7 3 8 4 9 5 10 6 11 8 12 9 13
REMARK SMILES IDX 10 14 11 15 12 16 7 17
REMARK H PARENT
REMARK Flexibility Score: inf
ROOT
ATOM      1  C   UNL     1     -25.581  52.957  41.495  1.00  0.00     0.053 C 
ATOM      2  C   UNL     1     -25.635  51.742  42.367  1.00  0.00     0.041 C 
ATOM      3  C   UNL     1     -26.133  50.554  42.037  1.00  0.00     0.005 C 
ATOM      4  C   UNL     1     -26.695  50.090  40.726  1.00  0.00     0.049 C 
ATOM      5  C   UNL     1     -27.595  48.848  40.984  1.00  0.00     0.029 C 
ATOM      6  C   UNL     1     -28.191  48.185  39.748  1.00  0.00    -0.073 C 
ATOM      7  C   UNL     1     -27.975  48.614  38.492  1.00  0.00     0.008 C 
ATOM      8  C   UNL     1     -29.134  47.032  40.004  1.00  0.00     0.031 C 
ATOM      9  C   UNL     1     -28.492  45.995  40.937  1.00  0.00     0.005 C 
ATOM     10  C   UNL     1     -27.902  46.639  42.206  1.00  0.00     0.012 C 
ATOM     11  C   UNL     1     -26.889  47.774  41.890  1.00  0.00    -0.004 C 
ATOM     12  C   UNL     1     -26.438  48.415  43.198  1.00  0.00     0.027 C 
ATOM     13  C   UNL     1     -26.049  49.689  43.204  1.00  0.00     0.131 C 
ATOM     14  O   UNL     1     -25.523  50.387  44.282  1.00  0.00    -0.423 OA
ATOM     15  C   UNL     1     -25.266  51.659  43.783  1.00  0.00     0.339 C 
ATOM     16  O   UNL     1     -24.786  52.597  44.471  1.00  0.00    -0.246 OA
ATOM     17  C   UNL     1     -25.630  47.190  41.202  1.00  0.00     0.016 C 
ENDROOT
TORSDOF 0
ENDMDL
MODEL 6
REMARK VINA RESULT:    -3.738      8.929     10.514
REMARK INTER + INTRA:          -3.738
REMARK INTER:                  -3.738
REMARK INTRA:                   0.000
REMARK UNBOUND:                 0.000
REMARK SMILES C=C1CCC[C@]2(C)C=C3OC(=O)C(C)=C3C[C@@H]12
REMARK SMILES IDX 14 1 13 2 15 3 16 4 17 5 2 6 1 7 3 8 4 9 5 10 6 11 8 12 9 13
REMARK SMILES IDX 10 14 11 15 12 16 7 17
REMARK H PARENT
REMARK Flexibility Score: inf
ROOT
ATOM      1  C   UNL     1     -28.790  45.826  41.808  1.00  0.00     0.053 C 
ATOM      2  C   UNL     1     -28.393  47.060  41.062  1.00  0.00     0.041 C 
ATOM      3  C   UNL     1     -27.535  47.990  41.470  1.00  0.00     0.005 C 
ATOM      4  C   UNL     1     -26.698  48.030  42.715  1.00  0.00     0.049 C 
ATOM      5  C   UNL     1     -26.281  49.504  42.986  1.00  0.00     0.029 C 
ATOM      6  C   UNL     1     -25.353  49.729  44.173  1.00  0.00    -0.073 C 
ATOM      7  C   UNL     1     -24.897  48.742  44.964  1.00  0.00     0.008 C 
ATOM      8  C   UNL     1     -25.017  51.169  44.487  1.00  0.00     0.031 C 
ATOM      9  C   UNL     1     -24.509  51.900  43.237  1.00  0.00     0.005 C 
ATOM     10  C   UNL     1     -25.444  51.705  42.027  1.00  0.00     0.012 C 
ATOM     11  C   UNL     1     -25.705  50.208  41.703  1.00  0.00    -0.004 C 
ATOM     12  C   UNL     1     -26.714  50.116  40.564  1.00  0.00     0.027 C 
ATOM     13  C   UNL     1     -27.502  49.046  40.471  1.00  0.00     0.131 C 
ATOM     14  O   UNL     1     -28.397  48.766  39.448  1.00  0.00    -0.423 OA
ATOM     15  C   UNL     1     -28.960  47.545  39.800  1.00  0.00     0.339 C 
ATOM     16  O   UNL     1     -29.837  46.955  39.117  1.00  0.00    -0.246 OA
ATOM     17  C   UNL     1     -24.399  49.530  41.221  1.00  0.00     0.016 C 
ENDROOT
TORSDOF 0
ENDMDL
MODEL 7
REMARK VINA RESULT:    -3.716      8.845     11.243
REMARK INTER + INTRA:          -3.716
REMARK INTER:                  -3.716
REMARK INTRA:                   0.000
REMARK UNBOUND:                 0.000
REMARK SMILES C=C1CCC[C@]2(C)C=C3OC(=O)C(C)=C3C[C@@H]12
REMARK SMILES IDX 14 1 13 2 15 3 16 4 17 5 2 6 1 7 3 8 4 9 5 10 6 11 8 12 9 13
REMARK SMILES IDX 10 14 11 15 12 16 7 17
REMARK H PARENT
REMARK Flexibility Score: inf
ROOT
ATOM      1  C   UNL     1     -26.965  52.327  44.399  1.00  0.00     0.053 C 
ATOM      2  C   UNL     1     -26.181  53.590  44.233  1.00  0.00     0.041 C 
ATOM      3  C   UNL     1     -25.955  54.509  45.166  1.00  0.00     0.005 C 
ATOM      4  C   UNL     1     -26.343  54.508  46.615  1.00  0.00     0.049 C 
ATOM      5  C   UNL     1     -26.320  55.974  47.137  1.00  0.00     0.029 C 
ATOM      6  C   UNL     1     -26.611  56.160  48.620  1.00  0.00    -0.073 C 
ATOM      7  C   UNL     1     -26.875  55.147  49.464  1.00  0.00     0.008 C 
ATOM      8  C   UNL     1     -26.673  57.589  49.108  1.00  0.00     0.031 C 
ATOM      9  C   UNL     1     -25.421  58.369  48.684  1.00  0.00     0.005 C 
ATOM     10  C   UNL     1     -25.118  58.214  47.181  1.00  0.00     0.012 C 
ATOM     11  C   UNL     1     -24.998  56.729  46.742  1.00  0.00    -0.004 C 
ATOM     12  C   UNL     1     -24.801  56.673  45.231  1.00  0.00     0.027 C 
ATOM     13  C   UNL     1     -25.214  55.602  44.555  1.00  0.00     0.131 C 
ATOM     14  O   UNL     1     -25.024  55.355  43.203  1.00  0.00    -0.423 OA
ATOM     15  C   UNL     1     -25.620  54.118  42.986  1.00  0.00     0.339 C 
ATOM     16  O   UNL     1     -25.664  53.548  41.865  1.00  0.00    -0.246 OA
ATOM     17  C   UNL     1     -23.755  56.077  47.396  1.00  0.00     0.016 C 
ENDROOT
TORSDOF 0
ENDMDL
MODEL 8
REMARK VINA RESULT:    -3.685      9.657     12.365
REMARK INTER + INTRA:          -3.685
REMARK INTER:                  -3.685
REMARK INTRA:                   0.000
REMARK UNBOUND:                 0.000
REMARK SMILES C=C1CCC[C@]2(C)C=C3OC(=O)C(C)=C3C[C@@H]12
REMARK SMILES IDX 14 1 13 2 15 3 16 4 17 5 2 6 1 7 3 8 4 9 5 10 6 11 8 12 9 13
REMARK SMILES IDX 10 14 11 15 12 16 7 17
REMARK H PARENT
REMARK Flexibility Score: inf
ROOT
ATOM      1  C   UNL     1     -24.905  53.226  49.477  1.00  0.00     0.053 C 
ATOM      2  C   UNL     1     -25.606  53.987  48.397  1.00  0.00     0.041 C 
ATOM      3  C   UNL     1     -25.574  53.723  47.094  1.00  0.00     0.005 C 
ATOM      4  C   UNL     1     -24.910  52.588  46.371  1.00  0.00     0.049 C 
ATOM      5  C   UNL     1     -24.717  52.993  44.882  1.00  0.00     0.029 C 
ATOM      6  C   UNL     1     -24.127  51.926  43.969  1.00  0.00    -0.073 C 
ATOM      7  C   UNL     1     -23.782  50.694  44.384  1.00  0.00     0.008 C 
ATOM      8  C   UNL     1     -23.860  52.348  42.542  1.00  0.00     0.031 C 
ATOM      9  C   UNL     1     -25.107  52.989  41.917  1.00  0.00     0.005 C 
ATOM     10  C   UNL     1     -25.710  54.089  42.812  1.00  0.00     0.012 C 
ATOM     11  C   UNL     1     -26.028  53.588  44.248  1.00  0.00    -0.004 C 
ATOM     12  C   UNL     1     -26.521  54.763  45.085  1.00  0.00     0.027 C 
ATOM     13  C   UNL     1     -26.333  54.753  46.404  1.00  0.00     0.131 C 
ATOM     14  O   UNL     1     -26.804  55.691  47.312  1.00  0.00    -0.423 OA
ATOM     15  C   UNL     1     -26.359  55.236  48.548  1.00  0.00     0.339 C 
ATOM     16  O   UNL     1     -26.580  55.830  49.635  1.00  0.00    -0.246 OA
ATOM     17  C   UNL     1     -27.166  52.537  44.208  1.00  0.00     0.016 C 
ENDROOT
TORSDOF 0
ENDMDL
MODEL 9
REMARK VINA RESULT:    -3.678      2.136      3.624
REMARK INTER + INTRA:          -3.678
REMARK INTER:                  -3.678
REMARK INTRA:                   0.000
REMARK UNBOUND:                 0.000
REMARK SMILES C=C1CCC[C@]2(C)C=C3OC(=O)C(C)=C3C[C@@H]12
REMARK SMILES IDX 14 1 13 2 15 3 16 4 17 5 2 6 1 7 3 8 4 9 5 10 6 11 8 12 9 13
REMARK SMILES IDX 10 14 11 15 12 16 7 17
REMARK H PARENT
REMARK Flexibility Score: inf
ROOT
ATOM      1  C   UNL     1     -25.648  50.363  34.728  1.00  0.00     0.053 C 
ATOM      2  C   UNL     1     -26.527  51.152  33.809  1.00  0.00     0.041 C 
ATOM      3  C   UNL     1     -26.685  52.471  33.804  1.00  0.00     0.005 C 
ATOM      4  C   UNL     1     -25.999  53.514  34.638  1.00  0.00     0.049 C 
ATOM      5  C   UNL     1     -26.869  54.803  34.637  1.00  0.00     0.029 C 
ATOM      6  C   UNL     1     -26.287  56.004  35.371  1.00  0.00    -0.073 C 
ATOM      7  C   UNL     1     -25.095  55.994  35.993  1.00  0.00     0.008 C 
ATOM      8  C   UNL     1     -27.170  57.228  35.443  1.00  0.00     0.031 C 
ATOM      9  C   UNL     1     -27.679  57.621  34.049  1.00  0.00     0.005 C 
ATOM     10  C   UNL     1     -28.294  56.426  33.294  1.00  0.00     0.012 C 
ATOM     11  C   UNL     1     -27.324  55.217  33.189  1.00  0.00    -0.004 C 
ATOM     12  C   UNL     1     -28.051  54.055  32.522  1.00  0.00     0.027 C 
ATOM     13  C   UNL     1     -27.683  52.804  32.801  1.00  0.00     0.131 C 
ATOM     14  O   UNL     1     -28.173  51.649  32.210  1.00  0.00    -0.423 OA
ATOM     15  C   UNL     1     -27.473  50.617  32.825  1.00  0.00     0.339 C 
ATOM     16  O   UNL     1     -27.645  49.399  32.562  1.00  0.00    -0.246 OA
ATOM     17  C   UNL     1     -26.112  55.580  32.296  1.00  0.00     0.016 C 
ENDROOT
TORSDOF 0
ENDMDL
