MODEL 1
REMARK VINA RESULT:    -4.305      0.000      0.000
REMARK INTER + INTRA:         -13.665
REMARK INTER:                  -9.843
REMARK INTRA:                  -3.823
REMARK UNBOUND:                -3.823
REMARK SMILES CCCCCCCCCCCCCCCCCCCCCCCC(=O)[O-]
REMARK SMILES IDX 13 1 14 2 15 3 16 4 17 5 18 6 19 7 20 8 21 9 22 10 23 11
REMARK SMILES IDX 24 12 25 13 26 14 12 15 11 16 10 17 9 18 8 19 7 20 6 21 5 22
REMARK SMILES IDX 4 23 3 24 2 25 1 26
REMARK H PARENT
REMARK Flexibility Score: inf
ROOT
ATOM      1  C   UNL     1     -48.583  11.571 -28.911  1.00  0.00     0.000 C 
ENDROOT
BRANCH   1   2
ATOM      2  C   UNL     1     -49.875  12.313 -29.297  1.00  0.00     0.000 C 
BRANCH   2   3
ATOM      3  C   UNL     1     -50.324  12.026 -30.739  1.00  0.00     0.000 C 
BRANCH   3   4
ATOM      4  C   UNL     1     -51.595  12.799 -31.131  1.00  0.00     0.000 C 
BRANCH   4   5
ATOM      5  C   UNL     1     -52.795  11.891 -31.473  1.00  0.00     0.000 C 
BRANCH   5   6
ATOM      6  C   UNL     1     -53.969  12.091 -30.500  1.00  0.00     0.000 C 
BRANCH   6   7
ATOM      7  C   UNL     1     -53.536  12.752 -29.181  1.00  0.00     0.000 C 
BRANCH   7   8
ATOM      8  C   UNL     1     -54.044  14.196 -29.055  1.00  0.00     0.000 C 
BRANCH   8   9
ATOM      9  C   UNL     1     -53.071  15.053 -28.234  1.00  0.00     0.000 C 
BRANCH   9  10
ATOM     10  C   UNL     1     -52.708  16.342 -28.988  1.00  0.00     0.006 C 
BRANCH  10  11
ATOM     11  C   UNL     1     -52.695  16.144 -30.509  1.00  0.00     0.053 C 
BRANCH  11  12
ATOM     12  C   UNL     1     -51.467  16.725 -31.142  1.00  0.00     0.041 C 
ATOM     13  O   UNL     1     -50.889  16.119 -32.083  1.00  0.00    -0.550 OA
ATOM     14  O   UNL     1     -50.964  17.941 -30.693  1.00  0.00    -0.550 OA
ENDBRANCH  11  12
ENDBRANCH  10  11
ENDBRANCH   9  10
ENDBRANCH   8   9
ENDBRANCH   7   8
ENDBRANCH   6   7
ENDBRANCH   5   6
ENDBRANCH   4   5
ENDBRANCH   3   4
ENDBRANCH   2   3
ENDBRANCH   1   2
BRANCH   1  15
ATOM     15  C   UNL     1     -48.609  10.045 -29.137  1.00  0.00     0.000 C 
BRANCH  15  16
ATOM     16  C   UNL     1     -47.401   9.476 -29.906  1.00  0.00     0.000 C 
BRANCH  16  17
ATOM     17  C   UNL     1     -47.362   7.938 -30.010  1.00  0.00     0.000 C 
BRANCH  17  18
ATOM     18  C   UNL     1     -48.462   7.206 -29.216  1.00  0.00    -0.000 C 
BRANCH  18  19
ATOM     19  C   UNL     1     -49.092   6.001 -29.942  1.00  0.00    -0.000 C 
BRANCH  19  20
ATOM     20  C   UNL     1     -50.445   6.281 -30.626  1.00  0.00    -0.000 C 
BRANCH  20  21
ATOM     21  C   UNL     1     -51.157   7.568 -30.169  1.00  0.00    -0.000 C 
BRANCH  21  22
ATOM     22  C   UNL     1     -51.411   8.553 -31.324  1.00  0.00    -0.000 C 
BRANCH  22  23
ATOM     23  C   UNL     1     -50.615   8.194 -32.589  1.00  0.00    -0.000 C 
BRANCH  23  24
ATOM     24  C   UNL     1     -49.514   9.220 -32.908  1.00  0.00    -0.000 C 
BRANCH  24  25
ATOM     25  C   UNL     1     -48.250   8.566 -33.486  1.00  0.00    -0.003 C 
ATOM     26  C   UNL     1     -48.292   7.038 -33.423  1.00  0.00     0.004 C 
ENDBRANCH  24  25
ENDBRANCH  23  24
ENDBRANCH  22  23
ENDBRANCH  21  22
ENDBRANCH  20  21
ENDBRANCH  19  20
ENDBRANCH  18  19
ENDBRANCH  17  18
ENDBRANCH  16  17
ENDBRANCH  15  16
ENDBRANCH   1  15
TORSDOF 22
ENDMDL
MODEL 2
REMARK VINA RESULT:    -4.231     14.327     16.656
REMARK INTER + INTRA:         -13.496
REMARK INTER:                  -9.681
REMARK INTRA:                  -3.816
REMARK UNBOUND:                -3.823
REMARK SMILES CCCCCCCCCCCCCCCCCCCCCCCC(=O)[O-]
REMARK SMILES IDX 13 1 14 2 15 3 16 4 17 5 18 6 19 7 20 8 21 9 22 10 23 11
REMARK SMILES IDX 24 12 25 13 26 14 12 15 11 16 10 17 9 18 8 19 7 20 6 21 5 22
REMARK SMILES IDX 4 23 3 24 2 25 1 26
REMARK H PARENT
REMARK Flexibility Score: inf
ROOT
ATOM      1  C   UNL     1     -38.317  20.430 -31.491  1.00  0.00     0.000 C 
ENDROOT
BRANCH   1   2
ATOM      2  C   UNL     1     -37.051  21.213 -31.884  1.00  0.00     0.000 C 
BRANCH   2   3
ATOM      3  C   UNL     1     -35.810  20.786 -31.084  1.00  0.00     0.000 C 
BRANCH   3   4
ATOM      4  C   UNL     1     -34.622  21.743 -31.273  1.00  0.00     0.000 C 
BRANCH   4   5
ATOM      5  C   UNL     1     -34.045  22.289 -29.950  1.00  0.00     0.000 C 
BRANCH   5   6
ATOM      6  C   UNL     1     -34.937  23.383 -29.336  1.00  0.00     0.000 C 
BRANCH   6   7
ATOM      7  C   UNL     1     -35.497  22.985 -27.962  1.00  0.00     0.000 C 
BRANCH   7   8
ATOM      8  C   UNL     1     -36.953  23.437 -27.769  1.00  0.00     0.000 C 
BRANCH   8   9
ATOM      9  C   UNL     1     -37.912  22.585 -28.610  1.00  0.00     0.000 C 
BRANCH   9  10
ATOM     10  C   UNL     1     -39.359  23.074 -28.454  1.00  0.00     0.006 C 
BRANCH  10  11
ATOM     11  C   UNL     1     -40.353  22.221 -29.253  1.00  0.00     0.053 C 
BRANCH  11  12
ATOM     12  C   UNL     1     -41.500  23.034 -29.775  1.00  0.00     0.041 C 
ATOM     13  O   UNL     1     -41.836  22.955 -30.987  1.00  0.00    -0.550 OA
ATOM     14  O   UNL     1     -42.199  23.876 -28.920  1.00  0.00    -0.550 OA
ENDBRANCH  11  12
ENDBRANCH  10  11
ENDBRANCH   9  10
ENDBRANCH   8   9
ENDBRANCH   7   8
ENDBRANCH   6   7
ENDBRANCH   5   6
ENDBRANCH   4   5
ENDBRANCH   3   4
ENDBRANCH   2   3
ENDBRANCH   1   2
BRANCH   1  15
ATOM     15  C   UNL     1     -38.077  18.976 -31.035  1.00  0.00     0.000 C 
BRANCH  15  16
ATOM     16  C   UNL     1     -39.143  18.405 -30.080  1.00  0.00     0.000 C 
BRANCH  16  17
ATOM     17  C   UNL     1     -39.221  19.096 -28.704  1.00  0.00     0.000 C 
BRANCH  17  18
ATOM     18  C   UNL     1     -38.116  18.691 -27.710  1.00  0.00    -0.000 C 
BRANCH  18  19
ATOM     19  C   UNL     1     -36.929  19.672 -27.625  1.00  0.00    -0.000 C 
BRANCH  19  20
ATOM     20  C   UNL     1     -35.562  19.023 -27.329  1.00  0.00    -0.000 C 
BRANCH  20  21
ATOM     21  C   UNL     1     -34.531  19.117 -28.469  1.00  0.00    -0.000 C 
BRANCH  21  22
ATOM     22  C   UNL     1     -34.264  17.761 -29.147  1.00  0.00    -0.000 C 
BRANCH  22  23
ATOM     23  C   UNL     1     -35.249  17.471 -30.290  1.00  0.00    -0.000 C 
BRANCH  23  24
ATOM     24  C   UNL     1     -35.722  16.008 -30.309  1.00  0.00    -0.000 C 
BRANCH  24  25
ATOM     25  C   UNL     1     -36.898  15.758 -29.351  1.00  0.00    -0.003 C 
ATOM     26  C   UNL     1     -37.305  14.286 -29.285  1.00  0.00     0.004 C 
ENDBRANCH  24  25
ENDBRANCH  23  24
ENDBRANCH  22  23
ENDBRANCH  21  22
ENDBRANCH  20  21
ENDBRANCH  19  20
ENDBRANCH  18  19
ENDBRANCH  17  18
ENDBRANCH  16  17
ENDBRANCH  15  16
ENDBRANCH   1  15
TORSDOF 22
ENDMDL
MODEL 3
REMARK VINA RESULT:    -4.146      2.924      8.020
REMARK INTER + INTRA:         -13.301
REMARK INTER:                  -9.910
REMARK INTRA:                  -3.391
REMARK UNBOUND:                -3.823
REMARK SMILES CCCCCCCCCCCCCCCCCCCCCCCC(=O)[O-]
REMARK SMILES IDX 13 1 14 2 15 3 16 4 17 5 18 6 19 7 20 8 21 9 22 10 23 11
REMARK SMILES IDX 24 12 25 13 26 14 12 15 11 16 10 17 9 18 8 19 7 20 6 21 5 22
REMARK SMILES IDX 4 23 3 24 2 25 1 26
REMARK H PARENT
REMARK Flexibility Score: inf
ROOT
ATOM      1  C   UNL     1     -49.873  10.607 -29.772  1.00  0.00     0.000 C 
ENDROOT
BRANCH   1   2
ATOM      2  C   UNL     1     -50.775   9.403 -30.097  1.00  0.00     0.000 C 
BRANCH   2   3
ATOM      3  C   UNL     1     -51.878   9.737 -31.114  1.00  0.00     0.000 C 
BRANCH   3   4
ATOM      4  C   UNL     1     -53.154   8.904 -30.904  1.00  0.00     0.000 C 
BRANCH   4   5
ATOM      5  C   UNL     1     -53.720   8.294 -32.204  1.00  0.00     0.000 C 
BRANCH   5   6
ATOM      6  C   UNL     1     -52.743   8.435 -33.384  1.00  0.00     0.000 C 
BRANCH   6   7
ATOM      7  C   UNL     1     -52.636   7.149 -34.218  1.00  0.00     0.000 C 
BRANCH   7   8
ATOM      8  C   UNL     1     -51.452   6.269 -33.790  1.00  0.00     0.000 C 
BRANCH   8   9
ATOM      9  C   UNL     1     -50.279   7.124 -33.294  1.00  0.00     0.000 C 
BRANCH   9  10
ATOM     10  C   UNL     1     -49.697   6.552 -31.992  1.00  0.00     0.006 C 
BRANCH  10  11
ATOM     11  C   UNL     1     -48.163   6.593 -31.972  1.00  0.00     0.053 C 
BRANCH  11  12
ATOM     12  C   UNL     1     -47.642   7.804 -31.258  1.00  0.00     0.041 C 
ATOM     13  O   UNL     1     -47.442   8.876 -31.888  1.00  0.00    -0.550 OA
ATOM     14  O   UNL     1     -47.379   7.746 -29.895  1.00  0.00    -0.550 OA
ENDBRANCH  11  12
ENDBRANCH  10  11
ENDBRANCH   9  10
ENDBRANCH   8   9
ENDBRANCH   7   8
ENDBRANCH   6   7
ENDBRANCH   5   6
ENDBRANCH   4   5
ENDBRANCH   3   4
ENDBRANCH   2   3
ENDBRANCH   1   2
BRANCH   1  15
ATOM     15  C   UNL     1     -50.615  11.884 -29.328  1.00  0.00     0.000 C 
BRANCH  15  16
ATOM     16  C   UNL     1     -49.956  13.208 -29.759  1.00  0.00     0.000 C 
BRANCH  16  17
ATOM     17  C   UNL     1     -50.721  13.992 -30.845  1.00  0.00     0.000 C 
BRANCH  17  18
ATOM     18  C   UNL     1     -52.068  13.372 -31.264  1.00  0.00    -0.000 C 
BRANCH  18  19
ATOM     19  C   UNL     1     -53.312  14.056 -30.662  1.00  0.00    -0.000 C 
BRANCH  19  20
ATOM     20  C   UNL     1     -53.935  13.334 -29.450  1.00  0.00    -0.000 C 
BRANCH  20  21
ATOM     21  C   UNL     1     -53.909  14.127 -28.130  1.00  0.00    -0.000 C 
BRANCH  21  22
ATOM     22  C   UNL     1     -52.961  15.338 -28.179  1.00  0.00    -0.000 C 
BRANCH  22  23
ATOM     23  C   UNL     1     -53.687  16.665 -27.907  1.00  0.00    -0.000 C 
BRANCH  23  24
ATOM     24  C   UNL     1     -52.968  17.873 -28.530  1.00  0.00    -0.000 C 
BRANCH  24  25
ATOM     25  C   UNL     1     -52.003  17.467 -29.655  1.00  0.00    -0.003 C 
ATOM     26  C   UNL     1     -52.582  17.714 -31.049  1.00  0.00     0.004 C 
ENDBRANCH  24  25
ENDBRANCH  23  24
ENDBRANCH  22  23
ENDBRANCH  21  22
ENDBRANCH  20  21
ENDBRANCH  19  20
ENDBRANCH  18  19
ENDBRANCH  17  18
ENDBRANCH  16  17
ENDBRANCH  15  16
ENDBRANCH   1  15
TORSDOF 22
ENDMDL
MODEL 4
REMARK VINA RESULT:    -4.081      2.751      8.047
REMARK INTER + INTRA:         -13.153
REMARK INTER:                 -10.000
REMARK INTRA:                  -3.153
REMARK UNBOUND:                -3.823
REMARK SMILES CCCCCCCCCCCCCCCCCCCCCCCC(=O)[O-]
REMARK SMILES IDX 13 1 14 2 15 3 16 4 17 5 18 6 19 7 20 8 21 9 22 10 23 11
REMARK SMILES IDX 24 12 25 13 26 14 12 15 11 16 10 17 9 18 8 19 7 20 6 21 5 22
REMARK SMILES IDX 4 23 3 24 2 25 1 26
REMARK H PARENT
REMARK Flexibility Score: inf
ROOT
ATOM      1  C   UNL     1     -50.955  11.811 -31.063  1.00  0.00     0.000 C 
ENDROOT
BRANCH   1   2
ATOM      2  C   UNL     1     -50.750  10.425 -31.700  1.00  0.00     0.000 C 
BRANCH   2   3
ATOM      3  C   UNL     1     -51.845  10.065 -32.716  1.00  0.00     0.000 C 
BRANCH   3   4
ATOM      4  C   UNL     1     -52.854   9.043 -32.166  1.00  0.00     0.000 C 
BRANCH   4   5
ATOM      5  C   UNL     1     -52.342   7.587 -32.190  1.00  0.00     0.000 C 
BRANCH   5   6
ATOM      6  C   UNL     1     -52.054   7.097 -33.619  1.00  0.00     0.000 C 
BRANCH   6   7
ATOM      7  C   UNL     1     -50.775   6.249 -33.705  1.00  0.00     0.000 C 
BRANCH   7   8
ATOM      8  C   UNL     1     -49.736   6.645 -32.646  1.00  0.00     0.000 C 
BRANCH   8   9
ATOM      9  C   UNL     1     -48.688   7.601 -33.231  1.00  0.00     0.000 C 
BRANCH   9  10
ATOM     10  C   UNL     1     -47.763   8.139 -32.128  1.00  0.00     0.006 C 
BRANCH  10  11
ATOM     11  C   UNL     1     -48.352   7.942 -30.725  1.00  0.00     0.053 C 
BRANCH  11  12
ATOM     12  C   UNL     1     -47.918   9.019 -29.776  1.00  0.00     0.041 C 
ATOM     13  O   UNL     1     -48.681   9.392 -28.847  1.00  0.00    -0.550 OA
ATOM     14  O   UNL     1     -46.667   9.607 -29.919  1.00  0.00    -0.550 OA
ENDBRANCH  11  12
ENDBRANCH  10  11
ENDBRANCH   9  10
ENDBRANCH   8   9
ENDBRANCH   7   8
ENDBRANCH   6   7
ENDBRANCH   5   6
ENDBRANCH   4   5
ENDBRANCH   3   4
ENDBRANCH   2   3
ENDBRANCH   1   2
BRANCH   1  15
ATOM     15  C   UNL     1     -51.162  11.809 -29.535  1.00  0.00     0.000 C 
BRANCH  15  16
ATOM     16  C   UNL     1     -52.600  11.516 -29.068  1.00  0.00     0.000 C 
BRANCH  16  17
ATOM     17  C   UNL     1     -53.708  12.137 -29.943  1.00  0.00     0.000 C 
BRANCH  17  18
ATOM     18  C   UNL     1     -54.039  13.607 -29.625  1.00  0.00    -0.000 C 
BRANCH  18  19
ATOM     19  C   UNL     1     -53.838  14.012 -28.151  1.00  0.00    -0.000 C 
BRANCH  19  20
ATOM     20  C   UNL     1     -53.044  15.316 -27.931  1.00  0.00    -0.000 C 
BRANCH  20  21
ATOM     21  C   UNL     1     -53.895  16.597 -27.856  1.00  0.00    -0.000 C 
BRANCH  21  22
ATOM     22  C   UNL     1     -53.140  17.845 -28.349  1.00  0.00    -0.000 C 
BRANCH  22  23
ATOM     23  C   UNL     1     -52.972  17.865 -29.877  1.00  0.00    -0.000 C 
BRANCH  23  24
ATOM     24  C   UNL     1     -51.497  17.860 -30.311  1.00  0.00    -0.000 C 
BRANCH  24  25
ATOM     25  C   UNL     1     -51.241  16.936 -31.512  1.00  0.00    -0.003 C 
ATOM     26  C   UNL     1     -51.281  15.454 -31.138  1.00  0.00     0.004 C 
ENDBRANCH  24  25
ENDBRANCH  23  24
ENDBRANCH  22  23
ENDBRANCH  21  22
ENDBRANCH  20  21
ENDBRANCH  19  20
ENDBRANCH  18  19
ENDBRANCH  17  18
ENDBRANCH  16  17
ENDBRANCH  15  16
ENDBRANCH   1  15
TORSDOF 22
ENDMDL
MODEL 5
REMARK VINA RESULT:    -4.081      1.371      3.837
REMARK INTER + INTRA:         -13.153
REMARK INTER:                  -9.262
REMARK INTRA:                  -3.891
REMARK UNBOUND:                -3.823
REMARK SMILES CCCCCCCCCCCCCCCCCCCCCCCC(=O)[O-]
REMARK SMILES IDX 13 1 14 2 15 3 16 4 17 5 18 6 19 7 20 8 21 9 22 10 23 11
REMARK SMILES IDX 24 12 25 13 26 14 12 15 11 16 10 17 9 18 8 19 7 20 6 21 5 22
REMARK SMILES IDX 4 23 3 24 2 25 1 26
REMARK H PARENT
REMARK Flexibility Score: inf
ROOT
ATOM      1  C   UNL     1     -49.196   7.949 -33.185  1.00  0.00     0.000 C 
ENDROOT
BRANCH   1   2
ATOM      2  C   UNL     1     -49.550   9.435 -33.378  1.00  0.00     0.000 C 
BRANCH   2   3
ATOM      3  C   UNL     1     -50.238  10.051 -32.149  1.00  0.00     0.000 C 
BRANCH   3   4
ATOM      4  C   UNL     1     -51.726  10.357 -32.392  1.00  0.00     0.000 C 
BRANCH   4   5
ATOM      5  C   UNL     1     -52.625  10.084 -31.167  1.00  0.00     0.000 C 
BRANCH   5   6
ATOM      6  C   UNL     1     -53.529  11.284 -30.833  1.00  0.00     0.000 C 
BRANCH   6   7
ATOM      7  C   UNL     1     -53.070  12.578 -31.524  1.00  0.00     0.000 C 
BRANCH   7   8
ATOM      8  C   UNL     1     -53.408  13.832 -30.703  1.00  0.00     0.000 C 
BRANCH   8   9
ATOM      9  C   UNL     1     -53.251  13.567 -29.200  1.00  0.00     0.000 C 
BRANCH   9  10
ATOM     10  C   UNL     1     -54.001  14.625 -28.377  1.00  0.00     0.006 C 
BRANCH  10  11
ATOM     11  C   UNL     1     -53.060  15.691 -27.800  1.00  0.00     0.053 C 
BRANCH  11  12
ATOM     12  C   UNL     1     -53.017  16.924 -28.652  1.00  0.00     0.041 C 
ATOM     13  O   UNL     1     -52.194  17.012 -29.602  1.00  0.00    -0.550 OA
ATOM     14  O   UNL     1     -53.889  17.975 -28.396  1.00  0.00    -0.550 OA
ENDBRANCH  11  12
ENDBRANCH  10  11
ENDBRANCH   9  10
ENDBRANCH   8   9
ENDBRANCH   7   8
ENDBRANCH   6   7
ENDBRANCH   5   6
ENDBRANCH   4   5
ENDBRANCH   3   4
ENDBRANCH   2   3
ENDBRANCH   1   2
BRANCH   1  15
ATOM     15  C   UNL     1     -50.380   6.969 -33.311  1.00  0.00     0.000 C 
BRANCH  15  16
ATOM     16  C   UNL     1     -50.564   6.008 -32.122  1.00  0.00     0.000 C 
BRANCH  16  17
ATOM     17  C   UNL     1     -51.269   6.619 -30.894  1.00  0.00     0.000 C 
BRANCH  17  18
ATOM     18  C   UNL     1     -50.328   7.042 -29.750  1.00  0.00    -0.000 C 
BRANCH  18  19
ATOM     19  C   UNL     1     -49.006   6.253 -29.673  1.00  0.00    -0.000 C 
BRANCH  19  20
ATOM     20  C   UNL     1     -47.744   7.109 -29.437  1.00  0.00    -0.000 C 
BRANCH  20  21
ATOM     21  C   UNL     1     -47.649   8.385 -30.294  1.00  0.00    -0.000 C 
BRANCH  21  22
ATOM     22  C   UNL     1     -46.888   9.522 -29.589  1.00  0.00    -0.000 C 
BRANCH  22  23
ATOM     23  C   UNL     1     -47.767  10.761 -29.356  1.00  0.00    -0.000 C 
BRANCH  23  24
ATOM     24  C   UNL     1     -49.154  10.406 -28.794  1.00  0.00    -0.000 C 
BRANCH  24  25
ATOM     25  C   UNL     1     -50.126  11.596 -28.832  1.00  0.00    -0.003 C 
ATOM     26  C   UNL     1     -49.594  12.768 -29.658  1.00  0.00     0.004 C 
ENDBRANCH  24  25
ENDBRANCH  23  24
ENDBRANCH  22  23
ENDBRANCH  21  22
ENDBRANCH  20  21
ENDBRANCH  19  20
ENDBRANCH  18  19
ENDBRANCH  17  18
ENDBRANCH  16  17
ENDBRANCH  15  16
ENDBRANCH   1  15
TORSDOF 22
ENDMDL
MODEL 6
REMARK VINA RESULT:    -4.078      2.879      7.106
REMARK INTER + INTRA:         -13.145
REMARK INTER:                  -9.759
REMARK INTRA:                  -3.385
REMARK UNBOUND:                -3.823
REMARK SMILES CCCCCCCCCCCCCCCCCCCCCCCC(=O)[O-]
REMARK SMILES IDX 13 1 14 2 15 3 16 4 17 5 18 6 19 7 20 8 21 9 22 10 23 11
REMARK SMILES IDX 24 12 25 13 26 14 12 15 11 16 10 17 9 18 8 19 7 20 6 21 5 22
REMARK SMILES IDX 4 23 3 24 2 25 1 26
REMARK H PARENT
REMARK Flexibility Score: inf
ROOT
ATOM      1  C   UNL     1     -52.993  15.521 -28.316  1.00  0.00     0.000 C 
ENDROOT
BRANCH   1   2
ATOM      2  C   UNL     1     -54.073  14.477 -28.648  1.00  0.00     0.000 C 
BRANCH   2   3
ATOM      3  C   UNL     1     -53.514  13.049 -28.754  1.00  0.00     0.000 C 
BRANCH   3   4
ATOM      4  C   UNL     1     -53.781  12.405 -30.125  1.00  0.00     0.000 C 
BRANCH   4   5
ATOM      5  C   UNL     1     -53.736  10.863 -30.108  1.00  0.00     0.000 C 
BRANCH   5   6
ATOM      6  C   UNL     1     -52.354  10.319 -30.510  1.00  0.00     0.000 C 
BRANCH   6   7
ATOM      7  C   UNL     1     -51.968  10.695 -31.950  1.00  0.00     0.000 C 
BRANCH   7   8
ATOM      8  C   UNL     1     -52.223   9.551 -32.943  1.00  0.00     0.000 C 
BRANCH   8   9
ATOM      9  C   UNL     1     -52.185   8.189 -32.238  1.00  0.00     0.000 C 
BRANCH   9  10
ATOM     10  C   UNL     1     -51.117   7.279 -32.864  1.00  0.00     0.006 C 
BRANCH  10  11
ATOM     11  C   UNL     1     -49.766   7.387 -32.146  1.00  0.00     0.053 C 
BRANCH  11  12
ATOM     12  C   UNL     1     -48.614   7.348 -33.105  1.00  0.00     0.041 C 
ATOM     13  O   UNL     1     -48.207   6.249 -33.567  1.00  0.00    -0.550 OA
ATOM     14  O   UNL     1     -47.992   8.530 -33.490  1.00  0.00    -0.550 OA
ENDBRANCH  11  12
ENDBRANCH  10  11
ENDBRANCH   9  10
ENDBRANCH   8   9
ENDBRANCH   7   8
ENDBRANCH   6   7
ENDBRANCH   5   6
ENDBRANCH   4   5
ENDBRANCH   3   4
ENDBRANCH   2   3
ENDBRANCH   1   2
BRANCH   1  15
ATOM     15  C   UNL     1     -53.217  16.918 -28.930  1.00  0.00     0.000 C 
BRANCH  15  16
ATOM     16  C   UNL     1     -52.882  17.036 -30.430  1.00  0.00     0.000 C 
BRANCH  16  17
ATOM     17  C   UNL     1     -51.378  16.997 -30.765  1.00  0.00     0.000 C 
BRANCH  17  18
ATOM     18  C   UNL     1     -50.979  15.968 -31.840  1.00  0.00    -0.000 C 
BRANCH  18  19
ATOM     19  C   UNL     1     -51.252  14.498 -31.464  1.00  0.00    -0.000 C 
BRANCH  19  20
ATOM     20  C   UNL     1     -50.022  13.707 -30.975  1.00  0.00    -0.000 C 
BRANCH  20  21
ATOM     21  C   UNL     1     -50.143  13.115 -29.558  1.00  0.00    -0.000 C 
BRANCH  21  22
ATOM     22  C   UNL     1     -48.870  12.377 -29.108  1.00  0.00    -0.000 C 
BRANCH  22  23
ATOM     23  C   UNL     1     -49.142  10.910 -28.738  1.00  0.00    -0.000 C 
BRANCH  23  24
ATOM     24  C   UNL     1     -48.807   9.938 -29.883  1.00  0.00    -0.000 C 
BRANCH  24  25
ATOM     25  C   UNL     1     -47.317   9.564 -29.919  1.00  0.00    -0.003 C 
ATOM     26  C   UNL     1     -47.041   8.176 -29.338  1.00  0.00     0.004 C 
ENDBRANCH  24  25
ENDBRANCH  23  24
ENDBRANCH  22  23
ENDBRANCH  21  22
ENDBRANCH  20  21
ENDBRANCH  19  20
ENDBRANCH  18  19
ENDBRANCH  17  18
ENDBRANCH  16  17
ENDBRANCH  15  16
ENDBRANCH   1  15
TORSDOF 22
ENDMDL
MODEL 7
REMARK VINA RESULT:    -4.042      2.758      8.085
REMARK INTER + INTRA:         -13.062
REMARK INTER:                  -9.690
REMARK INTRA:                  -3.372
REMARK UNBOUND:                -3.823
REMARK SMILES CCCCCCCCCCCCCCCCCCCCCCCC(=O)[O-]
REMARK SMILES IDX 13 1 14 2 15 3 16 4 17 5 18 6 19 7 20 8 21 9 22 10 23 11
REMARK SMILES IDX 24 12 25 13 26 14 12 15 11 16 10 17 9 18 8 19 7 20 6 21 5 22
REMARK SMILES IDX 4 23 3 24 2 25 1 26
REMARK H PARENT
REMARK Flexibility Score: inf
ROOT
ATOM      1  C   UNL     1     -51.284  10.269 -30.632  1.00  0.00     0.000 C 
ENDROOT
BRANCH   1   2
ATOM      2  C   UNL     1     -51.955   9.741 -31.912  1.00  0.00     0.000 C 
BRANCH   2   3
ATOM      3  C   UNL     1     -53.310   9.067 -31.644  1.00  0.00     0.000 C 
BRANCH   3   4
ATOM      4  C   UNL     1     -53.861   8.328 -32.875  1.00  0.00     0.000 C 
BRANCH   4   5
ATOM      5  C   UNL     1     -52.770   7.863 -33.862  1.00  0.00     0.000 C 
BRANCH   5   6
ATOM      6  C   UNL     1     -52.425   6.374 -33.686  1.00  0.00     0.000 C 
BRANCH   6   7
ATOM      7  C   UNL     1     -50.918   6.097 -33.819  1.00  0.00     0.000 C 
BRANCH   7   8
ATOM      8  C   UNL     1     -50.117   6.621 -32.618  1.00  0.00     0.000 C 
BRANCH   8   9
ATOM      9  C   UNL     1     -48.722   7.092 -33.048  1.00  0.00     0.000 C 
BRANCH   9  10
ATOM     10  C   UNL     1     -48.506   8.568 -32.681  1.00  0.00     0.006 C 
BRANCH  10  11
ATOM     11  C   UNL     1     -47.325   8.764 -31.721  1.00  0.00     0.053 C 
BRANCH  11  12
ATOM     12  C   UNL     1     -47.777   8.975 -30.308  1.00  0.00     0.041 C 
ATOM     13  O   UNL     1     -48.407   8.070 -29.699  1.00  0.00    -0.550 OA
ATOM     14  O   UNL     1     -47.497  10.174 -29.662  1.00  0.00    -0.550 OA
ENDBRANCH  11  12
ENDBRANCH  10  11
ENDBRANCH   9  10
ENDBRANCH   8   9
ENDBRANCH   7   8
ENDBRANCH   6   7
ENDBRANCH   5   6
ENDBRANCH   4   5
ENDBRANCH   3   4
ENDBRANCH   2   3
ENDBRANCH   1   2
BRANCH   1  15
ATOM     15  C   UNL     1     -52.247  10.613 -29.477  1.00  0.00     0.000 C 
BRANCH  15  16
ATOM     16  C   UNL     1     -52.538  12.114 -29.291  1.00  0.00     0.000 C 
BRANCH  16  17
ATOM     17  C   UNL     1     -53.300  12.778 -30.455  1.00  0.00     0.000 C 
BRANCH  17  18
ATOM     18  C   UNL     1     -52.457  13.733 -31.322  1.00  0.00    -0.000 C 
BRANCH  18  19
ATOM     19  C   UNL     1     -51.008  13.939 -30.838  1.00  0.00    -0.000 C 
BRANCH  19  20
ATOM     20  C   UNL     1     -50.274  15.145 -31.459  1.00  0.00    -0.000 C 
BRANCH  20  21
ATOM     21  C   UNL     1     -51.187  16.231 -32.058  1.00  0.00    -0.000 C 
BRANCH  21  22
ATOM     22  C   UNL     1     -51.564  17.322 -31.040  1.00  0.00    -0.000 C 
BRANCH  22  23
ATOM     23  C   UNL     1     -53.078  17.589 -30.999  1.00  0.00    -0.000 C 
BRANCH  23  24
ATOM     24  C   UNL     1     -53.779  16.848 -29.848  1.00  0.00    -0.000 C 
BRANCH  24  25
ATOM     25  C   UNL     1     -52.881  16.701 -28.610  1.00  0.00    -0.003 C 
ATOM     26  C   UNL     1     -53.177  15.431 -27.811  1.00  0.00     0.004 C 
ENDBRANCH  24  25
ENDBRANCH  23  24
ENDBRANCH  22  23
ENDBRANCH  21  22
ENDBRANCH  20  21
ENDBRANCH  19  20
ENDBRANCH  18  19
ENDBRANCH  17  18
ENDBRANCH  16  17
ENDBRANCH  15  16
ENDBRANCH   1  15
TORSDOF 22
ENDMDL
MODEL 8
REMARK VINA RESULT:    -4.040      1.267      2.285
REMARK INTER + INTRA:         -13.059
REMARK INTER:                  -9.716
REMARK INTRA:                  -3.343
REMARK UNBOUND:                -3.823
REMARK SMILES CCCCCCCCCCCCCCCCCCCCCCCC(=O)[O-]
REMARK SMILES IDX 13 1 14 2 15 3 16 4 17 5 18 6 19 7 20 8 21 9 22 10 23 11
REMARK SMILES IDX 24 12 25 13 26 14 12 15 11 16 10 17 9 18 8 19 7 20 6 21 5 22
REMARK SMILES IDX 4 23 3 24 2 25 1 26
REMARK H PARENT
REMARK Flexibility Score: inf
ROOT
ATOM      1  C   UNL     1     -49.038  12.371 -29.205  1.00  0.00     0.000 C 
ENDROOT
BRANCH   1   2
ATOM      2  C   UNL     1     -50.445  12.352 -29.828  1.00  0.00     0.000 C 
BRANCH   2   3
ATOM      3  C   UNL     1     -50.701  13.540 -30.769  1.00  0.00     0.000 C 
BRANCH   3   4
ATOM      4  C   UNL     1     -51.985  13.377 -31.599  1.00  0.00     0.000 C 
BRANCH   4   5
ATOM      5  C   UNL     1     -52.981  12.356 -31.010  1.00  0.00     0.000 C 
BRANCH   5   6
ATOM      6  C   UNL     1     -54.125  13.038 -30.240  1.00  0.00     0.000 C 
BRANCH   6   7
ATOM      7  C   UNL     1     -53.935  12.965 -28.716  1.00  0.00     0.000 C 
BRANCH   7   8
ATOM      8  C   UNL     1     -53.502  14.311 -28.114  1.00  0.00     0.000 C 
BRANCH   8   9
ATOM      9  C   UNL     1     -53.803  15.468 -29.075  1.00  0.00     0.000 C 
BRANCH   9  10
ATOM     10  C   UNL     1     -52.570  16.368 -29.249  1.00  0.00     0.006 C 
BRANCH  10  11
ATOM     11  C   UNL     1     -52.933  17.859 -29.252  1.00  0.00     0.053 C 
BRANCH  11  12
ATOM     12  C   UNL     1     -52.713  18.489 -30.594  1.00  0.00     0.041 C 
ATOM     13  O   UNL     1     -53.682  18.973 -31.236  1.00  0.00    -0.550 OA
ATOM     14  O   UNL     1     -51.433  18.545 -31.133  1.00  0.00    -0.550 OA
ENDBRANCH  11  12
ENDBRANCH  10  11
ENDBRANCH   9  10
ENDBRANCH   8   9
ENDBRANCH   7   8
ENDBRANCH   6   7
ENDBRANCH   5   6
ENDBRANCH   4   5
ENDBRANCH   3   4
ENDBRANCH   2   3
ENDBRANCH   1   2
BRANCH   1  15
ATOM     15  C   UNL     1     -48.590  11.049 -28.549  1.00  0.00     0.000 C 
BRANCH  15  16
ATOM     16  C   UNL     1     -48.910   9.776 -29.356  1.00  0.00     0.000 C 
BRANCH  16  17
ATOM     17  C   UNL     1     -47.762   8.748 -29.431  1.00  0.00     0.000 C 
BRANCH  17  18
ATOM     18  C   UNL     1     -48.115   7.434 -30.154  1.00  0.00    -0.000 C 
BRANCH  18  19
ATOM     19  C   UNL     1     -47.470   7.266 -31.544  1.00  0.00    -0.000 C 
BRANCH  19  20
ATOM     20  C   UNL     1     -48.377   6.626 -32.615  1.00  0.00    -0.000 C 
BRANCH  20  21
ATOM     21  C   UNL     1     -49.491   7.538 -33.161  1.00  0.00    -0.000 C 
BRANCH  21  22
ATOM     22  C   UNL     1     -49.120   9.031 -33.110  1.00  0.00    -0.000 C 
BRANCH  22  23
ATOM     23  C   UNL     1     -50.307   9.918 -32.702  1.00  0.00    -0.000 C 
BRANCH  23  24
ATOM     24  C   UNL     1     -51.570   9.103 -32.371  1.00  0.00    -0.000 C 
BRANCH  24  25
ATOM     25  C   UNL     1     -51.843   9.030 -30.861  1.00  0.00    -0.003 C 
ATOM     26  C   UNL     1     -52.848   7.938 -30.493  1.00  0.00     0.004 C 
ENDBRANCH  24  25
ENDBRANCH  23  24
ENDBRANCH  22  23
ENDBRANCH  21  22
ENDBRANCH  20  21
ENDBRANCH  19  20
ENDBRANCH  18  19
ENDBRANCH  17  18
ENDBRANCH  16  17
ENDBRANCH  15  16
ENDBRANCH   1  15
TORSDOF 22
ENDMDL
MODEL 9
REMARK VINA RESULT:    -3.999      1.364      2.831
REMARK INTER + INTRA:         -12.965
REMARK INTER:                  -9.541
REMARK INTRA:                  -3.424
REMARK UNBOUND:                -3.823
REMARK SMILES CCCCCCCCCCCCCCCCCCCCCCCC(=O)[O-]
REMARK SMILES IDX 13 1 14 2 15 3 16 4 17 5 18 6 19 7 20 8 21 9 22 10 23 11
REMARK SMILES IDX 24 12 25 13 26 14 12 15 11 16 10 17 9 18 8 19 7 20 6 21 5 22
REMARK SMILES IDX 4 23 3 24 2 25 1 26
REMARK H PARENT
REMARK Flexibility Score: inf
ROOT
ATOM      1  C   UNL     1     -50.020  12.428 -29.259  1.00  0.00     0.000 C 
ENDROOT
BRANCH   1   2
ATOM      2  C   UNL     1     -49.839  13.407 -30.433  1.00  0.00     0.000 C 
BRANCH   2   3
ATOM      3  C   UNL     1     -51.126  14.171 -30.782  1.00  0.00     0.000 C 
BRANCH   3   4
ATOM      4  C   UNL     1     -52.229  13.256 -31.340  1.00  0.00     0.000 C 
BRANCH   4   5
ATOM      5  C   UNL     1     -53.602  13.454 -30.664  1.00  0.00     0.000 C 
BRANCH   5   6
ATOM      6  C   UNL     1     -53.661  12.806 -29.270  1.00  0.00     0.000 C 
BRANCH   6   7
ATOM      7  C   UNL     1     -53.769  13.844 -28.141  1.00  0.00     0.000 C 
BRANCH   7   8
ATOM      8  C   UNL     1     -54.036  15.261 -28.671  1.00  0.00     0.000 C 
BRANCH   8   9
ATOM      9  C   UNL     1     -53.443  16.322 -27.735  1.00  0.00     0.000 C 
BRANCH   9  10
ATOM     10  C   UNL     1     -52.891  17.512 -28.535  1.00  0.00     0.006 C 
BRANCH  10  11
ATOM     11  C   UNL     1     -53.074  17.332 -30.048  1.00  0.00     0.053 C 
BRANCH  11  12
ATOM     12  C   UNL     1     -52.057  18.104 -30.833  1.00  0.00     0.041 C 
ATOM     13  O   UNL     1     -52.407  19.102 -31.519  1.00  0.00    -0.550 OA
ATOM     14  O   UNL     1     -50.721  17.723 -30.804  1.00  0.00    -0.550 OA
ENDBRANCH  11  12
ENDBRANCH  10  11
ENDBRANCH   9  10
ENDBRANCH   8   9
ENDBRANCH   7   8
ENDBRANCH   6   7
ENDBRANCH   5   6
ENDBRANCH   4   5
ENDBRANCH   3   4
ENDBRANCH   2   3
ENDBRANCH   1   2
BRANCH   1  15
ATOM     15  C   UNL     1     -49.597  10.973 -29.543  1.00  0.00     0.000 C 
BRANCH  15  16
ATOM     16  C   UNL     1     -50.095  10.395 -30.881  1.00  0.00     0.000 C 
BRANCH  16  17
ATOM     17  C   UNL     1     -51.396   9.571 -30.790  1.00  0.00     0.000 C 
BRANCH  17  18
ATOM     18  C   UNL     1     -52.297   9.640 -32.038  1.00  0.00    -0.000 C 
BRANCH  18  19
ATOM     19  C   UNL     1     -52.436   8.314 -32.811  1.00  0.00    -0.000 C 
BRANCH  19  20
ATOM     20  C   UNL     1     -51.473   7.193 -32.370  1.00  0.00    -0.000 C 
BRANCH  20  21
ATOM     21  C   UNL     1     -50.332   6.882 -33.355  1.00  0.00    -0.000 C 
BRANCH  21  22
ATOM     22  C   UNL     1     -48.955   7.335 -32.838  1.00  0.00    -0.000 C 
BRANCH  22  23
ATOM     23  C   UNL     1     -48.028   6.151 -32.520  1.00  0.00    -0.000 C 
BRANCH  23  24
ATOM     24  C   UNL     1     -47.779   5.982 -31.011  1.00  0.00    -0.000 C 
BRANCH  24  25
ATOM     25  C   UNL     1     -48.390   7.123 -30.183  1.00  0.00    -0.003 C 
ATOM     26  C   UNL     1     -47.333   7.980 -29.485  1.00  0.00     0.004 C 
ENDBRANCH  24  25
ENDBRANCH  23  24
ENDBRANCH  22  23
ENDBRANCH  21  22
ENDBRANCH  20  21
ENDBRANCH  19  20
ENDBRANCH  18  19
ENDBRANCH  17  18
ENDBRANCH  16  17
ENDBRANCH  15  16
ENDBRANCH   1  15
TORSDOF 22
ENDMDL
