MODEL 1
REMARK VINA RESULT:    -4.299      0.000      0.000
REMARK INTER + INTRA:          -5.021
REMARK INTER:                  -4.928
REMARK INTRA:                  -0.093
REMARK UNBOUND:                -0.093
REMARK SMILES COc1cc(C(=O)[O-])ccc1O
REMARK SMILES IDX 5 1 9 2 4 3 10 4 3 5 11 6 6 7 7 8 8 9 2 10 1 11 12 12
REMARK H PARENT 12 13
REMARK Flexibility Score: inf
ROOT
ATOM      1  C   UNL     1     -20.269  40.281  -0.307  1.00  0.00     0.001 A 
ATOM      2  C   UNL     1     -21.461  41.023  -0.293  1.00  0.00     0.014 A 
ATOM      3  C   UNL     1     -20.034  39.388  -1.368  1.00  0.00     0.060 A 
ATOM      4  C   UNL     1     -22.398  40.876  -1.316  1.00  0.00     0.051 A 
ATOM      5  C   UNL     1     -20.977  39.235  -2.404  1.00  0.00     0.161 A 
ATOM      6  C   UNL     1     -22.164  39.988  -2.369  1.00  0.00     0.157 A 
ENDROOT
BRANCH   1   7
ATOM      7  C   UNL     1     -19.273  40.434   0.777  1.00  0.00     0.072 C 
ATOM      8  O   UNL     1     -19.000  39.468   1.538  1.00  0.00    -0.545 OA
ATOM      9  O   UNL     1     -18.624  41.648   0.970  1.00  0.00    -0.545 OA
ENDBRANCH   1   7
BRANCH   5  10
ATOM     10  O   UNL     1     -20.769  38.351  -3.475  1.00  0.00    -0.493 OA
ATOM     11  C   UNL     1     -19.760  38.507  -4.468  1.00  0.00     0.278 C 
ENDBRANCH   5  10
BRANCH   6  12
ATOM     12  O   UNL     1     -23.125  39.869  -3.374  1.00  0.00    -0.504 OA
ATOM     13  H   UNL     1     -23.075  40.401  -4.234  1.00  0.00     0.293 HD
ENDBRANCH   6  12
TORSDOF 3
ENDMDL
MODEL 2
REMARK VINA RESULT:    -4.096      6.811      9.727
REMARK INTER + INTRA:          -4.788
REMARK INTER:                  -4.692
REMARK INTRA:                  -0.095
REMARK UNBOUND:                -0.093
REMARK SMILES COc1cc(C(=O)[O-])ccc1O
REMARK SMILES IDX 5 1 9 2 4 3 10 4 3 5 11 6 6 7 7 8 8 9 2 10 1 11 12 12
REMARK H PARENT 12 13
REMARK Flexibility Score: inf
ROOT
ATOM      1  C   UNL     1     -19.312  40.101   6.187  1.00  0.00     0.001 A 
ATOM      2  C   UNL     1     -20.493  40.830   6.407  1.00  0.00     0.014 A 
ATOM      3  C   UNL     1     -18.554  39.681   7.293  1.00  0.00     0.060 A 
ATOM      4  C   UNL     1     -20.905  41.133   7.705  1.00  0.00     0.051 A 
ATOM      5  C   UNL     1     -18.965  39.983   8.607  1.00  0.00     0.161 A 
ATOM      6  C   UNL     1     -20.150  40.716   8.804  1.00  0.00     0.157 A 
ENDROOT
BRANCH   1   7
ATOM      7  C   UNL     1     -18.872  39.778   4.812  1.00  0.00     0.072 C 
ATOM      8  O   UNL     1     -18.814  38.581   4.422  1.00  0.00    -0.545 OA
ATOM      9  O   UNL     1     -18.517  40.791   3.929  1.00  0.00    -0.545 OA
ENDBRANCH   1   7
BRANCH   5  10
ATOM     10  O   UNL     1     -18.227  39.578   9.731  1.00  0.00    -0.493 OA
ATOM     11  C   UNL     1     -16.979  40.140  10.125  1.00  0.00     0.278 C 
ENDBRANCH   5  10
BRANCH   6  12
ATOM     12  O   UNL     1     -20.595  41.037  10.087  1.00  0.00    -0.504 OA
ATOM     13  H   UNL     1     -21.352  40.537  10.537  1.00  0.00     0.293 HD
ENDBRANCH   6  12
TORSDOF 3
ENDMDL
MODEL 3
REMARK VINA RESULT:    -4.049      3.880      6.045
REMARK INTER + INTRA:          -4.734
REMARK INTER:                  -4.702
REMARK INTRA:                  -0.032
REMARK UNBOUND:                -0.093
REMARK SMILES COc1cc(C(=O)[O-])ccc1O
REMARK SMILES IDX 5 1 9 2 4 3 10 4 3 5 11 6 6 7 7 8 8 9 2 10 1 11 12 12
REMARK H PARENT 12 13
REMARK Flexibility Score: inf
ROOT
ATOM      1  C   UNL     1     -19.285  40.361   5.175  1.00  0.00     0.001 A 
ATOM      2  C   UNL     1     -18.812  39.085   4.826  1.00  0.00     0.014 A 
ATOM      3  C   UNL     1     -19.715  41.230   4.158  1.00  0.00     0.060 A 
ATOM      4  C   UNL     1     -18.770  38.688   3.489  1.00  0.00     0.051 A 
ATOM      5  C   UNL     1     -19.676  40.835   2.806  1.00  0.00     0.161 A 
ATOM      6  C   UNL     1     -19.197  39.553   2.479  1.00  0.00     0.157 A 
ENDROOT
BRANCH   1   7
ATOM      7  C   UNL     1     -19.331  40.785   6.592  1.00  0.00     0.072 C 
ATOM      8  O   UNL     1     -18.273  40.858   7.274  1.00  0.00    -0.545 OA
ATOM      9  O   UNL     1     -20.542  41.110   7.192  1.00  0.00    -0.545 OA
ENDBRANCH   1   7
BRANCH   5  10
ATOM     10  O   UNL     1     -20.099  41.682   1.769  1.00  0.00    -0.493 OA
ATOM     11  C   UNL     1     -21.370  41.606   1.131  1.00  0.00     0.278 C 
ENDBRANCH   5  10
BRANCH   6  12
ATOM     12  O   UNL     1     -19.141  39.120   1.154  1.00  0.00    -0.504 OA
ATOM     13  H   UNL     1     -19.655  39.580   0.413  1.00  0.00     0.293 HD
ENDBRANCH   6  12
TORSDOF 3
ENDMDL
MODEL 4
REMARK VINA RESULT:    -3.965      1.459      4.317
REMARK INTER + INTRA:          -4.637
REMARK INTER:                  -4.541
REMARK INTRA:                  -0.096
REMARK UNBOUND:                -0.093
REMARK SMILES COc1cc(C(=O)[O-])ccc1O
REMARK SMILES IDX 5 1 9 2 4 3 10 4 3 5 11 6 6 7 7 8 8 9 2 10 1 11 12 12
REMARK H PARENT 12 13
REMARK Flexibility Score: inf
ROOT
ATOM      1  C   UNL     1     -20.816  39.072  -2.950  1.00  0.00     0.001 A 
ATOM      2  C   UNL     1     -22.113  39.609  -2.908  1.00  0.00     0.014 A 
ATOM      3  C   UNL     1     -19.935  39.333  -1.886  1.00  0.00     0.060 A 
ATOM      4  C   UNL     1     -22.520  40.391  -1.826  1.00  0.00     0.051 A 
ATOM      5  C   UNL     1     -20.341  40.121  -0.790  1.00  0.00     0.161 A 
ATOM      6  C   UNL     1     -21.644  40.650  -0.769  1.00  0.00     0.157 A 
ENDROOT
BRANCH   1   7
ATOM      7  C   UNL     1     -20.381  38.243  -4.096  1.00  0.00     0.072 C 
ATOM      8  O   UNL     1     -19.357  38.555  -4.761  1.00  0.00    -0.545 OA
ATOM      9  O   UNL     1     -21.097  37.107  -4.456  1.00  0.00    -0.545 OA
ENDBRANCH   1   7
BRANCH   5  10
ATOM     10  O   UNL     1     -19.482  40.398   0.286  1.00  0.00    -0.493 OA
ATOM     11  C   UNL     1     -19.083  39.446   1.267  1.00  0.00     0.278 C 
ENDBRANCH   5  10
BRANCH   6  12
ATOM     12  O   UNL     1     -22.087  41.435   0.295  1.00  0.00    -0.504 OA
ATOM     13  H   UNL     1     -22.083  42.447   0.258  1.00  0.00     0.293 HD
ENDBRANCH   6  12
TORSDOF 3
ENDMDL
MODEL 5
REMARK VINA RESULT:    -3.953      3.789      7.145
REMARK INTER + INTRA:          -4.623
REMARK INTER:                  -4.674
REMARK INTRA:                   0.050
REMARK UNBOUND:                -0.093
REMARK SMILES COc1cc(C(=O)[O-])ccc1O
REMARK SMILES IDX 5 1 9 2 4 3 10 4 3 5 11 6 6 7 7 8 8 9 2 10 1 11 12 12
REMARK H PARENT 12 13
REMARK Flexibility Score: inf
ROOT
ATOM      1  C   UNL     1     -19.230  40.659   2.593  1.00  0.00     0.001 A 
ATOM      2  C   UNL     1     -19.001  39.287   2.790  1.00  0.00     0.014 A 
ATOM      3  C   UNL     1     -19.379  41.494   3.714  1.00  0.00     0.060 A 
ATOM      4  C   UNL     1     -18.924  38.762   4.080  1.00  0.00     0.051 A 
ATOM      5  C   UNL     1     -19.301  40.969   5.020  1.00  0.00     0.161 A 
ATOM      6  C   UNL     1     -19.073  39.592   5.194  1.00  0.00     0.157 A 
ENDROOT
BRANCH   1   7
ATOM      7  C   UNL     1     -19.312  41.220   1.226  1.00  0.00     0.072 C 
ATOM      8  O   UNL     1     -18.367  41.909   0.758  1.00  0.00    -0.545 OA
ATOM      9  O   UNL     1     -20.435  40.994   0.438  1.00  0.00    -0.545 OA
ENDBRANCH   1   7
BRANCH   5  10
ATOM     10  O   UNL     1     -19.447  41.778   6.158  1.00  0.00    -0.493 OA
ATOM     11  C   UNL     1     -18.388  42.125   7.044  1.00  0.00     0.278 C 
ENDBRANCH   5  10
BRANCH   6  12
ATOM     12  O   UNL     1     -18.989  39.029   6.468  1.00  0.00    -0.504 OA
ATOM     13  H   UNL     1     -19.138  39.573   7.309  1.00  0.00     0.293 HD
ENDBRANCH   6  12
TORSDOF 3
ENDMDL
MODEL 6
REMARK VINA RESULT:    -3.940      2.604      5.083
REMARK INTER + INTRA:          -4.609
REMARK INTER:                  -4.520
REMARK INTRA:                  -0.088
REMARK UNBOUND:                -0.093
REMARK SMILES COc1cc(C(=O)[O-])ccc1O
REMARK SMILES IDX 5 1 9 2 4 3 10 4 3 5 11 6 6 7 7 8 8 9 2 10 1 11 12 12
REMARK H PARENT 12 13
REMARK Flexibility Score: inf
ROOT
ATOM      1  C   UNL     1     -18.750  39.565  -5.224  1.00  0.00     0.001 A 
ATOM      2  C   UNL     1     -19.216  38.442  -5.927  1.00  0.00     0.014 A 
ATOM      3  C   UNL     1     -19.364  39.912  -4.007  1.00  0.00     0.060 A 
ATOM      4  C   UNL     1     -20.273  37.682  -5.424  1.00  0.00     0.051 A 
ATOM      5  C   UNL     1     -20.431  39.147  -3.494  1.00  0.00     0.161 A 
ATOM      6  C   UNL     1     -20.882  38.028  -4.215  1.00  0.00     0.157 A 
ENDROOT
BRANCH   1   7
ATOM      7  C   UNL     1     -17.629  40.374  -5.754  1.00  0.00     0.072 C 
ATOM      8  O   UNL     1     -17.447  41.555  -5.356  1.00  0.00    -0.545 OA
ATOM      9  O   UNL     1     -16.761  39.840  -6.699  1.00  0.00    -0.545 OA
ENDBRANCH   1   7
BRANCH   5  10
ATOM     10  O   UNL     1     -21.063  39.470  -2.282  1.00  0.00    -0.493 OA
ATOM     11  C   UNL     1     -20.380  39.747  -1.064  1.00  0.00     0.278 C 
ENDBRANCH   5  10
BRANCH   6  12
ATOM     12  O   UNL     1     -21.936  37.243  -3.745  1.00  0.00    -0.504 OA
ATOM     13  H   UNL     1     -22.822  37.181  -4.233  1.00  0.00     0.293 HD
ENDBRANCH   6  12
TORSDOF 3
ENDMDL
MODEL 7
REMARK VINA RESULT:    -3.928      2.954      6.636
REMARK INTER + INTRA:          -4.595
REMARK INTER:                  -4.499
REMARK INTRA:                  -0.096
REMARK UNBOUND:                -0.093
REMARK SMILES COc1cc(C(=O)[O-])ccc1O
REMARK SMILES IDX 5 1 9 2 4 3 10 4 3 5 11 6 6 7 7 8 8 9 2 10 1 11 12 12
REMARK H PARENT 12 13
REMARK Flexibility Score: inf
ROOT
ATOM      1  C   UNL     1     -20.239  37.691  -6.729  1.00  0.00     0.001 A 
ATOM      2  C   UNL     1     -19.457  38.725  -7.269  1.00  0.00     0.014 A 
ATOM      3  C   UNL     1     -20.430  37.636  -5.337  1.00  0.00     0.060 A 
ATOM      4  C   UNL     1     -18.879  39.684  -6.436  1.00  0.00     0.051 A 
ATOM      5  C   UNL     1     -19.849  38.602  -4.490  1.00  0.00     0.161 A 
ATOM      6  C   UNL     1     -19.070  39.628  -5.053  1.00  0.00     0.157 A 
ENDROOT
BRANCH   1   7
ATOM      7  C   UNL     1     -20.853  36.672  -7.610  1.00  0.00     0.072 C 
ATOM      8  O   UNL     1     -20.233  35.612  -7.893  1.00  0.00    -0.545 OA
ATOM      9  O   UNL     1     -22.123  36.871  -8.137  1.00  0.00    -0.545 OA
ENDBRANCH   1   7
BRANCH   5  10
ATOM     10  O   UNL     1     -20.023  38.571  -3.097  1.00  0.00    -0.493 OA
ATOM     11  C   UNL     1     -21.172  39.065  -2.415  1.00  0.00     0.278 C 
ENDBRANCH   5  10
BRANCH   6  12
ATOM     12  O   UNL     1     -18.476  40.605  -4.253  1.00  0.00    -0.504 OA
ATOM     13  H   UNL     1     -18.595  41.594  -4.431  1.00  0.00     0.293 HD
ENDBRANCH   6  12
TORSDOF 3
ENDMDL
MODEL 8
REMARK VINA RESULT:    -3.924      4.840      5.959
REMARK INTER + INTRA:          -4.590
REMARK INTER:                  -4.492
REMARK INTRA:                  -0.097
REMARK UNBOUND:                -0.093
REMARK SMILES COc1cc(C(=O)[O-])ccc1O
REMARK SMILES IDX 5 1 9 2 4 3 10 4 3 5 11 6 6 7 7 8 8 9 2 10 1 11 12 12
REMARK H PARENT 12 13
REMARK Flexibility Score: inf
ROOT
ATOM      1  C   UNL     1     -18.542  39.317  -6.025  1.00  0.00     0.001 A 
ATOM      2  C   UNL     1     -19.131  38.735  -4.890  1.00  0.00     0.014 A 
ATOM      3  C   UNL     1     -19.001  38.942  -7.300  1.00  0.00     0.060 A 
ATOM      4  C   UNL     1     -20.156  37.798  -5.027  1.00  0.00     0.051 A 
ATOM      5  C   UNL     1     -20.037  37.996  -7.445  1.00  0.00     0.161 A 
ATOM      6  C   UNL     1     -20.611  37.425  -6.295  1.00  0.00     0.157 A 
ENDROOT
BRANCH   1   7
ATOM      7  C   UNL     1     -17.455  40.311  -5.883  1.00  0.00     0.072 C 
ATOM      8  O   UNL     1     -17.552  41.253  -5.052  1.00  0.00    -0.545 OA
ATOM      9  O   UNL     1     -16.310  40.219  -6.666  1.00  0.00    -0.545 OA
ENDBRANCH   1   7
BRANCH   5  10
ATOM     10  O   UNL     1     -20.515  37.603  -8.705  1.00  0.00    -0.493 OA
ATOM     11  C   UNL     1     -21.515  38.298  -9.444  1.00  0.00     0.278 C 
ENDBRANCH   5  10
BRANCH   6  12
ATOM     12  O   UNL     1     -21.638  36.486  -6.391  1.00  0.00    -0.504 OA
ATOM     13  H   UNL     1     -22.608  36.728  -6.228  1.00  0.00     0.293 HD
ENDBRANCH   6  12
TORSDOF 3
ENDMDL
MODEL 9
REMARK VINA RESULT:    -3.906      2.668      4.686
REMARK INTER + INTRA:          -4.570
REMARK INTER:                  -4.494
REMARK INTRA:                  -0.076
REMARK UNBOUND:                -0.093
REMARK SMILES COc1cc(C(=O)[O-])ccc1O
REMARK SMILES IDX 5 1 9 2 4 3 10 4 3 5 11 6 6 7 7 8 8 9 2 10 1 11 12 12
REMARK H PARENT 12 13
REMARK Flexibility Score: inf
ROOT
ATOM      1  C   UNL     1     -19.915  39.176  -4.022  1.00  0.00     0.001 A 
ATOM      2  C   UNL     1     -19.068  40.245  -4.359  1.00  0.00     0.014 A 
ATOM      3  C   UNL     1     -20.217  38.210  -4.998  1.00  0.00     0.060 A 
ATOM      4  C   UNL     1     -18.535  40.346  -5.644  1.00  0.00     0.051 A 
ATOM      5  C   UNL     1     -19.681  38.307  -6.298  1.00  0.00     0.161 A 
ATOM      6  C   UNL     1     -18.836  39.386  -6.614  1.00  0.00     0.157 A 
ENDROOT
BRANCH   1   7
ATOM      7  C   UNL     1     -20.482  39.066  -2.659  1.00  0.00     0.072 C 
ATOM      8  O   UNL     1     -19.736  39.134  -1.647  1.00  0.00    -0.545 OA
ATOM      9  O   UNL     1     -21.849  38.886  -2.477  1.00  0.00    -0.545 OA
ENDBRANCH   1   7
BRANCH   5  10
ATOM     10  O   UNL     1     -19.965  37.358  -7.293  1.00  0.00    -0.493 OA
ATOM     11  C   UNL     1     -21.088  36.482  -7.277  1.00  0.00     0.278 C 
ENDBRANCH   5  10
BRANCH   6  12
ATOM     12  O   UNL     1     -18.284  39.521  -7.888  1.00  0.00    -0.504 OA
ATOM     13  H   UNL     1     -18.024  38.721  -8.451  1.00  0.00     0.293 HD
ENDBRANCH   6  12
TORSDOF 3
ENDMDL
