MODEL 1
REMARK VINA RESULT:    -4.744      0.000      0.000
REMARK INTER + INTRA:          -7.404
REMARK INTER:                  -6.962
REMARK INTRA:                  -0.442
REMARK UNBOUND:                -0.442
REMARK SMILES O=C([O-])CCCCCCCC(=O)[O-]
REMARK SMILES IDX 7 1 6 2 5 3 4 4 2 5 1 6 3 7 8 8 9 9 10 10 11 11 12 12 13 13
REMARK H PARENT
REMARK Flexibility Score: inf
ROOT
ATOM      1  C   UNL     1      25.521  70.254  27.507  1.00  0.00     0.000 C 
ENDROOT
BRANCH   1   2
ATOM      2  C   UNL     1      26.125  71.458  26.772  1.00  0.00     0.000 C 
BRANCH   2   3
ATOM      3  C   UNL     1      25.607  72.776  27.359  1.00  0.00     0.006 C 
BRANCH   3   4
ATOM      4  C   UNL     1      24.300  72.560  28.126  1.00  0.00     0.053 C 
BRANCH   4   5
ATOM      5  C   UNL     1      23.738  73.869  28.583  1.00  0.00     0.041 C 
ATOM      6  O   UNL     1      23.135  74.618  27.771  1.00  0.00    -0.550 OA
ATOM      7  O   UNL     1      23.836  74.239  29.919  1.00  0.00    -0.550 OA
ENDBRANCH   4   5
ENDBRANCH   3   4
ENDBRANCH   2   3
ENDBRANCH   1   2
BRANCH   1   8
ATOM      8  C   UNL     1      25.258  69.094  26.540  1.00  0.00     0.000 C 
BRANCH   8   9
ATOM      9  C   UNL     1      23.878  68.468  26.794  1.00  0.00     0.006 C 
BRANCH   9  10
ATOM     10  C   UNL     1      23.066  69.252  27.833  1.00  0.00     0.053 C 
BRANCH  10  11
ATOM     11  C   UNL     1      21.601  68.957  27.728  1.00  0.00     0.041 C 
ATOM     12  O   UNL     1      20.859  69.675  27.009  1.00  0.00    -0.550 OA
ATOM     13  O   UNL     1      21.050  67.907  28.452  1.00  0.00    -0.550 OA
ENDBRANCH  10  11
ENDBRANCH   9  10
ENDBRANCH   8   9
ENDBRANCH   1   8
TORSDOF 8
ENDMDL
MODEL 2
REMARK VINA RESULT:    -4.564      1.353      2.067
REMARK INTER + INTRA:          -7.141
REMARK INTER:                  -6.784
REMARK INTRA:                  -0.358
REMARK UNBOUND:                -0.442
REMARK SMILES O=C([O-])CCCCCCCC(=O)[O-]
REMARK SMILES IDX 7 1 6 2 5 3 4 4 2 5 1 6 3 7 8 8 9 9 10 10 11 11 12 12 13 13
REMARK H PARENT
REMARK Flexibility Score: inf
ROOT
ATOM      1  C   UNL     1      24.372  71.804  28.174  1.00  0.00     0.000 C 
ENDROOT
BRANCH   1   2
ATOM      2  C   UNL     1      24.928  73.172  27.759  1.00  0.00     0.000 C 
BRANCH   2   3
ATOM      3  C   UNL     1      24.136  74.309  28.413  1.00  0.00     0.006 C 
BRANCH   3   4
ATOM      4  C   UNL     1      24.954  74.987  29.515  1.00  0.00     0.053 C 
BRANCH   4   5
ATOM      5  C   UNL     1      24.191  75.002  30.801  1.00  0.00     0.041 C 
ATOM      6  O   UNL     1      23.418  74.051  31.091  1.00  0.00    -0.550 OA
ATOM      7  O   UNL     1      24.372  76.042  31.705  1.00  0.00    -0.550 OA
ENDBRANCH   4   5
ENDBRANCH   3   4
ENDBRANCH   2   3
ENDBRANCH   1   2
BRANCH   1   8
ATOM      8  C   UNL     1      25.097  70.669  27.441  1.00  0.00     0.000 C 
BRANCH   8   9
ATOM      9  C   UNL     1      24.529  69.300  27.845  1.00  0.00     0.006 C 
BRANCH   9  10
ATOM     10  C   UNL     1      23.390  68.848  26.923  1.00  0.00     0.053 C 
BRANCH  10  11
ATOM     11  C   UNL     1      22.056  68.958  27.597  1.00  0.00     0.041 C 
ATOM     12  O   UNL     1      21.272  69.898  27.303  1.00  0.00    -0.550 OA
ATOM     13  O   UNL     1      21.692  68.038  28.572  1.00  0.00    -0.550 OA
ENDBRANCH  10  11
ENDBRANCH   9  10
ENDBRANCH   8   9
ENDBRANCH   1   8
TORSDOF 8
ENDMDL
MODEL 3
REMARK VINA RESULT:    -4.364      9.326     11.322
REMARK INTER + INTRA:          -6.848
REMARK INTER:                  -6.549
REMARK INTRA:                  -0.298
REMARK UNBOUND:                -0.442
REMARK SMILES O=C([O-])CCCCCCCC(=O)[O-]
REMARK SMILES IDX 7 1 6 2 5 3 4 4 2 5 1 6 3 7 8 8 9 9 10 10 11 11 12 12 13 13
REMARK H PARENT
REMARK Flexibility Score: inf
ROOT
ATOM      1  C   UNL     1      15.315  66.866  33.410  1.00  0.00     0.000 C 
ENDROOT
BRANCH   1   2
ATOM      2  C   UNL     1      14.967  67.847  32.284  1.00  0.00     0.000 C 
BRANCH   2   3
ATOM      3  C   UNL     1      15.396  69.273  32.645  1.00  0.00     0.006 C 
BRANCH   3   4
ATOM      4  C   UNL     1      16.895  69.335  32.954  1.00  0.00     0.053 C 
BRANCH   4   5
ATOM      5  C   UNL     1      17.134  70.018  34.262  1.00  0.00     0.041 C 
ATOM      6  O   UNL     1      17.321  69.340  35.307  1.00  0.00    -0.550 OA
ATOM      7  O   UNL     1      17.199  71.405  34.320  1.00  0.00    -0.550 OA
ENDBRANCH   4   5
ENDBRANCH   3   4
ENDBRANCH   2   3
ENDBRANCH   1   2
BRANCH   1   8
ATOM      8  C   UNL     1      15.343  65.422  32.892  1.00  0.00     0.000 C 
BRANCH   8   9
ATOM      9  C   UNL     1      13.952  64.776  32.988  1.00  0.00     0.006 C 
BRANCH   9  10
ATOM     10  C   UNL     1      13.781  63.615  32.001  1.00  0.00     0.053 C 
BRANCH  10  11
ATOM     11  C   UNL     1      12.345  63.420  31.620  1.00  0.00     0.041 C 
ATOM     12  O   UNL     1      11.440  63.502  32.491  1.00  0.00    -0.550 OA
ATOM     13  O   UNL     1      12.010  63.115  30.307  1.00  0.00    -0.550 OA
ENDBRANCH  10  11
ENDBRANCH   9  10
ENDBRANCH   8   9
ENDBRANCH   1   8
TORSDOF 8
ENDMDL
MODEL 4
REMARK VINA RESULT:    -4.279      9.488     11.404
REMARK INTER + INTRA:          -6.723
REMARK INTER:                  -6.443
REMARK INTRA:                  -0.280
REMARK UNBOUND:                -0.442
REMARK SMILES O=C([O-])CCCCCCCC(=O)[O-]
REMARK SMILES IDX 7 1 6 2 5 3 4 4 2 5 1 6 3 7 8 8 9 9 10 10 11 11 12 12 13 13
REMARK H PARENT
REMARK Flexibility Score: inf
ROOT
ATOM      1  C   UNL     1      17.988  68.823  36.034  1.00  0.00     0.000 C 
ENDROOT
BRANCH   1   2
ATOM      2  C   UNL     1      19.256  69.121  36.844  1.00  0.00     0.000 C 
BRANCH   2   3
ATOM      3  C   UNL     1      19.627  67.934  37.740  1.00  0.00     0.006 C 
BRANCH   3   4
ATOM      4  C   UNL     1      18.483  66.918  37.808  1.00  0.00     0.053 C 
BRANCH   4   5
ATOM      5  C   UNL     1      17.754  67.036  39.109  1.00  0.00     0.041 C 
ATOM      6  O   UNL     1      17.880  68.071  39.815  1.00  0.00    -0.550 OA
ATOM      7  O   UNL     1      16.895  66.023  39.518  1.00  0.00    -0.550 OA
ENDBRANCH   4   5
ENDBRANCH   3   4
ENDBRANCH   2   3
ENDBRANCH   1   2
BRANCH   1   8
ATOM      8  C   UNL     1      17.845  69.798  34.859  1.00  0.00     0.000 C 
BRANCH   8   9
ATOM      9  C   UNL     1      17.493  69.051  33.564  1.00  0.00     0.006 C 
BRANCH   9  10
ATOM     10  C   UNL     1      16.443  69.796  32.730  1.00  0.00     0.053 C 
BRANCH  10  11
ATOM     11  C   UNL     1      15.338  68.886  32.289  1.00  0.00     0.041 C 
ATOM     12  O   UNL     1      15.132  67.799  32.890  1.00  0.00    -0.550 OA
ATOM     13  O   UNL     1      14.554  69.224  31.193  1.00  0.00    -0.550 OA
ENDBRANCH  10  11
ENDBRANCH   9  10
ENDBRANCH   8   9
ENDBRANCH   1   8
TORSDOF 8
ENDMDL
MODEL 5
REMARK VINA RESULT:    -4.241      9.738     11.535
REMARK INTER + INTRA:          -6.667
REMARK INTER:                  -6.161
REMARK INTRA:                  -0.507
REMARK UNBOUND:                -0.442
REMARK SMILES O=C([O-])CCCCCCCC(=O)[O-]
REMARK SMILES IDX 7 1 6 2 5 3 4 4 2 5 1 6 3 7 8 8 9 9 10 10 11 11 12 12 13 13
REMARK H PARENT
REMARK Flexibility Score: inf
ROOT
ATOM      1  C   UNL     1      17.037  66.159  35.979  1.00  0.00     0.000 C 
ENDROOT
BRANCH   1   2
ATOM      2  C   UNL     1      16.038  67.322  35.966  1.00  0.00     0.000 C 
BRANCH   2   3
ATOM      3  C   UNL     1      16.357  68.308  34.837  1.00  0.00     0.006 C 
BRANCH   3   4
ATOM      4  C   UNL     1      15.665  67.894  33.535  1.00  0.00     0.053 C 
BRANCH   4   5
ATOM      5  C   UNL     1      15.717  69.007  32.536  1.00  0.00     0.041 C 
ATOM      6  O   UNL     1      16.672  69.829  32.552  1.00  0.00    -0.550 OA
ATOM      7  O   UNL     1      14.738  69.108  31.556  1.00  0.00    -0.550 OA
ENDBRANCH   4   5
ENDBRANCH   3   4
ENDBRANCH   2   3
ENDBRANCH   1   2
BRANCH   1   8
ATOM      8  C   UNL     1      17.351  65.718  37.414  1.00  0.00     0.000 C 
BRANCH   8   9
ATOM      9  C   UNL     1      17.850  66.902  38.256  1.00  0.00     0.006 C 
BRANCH   9  10
ATOM     10  C   UNL     1      19.206  67.430  37.771  1.00  0.00     0.053 C 
BRANCH  10  11
ATOM     11  C   UNL     1      19.146  68.891  37.442  1.00  0.00     0.041 C 
ATOM     12  O   UNL     1      18.776  69.723  38.312  1.00  0.00    -0.550 OA
ATOM     13  O   UNL     1      19.470  69.330  36.165  1.00  0.00    -0.550 OA
ENDBRANCH  10  11
ENDBRANCH   9  10
ENDBRANCH   8   9
ENDBRANCH   1   8
TORSDOF 8
ENDMDL
MODEL 6
REMARK VINA RESULT:    -4.184     10.220     11.827
REMARK INTER + INTRA:          -6.583
REMARK INTER:                  -6.157
REMARK INTRA:                  -0.426
REMARK UNBOUND:                -0.442
REMARK SMILES O=C([O-])CCCCCCCC(=O)[O-]
REMARK SMILES IDX 7 1 6 2 5 3 4 4 2 5 1 6 3 7 8 8 9 9 10 10 11 11 12 12 13 13
REMARK H PARENT
REMARK Flexibility Score: inf
ROOT
ATOM      1  C   UNL     1      17.516  67.248  37.263  1.00  0.00     0.000 C 
ENDROOT
BRANCH   1   2
ATOM      2  C   UNL     1      18.539  68.334  36.907  1.00  0.00     0.000 C 
BRANCH   2   3
ATOM      3  C   UNL     1      18.574  69.428  37.979  1.00  0.00     0.006 C 
BRANCH   3   4
ATOM      4  C   UNL     1      17.889  68.959  39.266  1.00  0.00     0.053 C 
BRANCH   4   5
ATOM      5  C   UNL     1      18.873  68.892  40.390  1.00  0.00     0.041 C 
ATOM      6  O   UNL     1      18.655  69.518  41.461  1.00  0.00    -0.550 OA
ATOM      7  O   UNL     1      20.007  68.097  40.275  1.00  0.00    -0.550 OA
ENDBRANCH   4   5
ENDBRANCH   3   4
ENDBRANCH   2   3
ENDBRANCH   1   2
BRANCH   1   8
ATOM      8  C   UNL     1      16.463  67.100  36.158  1.00  0.00     0.000 C 
BRANCH   8   9
ATOM      9  C   UNL     1      16.642  68.179  35.079  1.00  0.00     0.006 C 
BRANCH   9  10
ATOM     10  C   UNL     1      15.756  67.927  33.853  1.00  0.00     0.053 C 
BRANCH  10  11
ATOM     11  C   UNL     1      15.828  69.060  32.875  1.00  0.00     0.041 C 
ATOM     12  O   UNL     1      14.908  69.232  32.033  1.00  0.00    -0.550 OA
ATOM     13  O   UNL     1      16.929  69.908  32.874  1.00  0.00    -0.550 OA
ENDBRANCH  10  11
ENDBRANCH   9  10
ENDBRANCH   8   9
ENDBRANCH   1   8
TORSDOF 8
ENDMDL
MODEL 7
REMARK VINA RESULT:    -4.170      9.522     11.277
REMARK INTER + INTRA:          -6.563
REMARK INTER:                  -5.956
REMARK INTRA:                  -0.607
REMARK UNBOUND:                -0.442
REMARK SMILES O=C([O-])CCCCCCCC(=O)[O-]
REMARK SMILES IDX 7 1 6 2 5 3 4 4 2 5 1 6 3 7 8 8 9 9 10 10 11 11 12 12 13 13
REMARK H PARENT
REMARK Flexibility Score: inf
ROOT
ATOM      1  C   UNL     1      15.771  67.375  35.643  1.00  0.00     0.000 C 
ENDROOT
BRANCH   1   2
ATOM      2  C   UNL     1      15.672  67.643  34.136  1.00  0.00     0.000 C 
BRANCH   2   3
ATOM      3  C   UNL     1      16.869  68.463  33.644  1.00  0.00     0.006 C 
BRANCH   3   4
ATOM      4  C   UNL     1      16.526  69.955  33.585  1.00  0.00     0.053 C 
BRANCH   4   5
ATOM      5  C   UNL     1      17.433  70.737  34.481  1.00  0.00     0.041 C 
ATOM      6  O   UNL     1      17.414  71.996  34.460  1.00  0.00    -0.550 OA
ATOM      7  O   UNL     1      18.265  70.076  35.376  1.00  0.00    -0.550 OA
ENDBRANCH   4   5
ENDBRANCH   3   4
ENDBRANCH   2   3
ENDBRANCH   1   2
BRANCH   1   8
ATOM      8  C   UNL     1      16.797  66.275  35.940  1.00  0.00     0.000 C 
BRANCH   8   9
ATOM      9  C   UNL     1      17.982  66.831  36.744  1.00  0.00     0.006 C 
BRANCH   9  10
ATOM     10  C   UNL     1      17.532  67.763  37.875  1.00  0.00     0.053 C 
BRANCH  10  11
ATOM     11  C   UNL     1      18.699  68.353  38.605  1.00  0.00     0.041 C 
ATOM     12  O   UNL     1      19.778  68.582  37.998  1.00  0.00    -0.550 OA
ATOM     13  O   UNL     1      18.606  68.619  39.966  1.00  0.00    -0.550 OA
ENDBRANCH  10  11
ENDBRANCH   9  10
ENDBRANCH   8   9
ENDBRANCH   1   8
TORSDOF 8
ENDMDL
MODEL 8
REMARK VINA RESULT:    -4.147     10.292     12.344
REMARK INTER + INTRA:          -6.529
REMARK INTER:                  -6.023
REMARK INTRA:                  -0.506
REMARK UNBOUND:                -0.442
REMARK SMILES O=C([O-])CCCCCCCC(=O)[O-]
REMARK SMILES IDX 7 1 6 2 5 3 4 4 2 5 1 6 3 7 8 8 9 9 10 10 11 11 12 12 13 13
REMARK H PARENT
REMARK Flexibility Score: inf
ROOT
ATOM      1  C   UNL     1      17.794  67.126  37.122  1.00  0.00     0.000 C 
ENDROOT
BRANCH   1   2
ATOM      2  C   UNL     1      16.724  66.672  36.121  1.00  0.00     0.000 C 
BRANCH   2   3
ATOM      3  C   UNL     1      16.000  67.876  35.508  1.00  0.00     0.006 C 
BRANCH   3   4
ATOM      4  C   UNL     1      15.641  67.613  34.042  1.00  0.00     0.053 C 
BRANCH   4   5
ATOM      5  C   UNL     1      15.774  68.866  33.236  1.00  0.00     0.041 C 
ATOM      6  O   UNL     1      16.622  69.740  33.559  1.00  0.00    -0.550 OA
ATOM      7  O   UNL     1      14.997  69.047  32.099  1.00  0.00    -0.550 OA
ENDBRANCH   4   5
ENDBRANCH   3   4
ENDBRANCH   2   3
ENDBRANCH   1   2
BRANCH   1   8
ATOM      8  C   UNL     1      18.370  68.492  36.730  1.00  0.00     0.000 C 
BRANCH   8   9
ATOM      9  C   UNL     1      18.595  69.371  37.970  1.00  0.00     0.006 C 
BRANCH   9  10
ATOM     10  C   UNL     1      17.867  68.829  39.206  1.00  0.00     0.053 C 
BRANCH  10  11
ATOM     11  C   UNL     1      18.797  68.663  40.369  1.00  0.00     0.041 C 
ATOM     12  O   UNL     1      18.719  69.435  41.360  1.00  0.00    -0.550 OA
ATOM     13  O   UNL     1      19.772  67.673  40.343  1.00  0.00    -0.550 OA
ENDBRANCH  10  11
ENDBRANCH   9  10
ENDBRANCH   8   9
ENDBRANCH   1   8
TORSDOF 8
ENDMDL
MODEL 9
REMARK VINA RESULT:    -4.102     10.195     11.887
REMARK INTER + INTRA:          -6.462
REMARK INTER:                  -5.824
REMARK INTRA:                  -0.639
REMARK UNBOUND:                -0.442
REMARK SMILES O=C([O-])CCCCCCCC(=O)[O-]
REMARK SMILES IDX 7 1 6 2 5 3 4 4 2 5 1 6 3 7 8 8 9 9 10 10 11 11 12 12 13 13
REMARK H PARENT
REMARK Flexibility Score: inf
ROOT
ATOM      1  C   UNL     1      17.238  65.876  37.047  1.00  0.00     0.000 C 
ENDROOT
BRANCH   1   2
ATOM      2  C   UNL     1      18.723  66.065  37.380  1.00  0.00     0.000 C 
BRANCH   2   3
ATOM      3  C   UNL     1      18.903  66.602  38.804  1.00  0.00     0.006 C 
BRANCH   3   4
ATOM      4  C   UNL     1      17.808  67.614  39.152  1.00  0.00     0.053 C 
BRANCH   4   5
ATOM      5  C   UNL     1      18.400  68.965  39.396  1.00  0.00     0.041 C 
ATOM      6  O   UNL     1      18.621  69.744  38.432  1.00  0.00    -0.550 OA
ATOM      7  O   UNL     1      18.661  69.386  40.694  1.00  0.00    -0.550 OA
ENDBRANCH   4   5
ENDBRANCH   3   4
ENDBRANCH   2   3
ENDBRANCH   1   2
BRANCH   1   8
ATOM      8  C   UNL     1      16.917  66.407  35.645  1.00  0.00     0.000 C 
BRANCH   8   9
ATOM      9  C   UNL     1      16.339  67.829  35.714  1.00  0.00     0.006 C 
BRANCH   9  10
ATOM     10  C   UNL     1      17.356  68.892  35.278  1.00  0.00     0.053 C 
BRANCH  10  11
ATOM     11  C   UNL     1      16.823  69.747  34.170  1.00  0.00     0.041 C 
ATOM     12  O   UNL     1      17.092  70.976  34.130  1.00  0.00    -0.550 OA
ATOM     13  O   UNL     1      16.002  69.191  33.196  1.00  0.00    -0.550 OA
ENDBRANCH  10  11
ENDBRANCH   9  10
ENDBRANCH   8   9
ENDBRANCH   1   8
TORSDOF 8
ENDMDL
