MODEL 1
REMARK VINA RESULT:    -1.388      0.000      0.000
REMARK INTER + INTRA:          -1.748
REMARK INTER:                  -1.874
REMARK INTRA:                   0.126
REMARK UNBOUND:                 0.126
REMARK SMILES C=C1CCC=C(C)CC[C@H]2[C@H]1CC2(C)C
REMARK SMILES IDX 11 1 12 2 13 3 10 4 14 5 15 6 9 7 8 8 6 9 7 10 5 11 2 13
REMARK SMILES IDX 1 14 3 15 4 16
REMARK H PARENT
REMARK Flexibility Score: 70.00
ROOT
ATOM      1  C   UNL     1       4.300   7.021  13.506  1.00  0.00     0.018 C 
ATOM      2  C   UNL     1       3.075   7.857  13.107  1.00  0.00     0.015 C 
ATOM      3  C   UNL     1       3.950   9.118  13.017  1.00  0.00    -0.031 C 
ATOM      4  C   UNL     1       5.199   8.261  13.344  1.00  0.00     0.002 C 
ATOM      5  C   UNL     1       3.991   9.707  11.595  1.00  0.00     0.011 C 
ATOM      6  C   UNL     1       3.553  10.187  14.055  1.00  0.00     0.011 C 
ENDROOT
BRANCH   4   7
ATOM      7  C   UNL     1       5.997   8.607  14.619  1.00  0.00     0.009 C 
BRANCH   7   8
ATOM      8  C   UNL     1       7.031   7.525  14.965  1.00  0.00     0.030 C 
BRANCH   8   9
ATOM      9  C   UNL     1       8.076   7.356  13.876  1.00  0.00    -0.077 C 
ATOM     10  C   UNL     1       9.172   8.385  13.778  1.00  0.00     0.039 C 
ATOM     11  C   UNL     1       8.050   6.363  12.955  1.00  0.00    -0.028 CG0
ATOM     12  G   UNL     1       7.018   5.262  12.851  1.00  0.00     0.000 G0
ENDBRANCH   8   9
ENDBRANCH   7   8
ENDBRANCH   4   7
BRANCH   1  13
ATOM     13  C   UNL     1       4.560   5.834  12.587  1.00  0.00    -0.074 C 
ATOM     14  C   UNL     1       3.620   4.875  12.519  1.00  0.00     0.008 C 
BRANCH  13  15
ATOM     15  C   UNL     1       5.884   5.616  11.873  1.00  0.00     0.035 C 
BRANCH  15  16
ATOM     16  C   UNL     1       7.024   5.262  12.850  1.00  0.00     0.032 CG0
ATOM     17  G   UNL     1       8.051   6.367  12.964  1.00  0.00     0.000 G0
ENDBRANCH  15  16
ENDBRANCH  13  15
ENDBRANCH   1  13
TORSDOF 0
ENDMDL
MODEL 2
REMARK VINA RESULT:    -1.112      1.487      3.466
REMARK INTER + INTRA:          -1.376
REMARK INTER:                  -2.604
REMARK INTRA:                   1.228
REMARK UNBOUND:                 0.126
REMARK SMILES C=C1CCC=C(C)CC[C@H]2[C@H]1CC2(C)C
REMARK SMILES IDX 11 1 12 2 13 3 10 4 14 5 15 6 9 7 8 8 6 9 7 10 5 11 2 13
REMARK SMILES IDX 1 14 3 15 4 16
REMARK H PARENT
REMARK Flexibility Score: 70.00
ROOT
ATOM      1  C   UNL     1       4.613   9.505  13.381  1.00  0.00     0.018 C 
ATOM      2  C   UNL     1       3.741  10.764  13.477  1.00  0.00     0.015 C 
ATOM      3  C   UNL     1       2.732  10.154  12.490  1.00  0.00    -0.031 C 
ATOM      4  C   UNL     1       3.572   8.853  12.453  1.00  0.00     0.002 C 
ATOM      5  C   UNL     1       1.343   9.945  13.121  1.00  0.00     0.011 C 
ATOM      6  C   UNL     1       2.634  10.953  11.175  1.00  0.00     0.011 C 
ENDROOT
BRANCH   4   7
ATOM      7  C   UNL     1       4.157   8.411  11.094  1.00  0.00     0.009 C 
BRANCH   7   8
ATOM      8  C   UNL     1       5.349   7.458  11.261  1.00  0.00     0.030 C 
BRANCH   8   9
ATOM      9  C   UNL     1       5.093   6.390  12.310  1.00  0.00    -0.077 C 
ATOM     10  C   UNL     1       4.030   5.360  12.029  1.00  0.00     0.039 C 
ATOM     11  C   UNL     1       5.727   6.341  13.506  1.00  0.00    -0.028 CG0
ATOM     12  G   UNL     1       6.788   7.300  13.999  1.00  0.00     0.000 G0
ENDBRANCH   8   9
ENDBRANCH   7   8
ENDBRANCH   4   7
BRANCH   1  13
ATOM     13  C   UNL     1       4.880   8.838  14.725  1.00  0.00    -0.074 C 
ATOM     14  C   UNL     1       3.916   8.901  15.659  1.00  0.00     0.008 C 
BRANCH  13  15
ATOM     15  C   UNL     1       6.229   8.248  15.101  1.00  0.00     0.035 C 
BRANCH  15  16
ATOM     16  C   UNL     1       6.781   7.307  14.010  1.00  0.00     0.032 CG0
ATOM     17  G   UNL     1       5.737   6.336  13.504  1.00  0.00     0.000 G0
ENDBRANCH  15  16
ENDBRANCH  13  15
ENDBRANCH   1  13
TORSDOF 0
ENDMDL
MODEL 3
REMARK VINA RESULT:     1.493      2.325      4.920
REMARK INTER + INTRA:           2.143
REMARK INTER:                   0.939
REMARK INTRA:                   1.204
REMARK UNBOUND:                 0.126
REMARK SMILES C=C1CCC=C(C)CC[C@H]2[C@H]1CC2(C)C
REMARK SMILES IDX 11 1 12 2 13 3 10 4 14 5 15 6 9 7 8 8 6 9 7 10 5 11 2 13
REMARK SMILES IDX 1 14 3 15 4 16
REMARK H PARENT
REMARK Flexibility Score: 70.00
ROOT
ATOM      1  C   UNL     1       5.842   7.215  13.938  1.00  0.00     0.018 C 
ATOM      2  C   UNL     1       7.000   6.252  14.231  1.00  0.00     0.015 C 
ATOM      3  C   UNL     1       7.512   6.409  12.790  1.00  0.00    -0.031 C 
ATOM      4  C   UNL     1       6.389   7.441  12.516  1.00  0.00     0.002 C 
ATOM      5  C   UNL     1       8.918   7.034  12.729  1.00  0.00     0.011 C 
ATOM      6  C   UNL     1       7.450   5.091  11.993  1.00  0.00     0.011 C 
ENDROOT
BRANCH   4   7
ATOM      7  C   UNL     1       5.365   7.114  11.408  1.00  0.00     0.009 C 
BRANCH   7   8
ATOM      8  C   UNL     1       3.937   7.520  11.804  1.00  0.00     0.030 C 
BRANCH   8   9
ATOM      9  C   UNL     1       3.806   9.014  12.040  1.00  0.00    -0.077 C 
ATOM     10  C   UNL     1       4.053   9.941  10.877  1.00  0.00     0.039 C 
ATOM     11  C   UNL     1       3.531   9.566  13.246  1.00  0.00    -0.028 CG0
ATOM     12  G   UNL     1       3.295   8.820  14.541  1.00  0.00     0.000 G0
ENDBRANCH   8   9
ENDBRANCH   7   8
ENDBRANCH   4   7
BRANCH   1  13
ATOM     13  C   UNL     1       5.789   8.416  14.874  1.00  0.00    -0.074 C 
ATOM     14  C   UNL     1       6.954   8.953  15.273  1.00  0.00     0.008 C 
BRANCH  13  15
ATOM     15  C   UNL     1       4.496   8.927  15.490  1.00  0.00     0.035 C 
BRANCH  15  16
ATOM     16  C   UNL     1       3.300   8.804  14.523  1.00  0.00     0.032 CG0
ATOM     17  G   UNL     1       3.523   9.558  13.231  1.00  0.00     0.000 G0
ENDBRANCH  15  16
ENDBRANCH  13  15
ENDBRANCH   1  13
TORSDOF 0
ENDMDL
