MODEL 1
REMARK VINA RESULT:    -4.881      0.000      0.000
REMARK INTER + INTRA:         -13.921
REMARK INTER:                 -11.158
REMARK INTRA:                  -2.763
REMARK UNBOUND:                -2.763
REMARK SMILES CCCCCCCCCCCCCCCCCCCCCCCC(=O)[O-]
REMARK SMILES IDX 13 1 14 2 15 3 16 4 17 5 18 6 19 7 20 8 21 9 22 10 23 11
REMARK SMILES IDX 24 12 25 13 26 14 12 15 11 16 10 17 9 18 8 19 7 20 6 21 5 22
REMARK SMILES IDX 4 23 3 24 2 25 1 26
REMARK H PARENT
REMARK Flexibility Score: inf
ROOT
ATOM      1  C   UNL     1      -5.508   5.542  17.374  1.00  0.00     0.000 C 
ENDROOT
BRANCH   1   2
ATOM      2  C   UNL     1      -5.650   4.397  16.357  1.00  0.00     0.000 C 
BRANCH   2   3
ATOM      3  C   UNL     1      -4.940   3.112  16.810  1.00  0.00     0.000 C 
BRANCH   3   4
ATOM      4  C   UNL     1      -3.417   3.163  16.588  1.00  0.00     0.000 C 
BRANCH   4   5
ATOM      5  C   UNL     1      -3.019   4.042  15.389  1.00  0.00     0.000 C 
BRANCH   5   6
ATOM      6  C   UNL     1      -1.982   5.139  15.706  1.00  0.00     0.000 C 
BRANCH   6   7
ATOM      7  C   UNL     1      -0.737   4.663  16.478  1.00  0.00     0.000 C 
BRANCH   7   8
ATOM      8  C   UNL     1       0.034   5.772  17.217  1.00  0.00     0.000 C 
BRANCH   8   9
ATOM      9  C   UNL     1      -0.372   5.905  18.692  1.00  0.00     0.000 C 
BRANCH   9  10
ATOM     10  C   UNL     1       0.420   7.023  19.379  1.00  0.00     0.006 C 
BRANCH  10  11
ATOM     11  C   UNL     1       0.094   7.093  20.875  1.00  0.00     0.053 C 
BRANCH  11  12
ATOM     12  C   UNL     1       1.352   7.147  21.683  1.00  0.00     0.041 C 
ATOM     13  O   UNL     1       2.319   7.860  21.303  1.00  0.00    -0.550 OA
ATOM     14  O   UNL     1       1.442   6.447  22.877  1.00  0.00    -0.550 OA
ENDBRANCH  11  12
ENDBRANCH  10  11
ENDBRANCH   9  10
ENDBRANCH   8   9
ENDBRANCH   7   8
ENDBRANCH   6   7
ENDBRANCH   5   6
ENDBRANCH   4   5
ENDBRANCH   3   4
ENDBRANCH   2   3
ENDBRANCH   1   2
BRANCH   1  15
ATOM     15  C   UNL     1      -5.890   6.914  16.787  1.00  0.00     0.000 C 
BRANCH  15  16
ATOM     16  C   UNL     1      -7.399   7.220  16.773  1.00  0.00     0.000 C 
BRANCH  16  17
ATOM     17  C   UNL     1      -7.965   7.358  15.348  1.00  0.00     0.000 C 
BRANCH  17  18
ATOM     18  C   UNL     1      -8.992   6.264  15.012  1.00  0.00    -0.000 C 
BRANCH  18  19
ATOM     19  C   UNL     1      -9.394   6.275  13.525  1.00  0.00    -0.000 C 
BRANCH  19  20
ATOM     20  C   UNL     1      -9.334   7.682  12.908  1.00  0.00    -0.000 C 
BRANCH  20  21
ATOM     21  C   UNL     1      -8.889   7.661  11.434  1.00  0.00    -0.000 C 
BRANCH  21  22
ATOM     22  C   UNL     1      -8.179   6.354  11.039  1.00  0.00    -0.000 C 
BRANCH  22  23
ATOM     23  C   UNL     1      -6.641   6.415  11.040  1.00  0.00    -0.000 C 
BRANCH  23  24
ATOM     24  C   UNL     1      -5.997   5.319  11.906  1.00  0.00    -0.000 C 
BRANCH  24  25
ATOM     25  C   UNL     1      -5.488   5.859  13.251  1.00  0.00    -0.003 C 
ATOM     26  C   UNL     1      -4.828   7.234  13.127  1.00  0.00     0.004 C 
ENDBRANCH  24  25
ENDBRANCH  23  24
ENDBRANCH  22  23
ENDBRANCH  21  22
ENDBRANCH  20  21
ENDBRANCH  19  20
ENDBRANCH  18  19
ENDBRANCH  17  18
ENDBRANCH  16  17
ENDBRANCH  15  16
ENDBRANCH   1  15
TORSDOF 22
ENDMDL
MODEL 2
REMARK VINA RESULT:    -4.819      2.932      8.268
REMARK INTER + INTRA:         -13.781
REMARK INTER:                 -10.736
REMARK INTRA:                  -3.045
REMARK UNBOUND:                -2.763
REMARK SMILES CCCCCCCCCCCCCCCCCCCCCCCC(=O)[O-]
REMARK SMILES IDX 13 1 14 2 15 3 16 4 17 5 18 6 19 7 20 8 21 9 22 10 23 11
REMARK SMILES IDX 24 12 25 13 26 14 12 15 11 16 10 17 9 18 8 19 7 20 6 21 5 22
REMARK SMILES IDX 4 23 3 24 2 25 1 26
REMARK H PARENT
REMARK Flexibility Score: inf
ROOT
ATOM      1  C   UNL     1      -5.676   6.126  16.516  1.00  0.00     0.000 C 
ENDROOT
BRANCH   1   2
ATOM      2  C   UNL     1      -6.902   6.879  17.059  1.00  0.00     0.000 C 
BRANCH   2   3
ATOM      3  C   UNL     1      -7.822   7.395  15.942  1.00  0.00     0.000 C 
BRANCH   3   4
ATOM      4  C   UNL     1      -9.054   6.498  15.723  1.00  0.00     0.000 C 
BRANCH   4   5
ATOM      5  C   UNL     1      -9.251   6.106  14.247  1.00  0.00     0.000 C 
BRANCH   5   6
ATOM      6  C   UNL     1      -8.246   5.065  13.712  1.00  0.00     0.000 C 
BRANCH   6   7
ATOM      7  C   UNL     1      -7.480   5.483  12.443  1.00  0.00     0.000 C 
BRANCH   7   8
ATOM      8  C   UNL     1      -6.550   6.698  12.614  1.00  0.00     0.000 C 
BRANCH   8   9
ATOM      9  C   UNL     1      -5.086   6.304  12.858  1.00  0.00     0.000 C 
BRANCH   9  10
ATOM     10  C   UNL     1      -4.277   7.498  13.377  1.00  0.00     0.006 C 
BRANCH  10  11
ATOM     11  C   UNL     1      -5.181   8.708  13.634  1.00  0.00     0.053 C 
BRANCH  11  12
ATOM     12  C   UNL     1      -4.608   9.568  14.716  1.00  0.00     0.041 C 
ATOM     13  O   UNL     1      -3.529  10.190  14.527  1.00  0.00    -0.550 OA
ATOM     14  O   UNL     1      -5.288   9.720  15.916  1.00  0.00    -0.550 OA
ENDBRANCH  11  12
ENDBRANCH  10  11
ENDBRANCH   9  10
ENDBRANCH   8   9
ENDBRANCH   7   8
ENDBRANCH   6   7
ENDBRANCH   5   6
ENDBRANCH   4   5
ENDBRANCH   3   4
ENDBRANCH   2   3
ENDBRANCH   1   2
BRANCH   1  15
ATOM     15  C   UNL     1      -5.940   4.621  16.316  1.00  0.00     0.000 C 
BRANCH  15  16
ATOM     16  C   UNL     1      -4.887   3.882  15.469  1.00  0.00     0.000 C 
BRANCH  16  17
ATOM     17  C   UNL     1      -3.457   4.395  15.716  1.00  0.00     0.000 C 
BRANCH  17  18
ATOM     18  C   UNL     1      -2.612   3.413  16.543  1.00  0.00    -0.000 C 
BRANCH  18  19
ATOM     19  C   UNL     1      -1.107   3.732  16.472  1.00  0.00    -0.000 C 
BRANCH  19  20
ATOM     20  C   UNL     1      -0.819   5.241  16.552  1.00  0.00    -0.000 C 
BRANCH  20  21
ATOM     21  C   UNL     1       0.262   5.581  17.593  1.00  0.00    -0.000 C 
BRANCH  21  22
ATOM     22  C   UNL     1      -0.310   6.239  18.861  1.00  0.00    -0.000 C 
BRANCH  22  23
ATOM     23  C   UNL     1       0.438   7.495  19.345  1.00  0.00    -0.000 C 
BRANCH  23  24
ATOM     24  C   UNL     1       0.809   7.435  20.836  1.00  0.00    -0.000 C 
BRANCH  24  25
ATOM     25  C   UNL     1      -0.343   6.912  21.707  1.00  0.00    -0.003 C 
ATOM     26  C   UNL     1       0.116   6.483  23.102  1.00  0.00     0.004 C 
ENDBRANCH  24  25
ENDBRANCH  23  24
ENDBRANCH  22  23
ENDBRANCH  21  22
ENDBRANCH  20  21
ENDBRANCH  19  20
ENDBRANCH  18  19
ENDBRANCH  17  18
ENDBRANCH  16  17
ENDBRANCH  15  16
ENDBRANCH   1  15
TORSDOF 22
ENDMDL
MODEL 3
REMARK VINA RESULT:    -4.762      1.426      2.541
REMARK INTER + INTRA:         -13.651
REMARK INTER:                 -10.185
REMARK INTRA:                  -3.466
REMARK UNBOUND:                -2.763
REMARK SMILES CCCCCCCCCCCCCCCCCCCCCCCC(=O)[O-]
REMARK SMILES IDX 13 1 14 2 15 3 16 4 17 5 18 6 19 7 20 8 21 9 22 10 23 11
REMARK SMILES IDX 24 12 25 13 26 14 12 15 11 16 10 17 9 18 8 19 7 20 6 21 5 22
REMARK SMILES IDX 4 23 3 24 2 25 1 26
REMARK H PARENT
REMARK Flexibility Score: inf
ROOT
ATOM      1  C   UNL     1      -5.270   8.006  15.339  1.00  0.00     0.000 C 
ENDROOT
BRANCH   1   2
ATOM      2  C   UNL     1      -5.765   7.273  16.597  1.00  0.00     0.000 C 
BRANCH   2   3
ATOM      3  C   UNL     1      -4.885   6.068  16.964  1.00  0.00     0.000 C 
BRANCH   3   4
ATOM      4  C   UNL     1      -5.623   4.724  16.813  1.00  0.00     0.000 C 
BRANCH   4   5
ATOM      5  C   UNL     1      -4.870   3.730  15.910  1.00  0.00     0.000 C 
BRANCH   5   6
ATOM      6  C   UNL     1      -3.579   3.149  16.520  1.00  0.00     0.000 C 
BRANCH   6   7
ATOM      7  C   UNL     1      -2.270   3.611  15.851  1.00  0.00     0.000 C 
BRANCH   7   8
ATOM      8  C   UNL     1      -1.126   3.947  16.824  1.00  0.00     0.000 C 
BRANCH   8   9
ATOM      9  C   UNL     1      -0.785   5.444  16.856  1.00  0.00     0.000 C 
BRANCH   9  10
ATOM     10  C   UNL     1       0.246   5.748  17.948  1.00  0.00     0.006 C 
BRANCH  10  11
ATOM     11  C   UNL     1      -0.415   6.391  19.171  1.00  0.00     0.053 C 
BRANCH  11  12
ATOM     12  C   UNL     1       0.526   7.347  19.834  1.00  0.00     0.041 C 
ATOM     13  O   UNL     1       0.708   8.496  19.351  1.00  0.00    -0.550 OA
ATOM     14  O   UNL     1       1.168   6.986  21.009  1.00  0.00    -0.550 OA
ENDBRANCH  11  12
ENDBRANCH  10  11
ENDBRANCH   9  10
ENDBRANCH   8   9
ENDBRANCH   7   8
ENDBRANCH   6   7
ENDBRANCH   5   6
ENDBRANCH   4   5
ENDBRANCH   3   4
ENDBRANCH   2   3
ENDBRANCH   1   2
BRANCH   1  15
ATOM     15  C   UNL     1      -6.157   9.207  14.960  1.00  0.00     0.000 C 
BRANCH  15  16
ATOM     16  C   UNL     1      -6.375   9.405  13.448  1.00  0.00     0.000 C 
BRANCH  16  17
ATOM     17  C   UNL     1      -7.861   9.542  13.074  1.00  0.00     0.000 C 
BRANCH  17  18
ATOM     18  C   UNL     1      -8.770   8.637  13.920  1.00  0.00    -0.000 C 
BRANCH  18  19
ATOM     19  C   UNL     1      -9.577   7.647  13.059  1.00  0.00    -0.000 C 
BRANCH  19  20
ATOM     20  C   UNL     1      -9.553   6.217  13.623  1.00  0.00    -0.000 C 
BRANCH  20  21
ATOM     21  C   UNL     1      -8.186   5.845  14.226  1.00  0.00    -0.000 C 
BRANCH  21  22
ATOM     22  C   UNL     1      -7.600   4.551  13.633  1.00  0.00    -0.000 C 
BRANCH  22  23
ATOM     23  C   UNL     1      -6.744   4.737  12.367  1.00  0.00    -0.000 C 
BRANCH  23  24
ATOM     24  C   UNL     1      -5.488   5.590  12.611  1.00  0.00    -0.000 C 
BRANCH  24  25
ATOM     25  C   UNL     1      -5.294   6.669  11.536  1.00  0.00    -0.003 C 
ATOM     26  C   UNL     1      -6.481   6.769  10.575  1.00  0.00     0.004 C 
ENDBRANCH  24  25
ENDBRANCH  23  24
ENDBRANCH  22  23
ENDBRANCH  21  22
ENDBRANCH  20  21
ENDBRANCH  19  20
ENDBRANCH  18  19
ENDBRANCH  17  18
ENDBRANCH  16  17
ENDBRANCH  15  16
ENDBRANCH   1  15
TORSDOF 22
ENDMDL
MODEL 4
REMARK VINA RESULT:    -4.755      3.317      6.534
REMARK INTER + INTRA:         -13.634
REMARK INTER:                  -9.836
REMARK INTRA:                  -3.798
REMARK UNBOUND:                -2.763
REMARK SMILES CCCCCCCCCCCCCCCCCCCCCCCC(=O)[O-]
REMARK SMILES IDX 13 1 14 2 15 3 16 4 17 5 18 6 19 7 20 8 21 9 22 10 23 11
REMARK SMILES IDX 24 12 25 13 26 14 12 15 11 16 10 17 9 18 8 19 7 20 6 21 5 22
REMARK SMILES IDX 4 23 3 24 2 25 1 26
REMARK H PARENT
REMARK Flexibility Score: inf
ROOT
ATOM      1  C   UNL     1      -5.218   9.712  15.550  1.00  0.00     0.000 C 
ENDROOT
BRANCH   1   2
ATOM      2  C   UNL     1      -5.483   8.200  15.640  1.00  0.00     0.000 C 
BRANCH   2   3
ATOM      3  C   UNL     1      -6.163   7.796  16.957  1.00  0.00     0.000 C 
BRANCH   3   4
ATOM      4  C   UNL     1      -7.370   6.864  16.743  1.00  0.00     0.000 C 
BRANCH   4   5
ATOM      5  C   UNL     1      -7.778   6.748  15.263  1.00  0.00     0.000 C 
BRANCH   5   6
ATOM      6  C   UNL     1      -7.654   5.332  14.665  1.00  0.00     0.000 C 
BRANCH   6   7
ATOM      7  C   UNL     1      -6.629   5.187  13.524  1.00  0.00     0.000 C 
BRANCH   7   8
ATOM      8  C   UNL     1      -5.243   4.677  13.956  1.00  0.00     0.000 C 
BRANCH   8   9
ATOM      9  C   UNL     1      -5.261   3.971  15.319  1.00  0.00     0.000 C 
BRANCH   9  10
ATOM     10  C   UNL     1      -4.283   4.638  16.294  1.00  0.00     0.006 C 
BRANCH  10  11
ATOM     11  C   UNL     1      -2.995   5.062  15.581  1.00  0.00     0.053 C 
BRANCH  11  12
ATOM     12  C   UNL     1      -1.874   4.136  15.933  1.00  0.00     0.041 C 
ATOM     13  O   UNL     1      -0.690   4.419  15.606  1.00  0.00    -0.550 OA
ATOM     14  O   UNL     1      -2.128   2.982  16.661  1.00  0.00    -0.550 OA
ENDBRANCH  11  12
ENDBRANCH  10  11
ENDBRANCH   9  10
ENDBRANCH   8   9
ENDBRANCH   7   8
ENDBRANCH   6   7
ENDBRANCH   5   6
ENDBRANCH   4   5
ENDBRANCH   3   4
ENDBRANCH   2   3
ENDBRANCH   1   2
BRANCH   1  15
ATOM     15  C   UNL     1      -5.568  10.299  14.169  1.00  0.00     0.000 C 
BRANCH  15  16
ATOM     16  C   UNL     1      -6.313   9.339  13.222  1.00  0.00     0.000 C 
BRANCH  16  17
ATOM     17  C   UNL     1      -5.541   9.070  11.918  1.00  0.00     0.000 C 
BRANCH  17  18
ATOM     18  C   UNL     1      -4.596   7.863  12.029  1.00  0.00    -0.000 C 
BRANCH  18  19
ATOM     19  C   UNL     1      -3.231   8.125  11.364  1.00  0.00    -0.000 C 
BRANCH  19  20
ATOM     20  C   UNL     1      -2.428   9.224  12.079  1.00  0.00    -0.000 C 
BRANCH  20  21
ATOM     21  C   UNL     1      -2.054   8.838  13.521  1.00  0.00    -0.000 C 
BRANCH  21  22
ATOM     22  C   UNL     1      -1.435  10.002  14.314  1.00  0.00    -0.000 C 
BRANCH  22  23
ATOM     23  C   UNL     1       0.102  10.080  14.279  1.00  0.00    -0.000 C 
BRANCH  23  24
ATOM     24  C   UNL     1       0.727  10.241  15.674  1.00  0.00    -0.000 C 
BRANCH  24  25
ATOM     25  C   UNL     1       1.346   8.934  16.194  1.00  0.00    -0.003 C 
ATOM     26  C   UNL     1       1.398   8.870  17.722  1.00  0.00     0.004 C 
ENDBRANCH  24  25
ENDBRANCH  23  24
ENDBRANCH  22  23
ENDBRANCH  21  22
ENDBRANCH  20  21
ENDBRANCH  19  20
ENDBRANCH  18  19
ENDBRANCH  17  18
ENDBRANCH  16  17
ENDBRANCH  15  16
ENDBRANCH   1  15
TORSDOF 22
ENDMDL
MODEL 5
REMARK VINA RESULT:    -4.735      4.197      9.012
REMARK INTER + INTRA:         -13.588
REMARK INTER:                 -10.593
REMARK INTRA:                  -2.995
REMARK UNBOUND:                -2.763
REMARK SMILES CCCCCCCCCCCCCCCCCCCCCCCC(=O)[O-]
REMARK SMILES IDX 13 1 14 2 15 3 16 4 17 5 18 6 19 7 20 8 21 9 22 10 23 11
REMARK SMILES IDX 24 12 25 13 26 14 12 15 11 16 10 17 9 18 8 19 7 20 6 21 5 22
REMARK SMILES IDX 4 23 3 24 2 25 1 26
REMARK H PARENT
REMARK Flexibility Score: inf
ROOT
ATOM      1  C   UNL     1      -5.054   5.371  17.016  1.00  0.00     0.000 C 
ENDROOT
BRANCH   1   2
ATOM      2  C   UNL     1      -6.279   6.176  16.550  1.00  0.00     0.000 C 
BRANCH   2   3
ATOM      3  C   UNL     1      -6.194   7.660  16.937  1.00  0.00     0.000 C 
BRANCH   3   4
ATOM      4  C   UNL     1      -5.582   8.532  15.826  1.00  0.00     0.000 C 
BRANCH   4   5
ATOM      5  C   UNL     1      -6.431   8.544  14.542  1.00  0.00     0.000 C 
BRANCH   5   6
ATOM      6  C   UNL     1      -5.623   8.577  13.229  1.00  0.00     0.000 C 
BRANCH   6   7
ATOM      7  C   UNL     1      -5.675   7.284  12.392  1.00  0.00     0.000 C 
BRANCH   7   8
ATOM      8  C   UNL     1      -5.028   6.054  13.053  1.00  0.00     0.000 C 
BRANCH   8   9
ATOM      9  C   UNL     1      -5.750   4.742  12.714  1.00  0.00     0.000 C 
BRANCH   9  10
ATOM     10  C   UNL     1      -7.236   4.992  12.433  1.00  0.00     0.006 C 
BRANCH  10  11
ATOM     11  C   UNL     1      -8.072   4.853  13.710  1.00  0.00     0.053 C 
BRANCH  11  12
ATOM     12  C   UNL     1      -9.022   6.001  13.840  1.00  0.00     0.041 C 
ATOM     13  O   UNL     1      -9.382   6.646  12.819  1.00  0.00    -0.550 OA
ATOM     14  O   UNL     1      -9.546   6.331  15.082  1.00  0.00    -0.550 OA
ENDBRANCH  11  12
ENDBRANCH  10  11
ENDBRANCH   9  10
ENDBRANCH   8   9
ENDBRANCH   7   8
ENDBRANCH   6   7
ENDBRANCH   5   6
ENDBRANCH   4   5
ENDBRANCH   3   4
ENDBRANCH   2   3
ENDBRANCH   1   2
BRANCH   1  15
ATOM     15  C   UNL     1      -4.853   4.071  16.215  1.00  0.00     0.000 C 
BRANCH  15  16
ATOM     16  C   UNL     1      -3.386   3.717  15.906  1.00  0.00     0.000 C 
BRANCH  16  17
ATOM     17  C   UNL     1      -2.524   4.956  15.609  1.00  0.00     0.000 C 
BRANCH  17  18
ATOM     18  C   UNL     1      -1.035   4.729  15.918  1.00  0.00    -0.000 C 
BRANCH  18  19
ATOM     19  C   UNL     1      -0.742   4.745  17.430  1.00  0.00    -0.000 C 
BRANCH  19  20
ATOM     20  C   UNL     1      -0.032   6.033  17.879  1.00  0.00    -0.000 C 
BRANCH  20  21
ATOM     21  C   UNL     1      -0.113   6.250  19.401  1.00  0.00    -0.000 C 
BRANCH  21  22
ATOM     22  C   UNL     1       0.815   7.373  19.898  1.00  0.00    -0.000 C 
BRANCH  22  23
ATOM     23  C   UNL     1       0.733   8.692  19.109  1.00  0.00    -0.000 C 
BRANCH  23  24
ATOM     24  C   UNL     1       2.099   9.159  18.577  1.00  0.00    -0.000 C 
BRANCH  24  25
ATOM     25  C   UNL     1       2.234   8.967  17.059  1.00  0.00    -0.003 C 
ATOM     26  C   UNL     1       1.116   9.654  16.273  1.00  0.00     0.004 C 
ENDBRANCH  24  25
ENDBRANCH  23  24
ENDBRANCH  22  23
ENDBRANCH  21  22
ENDBRANCH  20  21
ENDBRANCH  19  20
ENDBRANCH  18  19
ENDBRANCH  17  18
ENDBRANCH  16  17
ENDBRANCH  15  16
ENDBRANCH   1  15
TORSDOF 22
ENDMDL
MODEL 6
REMARK VINA RESULT:    -4.724      2.549      5.125
REMARK INTER + INTRA:         -13.563
REMARK INTER:                 -11.399
REMARK INTRA:                  -2.164
REMARK UNBOUND:                -2.763
REMARK SMILES CCCCCCCCCCCCCCCCCCCCCCCC(=O)[O-]
REMARK SMILES IDX 13 1 14 2 15 3 16 4 17 5 18 6 19 7 20 8 21 9 22 10 23 11
REMARK SMILES IDX 24 12 25 13 26 14 12 15 11 16 10 17 9 18 8 19 7 20 6 21 5 22
REMARK SMILES IDX 4 23 3 24 2 25 1 26
REMARK H PARENT
REMARK Flexibility Score: inf
ROOT
ATOM      1  C   UNL     1      -2.407   9.172  13.438  1.00  0.00     0.000 C 
ENDROOT
BRANCH   1   2
ATOM      2  C   UNL     1      -1.264   9.797  12.620  1.00  0.00     0.000 C 
BRANCH   2   3
ATOM      3  C   UNL     1      -0.229  10.514  13.502  1.00  0.00     0.000 C 
BRANCH   3   4
ATOM      4  C   UNL     1       0.099   9.734  14.788  1.00  0.00     0.000 C 
BRANCH   4   5
ATOM      5  C   UNL     1       1.071  10.492  15.711  1.00  0.00     0.000 C 
BRANCH   5   6
ATOM      6  C   UNL     1       1.884   9.599  16.670  1.00  0.00     0.000 C 
BRANCH   6   7
ATOM      7  C   UNL     1       1.548   8.096  16.613  1.00  0.00     0.000 C 
BRANCH   7   8
ATOM      8  C   UNL     1       1.077   7.484  17.944  1.00  0.00     0.000 C 
BRANCH   8   9
ATOM      9  C   UNL     1       0.827   8.536  19.034  1.00  0.00     0.000 C 
BRANCH   9  10
ATOM     10  C   UNL     1       1.163   7.978  20.421  1.00  0.00     0.006 C 
BRANCH  10  11
ATOM     11  C   UNL     1       0.079   7.010  20.905  1.00  0.00     0.053 C 
BRANCH  11  12
ATOM     12  C   UNL     1       0.172   6.817  22.386  1.00  0.00     0.041 C 
ATOM     13  O   UNL     1      -0.862   6.894  23.102  1.00  0.00    -0.550 OA
ATOM     14  O   UNL     1       1.392   6.509  22.971  1.00  0.00    -0.550 OA
ENDBRANCH  11  12
ENDBRANCH  10  11
ENDBRANCH   9  10
ENDBRANCH   8   9
ENDBRANCH   7   8
ENDBRANCH   6   7
ENDBRANCH   5   6
ENDBRANCH   4   5
ENDBRANCH   3   4
ENDBRANCH   2   3
ENDBRANCH   1   2
BRANCH   1  15
ATOM     15  C   UNL     1      -3.138   8.047  12.681  1.00  0.00     0.000 C 
BRANCH  15  16
ATOM     16  C   UNL     1      -4.631   8.311  12.407  1.00  0.00     0.000 C 
BRANCH  16  17
ATOM     17  C   UNL     1      -5.226   7.341  11.371  1.00  0.00     0.000 C 
BRANCH  17  18
ATOM     18  C   UNL     1      -6.260   6.382  11.984  1.00  0.00    -0.000 C 
BRANCH  18  19
ATOM     19  C   UNL     1      -5.608   5.319  12.888  1.00  0.00    -0.000 C 
BRANCH  19  20
ATOM     20  C   UNL     1      -6.479   4.963  14.104  1.00  0.00    -0.000 C 
BRANCH  20  21
ATOM     21  C   UNL     1      -6.505   6.084  15.159  1.00  0.00    -0.000 C 
BRANCH  21  22
ATOM     22  C   UNL     1      -5.099   6.556  15.568  1.00  0.00    -0.000 C 
BRANCH  22  23
ATOM     23  C   UNL     1      -4.388   5.679  16.615  1.00  0.00    -0.000 C 
BRANCH  23  24
ATOM     24  C   UNL     1      -3.370   4.709  15.992  1.00  0.00    -0.000 C 
BRANCH  24  25
ATOM     25  C   UNL     1      -3.499   3.284  16.553  1.00  0.00    -0.003 C 
ATOM     26  C   UNL     1      -4.955   2.834  16.695  1.00  0.00     0.004 C 
ENDBRANCH  24  25
ENDBRANCH  23  24
ENDBRANCH  22  23
ENDBRANCH  21  22
ENDBRANCH  20  21
ENDBRANCH  19  20
ENDBRANCH  18  19
ENDBRANCH  17  18
ENDBRANCH  16  17
ENDBRANCH  15  16
ENDBRANCH   1  15
TORSDOF 22
ENDMDL
MODEL 7
REMARK VINA RESULT:    -4.689      2.855      7.806
REMARK INTER + INTRA:         -13.484
REMARK INTER:                 -10.146
REMARK INTRA:                  -3.338
REMARK UNBOUND:                -2.763
REMARK SMILES CCCCCCCCCCCCCCCCCCCCCCCC(=O)[O-]
REMARK SMILES IDX 13 1 14 2 15 3 16 4 17 5 18 6 19 7 20 8 21 9 22 10 23 11
REMARK SMILES IDX 24 12 25 13 26 14 12 15 11 16 10 17 9 18 8 19 7 20 6 21 5 22
REMARK SMILES IDX 4 23 3 24 2 25 1 26
REMARK H PARENT
REMARK Flexibility Score: inf
ROOT
ATOM      1  C   UNL     1      -5.991   7.394  16.899  1.00  0.00     0.000 C 
ENDROOT
BRANCH   1   2
ATOM      2  C   UNL     1      -7.482   7.025  16.834  1.00  0.00     0.000 C 
BRANCH   2   3
ATOM      3  C   UNL     1      -8.126   7.401  15.491  1.00  0.00     0.000 C 
BRANCH   3   4
ATOM      4  C   UNL     1      -9.290   6.469  15.107  1.00  0.00     0.000 C 
BRANCH   4   5
ATOM      5  C   UNL     1      -9.045   5.724  13.783  1.00  0.00     0.000 C 
BRANCH   5   6
ATOM      6  C   UNL     1      -7.840   4.761  13.794  1.00  0.00     0.000 C 
BRANCH   6   7
ATOM      7  C   UNL     1      -6.986   4.762  12.512  1.00  0.00     0.000 C 
BRANCH   7   8
ATOM      8  C   UNL     1      -6.415   6.134  12.111  1.00  0.00     0.000 C 
BRANCH   8   9
ATOM      9  C   UNL     1      -5.345   6.647  13.085  1.00  0.00     0.000 C 
BRANCH   9  10
ATOM     10  C   UNL     1      -5.416   8.172  13.224  1.00  0.00     0.006 C 
BRANCH  10  11
ATOM     11  C   UNL     1      -4.221   8.712  14.015  1.00  0.00     0.053 C 
BRANCH  11  12
ATOM     12  C   UNL     1      -2.937   8.227  13.420  1.00  0.00     0.041 C 
ATOM     13  O   UNL     1      -2.211   7.415  14.053  1.00  0.00    -0.550 OA
ATOM     14  O   UNL     1      -2.563   8.636  12.148  1.00  0.00    -0.550 OA
ENDBRANCH  11  12
ENDBRANCH  10  11
ENDBRANCH   9  10
ENDBRANCH   8   9
ENDBRANCH   7   8
ENDBRANCH   6   7
ENDBRANCH   5   6
ENDBRANCH   4   5
ENDBRANCH   3   4
ENDBRANCH   2   3
ENDBRANCH   1   2
BRANCH   1  15
ATOM     15  C   UNL     1      -5.096   6.200  17.283  1.00  0.00     0.000 C 
BRANCH  15  16
ATOM     16  C   UNL     1      -5.684   4.814  16.958  1.00  0.00     0.000 C 
BRANCH  16  17
ATOM     17  C   UNL     1      -4.928   4.098  15.825  1.00  0.00     0.000 C 
BRANCH  17  18
ATOM     18  C   UNL     1      -3.444   4.494  15.761  1.00  0.00    -0.000 C 
BRANCH  18  19
ATOM     19  C   UNL     1      -2.507   3.282  15.918  1.00  0.00    -0.000 C 
BRANCH  19  20
ATOM     20  C   UNL     1      -1.194   3.641  16.633  1.00  0.00    -0.000 C 
BRANCH  20  21
ATOM     21  C   UNL     1      -1.154   5.110  17.091  1.00  0.00    -0.000 C 
BRANCH  21  22
ATOM     22  C   UNL     1       0.232   5.756  16.919  1.00  0.00    -0.000 C 
BRANCH  22  23
ATOM     23  C   UNL     1       0.626   6.769  18.008  1.00  0.00    -0.000 C 
BRANCH  23  24
ATOM     24  C   UNL     1      -0.069   6.504  19.354  1.00  0.00    -0.000 C 
BRANCH  24  25
ATOM     25  C   UNL     1       0.348   7.510  20.438  1.00  0.00    -0.003 C 
ATOM     26  C   UNL     1       1.280   8.601  19.906  1.00  0.00     0.004 C 
ENDBRANCH  24  25
ENDBRANCH  23  24
ENDBRANCH  22  23
ENDBRANCH  21  22
ENDBRANCH  20  21
ENDBRANCH  19  20
ENDBRANCH  18  19
ENDBRANCH  17  18
ENDBRANCH  16  17
ENDBRANCH  15  16
ENDBRANCH   1  15
TORSDOF 22
ENDMDL
MODEL 8
REMARK VINA RESULT:    -4.677      1.387      2.833
REMARK INTER + INTRA:         -13.456
REMARK INTER:                 -10.070
REMARK INTRA:                  -3.386
REMARK UNBOUND:                -2.763
REMARK SMILES CCCCCCCCCCCCCCCCCCCCCCCC(=O)[O-]
REMARK SMILES IDX 13 1 14 2 15 3 16 4 17 5 18 6 19 7 20 8 21 9 22 10 23 11
REMARK SMILES IDX 24 12 25 13 26 14 12 15 11 16 10 17 9 18 8 19 7 20 6 21 5 22
REMARK SMILES IDX 4 23 3 24 2 25 1 26
REMARK H PARENT
REMARK Flexibility Score: inf
ROOT
ATOM      1  C   UNL     1      -7.425   6.956  16.637  1.00  0.00     0.000 C 
ENDROOT
BRANCH   1   2
ATOM      2  C   UNL     1      -5.989   7.379  16.283  1.00  0.00     0.000 C 
BRANCH   2   3
ATOM      3  C   UNL     1      -4.968   6.254  16.509  1.00  0.00     0.000 C 
BRANCH   3   4
ATOM      4  C   UNL     1      -5.623   4.939  16.972  1.00  0.00     0.000 C 
BRANCH   4   5
ATOM      5  C   UNL     1      -5.016   3.699  16.291  1.00  0.00     0.000 C 
BRANCH   5   6
ATOM      6  C   UNL     1      -3.863   3.997  15.311  1.00  0.00     0.000 C 
BRANCH   6   7
ATOM      7  C   UNL     1      -2.477   3.486  15.750  1.00  0.00     0.000 C 
BRANCH   7   8
ATOM      8  C   UNL     1      -1.390   4.570  15.862  1.00  0.00     0.000 C 
BRANCH   8   9
ATOM      9  C   UNL     1      -0.707   4.595  17.237  1.00  0.00     0.000 C 
BRANCH   9  10
ATOM     10  C   UNL     1       0.028   5.922  17.458  1.00  0.00     0.006 C 
BRANCH  10  11
ATOM     11  C   UNL     1       0.039   6.308  18.941  1.00  0.00     0.053 C 
BRANCH  11  12
ATOM     12  C   UNL     1       0.573   7.694  19.117  1.00  0.00     0.041 C 
ATOM     13  O   UNL     1       1.150   8.278  18.161  1.00  0.00    -0.550 OA
ATOM     14  O   UNL     1       0.394   8.359  20.322  1.00  0.00    -0.550 OA
ENDBRANCH  11  12
ENDBRANCH  10  11
ENDBRANCH   9  10
ENDBRANCH   8   9
ENDBRANCH   7   8
ENDBRANCH   6   7
ENDBRANCH   5   6
ENDBRANCH   4   5
ENDBRANCH   3   4
ENDBRANCH   2   3
ENDBRANCH   1   2
BRANCH   1  15
ATOM     15  C   UNL     1      -8.444   7.331  15.544  1.00  0.00     0.000 C 
BRANCH  15  16
ATOM     16  C   UNL     1      -9.561   6.296  15.313  1.00  0.00     0.000 C 
BRANCH  16  17
ATOM     17  C   UNL     1      -9.845   6.049  13.821  1.00  0.00     0.000 C 
BRANCH  17  18
ATOM     18  C   UNL     1      -9.056   6.999  12.904  1.00  0.00    -0.000 C 
BRANCH  18  19
ATOM     19  C   UNL     1      -8.097   6.243  11.964  1.00  0.00    -0.000 C 
BRANCH  19  20
ATOM     20  C   UNL     1      -7.294   5.153  12.692  1.00  0.00    -0.000 C 
BRANCH  20  21
ATOM     21  C   UNL     1      -5.790   5.473  12.759  1.00  0.00    -0.000 C 
BRANCH  21  22
ATOM     22  C   UNL     1      -5.332   6.439  11.652  1.00  0.00    -0.000 C 
BRANCH  22  23
ATOM     23  C   UNL     1      -4.246   7.448  12.068  1.00  0.00    -0.000 C 
BRANCH  23  24
ATOM     24  C   UNL     1      -4.722   8.431  13.150  1.00  0.00    -0.000 C 
BRANCH  24  25
ATOM     25  C   UNL     1      -6.005   9.172  12.744  1.00  0.00    -0.003 C 
ATOM     26  C   UNL     1      -6.531  10.094  13.847  1.00  0.00     0.004 C 
ENDBRANCH  24  25
ENDBRANCH  23  24
ENDBRANCH  22  23
ENDBRANCH  21  22
ENDBRANCH  20  21
ENDBRANCH  19  20
ENDBRANCH  18  19
ENDBRANCH  17  18
ENDBRANCH  16  17
ENDBRANCH  15  16
ENDBRANCH   1  15
TORSDOF 22
ENDMDL
MODEL 9
REMARK VINA RESULT:    -4.653      2.992      4.851
REMARK INTER + INTRA:         -13.401
REMARK INTER:                  -8.929
REMARK INTRA:                  -4.472
REMARK UNBOUND:                -2.763
REMARK SMILES CCCCCCCCCCCCCCCCCCCCCCCC(=O)[O-]
REMARK SMILES IDX 13 1 14 2 15 3 16 4 17 5 18 6 19 7 20 8 21 9 22 10 23 11
REMARK SMILES IDX 24 12 25 13 26 14 12 15 11 16 10 17 9 18 8 19 7 20 6 21 5 22
REMARK SMILES IDX 4 23 3 24 2 25 1 26
REMARK H PARENT
REMARK Flexibility Score: inf
ROOT
ATOM      1  C   UNL     1      -5.985   8.089  16.860  1.00  0.00     0.000 C 
ENDROOT
BRANCH   1   2
ATOM      2  C   UNL     1      -7.245   7.228  16.675  1.00  0.00     0.000 C 
BRANCH   2   3
ATOM      3  C   UNL     1      -7.701   7.153  15.210  1.00  0.00     0.000 C 
BRANCH   3   4
ATOM      4  C   UNL     1      -8.424   5.834  14.878  1.00  0.00     0.000 C 
BRANCH   4   5
ATOM      5  C   UNL     1      -7.651   4.972  13.863  1.00  0.00     0.000 C 
BRANCH   5   6
ATOM      6  C   UNL     1      -6.247   5.497  13.502  1.00  0.00     0.000 C 
BRANCH   6   7
ATOM      7  C   UNL     1      -5.094   4.502  13.733  1.00  0.00     0.000 C 
BRANCH   7   8
ATOM      8  C   UNL     1      -4.979   3.961  15.170  1.00  0.00     0.000 C 
BRANCH   8   9
ATOM      9  C   UNL     1      -4.255   4.928  16.118  1.00  0.00     0.000 C 
BRANCH   9  10
ATOM     10  C   UNL     1      -2.913   5.373  15.526  1.00  0.00     0.006 C 
BRANCH  10  11
ATOM     11  C   UNL     1      -1.958   4.185  15.365  1.00  0.00     0.053 C 
BRANCH  11  12
ATOM     12  C   UNL     1      -1.228   3.924  16.645  1.00  0.00     0.041 C 
ATOM     13  O   UNL     1      -1.286   2.788  17.188  1.00  0.00    -0.550 OA
ATOM     14  O   UNL     1      -0.447   4.919  17.215  1.00  0.00    -0.550 OA
ENDBRANCH  11  12
ENDBRANCH  10  11
ENDBRANCH   9  10
ENDBRANCH   8   9
ENDBRANCH   7   8
ENDBRANCH   6   7
ENDBRANCH   5   6
ENDBRANCH   4   5
ENDBRANCH   3   4
ENDBRANCH   2   3
ENDBRANCH   1   2
BRANCH   1  15
ATOM     15  C   UNL     1      -5.397   8.582  15.523  1.00  0.00     0.000 C 
BRANCH  15  16
ATOM     16  C   UNL     1      -4.926  10.048  15.520  1.00  0.00     0.000 C 
BRANCH  16  17
ATOM     17  C   UNL     1      -5.211  10.762  14.186  1.00  0.00     0.000 C 
BRANCH  17  18
ATOM     18  C   UNL     1      -6.701  10.735  13.808  1.00  0.00    -0.000 C 
BRANCH  18  19
ATOM     19  C   UNL     1      -6.924  10.343  12.335  1.00  0.00    -0.000 C 
BRANCH  19  20
ATOM     20  C   UNL     1      -6.792   8.829  12.101  1.00  0.00    -0.000 C 
BRANCH  20  21
ATOM     21  C   UNL     1      -5.923   8.495  10.875  1.00  0.00    -0.000 C 
BRANCH  21  22
ATOM     22  C   UNL     1      -4.556   9.201  10.897  1.00  0.00    -0.000 C 
BRANCH  22  23
ATOM     23  C   UNL     1      -3.350   8.290  11.188  1.00  0.00    -0.000 C 
BRANCH  23  24
ATOM     24  C   UNL     1      -3.290   7.824  12.652  1.00  0.00    -0.000 C 
BRANCH  24  25
ATOM     25  C   UNL     1      -2.250   8.603  13.473  1.00  0.00    -0.003 C 
ATOM     26  C   UNL     1      -1.244   9.352  12.597  1.00  0.00     0.004 C 
ENDBRANCH  24  25
ENDBRANCH  23  24
ENDBRANCH  22  23
ENDBRANCH  21  22
ENDBRANCH  20  21
ENDBRANCH  19  20
ENDBRANCH  18  19
ENDBRANCH  17  18
ENDBRANCH  16  17
ENDBRANCH  15  16
ENDBRANCH   1  15
TORSDOF 22
ENDMDL
