MODEL 1
REMARK VINA RESULT:    22.123      0.000      0.000
REMARK INTER + INTRA:          32.926
REMARK INTER:                  31.176
REMARK INTRA:                   1.750
REMARK UNBOUND:                 1.750
REMARK SMILES CC1=CCC(=C(C)C)C(=O)CC(C)=CCC1
REMARK SMILES IDX 12 1 14 2 13 3 15 4 16 5 2 6 1 7 3 8 11 10 9 11 10 12 5 13
REMARK SMILES IDX 6 14 7 15 8 16 4 17
REMARK H PARENT
REMARK Flexibility Score: 60.00
ROOT
ATOM      1  C   UNL     1      35.775  14.769  43.835  1.00  0.00    -0.070 C 
ATOM      2  C   UNL     1      34.938  15.831  43.910  1.00  0.00    -0.027 C 
ATOM      3  C   UNL     1      36.515  14.360  45.083  1.00  0.00     0.039 C 
ENDROOT
BRANCH   2   4
ATOM      4  C   UNL     1      34.074  16.340  42.779  1.00  0.00     0.032 C 
BRANCH   4   5
ATOM      5  C   UNL     1      34.879  16.504  41.481  1.00  0.00     0.034 C 
BRANCH   5   6
ATOM      6  C   UNL     1      34.046  16.309  40.221  1.00  0.00    -0.077 C 
ATOM      7  C   UNL     1      33.131  17.422  39.774  1.00  0.00     0.039 C 
ATOM      8  C   UNL     1      34.095  15.190  39.463  1.00  0.00    -0.023 CG0
ATOM      9  G   UNL     1      34.894  13.949  39.784  1.00  0.00     0.000 G0
ENDBRANCH   5   6
ENDBRANCH   4   5
ENDBRANCH   2   4
BRANCH   1  10
ATOM     10  C   UNL     1      35.996  13.981  42.559  1.00  0.00     0.111 C 
BRANCH  10  11
ATOM     11  C   UNL     1      34.792  13.149  42.220  1.00  0.00     0.163 C 
ATOM     12  O   UNL     1      34.152  12.580  43.145  1.00  0.00    -0.294 OA
BRANCH  11  13
ATOM     13  C   UNL     1      34.325  13.002  40.817  1.00  0.00    -0.002 C 
ATOM     14  C   UNL     1      33.395  12.061  40.498  1.00  0.00    -0.069 C 
ATOM     15  C   UNL     1      32.946  11.861  39.069  1.00  0.00     0.039 C 
ATOM     16  C   UNL     1      32.745  11.209  41.566  1.00  0.00     0.039 C 
BRANCH  13  17
ATOM     17  C   UNL     1      34.901  13.919  39.743  1.00  0.00     0.066 CG0
ATOM     18  G   UNL     1      34.077  15.161  39.498  1.00  0.00     0.000 G0
ENDBRANCH  13  17
ENDBRANCH  11  13
ENDBRANCH  10  11
ENDBRANCH   1  10
TORSDOF 0
ENDMDL
MODEL 2
REMARK VINA RESULT:    22.342      2.513      5.382
REMARK INTER + INTRA:          33.235
REMARK INTER:                  32.447
REMARK INTRA:                   0.789
REMARK UNBOUND:                 1.750
REMARK SMILES CC1=CCC(=C(C)C)C(=O)CC(C)=CCC1
REMARK SMILES IDX 12 1 14 2 13 3 15 4 16 5 2 6 1 7 3 8 11 10 9 11 10 12 5 13
REMARK SMILES IDX 6 14 7 15 8 16 4 17
REMARK H PARENT
REMARK Flexibility Score: 60.00
ROOT
ATOM      1  C   UNL     1      32.701  11.229  41.762  1.00  0.00    -0.070 C 
ATOM      2  C   UNL     1      32.851  10.044  41.125  1.00  0.00    -0.027 C 
ATOM      3  C   UNL     1      32.662  11.224  43.268  1.00  0.00     0.039 C 
ENDROOT
BRANCH   2   4
ATOM      4  C   UNL     1      32.971   9.869  39.628  1.00  0.00     0.032 C 
BRANCH   4   5
ATOM      5  C   UNL     1      34.356   9.338  39.229  1.00  0.00     0.034 C 
BRANCH   5   6
ATOM      6  C   UNL     1      35.334   9.255  40.393  1.00  0.00    -0.077 C 
ATOM      7  C   UNL     1      35.449   7.959  41.155  1.00  0.00     0.039 C 
ATOM      8  C   UNL     1      36.126  10.283  40.775  1.00  0.00    -0.023 CG0
ATOM      9  G   UNL     1      36.105  11.672  40.182  1.00  0.00     0.000 G0
ENDBRANCH   5   6
ENDBRANCH   4   5
ENDBRANCH   2   4
BRANCH   1  10
ATOM     10  C   UNL     1      32.569  12.550  41.029  1.00  0.00     0.111 C 
BRANCH  10  11
ATOM     11  C   UNL     1      33.811  12.858  40.242  1.00  0.00     0.163 C 
ATOM     12  O   UNL     1      33.706  13.315  39.071  1.00  0.00    -0.294 OA
BRANCH  11  13
ATOM     13  C   UNL     1      35.164  12.658  40.824  1.00  0.00    -0.002 C 
ATOM     14  C   UNL     1      35.539  13.341  41.940  1.00  0.00    -0.069 C 
ATOM     15  C   UNL     1      36.928  13.190  42.517  1.00  0.00     0.039 C 
ATOM     16  C   UNL     1      34.567  14.243  42.668  1.00  0.00     0.039 C 
BRANCH  13  17
ATOM     17  C   UNL     1      36.123  11.679  40.155  1.00  0.00     0.066 CG0
ATOM     18  G   UNL     1      36.105  10.297  40.766  1.00  0.00     0.000 G0
ENDBRANCH  13  17
ENDBRANCH  11  13
ENDBRANCH  10  11
ENDBRANCH   1  10
TORSDOF 0
ENDMDL
MODEL 3
REMARK VINA RESULT:    22.840      1.248      3.702
REMARK INTER + INTRA:          33.937
REMARK INTER:                  32.543
REMARK INTRA:                   1.394
REMARK UNBOUND:                 1.750
REMARK SMILES CC1=CCC(=C(C)C)C(=O)CC(C)=CCC1
REMARK SMILES IDX 12 1 14 2 13 3 15 4 16 5 2 6 1 7 3 8 11 10 9 11 10 12 5 13
REMARK SMILES IDX 6 14 7 15 8 16 4 17
REMARK H PARENT
REMARK Flexibility Score: 60.00
ROOT
ATOM      1  C   UNL     1      36.319  14.458  44.023  1.00  0.00    -0.070 C 
ATOM      2  C   UNL     1      36.528  13.429  43.168  1.00  0.00    -0.027 C 
ATOM      3  C   UNL     1      36.608  14.235  45.485  1.00  0.00     0.039 C 
ENDROOT
BRANCH   2   4
ATOM      4  C   UNL     1      36.351  13.492  41.669  1.00  0.00     0.032 C 
BRANCH   4   5
ATOM      5  C   UNL     1      35.613  12.256  41.133  1.00  0.00     0.034 C 
BRANCH   5   6
ATOM      6  C   UNL     1      34.192  12.549  40.672  1.00  0.00    -0.077 C 
ATOM      7  C   UNL     1      33.226  11.401  40.517  1.00  0.00     0.039 C 
ATOM      8  C   UNL     1      33.737  13.796  40.408  1.00  0.00    -0.023 CG0
ATOM      9  G   UNL     1      34.569  15.057  40.439  1.00  0.00     0.000 G0
ENDBRANCH   5   6
ENDBRANCH   4   5
ENDBRANCH   2   4
BRANCH   1  10
ATOM     10  C   UNL     1      35.808  15.813  43.573  1.00  0.00     0.111 C 
BRANCH  10  11
ATOM     11  C   UNL     1      34.445  15.700  42.953  1.00  0.00     0.163 C 
ATOM     12  O   UNL     1      33.477  15.299  43.654  1.00  0.00    -0.294 OA
BRANCH  11  13
ATOM     13  C   UNL     1      34.209  16.075  41.535  1.00  0.00    -0.002 C 
ATOM     14  C   UNL     1      33.672  17.287  41.225  1.00  0.00    -0.069 C 
ATOM     15  C   UNL     1      33.376  17.666  39.792  1.00  0.00     0.039 C 
ATOM     16  C   UNL     1      33.391  18.316  42.298  1.00  0.00     0.039 C 
BRANCH  13  17
ATOM     17  C   UNL     1      34.576  15.086  40.434  1.00  0.00     0.066 CG0
ATOM     18  G   UNL     1      33.726  13.837  40.431  1.00  0.00     0.000 G0
ENDBRANCH  13  17
ENDBRANCH  11  13
ENDBRANCH  10  11
ENDBRANCH   1  10
TORSDOF 0
ENDMDL
MODEL 4
REMARK VINA RESULT:    23.252      2.210      4.238
REMARK INTER + INTRA:          34.517
REMARK INTER:                  33.224
REMARK INTRA:                   1.293
REMARK UNBOUND:                 1.750
REMARK SMILES CC1=CCC(=C(C)C)C(=O)CC(C)=CCC1
REMARK SMILES IDX 12 1 14 2 13 3 15 4 16 5 2 6 1 7 3 8 11 10 9 11 10 12 5 13
REMARK SMILES IDX 6 14 7 15 8 16 4 17
REMARK H PARENT
REMARK Flexibility Score: 60.00
ROOT
ATOM      1  C   UNL     1      35.110   9.719  40.358  1.00  0.00    -0.070 C 
ATOM      2  C   UNL     1      36.263  10.303  39.957  1.00  0.00    -0.027 C 
ATOM      3  C   UNL     1      34.499   8.668  39.467  1.00  0.00     0.039 C 
ENDROOT
BRANCH   2   4
ATOM      4  C   UNL     1      37.043  11.326  40.750  1.00  0.00     0.032 C 
BRANCH   4   5
ATOM      5  C   UNL     1      36.613  12.759  40.404  1.00  0.00     0.034 C 
BRANCH   5   6
ATOM      6  C   UNL     1      35.647  13.364  41.414  1.00  0.00    -0.077 C 
ATOM      7  C   UNL     1      36.185  13.842  42.739  1.00  0.00     0.039 C 
ATOM      8  C   UNL     1      34.323  13.515  41.179  1.00  0.00    -0.023 CG0
ATOM      9  G   UNL     1      33.592  13.038  39.947  1.00  0.00     0.000 G0
ENDBRANCH   5   6
ENDBRANCH   4   5
ENDBRANCH   2   4
BRANCH   1  10
ATOM     10  C   UNL     1      34.412  10.076  41.657  1.00  0.00     0.111 C 
BRANCH  10  11
ATOM     11  C   UNL     1      33.185  10.904  41.402  1.00  0.00     0.163 C 
ATOM     12  O   UNL     1      32.306  11.002  42.300  1.00  0.00    -0.294 OA
BRANCH  11  13
ATOM     13  C   UNL     1      32.997  11.632  40.120  1.00  0.00    -0.002 C 
ATOM     14  C   UNL     1      32.323  11.048  39.092  1.00  0.00    -0.069 C 
ATOM     15  C   UNL     1      32.166  11.750  37.763  1.00  0.00     0.039 C 
ATOM     16  C   UNL     1      31.671   9.692  39.254  1.00  0.00     0.039 C 
BRANCH  13  17
ATOM     17  C   UNL     1      33.566  13.038  39.974  1.00  0.00     0.066 CG0
ATOM     18  G   UNL     1      34.308  13.524  41.197  1.00  0.00     0.000 G0
ENDBRANCH  13  17
ENDBRANCH  11  13
ENDBRANCH  10  11
ENDBRANCH   1  10
TORSDOF 0
ENDMDL
MODEL 5
REMARK VINA RESULT:    23.511      2.003      3.884
REMARK INTER + INTRA:          34.883
REMARK INTER:                  33.498
REMARK INTRA:                   1.385
REMARK UNBOUND:                 1.750
REMARK SMILES CC1=CCC(=C(C)C)C(=O)CC(C)=CCC1
REMARK SMILES IDX 12 1 14 2 13 3 15 4 16 5 2 6 1 7 3 8 11 10 9 11 10 12 5 13
REMARK SMILES IDX 6 14 7 15 8 16 4 17
REMARK H PARENT
REMARK Flexibility Score: 60.00
ROOT
ATOM      1  C   UNL     1      34.194  14.003  39.953  1.00  0.00    -0.070 C 
ATOM      2  C   UNL     1      34.072  15.142  40.674  1.00  0.00    -0.027 C 
ATOM      3  C   UNL     1      33.114  13.677  38.954  1.00  0.00     0.039 C 
ENDROOT
BRANCH   2   4
ATOM      4  C   UNL     1      35.086  15.654  41.671  1.00  0.00     0.032 C 
BRANCH   4   5
ATOM      5  C   UNL     1      34.766  15.182  43.098  1.00  0.00     0.034 C 
BRANCH   5   6
ATOM      6  C   UNL     1      35.495  13.905  43.493  1.00  0.00    -0.077 C 
ATOM      7  C   UNL     1      36.868  14.011  44.107  1.00  0.00     0.039 C 
ATOM      8  C   UNL     1      34.967  12.669  43.338  1.00  0.00    -0.023 CG0
ATOM      9  G   UNL     1      33.643  12.358  42.681  1.00  0.00     0.000 G0
ENDBRANCH   5   6
ENDBRANCH   4   5
ENDBRANCH   2   4
BRANCH   1  10
ATOM     10  C   UNL     1      35.363  13.049  40.107  1.00  0.00     0.111 C 
BRANCH  10  11
ATOM     11  C   UNL     1      34.892  11.669  40.467  1.00  0.00     0.163 C 
ATOM     12  O   UNL     1      35.476  10.666  39.974  1.00  0.00    -0.294 OA
BRANCH  11  13
ATOM     13  C   UNL     1      33.765  11.460  41.413  1.00  0.00    -0.002 C 
ATOM     14  C   UNL     1      32.859  10.469  41.193  1.00  0.00    -0.069 C 
ATOM     15  C   UNL     1      31.677  10.274  42.115  1.00  0.00     0.039 C 
ATOM     16  C   UNL     1      33.023   9.500  40.042  1.00  0.00     0.039 C 
BRANCH  13  17
ATOM     17  C   UNL     1      33.640  12.368  42.632  1.00  0.00     0.066 CG0
ATOM     18  G   UNL     1      34.950  12.619  43.340  1.00  0.00     0.000 G0
ENDBRANCH  13  17
ENDBRANCH  11  13
ENDBRANCH  10  11
ENDBRANCH   1  10
TORSDOF 0
ENDMDL
MODEL 6
REMARK VINA RESULT:    23.532      1.742      4.453
REMARK INTER + INTRA:          34.912
REMARK INTER:                  32.236
REMARK INTRA:                   2.676
REMARK UNBOUND:                 1.750
REMARK SMILES CC1=CCC(=C(C)C)C(=O)CC(C)=CCC1
REMARK SMILES IDX 12 1 14 2 13 3 15 4 16 5 2 6 1 7 3 8 11 10 9 11 10 12 5 13
REMARK SMILES IDX 6 14 7 15 8 16 4 17
REMARK H PARENT
REMARK Flexibility Score: 60.00
ROOT
ATOM      1  C   UNL     1      34.498  10.268  40.819  1.00  0.00    -0.070 C 
ATOM      2  C   UNL     1      33.350   9.987  40.159  1.00  0.00    -0.027 C 
ATOM      3  C   UNL     1      35.755   9.554  40.391  1.00  0.00     0.039 C 
ENDROOT
BRANCH   2   4
ATOM      4  C   UNL     1      32.016  10.649  40.412  1.00  0.00     0.032 C 
BRANCH   4   5
ATOM      5  C   UNL     1      32.177  12.141  40.740  1.00  0.00     0.034 C 
BRANCH   5   6
ATOM      6  C   UNL     1      32.879  12.932  39.645  1.00  0.00    -0.077 C 
ATOM      7  C   UNL     1      32.702  12.503  38.210  1.00  0.00     0.039 C 
ATOM      8  C   UNL     1      33.646  14.020  39.887  1.00  0.00    -0.023 CG0
ATOM      9  G   UNL     1      33.995  14.559  41.255  1.00  0.00     0.000 G0
ENDBRANCH   5   6
ENDBRANCH   4   5
ENDBRANCH   2   4
BRANCH   1  10
ATOM     10  C   UNL     1      34.572  11.262  41.961  1.00  0.00     0.111 C 
BRANCH  10  11
ATOM     11  C   UNL     1      35.409  12.453  41.590  1.00  0.00     0.163 C 
ATOM     12  O   UNL     1      36.431  12.292  40.870  1.00  0.00    -0.294 OA
BRANCH  11  13
ATOM     13  C   UNL     1      35.043  13.823  42.035  1.00  0.00    -0.002 C 
ATOM     14  C   UNL     1      35.658  14.381  43.113  1.00  0.00    -0.069 C 
ATOM     15  C   UNL     1      35.264  15.752  43.613  1.00  0.00     0.039 C 
ATOM     16  C   UNL     1      36.787  13.669  43.826  1.00  0.00     0.039 C 
BRANCH  13  17
ATOM     17  C   UNL     1      33.974  14.592  41.268  1.00  0.00     0.066 CG0
ATOM     18  G   UNL     1      33.691  14.034  39.893  1.00  0.00     0.000 G0
ENDBRANCH  13  17
ENDBRANCH  11  13
ENDBRANCH  10  11
ENDBRANCH   1  10
TORSDOF 0
ENDMDL
MODEL 7
REMARK VINA RESULT:    23.541      2.599      4.210
REMARK INTER + INTRA:          34.925
REMARK INTER:                  31.812
REMARK INTRA:                   3.113
REMARK UNBOUND:                 1.750
REMARK SMILES CC1=CCC(=C(C)C)C(=O)CC(C)=CCC1
REMARK SMILES IDX 12 1 14 2 13 3 15 4 16 5 2 6 1 7 3 8 11 10 9 11 10 12 5 13
REMARK SMILES IDX 6 14 7 15 8 16 4 17
REMARK H PARENT
REMARK Flexibility Score: 60.00
ROOT
ATOM      1  C   UNL     1      34.806  13.041  41.867  1.00  0.00    -0.070 C 
ATOM      2  C   UNL     1      34.540  13.528  40.633  1.00  0.00    -0.027 C 
ATOM      3  C   UNL     1      35.154  14.022  42.957  1.00  0.00     0.039 C 
ENDROOT
BRANCH   2   4
ATOM      4  C   UNL     1      34.115  12.699  39.442  1.00  0.00     0.032 C 
BRANCH   4   5
ATOM      5  C   UNL     1      32.591  12.722  39.250  1.00  0.00     0.034 C 
BRANCH   5   6
ATOM      6  C   UNL     1      32.086  11.669  38.273  1.00  0.00    -0.077 C 
ATOM      7  C   UNL     1      31.831  12.067  36.842  1.00  0.00     0.039 C 
ATOM      8  C   UNL     1      31.868  10.379  38.617  1.00  0.00    -0.023 CG0
ATOM      9  G   UNL     1      32.000   9.809  40.010  1.00  0.00     0.000 G0
ENDBRANCH   5   6
ENDBRANCH   4   5
ENDBRANCH   2   4
BRANCH   1  10
ATOM     10  C   UNL     1      34.769  11.561  42.197  1.00  0.00     0.111 C 
BRANCH  10  11
ATOM     11  C   UNL     1      33.456  10.950  41.796  1.00  0.00     0.163 C 
ATOM     12  O   UNL     1      32.419  11.217  42.461  1.00  0.00    -0.294 OA
BRANCH  11  13
ATOM     13  C   UNL     1      33.350  10.054  40.616  1.00  0.00    -0.002 C 
ATOM     14  C   UNL     1      34.462   9.456  40.105  1.00  0.00    -0.069 C 
ATOM     15  C   UNL     1      34.382   8.583  38.874  1.00  0.00     0.039 C 
ATOM     16  C   UNL     1      35.810   9.609  40.775  1.00  0.00     0.039 C 
BRANCH  13  17
ATOM     17  C   UNL     1      31.982   9.813  39.986  1.00  0.00     0.066 CG0
ATOM     18  G   UNL     1      31.856  10.352  38.581  1.00  0.00     0.000 G0
ENDBRANCH  13  17
ENDBRANCH  11  13
ENDBRANCH  10  11
ENDBRANCH   1  10
TORSDOF 0
ENDMDL
MODEL 8
REMARK VINA RESULT:    24.055      2.333      3.963
REMARK INTER + INTRA:          35.649
REMARK INTER:                  31.871
REMARK INTRA:                   3.777
REMARK UNBOUND:                 1.750
REMARK SMILES CC1=CCC(=C(C)C)C(=O)CC(C)=CCC1
REMARK SMILES IDX 12 1 14 2 13 3 15 4 16 5 2 6 1 7 3 8 11 10 9 11 10 12 5 13
REMARK SMILES IDX 6 14 7 15 8 16 4 17
REMARK H PARENT
REMARK Flexibility Score: 60.00
ROOT
ATOM      1  C   UNL     1      35.370  13.629  42.840  1.00  0.00    -0.070 C 
ATOM      2  C   UNL     1      34.836  12.621  43.570  1.00  0.00    -0.027 C 
ATOM      3  C   UNL     1      36.179  14.675  43.562  1.00  0.00     0.039 C 
ENDROOT
BRANCH   2   4
ATOM      4  C   UNL     1      34.053  11.458  43.006  1.00  0.00     0.032 C 
BRANCH   4   5
ATOM      5  C   UNL     1      32.548  11.764  42.947  1.00  0.00     0.034 C 
BRANCH   5   6
ATOM      6  C   UNL     1      31.810  10.978  41.873  1.00  0.00    -0.077 C 
ATOM      7  C   UNL     1      30.739  10.002  42.292  1.00  0.00     0.039 C 
ATOM      8  C   UNL     1      32.051  11.120  40.549  1.00  0.00    -0.023 CG0
ATOM      9  G   UNL     1      33.125  11.991  39.943  1.00  0.00     0.000 G0
ENDBRANCH   5   6
ENDBRANCH   4   5
ENDBRANCH   2   4
BRANCH   1  10
ATOM     10  C   UNL     1      35.188  13.747  41.339  1.00  0.00     0.111 C 
BRANCH  10  11
ATOM     11  C   UNL     1      35.556  12.465  40.646  1.00  0.00     0.163 C 
ATOM     12  O   UNL     1      36.769  12.209  40.419  1.00  0.00    -0.294 OA
BRANCH  11  13
ATOM     13  C   UNL     1      34.518  11.481  40.243  1.00  0.00    -0.002 C 
ATOM     14  C   UNL     1      34.825  10.158  40.155  1.00  0.00    -0.069 C 
ATOM     15  C   UNL     1      33.798   9.148  39.697  1.00  0.00     0.039 C 
ATOM     16  C   UNL     1      36.192   9.643  40.552  1.00  0.00     0.039 C 
BRANCH  13  17
ATOM     17  C   UNL     1      33.109  11.972  39.932  1.00  0.00     0.066 CG0
ATOM     18  G   UNL     1      32.020  11.111  40.528  1.00  0.00     0.000 G0
ENDBRANCH  13  17
ENDBRANCH  11  13
ENDBRANCH  10  11
ENDBRANCH   1  10
TORSDOF 0
ENDMDL
MODEL 9
REMARK VINA RESULT:    24.569      2.803      4.971
REMARK INTER + INTRA:          36.373
REMARK INTER:                  35.649
REMARK INTRA:                   0.724
REMARK UNBOUND:                 1.750
REMARK SMILES CC1=CCC(=C(C)C)C(=O)CC(C)=CCC1
REMARK SMILES IDX 12 1 14 2 13 3 15 4 16 5 2 6 1 7 3 8 11 10 9 11 10 12 5 13
REMARK SMILES IDX 6 14 7 15 8 16 4 17
REMARK H PARENT
REMARK Flexibility Score: 60.00
ROOT
ATOM      1  C   UNL     1      35.264  12.984  41.380  1.00  0.00    -0.070 C 
ATOM      2  C   UNL     1      36.219  12.059  41.129  1.00  0.00    -0.027 C 
ATOM      3  C   UNL     1      35.273  13.665  42.724  1.00  0.00     0.039 C 
ENDROOT
BRANCH   2   4
ATOM      4  C   UNL     1      36.398  11.325  39.820  1.00  0.00     0.032 C 
BRANCH   4   5
ATOM      5  C   UNL     1      36.186   9.812  39.984  1.00  0.00     0.034 C 
BRANCH   5   6
ATOM      6  C   UNL     1      34.894   9.308  39.356  1.00  0.00    -0.077 C 
ATOM      7  C   UNL     1      34.939   8.730  37.964  1.00  0.00     0.039 C 
ATOM      8  C   UNL     1      33.698   9.334  39.990  1.00  0.00    -0.023 CG0
ATOM      9  G   UNL     1      33.442   9.935  41.351  1.00  0.00     0.000 G0
ENDBRANCH   5   6
ENDBRANCH   4   5
ENDBRANCH   2   4
BRANCH   1  10
ATOM     10  C   UNL     1      34.194  13.360  40.374  1.00  0.00     0.111 C 
BRANCH  10  11
ATOM     11  C   UNL     1      33.207  12.243  40.189  1.00  0.00     0.163 C 
ATOM     12  O   UNL     1      32.683  12.060  39.057  1.00  0.00    -0.294 OA
BRANCH  11  13
ATOM     13  C   UNL     1      32.855  11.331  41.308  1.00  0.00    -0.002 C 
ATOM     14  C   UNL     1      32.006  11.745  42.289  1.00  0.00    -0.069 C 
ATOM     15  C   UNL     1      31.677  10.852  43.463  1.00  0.00     0.039 C 
ATOM     16  C   UNL     1      31.331  13.097  42.220  1.00  0.00     0.039 C 
BRANCH  13  17
ATOM     17  C   UNL     1      33.453   9.929  41.341  1.00  0.00     0.066 CG0
ATOM     18  G   UNL     1      33.709   9.344  39.972  1.00  0.00     0.000 G0
ENDBRANCH  13  17
ENDBRANCH  11  13
ENDBRANCH  10  11
ENDBRANCH   1  10
TORSDOF 0
ENDMDL
