MODEL 1
REMARK VINA RESULT:    -4.952      0.000      0.000
REMARK INTER + INTRA:          -6.377
REMARK INTER:                  -5.965
REMARK INTRA:                  -0.412
REMARK UNBOUND:                -0.412
REMARK SMILES O=c1c(O)c(-c2ccc(O)cc2O)oc2cc(O)cc(O)c12
REMARK SMILES IDX 5 1 3 2 2 3 1 4 22 5 20 6 19 7 17 8 16 9 15 10 14 11 6 12
REMARK SMILES IDX 8 13 7 14 9 15 11 16 12 17 10 18 13 20 4 22 21 24 18 26
REMARK H PARENT 10 19 13 21 4 23 21 25 18 27
REMARK Flexibility Score: inf
ROOT
ATOM      1  C   UNL     1      14.925  48.293  30.813  1.00  0.00     0.184 A 
ATOM      2  C   UNL     1      15.008  49.695  30.792  1.00  0.00     0.208 A 
ATOM      3  C   UNL     1      15.701  50.319  29.743  1.00  0.00     0.238 A 
ATOM      4  O   UNL     1      15.727  51.577  29.700  1.00  0.00    -0.285 OA
ATOM      5  C   UNL     1      16.314  49.532  28.737  1.00  0.00     0.111 A 
ATOM      6  C   UNL     1      17.075  50.057  27.649  1.00  0.00     0.134 A 
ATOM      7  C   UNL     1      17.526  49.194  26.643  1.00  0.00     0.093 A 
ATOM      8  C   UNL     1      17.300  47.820  26.718  1.00  0.00     0.123 A 
ATOM      9  C   UNL     1      16.608  47.289  27.806  1.00  0.00     0.094 A 
ATOM     10  C   UNL     1      16.115  48.129  28.809  1.00  0.00     0.146 A 
ATOM     11  O   UNL     1      15.452  47.584  29.823  1.00  0.00    -0.451 OA
ENDROOT
BRANCH   1  12
ATOM     12  C   UNL     1      14.225  47.573  31.898  1.00  0.00     0.063 A 
ATOM     13  C   UNL     1      12.131  46.939  32.956  1.00  0.00     0.047 A 
ATOM     14  C   UNL     1      12.823  47.614  31.948  1.00  0.00     0.020 A 
ATOM     15  C   UNL     1      12.828  46.204  33.918  1.00  0.00     0.119 A 
ATOM     16  C   UNL     1      14.226  46.137  33.863  1.00  0.00     0.093 A 
ATOM     17  C   UNL     1      14.929  46.808  32.851  1.00  0.00     0.130 A 
BRANCH  15  18
ATOM     18  O   UNL     1      12.124  45.541  34.920  1.00  0.00    -0.508 OA
ATOM     19  H   UNL     1      12.588  45.186  35.748  1.00  0.00     0.293 HD
ENDBRANCH  15  18
BRANCH  17  20
ATOM     20  O   UNL     1      16.317  46.694  32.778  1.00  0.00    -0.507 OA
ATOM     21  H   UNL     1      16.929  47.451  33.060  1.00  0.00     0.293 HD
ENDBRANCH  17  20
ENDBRANCH   1  12
BRANCH   2  22
ATOM     22  O   UNL     1      14.379  50.447  31.787  1.00  0.00    -0.502 OA
ATOM     23  H   UNL     1      14.556  51.436  31.914  1.00  0.00     0.293 HD
ENDBRANCH   2  22
BRANCH   6  24
ATOM     24  O   UNL     1      17.436  51.402  27.526  1.00  0.00    -0.507 OA
ATOM     25  H   UNL     1      16.906  52.175  27.898  1.00  0.00     0.293 HD
ENDBRANCH   6  24
BRANCH   8  26
ATOM     26  O   UNL     1      17.777  46.990  25.706  1.00  0.00    -0.508 OA
ATOM     27  H   UNL     1      17.786  47.287  24.736  1.00  0.00     0.293 HD
ENDBRANCH   8  26
TORSDOF 6
ENDMDL
MODEL 2
REMARK VINA RESULT:    -4.877      1.870      3.606
REMARK INTER + INTRA:          -6.286
REMARK INTER:                  -6.261
REMARK INTRA:                  -0.025
REMARK UNBOUND:                -0.412
REMARK SMILES O=c1c(O)c(-c2ccc(O)cc2O)oc2cc(O)cc(O)c12
REMARK SMILES IDX 5 1 3 2 2 3 1 4 22 5 20 6 19 7 17 8 16 9 15 10 14 11 6 12
REMARK SMILES IDX 8 13 7 14 9 15 11 16 12 17 10 18 13 20 4 22 21 24 18 26
REMARK H PARENT 10 19 13 21 4 23 21 25 18 27
REMARK Flexibility Score: inf
ROOT
ATOM      1  C   UNL     1      14.232  47.721  31.966  1.00  0.00     0.184 A 
ATOM      2  C   UNL     1      15.402  47.143  31.446  1.00  0.00     0.208 A 
ATOM      3  C   UNL     1      16.198  47.893  30.566  1.00  0.00     0.238 A 
ATOM      4  O   UNL     1      17.273  47.390  30.146  1.00  0.00    -0.285 OA
ATOM      5  C   UNL     1      15.806  49.206  30.207  1.00  0.00     0.111 A 
ATOM      6  C   UNL     1      16.516  50.042  29.293  1.00  0.00     0.134 A 
ATOM      7  C   UNL     1      16.107  51.368  29.111  1.00  0.00     0.093 A 
ATOM      8  C   UNL     1      14.978  51.869  29.758  1.00  0.00     0.123 A 
ATOM      9  C   UNL     1      14.242  51.044  30.608  1.00  0.00     0.094 A 
ATOM     10  C   UNL     1      14.646  49.726  30.838  1.00  0.00     0.146 A 
ATOM     11  O   UNL     1      13.923  48.976  31.663  1.00  0.00    -0.451 OA
ENDROOT
BRANCH   1  12
ATOM     12  C   UNL     1      13.341  46.980  32.883  1.00  0.00     0.063 A 
ATOM     13  C   UNL     1      13.095  45.485  34.783  1.00  0.00     0.047 A 
ATOM     14  C   UNL     1      13.909  46.193  33.896  1.00  0.00     0.020 A 
ATOM     15  C   UNL     1      11.704  45.565  34.678  1.00  0.00     0.119 A 
ATOM     16  C   UNL     1      11.126  46.366  33.685  1.00  0.00     0.093 A 
ATOM     17  C   UNL     1      11.937  47.085  32.793  1.00  0.00     0.130 A 
BRANCH  15  18
ATOM     18  O   UNL     1      10.905  44.849  35.567  1.00  0.00    -0.508 OA
ATOM     19  H   UNL     1      10.809  45.128  36.537  1.00  0.00     0.293 HD
ENDBRANCH  15  18
BRANCH  17  20
ATOM     20  O   UNL     1      11.350  47.918  31.840  1.00  0.00    -0.507 OA
ATOM     21  H   UNL     1      10.435  47.721  31.453  1.00  0.00     0.293 HD
ENDBRANCH  17  20
ENDBRANCH   1  12
BRANCH   2  22
ATOM     22  O   UNL     1      15.774  45.853  31.832  1.00  0.00    -0.502 OA
ATOM     23  H   UNL     1      16.694  45.641  32.198  1.00  0.00     0.293 HD
ENDBRANCH   2  22
BRANCH   6  24
ATOM     24  O   UNL     1      17.602  49.613  28.525  1.00  0.00    -0.507 OA
ATOM     25  H   UNL     1      18.527  50.014  28.563  1.00  0.00     0.293 HD
ENDBRANCH   6  24
BRANCH   8  26
ATOM     26  O   UNL     1      14.591  53.190  29.540  1.00  0.00    -0.508 OA
ATOM     27  H   UNL     1      15.088  53.965  29.966  1.00  0.00     0.293 HD
ENDBRANCH   8  26
TORSDOF 6
ENDMDL
MODEL 3
REMARK VINA RESULT:    -4.855      3.350      6.142
REMARK INTER + INTRA:          -6.260
REMARK INTER:                  -5.834
REMARK INTRA:                  -0.426
REMARK UNBOUND:                -0.412
REMARK SMILES O=c1c(O)c(-c2ccc(O)cc2O)oc2cc(O)cc(O)c12
REMARK SMILES IDX 5 1 3 2 2 3 1 4 22 5 20 6 19 7 17 8 16 9 15 10 14 11 6 12
REMARK SMILES IDX 8 13 7 14 9 15 11 16 12 17 10 18 13 20 4 22 21 24 18 26
REMARK H PARENT 10 19 13 21 4 23 21 25 18 27
REMARK Flexibility Score: inf
ROOT
ATOM      1  C   UNL     1      14.830  50.465  31.017  1.00  0.00     0.184 A 
ATOM      2  C   UNL     1      13.497  50.543  30.584  1.00  0.00     0.208 A 
ATOM      3  C   UNL     1      12.756  51.701  30.868  1.00  0.00     0.238 A 
ATOM      4  O   UNL     1      11.578  51.787  30.431  1.00  0.00    -0.285 OA
ATOM      5  C   UNL     1      13.354  52.758  31.596  1.00  0.00     0.111 A 
ATOM      6  C   UNL     1      12.685  53.961  31.975  1.00  0.00     0.134 A 
ATOM      7  C   UNL     1      13.412  54.993  32.581  1.00  0.00     0.093 A 
ATOM      8  C   UNL     1      14.765  54.843  32.880  1.00  0.00     0.123 A 
ATOM      9  C   UNL     1      15.415  53.649  32.567  1.00  0.00     0.094 A 
ATOM     10  C   UNL     1      14.726  52.614  31.930  1.00  0.00     0.146 A 
ATOM     11  O   UNL     1      15.385  51.498  31.639  1.00  0.00    -0.451 OA
ENDROOT
BRANCH   1  12
ATOM     12  C   UNL     1      15.660  49.269  30.765  1.00  0.00     0.063 A 
ATOM     13  C   UNL     1      16.201  46.964  31.313  1.00  0.00     0.047 A 
ATOM     14  C   UNL     1      15.439  48.113  31.530  1.00  0.00     0.020 A 
ATOM     15  C   UNL     1      17.185  46.948  30.321  1.00  0.00     0.119 A 
ATOM     16  C   UNL     1      17.399  48.088  29.536  1.00  0.00     0.093 A 
ATOM     17  C   UNL     1      16.633  49.246  29.743  1.00  0.00     0.130 A 
BRANCH  15  18
ATOM     18  O   UNL     1      17.942  45.796  30.120  1.00  0.00    -0.508 OA
ATOM     19  H   UNL     1      17.523  44.940  29.773  1.00  0.00     0.293 HD
ENDBRANCH  15  18
BRANCH  17  20
ATOM     20  O   UNL     1      16.821  50.358  28.923  1.00  0.00    -0.507 OA
ATOM     21  H   UNL     1      16.135  50.627  28.227  1.00  0.00     0.293 HD
ENDBRANCH  17  20
ENDBRANCH   1  12
BRANCH   2  22
ATOM     22  O   UNL     1      12.938  49.492  29.852  1.00  0.00    -0.502 OA
ATOM     23  H   UNL     1      12.036  49.567  29.398  1.00  0.00     0.293 HD
ENDBRANCH   2  22
BRANCH   6  24
ATOM     24  O   UNL     1      11.314  54.178  31.807  1.00  0.00    -0.507 OA
ATOM     25  H   UNL     1      10.852  55.064  31.945  1.00  0.00     0.293 HD
ENDBRANCH   6  24
BRANCH   8  26
ATOM     26  O   UNL     1      15.452  55.886  33.497  1.00  0.00    -0.508 OA
ATOM     27  H   UNL     1      15.533  56.798  33.063  1.00  0.00     0.293 HD
ENDBRANCH   8  26
TORSDOF 6
ENDMDL
MODEL 4
REMARK VINA RESULT:    -4.774      5.315      7.721
REMARK INTER + INTRA:          -6.162
REMARK INTER:                  -5.738
REMARK INTRA:                  -0.425
REMARK UNBOUND:                -0.412
REMARK SMILES O=c1c(O)c(-c2ccc(O)cc2O)oc2cc(O)cc(O)c12
REMARK SMILES IDX 5 1 3 2 2 3 1 4 22 5 20 6 19 7 17 8 16 9 15 10 14 11 6 12
REMARK SMILES IDX 8 13 7 14 9 15 11 16 12 17 10 18 13 20 4 22 21 24 18 26
REMARK H PARENT 10 19 13 21 4 23 21 25 18 27
REMARK Flexibility Score: inf
ROOT
ATOM      1  C   UNL     1      14.683  53.906  31.187  1.00  0.00     0.184 A 
ATOM      2  C   UNL     1      13.533  54.583  31.623  1.00  0.00     0.208 A 
ATOM      3  C   UNL     1      13.649  55.912  32.060  1.00  0.00     0.238 A 
ATOM      4  O   UNL     1      12.606  56.531  32.399  1.00  0.00    -0.285 OA
ATOM      5  C   UNL     1      14.918  56.541  32.069  1.00  0.00     0.111 A 
ATOM      6  C   UNL     1      15.160  57.871  32.529  1.00  0.00     0.134 A 
ATOM      7  C   UNL     1      16.432  58.434  32.372  1.00  0.00     0.093 A 
ATOM      8  C   UNL     1      17.485  57.697  31.833  1.00  0.00     0.123 A 
ATOM      9  C   UNL     1      17.275  56.377  31.435  1.00  0.00     0.094 A 
ATOM     10  C   UNL     1      16.008  55.797  31.546  1.00  0.00     0.146 A 
ATOM     11  O   UNL     1      15.848  54.541  31.145  1.00  0.00    -0.451 OA
ENDROOT
BRANCH   1  12
ATOM     12  C   UNL     1      14.632  52.502  30.731  1.00  0.00     0.063 A 
ATOM     13  C   UNL     1      14.480  50.141  31.289  1.00  0.00     0.047 A 
ATOM     14  C   UNL     1      14.536  51.478  31.687  1.00  0.00     0.020 A 
ATOM     15  C   UNL     1      14.505  49.809  29.932  1.00  0.00     0.119 A 
ATOM     16  C   UNL     1      14.577  50.823  28.969  1.00  0.00     0.093 A 
ATOM     17  C   UNL     1      14.628  52.170  29.360  1.00  0.00     0.130 A 
BRANCH  15  18
ATOM     18  O   UNL     1      14.454  48.469  29.551  1.00  0.00    -0.508 OA
ATOM     19  H   UNL     1      15.226  47.837  29.730  1.00  0.00     0.293 HD
ENDBRANCH  15  18
BRANCH  17  20
ATOM     20  O   UNL     1      14.649  53.173  28.391  1.00  0.00    -0.507 OA
ATOM     21  H   UNL     1      15.520  53.567  28.052  1.00  0.00     0.293 HD
ENDBRANCH  17  20
ENDBRANCH   1  12
BRANCH   2  22
ATOM     22  O   UNL     1      12.290  53.944  31.586  1.00  0.00    -0.502 OA
ATOM     23  H   UNL     1      11.710  53.837  32.409  1.00  0.00     0.293 HD
ENDBRANCH   2  22
BRANCH   6  24
ATOM     24  O   UNL     1      14.201  58.663  33.167  1.00  0.00    -0.507 OA
ATOM     25  H   UNL     1      13.207  58.603  33.005  1.00  0.00     0.293 HD
ENDBRANCH   6  24
BRANCH   8  26
ATOM     26  O   UNL     1      18.742  58.285  31.706  1.00  0.00    -0.508 OA
ATOM     27  H   UNL     1      19.567  57.734  31.497  1.00  0.00     0.293 HD
ENDBRANCH   8  26
TORSDOF 6
ENDMDL
MODEL 5
REMARK VINA RESULT:    -4.717      3.516      5.990
REMARK INTER + INTRA:          -6.094
REMARK INTER:                  -5.780
REMARK INTRA:                  -0.314
REMARK UNBOUND:                -0.412
REMARK SMILES O=c1c(O)c(-c2ccc(O)cc2O)oc2cc(O)cc(O)c12
REMARK SMILES IDX 5 1 3 2 2 3 1 4 22 5 20 6 19 7 17 8 16 9 15 10 14 11 6 12
REMARK SMILES IDX 8 13 7 14 9 15 11 16 12 17 10 18 13 20 4 22 21 24 18 26
REMARK H PARENT 10 19 13 21 4 23 21 25 18 27
REMARK Flexibility Score: inf
ROOT
ATOM      1  C   UNL     1      14.997  51.130  31.170  1.00  0.00     0.184 A 
ATOM      2  C   UNL     1      15.131  52.054  30.120  1.00  0.00     0.208 A 
ATOM      3  C   UNL     1      15.181  53.424  30.421  1.00  0.00     0.238 A 
ATOM      4  O   UNL     1      15.356  54.243  29.481  1.00  0.00    -0.285 OA
ATOM      5  C   UNL     1      15.080  53.852  31.767  1.00  0.00     0.111 A 
ATOM      6  C   UNL     1      15.078  55.218  32.184  1.00  0.00     0.134 A 
ATOM      7  C   UNL     1      15.103  55.522  33.551  1.00  0.00     0.093 A 
ATOM      8  C   UNL     1      15.064  54.515  34.514  1.00  0.00     0.123 A 
ATOM      9  C   UNL     1      15.006  53.178  34.117  1.00  0.00     0.094 A 
ATOM     10  C   UNL     1      15.016  52.842  32.761  1.00  0.00     0.146 A 
ATOM     11  O   UNL     1      14.970  51.557  32.426  1.00  0.00    -0.451 OA
ENDROOT
BRANCH   1  12
ATOM     12  C   UNL     1      14.921  49.676  30.920  1.00  0.00     0.063 A 
ATOM     13  C   UNL     1      13.593  47.641  30.885  1.00  0.00     0.047 A 
ATOM     14  C   UNL     1      13.699  49.014  31.117  1.00  0.00     0.020 A 
ATOM     15  C   UNL     1      14.700  46.914  30.440  1.00  0.00     0.119 A 
ATOM     16  C   UNL     1      15.918  47.569  30.218  1.00  0.00     0.093 A 
ATOM     17  C   UNL     1      16.033  48.949  30.444  1.00  0.00     0.130 A 
BRANCH  15  18
ATOM     18  O   UNL     1      14.579  45.544  30.218  1.00  0.00    -0.508 OA
ATOM     19  H   UNL     1      14.813  44.868  30.936  1.00  0.00     0.293 HD
ENDBRANCH  15  18
BRANCH  17  20
ATOM     20  O   UNL     1      17.237  49.599  30.172  1.00  0.00    -0.507 OA
ATOM     21  H   UNL     1      18.096  49.084  30.015  1.00  0.00     0.293 HD
ENDBRANCH  17  20
ENDBRANCH   1  12
BRANCH   2  22
ATOM     22  O   UNL     1      15.247  51.601  28.803  1.00  0.00    -0.502 OA
ATOM     23  H   UNL     1      14.442  51.358  28.240  1.00  0.00     0.293 HD
ENDBRANCH   2  22
BRANCH   6  24
ATOM     24  O   UNL     1      15.024  56.303  31.305  1.00  0.00    -0.507 OA
ATOM     25  H   UNL     1      14.634  57.205  31.529  1.00  0.00     0.293 HD
ENDBRANCH   6  24
BRANCH   8  26
ATOM     26  O   UNL     1      15.074  54.855  35.865  1.00  0.00    -0.508 OA
ATOM     27  H   UNL     1      15.942  54.948  36.381  1.00  0.00     0.293 HD
ENDBRANCH   8  26
TORSDOF 6
ENDMDL
MODEL 6
REMARK VINA RESULT:    -4.685      5.411      8.076
REMARK INTER + INTRA:          -6.055
REMARK INTER:                  -5.697
REMARK INTRA:                  -0.358
REMARK UNBOUND:                -0.412
REMARK SMILES O=c1c(O)c(-c2ccc(O)cc2O)oc2cc(O)cc(O)c12
REMARK SMILES IDX 5 1 3 2 2 3 1 4 22 5 20 6 19 7 17 8 16 9 15 10 14 11 6 12
REMARK SMILES IDX 8 13 7 14 9 15 11 16 12 17 10 18 13 20 4 22 21 24 18 26
REMARK H PARENT 10 19 13 21 4 23 21 25 18 27
REMARK Flexibility Score: inf
ROOT
ATOM      1  C   UNL     1      15.680  55.088  31.153  1.00  0.00     0.184 A 
ATOM      2  C   UNL     1      15.368  53.956  31.923  1.00  0.00     0.208 A 
ATOM      3  C   UNL     1      15.106  52.740  31.271  1.00  0.00     0.238 A 
ATOM      4  O   UNL     1      14.880  51.717  31.968  1.00  0.00    -0.285 OA
ATOM      5  C   UNL     1      15.146  52.678  29.856  1.00  0.00     0.111 A 
ATOM      6  C   UNL     1      14.859  51.509  29.089  1.00  0.00     0.134 A 
ATOM      7  C   UNL     1      15.055  51.529  27.702  1.00  0.00     0.093 A 
ATOM      8  C   UNL     1      15.463  52.690  27.049  1.00  0.00     0.123 A 
ATOM      9  C   UNL     1      15.690  53.855  27.782  1.00  0.00     0.094 A 
ATOM     10  C   UNL     1      15.538  53.858  29.171  1.00  0.00     0.146 A 
ATOM     11  O   UNL     1      15.774  54.985  29.833  1.00  0.00    -0.451 OA
ENDROOT
BRANCH   1  12
ATOM     12  C   UNL     1      15.949  56.401  31.776  1.00  0.00     0.063 A 
ATOM     13  C   UNL     1      15.160  58.256  33.134  1.00  0.00     0.047 A 
ATOM     14  C   UNL     1      14.936  57.018  32.527  1.00  0.00     0.020 A 
ATOM     15  C   UNL     1      16.400  58.887  33.009  1.00  0.00     0.119 A 
ATOM     16  C   UNL     1      17.425  58.269  32.282  1.00  0.00     0.093 A 
ATOM     17  C   UNL     1      17.211  57.023  31.674  1.00  0.00     0.130 A 
BRANCH  15  18
ATOM     18  O   UNL     1      16.606  60.124  33.616  1.00  0.00    -0.508 OA
ATOM     19  H   UNL     1      17.391  60.714  33.364  1.00  0.00     0.293 HD
ENDBRANCH  15  18
BRANCH  17  20
ATOM     20  O   UNL     1      18.254  56.394  30.993  1.00  0.00    -0.507 OA
ATOM     21  H   UNL     1      18.222  55.407  30.766  1.00  0.00     0.293 HD
ENDBRANCH  17  20
ENDBRANCH   1  12
BRANCH   2  22
ATOM     22  O   UNL     1      15.354  54.042  33.318  1.00  0.00    -0.502 OA
ATOM     23  H   UNL     1      15.302  54.927  33.806  1.00  0.00     0.293 HD
ENDBRANCH   2  22
BRANCH   6  24
ATOM     24  O   UNL     1      14.357  50.323  29.631  1.00  0.00    -0.507 OA
ATOM     25  H   UNL     1      14.834  49.434  29.610  1.00  0.00     0.293 HD
ENDBRANCH   6  24
BRANCH   8  26
ATOM     26  O   UNL     1      15.633  52.677  25.666  1.00  0.00    -0.508 OA
ATOM     27  H   UNL     1      16.554  52.637  25.245  1.00  0.00     0.293 HD
ENDBRANCH   8  26
TORSDOF 6
ENDMDL
MODEL 7
REMARK VINA RESULT:    -4.669      6.509      7.699
REMARK INTER + INTRA:          -6.036
REMARK INTER:                  -5.662
REMARK INTRA:                  -0.375
REMARK UNBOUND:                -0.412
REMARK SMILES O=c1c(O)c(-c2ccc(O)cc2O)oc2cc(O)cc(O)c12
REMARK SMILES IDX 5 1 3 2 2 3 1 4 22 5 20 6 19 7 17 8 16 9 15 10 14 11 6 12
REMARK SMILES IDX 8 13 7 14 9 15 11 16 12 17 10 18 13 20 4 22 21 24 18 26
REMARK H PARENT 10 19 13 21 4 23 21 25 18 27
REMARK Flexibility Score: inf
ROOT
ATOM      1  C   UNL     1      14.862  55.722  32.148  1.00  0.00     0.184 A 
ATOM      2  C   UNL     1      15.369  57.029  32.233  1.00  0.00     0.208 A 
ATOM      3  C   UNL     1      15.658  57.725  31.049  1.00  0.00     0.238 A 
ATOM      4  O   UNL     1      16.061  58.915  31.130  1.00  0.00    -0.285 OA
ATOM      5  C   UNL     1      15.449  57.099  29.796  1.00  0.00     0.111 A 
ATOM      6  C   UNL     1      15.744  57.696  28.533  1.00  0.00     0.134 A 
ATOM      7  C   UNL     1      15.377  57.035  27.354  1.00  0.00     0.093 A 
ATOM      8  C   UNL     1      14.786  55.773  27.391  1.00  0.00     0.123 A 
ATOM      9  C   UNL     1      14.546  55.154  28.618  1.00  0.00     0.094 A 
ATOM     10  C   UNL     1      14.869  55.804  29.813  1.00  0.00     0.146 A 
ATOM     11  O   UNL     1      14.615  55.185  30.960  1.00  0.00    -0.451 OA
ENDROOT
BRANCH   1  12
ATOM     12  C   UNL     1      14.554  54.928  33.356  1.00  0.00     0.063 A 
ATOM     13  C   UNL     1      13.176  54.604  35.331  1.00  0.00     0.047 A 
ATOM     14  C   UNL     1      13.497  55.334  34.186  1.00  0.00     0.020 A 
ATOM     15  C   UNL     1      13.896  53.451  35.656  1.00  0.00     0.119 A 
ATOM     16  C   UNL     1      14.937  53.024  34.822  1.00  0.00     0.093 A 
ATOM     17  C   UNL     1      15.263  53.749  33.666  1.00  0.00     0.130 A 
BRANCH  15  18
ATOM     18  O   UNL     1      13.567  52.735  36.805  1.00  0.00    -0.508 OA
ATOM     19  H   UNL     1      14.182  52.713  37.610  1.00  0.00     0.293 HD
ENDBRANCH  15  18
BRANCH  17  20
ATOM     20  O   UNL     1      16.269  53.287  32.817  1.00  0.00    -0.507 OA
ATOM     21  H   UNL     1      16.083  52.598  32.097  1.00  0.00     0.293 HD
ENDBRANCH  17  20
ENDBRANCH   1  12
BRANCH   2  22
ATOM     22  O   UNL     1      15.548  57.629  33.483  1.00  0.00    -0.502 OA
ATOM     23  H   UNL     1      15.638  57.090  34.335  1.00  0.00     0.293 HD
ENDBRANCH   2  22
BRANCH   6  24
ATOM     24  O   UNL     1      16.416  58.912  28.382  1.00  0.00    -0.507 OA
ATOM     25  H   UNL     1      16.187  59.614  27.694  1.00  0.00     0.293 HD
ENDBRANCH   6  24
BRANCH   8  26
ATOM     26  O   UNL     1      14.448  55.137  26.198  1.00  0.00    -0.508 OA
ATOM     27  H   UNL     1      14.371  54.128  26.138  1.00  0.00     0.293 HD
ENDBRANCH   8  26
TORSDOF 6
ENDMDL
MODEL 8
REMARK VINA RESULT:    -4.657      1.553      3.237
REMARK INTER + INTRA:          -6.022
REMARK INTER:                  -5.614
REMARK INTRA:                  -0.407
REMARK UNBOUND:                -0.412
REMARK SMILES O=c1c(O)c(-c2ccc(O)cc2O)oc2cc(O)cc(O)c12
REMARK SMILES IDX 5 1 3 2 2 3 1 4 22 5 20 6 19 7 17 8 16 9 15 10 14 11 6 12
REMARK SMILES IDX 8 13 7 14 9 15 11 16 12 17 10 18 13 20 4 22 21 24 18 26
REMARK H PARENT 10 19 13 21 4 23 21 25 18 27
REMARK Flexibility Score: inf
ROOT
ATOM      1  C   UNL     1      15.677  47.457  30.248  1.00  0.00     0.184 A 
ATOM      2  C   UNL     1      16.358  46.582  29.386  1.00  0.00     0.208 A 
ATOM      3  C   UNL     1      16.975  47.101  28.237  1.00  0.00     0.238 A 
ATOM      4  O   UNL     1      17.629  46.320  27.497  1.00  0.00    -0.285 OA
ATOM      5  C   UNL     1      16.888  48.486  27.957  1.00  0.00     0.111 A 
ATOM      6  C   UNL     1      17.441  49.115  26.800  1.00  0.00     0.134 A 
ATOM      7  C   UNL     1      17.407  50.510  26.691  1.00  0.00     0.093 A 
ATOM      8  C   UNL     1      16.784  51.294  27.661  1.00  0.00     0.123 A 
ATOM      9  C   UNL     1      16.189  50.686  28.766  1.00  0.00     0.094 A 
ATOM     10  C   UNL     1      16.237  49.298  28.922  1.00  0.00     0.146 A 
ATOM     11  O   UNL     1      15.668  48.760  29.994  1.00  0.00    -0.451 OA
ENDROOT
BRANCH   1  12
ATOM     12  C   UNL     1      14.993  46.973  31.465  1.00  0.00     0.063 A 
ATOM     13  C   UNL     1      15.034  46.622  33.869  1.00  0.00     0.047 A 
ATOM     14  C   UNL     1      15.654  47.064  32.700  1.00  0.00     0.020 A 
ATOM     15  C   UNL     1      13.740  46.096  33.824  1.00  0.00     0.119 A 
ATOM     16  C   UNL     1      13.061  46.022  32.601  1.00  0.00     0.093 A 
ATOM     17  C   UNL     1      13.676  46.470  31.421  1.00  0.00     0.130 A 
BRANCH  15  18
ATOM     18  O   UNL     1      13.136  45.654  34.999  1.00  0.00    -0.508 OA
ATOM     19  H   UNL     1      12.411  46.194  35.459  1.00  0.00     0.293 HD
ENDBRANCH  15  18
BRANCH  17  20
ATOM     20  O   UNL     1      12.972  46.437  30.217  1.00  0.00    -0.507 OA
ATOM     21  H   UNL     1      12.787  47.280  29.687  1.00  0.00     0.293 HD
ENDBRANCH  17  20
ENDBRANCH   1  12
BRANCH   2  22
ATOM     22  O   UNL     1      16.443  45.222  29.697  1.00  0.00    -0.502 OA
ATOM     23  H   UNL     1      15.936  44.810  30.470  1.00  0.00     0.293 HD
ENDBRANCH   2  22
BRANCH   6  24
ATOM     24  O   UNL     1      18.004  48.418  25.727  1.00  0.00    -0.507 OA
ATOM     25  H   UNL     1      18.525  48.844  24.976  1.00  0.00     0.293 HD
ENDBRANCH   6  24
BRANCH   8  26
ATOM     26  O   UNL     1      16.755  52.679  27.511  1.00  0.00    -0.508 OA
ATOM     27  H   UNL     1      17.609  53.224  27.458  1.00  0.00     0.293 HD
ENDBRANCH   8  26
TORSDOF 6
ENDMDL
MODEL 9
REMARK VINA RESULT:    -4.599      3.772      5.380
REMARK INTER + INTRA:          -5.952
REMARK INTER:                  -5.623
REMARK INTRA:                  -0.328
REMARK UNBOUND:                -0.412
REMARK SMILES O=c1c(O)c(-c2ccc(O)cc2O)oc2cc(O)cc(O)c12
REMARK SMILES IDX 5 1 3 2 2 3 1 4 22 5 20 6 19 7 17 8 16 9 15 10 14 11 6 12
REMARK SMILES IDX 8 13 7 14 9 15 11 16 12 17 10 18 13 20 4 22 21 24 18 26
REMARK H PARENT 10 19 13 21 4 23 21 25 18 27
REMARK Flexibility Score: inf
ROOT
ATOM      1  C   UNL     1      14.872  52.709  31.801  1.00  0.00     0.184 A 
ATOM      2  C   UNL     1      14.986  53.528  30.666  1.00  0.00     0.208 A 
ATOM      3  C   UNL     1      15.386  52.953  29.450  1.00  0.00     0.238 A 
ATOM      4  O   UNL     1      15.435  53.682  28.424  1.00  0.00    -0.285 OA
ATOM      5  C   UNL     1      15.682  51.570  29.389  1.00  0.00     0.111 A 
ATOM      6  C   UNL     1      16.134  50.889  28.218  1.00  0.00     0.134 A 
ATOM      7  C   UNL     1      16.271  49.495  28.241  1.00  0.00     0.093 A 
ATOM      8  C   UNL     1      16.036  48.767  29.406  1.00  0.00     0.123 A 
ATOM      9  C   UNL     1      15.650  49.428  30.571  1.00  0.00     0.094 A 
ATOM     10  C   UNL     1      15.470  50.814  30.572  1.00  0.00     0.146 A 
ATOM     11  O   UNL     1      15.092  51.405  31.700  1.00  0.00    -0.451 OA
ENDROOT
BRANCH   1  12
ATOM     12  C   UNL     1      14.473  53.254  33.116  1.00  0.00     0.063 A 
ATOM     13  C   UNL     1      15.096  53.887  35.378  1.00  0.00     0.047 A 
ATOM     14  C   UNL     1      15.439  53.370  34.127  1.00  0.00     0.020 A 
ATOM     15  C   UNL     1      13.787  54.306  35.631  1.00  0.00     0.119 A 
ATOM     16  C   UNL     1      12.820  54.216  34.622  1.00  0.00     0.093 A 
ATOM     17  C   UNL     1      13.158  53.704  33.360  1.00  0.00     0.130 A 
BRANCH  15  18
ATOM     18  O   UNL     1      13.459  54.814  36.887  1.00  0.00    -0.508 OA
ATOM     19  H   UNL     1      12.855  55.621  36.990  1.00  0.00     0.293 HD
ENDBRANCH  15  18
BRANCH  17  20
ATOM     20  O   UNL     1      12.199  53.665  32.348  1.00  0.00    -0.507 OA
ATOM     21  H   UNL     1      11.279  54.071  32.471  1.00  0.00     0.293 HD
ENDBRANCH  17  20
ENDBRANCH   1  12
BRANCH   2  22
ATOM     22  O   UNL     1      14.671  54.887  30.751  1.00  0.00    -0.502 OA
ATOM     23  H   UNL     1      13.830  55.275  30.342  1.00  0.00     0.293 HD
ENDBRANCH   2  22
BRANCH   6  24
ATOM     24  O   UNL     1      16.486  51.531  27.028  1.00  0.00    -0.507 OA
ATOM     25  H   UNL     1      16.570  52.530  26.918  1.00  0.00     0.293 HD
ENDBRANCH   6  24
BRANCH   8  26
ATOM     26  O   UNL     1      16.198  47.383  29.395  1.00  0.00    -0.508 OA
ATOM     27  H   UNL     1      16.874  46.933  28.787  1.00  0.00     0.293 HD
ENDBRANCH   8  26
TORSDOF 6
ENDMDL
