MODEL 1
REMARK VINA RESULT:    -6.758      0.000      0.000
REMARK INTER + INTRA:          -8.235
REMARK INTER:                  -7.944
REMARK INTRA:                  -0.291
REMARK UNBOUND:                -0.291
REMARK SMILES O=c1c(O)c(-c2ccc(O)c(O)c2)oc2cc(O)ccc12
REMARK SMILES IDX 5 1 3 2 2 3 1 4 21 5 15 6 14 7 16 8 17 9 19 10 20 11 6 12
REMARK SMILES IDX 7 13 8 14 9 15 13 16 11 17 10 18 12 20 4 22 18 24
REMARK H PARENT 10 19 12 21 4 23 18 25
REMARK Flexibility Score: inf
ROOT
ATOM      1  C   UNL     1      22.983  33.538   6.751  1.00  0.00     0.180 A 
ATOM      2  C   UNL     1      23.100  34.228   5.527  1.00  0.00     0.208 A 
ATOM      3  C   UNL     1      22.133  35.190   5.196  1.00  0.00     0.235 A 
ATOM      4  O   UNL     1      22.211  35.813   4.102  1.00  0.00    -0.285 OA
ATOM      5  C   UNL     1      21.089  35.456   6.097  1.00  0.00     0.069 A 
ATOM      6  C   UNL     1      21.055  34.739   7.313  1.00  0.00     0.142 A 
ATOM      7  O   UNL     1      21.985  33.830   7.583  1.00  0.00    -0.452 OA
ATOM      8  C   UNL     1      20.035  34.982   8.240  1.00  0.00     0.094 A 
ATOM      9  C   UNL     1      19.046  35.933   7.968  1.00  0.00     0.119 A 
ATOM     10  C   UNL     1      19.076  36.644   6.760  1.00  0.00     0.047 A 
ATOM     11  C   UNL     1      20.091  36.410   5.828  1.00  0.00     0.020 A 
ENDROOT
BRANCH   1  12
ATOM     12  C   UNL     1      23.951  32.497   7.162  1.00  0.00     0.025 A 
ATOM     13  C   UNL     1      25.165  32.879   7.757  1.00  0.00     0.016 A 
ATOM     14  C   UNL     1      26.085  31.913   8.171  1.00  0.00     0.051 A 
ATOM     15  C   UNL     1      25.802  30.553   8.014  1.00  0.00     0.157 A 
ATOM     16  C   UNL     1      23.659  31.128   7.024  1.00  0.00     0.062 A 
ATOM     17  C   UNL     1      24.581  30.156   7.442  1.00  0.00     0.158 A 
BRANCH  15  18
ATOM     18  O   UNL     1      26.740  29.611   8.435  1.00  0.00    -0.504 OA
ATOM     19  H   UNL     1      26.595  29.038   9.258  1.00  0.00     0.293 HD
ENDBRANCH  15  18
BRANCH  17  20
ATOM     20  O   UNL     1      24.286  28.801   7.295  1.00  0.00    -0.504 OA
ATOM     21  H   UNL     1      24.324  28.345   6.391  1.00  0.00     0.293 HD
ENDBRANCH  17  20
ENDBRANCH   1  12
BRANCH   2  22
ATOM     22  O   UNL     1      24.178  33.977   4.673  1.00  0.00    -0.502 OA
ATOM     23  H   UNL     1      24.069  33.905   3.669  1.00  0.00     0.293 HD
ENDBRANCH   2  22
BRANCH   9  24
ATOM     24  O   UNL     1      18.039  36.162   8.902  1.00  0.00    -0.508 OA
ATOM     25  H   UNL     1      17.897  35.541   9.691  1.00  0.00     0.293 HD
ENDBRANCH   9  24
TORSDOF 5
ENDMDL
MODEL 2
REMARK VINA RESULT:    -6.471      1.865      6.592
REMARK INTER + INTRA:          -7.897
REMARK INTER:                  -7.651
REMARK INTRA:                  -0.246
REMARK UNBOUND:                -0.291
REMARK SMILES O=c1c(O)c(-c2ccc(O)c(O)c2)oc2cc(O)ccc12
REMARK SMILES IDX 5 1 3 2 2 3 1 4 21 5 15 6 14 7 16 8 17 9 19 10 20 11 6 12
REMARK SMILES IDX 7 13 8 14 9 15 13 16 11 17 10 18 12 20 4 22 18 24
REMARK H PARENT 10 19 12 21 4 23 18 25
REMARK Flexibility Score: inf
ROOT
ATOM      1  C   UNL     1      22.301  33.891   5.895  1.00  0.00     0.180 A 
ATOM      2  C   UNL     1      22.607  33.181   4.716  1.00  0.00     0.208 A 
ATOM      3  C   UNL     1      23.770  32.397   4.680  1.00  0.00     0.235 A 
ATOM      4  O   UNL     1      24.070  31.760   3.633  1.00  0.00    -0.285 OA
ATOM      5  C   UNL     1      24.586  32.321   5.821  1.00  0.00     0.069 A 
ATOM      6  C   UNL     1      24.198  33.043   6.970  1.00  0.00     0.142 A 
ATOM      7  O   UNL     1      23.094  33.781   6.959  1.00  0.00    -0.452 OA
ATOM      8  C   UNL     1      24.980  32.985   8.129  1.00  0.00     0.094 A 
ATOM      9  C   UNL     1      26.148  32.216   8.155  1.00  0.00     0.119 A 
ATOM     10  C   UNL     1      26.537  31.499   7.014  1.00  0.00     0.047 A 
ATOM     11  C   UNL     1      25.761  31.549   5.852  1.00  0.00     0.020 A 
ENDROOT
BRANCH   1  12
ATOM     12  C   UNL     1      21.103  34.754   6.005  1.00  0.00     0.025 A 
ATOM     13  C   UNL     1      21.084  35.995   5.348  1.00  0.00     0.016 A 
ATOM     14  C   UNL     1      19.957  36.817   5.420  1.00  0.00     0.051 A 
ATOM     15  C   UNL     1      18.827  36.407   6.135  1.00  0.00     0.157 A 
ATOM     16  C   UNL     1      19.958  34.334   6.706  1.00  0.00     0.062 A 
ATOM     17  C   UNL     1      18.824  35.157   6.778  1.00  0.00     0.158 A 
BRANCH  15  18
ATOM     18  O   UNL     1      17.718  37.249   6.192  1.00  0.00    -0.504 OA
ATOM     19  H   UNL     1      17.694  38.069   6.786  1.00  0.00     0.293 HD
ENDBRANCH  15  18
BRANCH  17  20
ATOM     20  O   UNL     1      17.696  34.736   7.481  1.00  0.00    -0.504 OA
ATOM     21  H   UNL     1      16.769  34.787   7.076  1.00  0.00     0.293 HD
ENDBRANCH  17  20
ENDBRANCH   1  12
BRANCH   2  22
ATOM     22  O   UNL     1      21.749  33.237   3.614  1.00  0.00    -0.502 OA
ATOM     23  H   UNL     1      20.930  32.647   3.535  1.00  0.00     0.293 HD
ENDBRANCH   2  22
BRANCH   9  24
ATOM     24  O   UNL     1      26.915  32.170   9.317  1.00  0.00    -0.508 OA
ATOM     25  H   UNL     1      26.485  32.170  10.235  1.00  0.00     0.293 HD
ENDBRANCH   9  24
TORSDOF 5
ENDMDL
MODEL 3
REMARK VINA RESULT:    -6.026      2.140      6.957
REMARK INTER + INTRA:          -7.375
REMARK INTER:                  -7.072
REMARK INTRA:                  -0.303
REMARK UNBOUND:                -0.291
REMARK SMILES O=c1c(O)c(-c2ccc(O)c(O)c2)oc2cc(O)ccc12
REMARK SMILES IDX 5 1 3 2 2 3 1 4 21 5 15 6 14 7 16 8 17 9 19 10 20 11 6 12
REMARK SMILES IDX 7 13 8 14 9 15 13 16 11 17 10 18 12 20 4 22 18 24
REMARK H PARENT 10 19 12 21 4 23 18 25
REMARK Flexibility Score: inf
ROOT
ATOM      1  C   UNL     1      22.766  33.249   6.035  1.00  0.00     0.180 A 
ATOM      2  C   UNL     1      23.597  32.987   7.144  1.00  0.00     0.208 A 
ATOM      3  C   UNL     1      24.266  31.755   7.211  1.00  0.00     0.235 A 
ATOM      4  O   UNL     1      25.007  31.493   8.198  1.00  0.00    -0.285 OA
ATOM      5  C   UNL     1      24.109  30.827   6.169  1.00  0.00     0.069 A 
ATOM      6  C   UNL     1      23.278  31.175   5.083  1.00  0.00     0.142 A 
ATOM      7  O   UNL     1      22.655  32.348   5.062  1.00  0.00    -0.452 OA
ATOM      8  C   UNL     1      23.104  30.280   4.021  1.00  0.00     0.094 A 
ATOM      9  C   UNL     1      23.749  29.040   4.030  1.00  0.00     0.119 A 
ATOM     10  C   UNL     1      24.573  28.690   5.109  1.00  0.00     0.047 A 
ATOM     11  C   UNL     1      24.755  29.578   6.173  1.00  0.00     0.020 A 
ENDROOT
BRANCH   1  12
ATOM     12  C   UNL     1      22.012  34.517   5.901  1.00  0.00     0.025 A 
ATOM     13  C   UNL     1      22.481  35.509   5.026  1.00  0.00     0.016 A 
ATOM     14  C   UNL     1      21.775  36.705   4.867  1.00  0.00     0.051 A 
ATOM     15  C   UNL     1      20.584  36.921   5.567  1.00  0.00     0.157 A 
ATOM     16  C   UNL     1      20.802  34.727   6.588  1.00  0.00     0.062 A 
ATOM     17  C   UNL     1      20.091  35.926   6.429  1.00  0.00     0.158 A 
BRANCH  15  18
ATOM     18  O   UNL     1      19.903  38.124   5.390  1.00  0.00    -0.504 OA
ATOM     19  H   UNL     1      19.964  38.656   4.531  1.00  0.00     0.293 HD
ENDBRANCH  15  18
BRANCH  17  20
ATOM     20  O   UNL     1      18.897  36.128   7.119  1.00  0.00    -0.504 OA
ATOM     21  H   UNL     1      18.154  35.439   7.108  1.00  0.00     0.293 HD
ENDBRANCH  17  20
ENDBRANCH   1  12
BRANCH   2  22
ATOM     22  O   UNL     1      23.773  33.950   8.141  1.00  0.00    -0.502 OA
ATOM     23  H   UNL     1      24.576  34.566   8.164  1.00  0.00     0.293 HD
ENDBRANCH   2  22
BRANCH   9  24
ATOM     24  O   UNL     1      23.563  28.161   2.965  1.00  0.00    -0.508 OA
ATOM     25  H   UNL     1      22.977  28.404   2.174  1.00  0.00     0.293 HD
ENDBRANCH   9  24
TORSDOF 5
ENDMDL
MODEL 4
REMARK VINA RESULT:    -5.547      2.639      3.354
REMARK INTER + INTRA:          -6.811
REMARK INTER:                  -6.618
REMARK INTRA:                  -0.193
REMARK UNBOUND:                -0.291
REMARK SMILES O=c1c(O)c(-c2ccc(O)c(O)c2)oc2cc(O)ccc12
REMARK SMILES IDX 5 1 3 2 2 3 1 4 21 5 15 6 14 7 16 8 17 9 19 10 20 11 6 12
REMARK SMILES IDX 7 13 8 14 9 15 13 16 11 17 10 18 12 20 4 22 18 24
REMARK H PARENT 10 19 12 21 4 23 18 25
REMARK Flexibility Score: inf
ROOT
ATOM      1  C   UNL     1      22.436  33.975   6.055  1.00  0.00     0.180 A 
ATOM      2  C   UNL     1      22.303  33.811   7.449  1.00  0.00     0.208 A 
ATOM      3  C   UNL     1      21.181  34.360   8.090  1.00  0.00     0.235 A 
ATOM      4  O   UNL     1      21.045  34.235   9.339  1.00  0.00    -0.285 OA
ATOM      5  C   UNL     1      20.213  35.036   7.330  1.00  0.00     0.069 A 
ATOM      6  C   UNL     1      20.408  35.136   5.936  1.00  0.00     0.142 A 
ATOM      7  O   UNL     1      21.488  34.610   5.368  1.00  0.00    -0.452 OA
ATOM      8  C   UNL     1      19.461  35.794   5.143  1.00  0.00     0.094 A 
ATOM      9  C   UNL     1      18.321  36.356   5.726  1.00  0.00     0.119 A 
ATOM     10  C   UNL     1      18.126  36.260   7.111  1.00  0.00     0.047 A 
ATOM     11  C   UNL     1      19.065  35.603   7.911  1.00  0.00     0.020 A 
ENDROOT
BRANCH   1  12
ATOM     12  C   UNL     1      23.598  33.442   5.308  1.00  0.00     0.025 A 
ATOM     13  C   UNL     1      24.870  33.998   5.523  1.00  0.00     0.016 A 
ATOM     14  C   UNL     1      25.985  33.498   4.846  1.00  0.00     0.051 A 
ATOM     15  C   UNL     1      25.850  32.427   3.956  1.00  0.00     0.157 A 
ATOM     16  C   UNL     1      23.468  32.351   4.430  1.00  0.00     0.062 A 
ATOM     17  C   UNL     1      24.587  31.847   3.749  1.00  0.00     0.158 A 
BRANCH  15  18
ATOM     18  O   UNL     1      26.980  31.950   3.293  1.00  0.00    -0.504 OA
ATOM     19  H   UNL     1      27.479  31.126   3.605  1.00  0.00     0.293 HD
ENDBRANCH  15  18
BRANCH  17  20
ATOM     20  O   UNL     1      24.448  30.769   2.875  1.00  0.00    -0.504 OA
ATOM     21  H   UNL     1      25.010  30.691   2.036  1.00  0.00     0.293 HD
ENDBRANCH  17  20
ENDBRANCH   1  12
BRANCH   2  22
ATOM     22  O   UNL     1      23.257  33.090   8.171  1.00  0.00    -0.502 OA
ATOM     23  H   UNL     1      23.084  32.154   8.514  1.00  0.00     0.293 HD
ENDBRANCH   2  22
BRANCH   9  24
ATOM     24  O   UNL     1      17.389  37.008   4.921  1.00  0.00    -0.508 OA
ATOM     25  H   UNL     1      16.697  37.636   5.315  1.00  0.00     0.293 HD
ENDBRANCH   9  24
TORSDOF 5
ENDMDL
MODEL 5
REMARK VINA RESULT:    -5.304      1.952      2.652
REMARK INTER + INTRA:          -6.526
REMARK INTER:                  -6.353
REMARK INTRA:                  -0.172
REMARK UNBOUND:                -0.291
REMARK SMILES O=c1c(O)c(-c2ccc(O)c(O)c2)oc2cc(O)ccc12
REMARK SMILES IDX 5 1 3 2 2 3 1 4 21 5 15 6 14 7 16 8 17 9 19 10 20 11 6 12
REMARK SMILES IDX 7 13 8 14 9 15 13 16 11 17 10 18 12 20 4 22 18 24
REMARK H PARENT 10 19 12 21 4 23 18 25
REMARK Flexibility Score: inf
ROOT
ATOM      1  C   UNL     1      21.975  34.622   5.888  1.00  0.00     0.180 A 
ATOM      2  C   UNL     1      21.721  35.777   5.120  1.00  0.00     0.208 A 
ATOM      3  C   UNL     1      20.646  36.605   5.479  1.00  0.00     0.235 A 
ATOM      4  O   UNL     1      20.392  37.638   4.801  1.00  0.00    -0.285 OA
ATOM      5  C   UNL     1      19.867  36.277   6.601  1.00  0.00     0.069 A 
ATOM      6  C   UNL     1      20.202  35.117   7.332  1.00  0.00     0.142 A 
ATOM      7  O   UNL     1      21.222  34.355   6.953  1.00  0.00    -0.452 OA
ATOM      8  C   UNL     1      19.455  34.762   8.461  1.00  0.00     0.094 A 
ATOM      9  C   UNL     1      18.376  35.552   8.870  1.00  0.00     0.119 A 
ATOM     10  C   UNL     1      18.040  36.704   8.145  1.00  0.00     0.047 A 
ATOM     11  C   UNL     1      18.780  37.067   7.017  1.00  0.00     0.020 A 
ENDROOT
BRANCH   1  12
ATOM     12  C   UNL     1      23.077  33.689   5.563  1.00  0.00     0.025 A 
ATOM     13  C   UNL     1      23.033  32.960   4.364  1.00  0.00     0.016 A 
ATOM     14  C   UNL     1      24.072  32.088   4.026  1.00  0.00     0.051 A 
ATOM     15  C   UNL     1      25.177  31.944   4.871  1.00  0.00     0.157 A 
ATOM     16  C   UNL     1      24.200  33.559   6.401  1.00  0.00     0.062 A 
ATOM     17  C   UNL     1      25.245  32.686   6.063  1.00  0.00     0.158 A 
BRANCH  15  18
ATOM     18  O   UNL     1      26.198  31.067   4.509  1.00  0.00    -0.504 OA
ATOM     19  H   UNL     1      27.042  30.967   5.058  1.00  0.00     0.293 HD
ENDBRANCH  15  18
BRANCH  17  20
ATOM     20  O   UNL     1      26.350  32.558   6.903  1.00  0.00    -0.504 OA
ATOM     21  H   UNL     1      26.555  33.245   7.619  1.00  0.00     0.293 HD
ENDBRANCH  17  20
ENDBRANCH   1  12
BRANCH   2  22
ATOM     22  O   UNL     1      22.543  36.103   4.039  1.00  0.00    -0.502 OA
ATOM     23  H   UNL     1      22.323  35.830   3.089  1.00  0.00     0.293 HD
ENDBRANCH   2  22
BRANCH   9  24
ATOM     24  O   UNL     1      17.643  35.183   9.996  1.00  0.00    -0.508 OA
ATOM     25  H   UNL     1      16.678  35.469  10.117  1.00  0.00     0.293 HD
ENDBRANCH   9  24
TORSDOF 5
ENDMDL
MODEL 6
REMARK VINA RESULT:    -5.270      3.215      5.736
REMARK INTER + INTRA:          -6.485
REMARK INTER:                  -6.324
REMARK INTRA:                  -0.161
REMARK UNBOUND:                -0.291
REMARK SMILES O=c1c(O)c(-c2ccc(O)c(O)c2)oc2cc(O)ccc12
REMARK SMILES IDX 5 1 3 2 2 3 1 4 21 5 15 6 14 7 16 8 17 9 19 10 20 11 6 12
REMARK SMILES IDX 7 13 8 14 9 15 13 16 11 17 10 18 12 20 4 22 18 24
REMARK H PARENT 10 19 12 21 4 23 18 25
REMARK Flexibility Score: inf
ROOT
ATOM      1  C   UNL     1      25.064  29.139   6.603  1.00  0.00     0.180 A 
ATOM      2  C   UNL     1      25.841  29.814   7.566  1.00  0.00     0.208 A 
ATOM      3  C   UNL     1      25.782  31.215   7.622  1.00  0.00     0.235 A 
ATOM      4  O   UNL     1      26.476  31.842   8.469  1.00  0.00    -0.285 OA
ATOM      5  C   UNL     1      24.938  31.906   6.737  1.00  0.00     0.069 A 
ATOM      6  C   UNL     1      24.174  31.155   5.819  1.00  0.00     0.142 A 
ATOM      7  O   UNL     1      24.266  29.830   5.792  1.00  0.00    -0.452 OA
ATOM      8  C   UNL     1      23.315  31.807   4.927  1.00  0.00     0.094 A 
ATOM      9  C   UNL     1      23.210  33.201   4.939  1.00  0.00     0.119 A 
ATOM     10  C   UNL     1      23.970  33.950   5.849  1.00  0.00     0.047 A 
ATOM     11  C   UNL     1      24.830  33.308   6.745  1.00  0.00     0.020 A 
ENDROOT
BRANCH   1  12
ATOM     12  C   UNL     1      25.086  27.664   6.468  1.00  0.00     0.025 A 
ATOM     13  C   UNL     1      26.272  27.025   6.074  1.00  0.00     0.016 A 
ATOM     14  C   UNL     1      26.322  25.633   5.960  1.00  0.00     0.051 A 
ATOM     15  C   UNL     1      25.195  24.859   6.253  1.00  0.00     0.157 A 
ATOM     16  C   UNL     1      23.959  26.882   6.783  1.00  0.00     0.062 A 
ATOM     17  C   UNL     1      24.008  25.485   6.671  1.00  0.00     0.158 A 
BRANCH  15  18
ATOM     18  O   UNL     1      25.274  23.473   6.129  1.00  0.00    -0.504 OA
ATOM     19  H   UNL     1      24.463  22.875   6.238  1.00  0.00     0.293 HD
ENDBRANCH  15  18
BRANCH  17  20
ATOM     20  O   UNL     1      22.885  24.718   6.979  1.00  0.00    -0.504 OA
ATOM     21  H   UNL     1      22.468  24.092   6.301  1.00  0.00     0.293 HD
ENDBRANCH  17  20
ENDBRANCH   1  12
BRANCH   2  22
ATOM     22  O   UNL     1      26.633  29.096   8.466  1.00  0.00    -0.502 OA
ATOM     23  H   UNL     1      27.479  29.480   8.870  1.00  0.00     0.293 HD
ENDBRANCH   2  22
BRANCH   9  24
ATOM     24  O   UNL     1      22.350  33.833   4.044  1.00  0.00    -0.508 OA
ATOM     25  H   UNL     1      21.560  33.347   3.636  1.00  0.00     0.293 HD
ENDBRANCH   9  24
TORSDOF 5
ENDMDL
MODEL 7
REMARK VINA RESULT:    -5.256      3.818      7.045
REMARK INTER + INTRA:          -6.468
REMARK INTER:                  -6.314
REMARK INTRA:                  -0.154
REMARK UNBOUND:                -0.291
REMARK SMILES O=c1c(O)c(-c2ccc(O)c(O)c2)oc2cc(O)ccc12
REMARK SMILES IDX 5 1 3 2 2 3 1 4 21 5 15 6 14 7 16 8 17 9 19 10 20 11 6 12
REMARK SMILES IDX 7 13 8 14 9 15 13 16 11 17 10 18 12 20 4 22 18 24
REMARK H PARENT 10 19 12 21 4 23 18 25
REMARK Flexibility Score: inf
ROOT
ATOM      1  C   UNL     1      24.896  27.980   6.589  1.00  0.00     0.180 A 
ATOM      2  C   UNL     1      26.226  27.900   7.049  1.00  0.00     0.208 A 
ATOM      3  C   UNL     1      26.829  29.050   7.581  1.00  0.00     0.235 A 
ATOM      4  O   UNL     1      28.022  29.006   7.990  1.00  0.00    -0.285 OA
ATOM      5  C   UNL     1      26.090  30.242   7.662  1.00  0.00     0.069 A 
ATOM      6  C   UNL     1      24.755  30.233   7.202  1.00  0.00     0.142 A 
ATOM      7  O   UNL     1      24.225  29.126   6.696  1.00  0.00    -0.452 OA
ATOM      8  C   UNL     1      23.984  31.399   7.275  1.00  0.00     0.094 A 
ATOM      9  C   UNL     1      24.529  32.575   7.800  1.00  0.00     0.119 A 
ATOM     10  C   UNL     1      25.855  32.586   8.256  1.00  0.00     0.047 A 
ATOM     11  C   UNL     1      26.633  31.427   8.189  1.00  0.00     0.020 A 
ENDROOT
BRANCH   1  12
ATOM     12  C   UNL     1      24.197  26.817   5.997  1.00  0.00     0.025 A 
ATOM     13  C   UNL     1      24.674  26.262   4.798  1.00  0.00     0.016 A 
ATOM     14  C   UNL     1      24.043  25.151   4.232  1.00  0.00     0.051 A 
ATOM     15  C   UNL     1      22.938  24.568   4.862  1.00  0.00     0.157 A 
ATOM     16  C   UNL     1      23.099  26.216   6.640  1.00  0.00     0.062 A 
ATOM     17  C   UNL     1      22.466  25.100   6.074  1.00  0.00     0.158 A 
BRANCH  15  18
ATOM     18  O   UNL     1      22.328  23.462   4.273  1.00  0.00    -0.504 OA
ATOM     19  H   UNL     1      22.518  23.187   3.317  1.00  0.00     0.293 HD
ENDBRANCH  15  18
BRANCH  17  20
ATOM     20  O   UNL     1      21.374  24.515   6.715  1.00  0.00    -0.504 OA
ATOM     21  H   UNL     1      20.433  24.609   6.352  1.00  0.00     0.293 HD
ENDBRANCH  17  20
ENDBRANCH   1  12
BRANCH   2  22
ATOM     22  O   UNL     1      26.920  26.688   7.001  1.00  0.00    -0.502 OA
ATOM     23  H   UNL     1      27.917  26.641   6.834  1.00  0.00     0.293 HD
ENDBRANCH   2  22
BRANCH   9  24
ATOM     24  O   UNL     1      23.746  33.725   7.864  1.00  0.00    -0.508 OA
ATOM     25  H   UNL     1      22.755  33.704   7.654  1.00  0.00     0.293 HD
ENDBRANCH   9  24
TORSDOF 5
ENDMDL
MODEL 8
REMARK VINA RESULT:    -5.221      3.245      7.717
REMARK INTER + INTRA:          -6.427
REMARK INTER:                  -6.115
REMARK INTRA:                  -0.312
REMARK UNBOUND:                -0.291
REMARK SMILES O=c1c(O)c(-c2ccc(O)c(O)c2)oc2cc(O)ccc12
REMARK SMILES IDX 5 1 3 2 2 3 1 4 21 5 15 6 14 7 16 8 17 9 19 10 20 11 6 12
REMARK SMILES IDX 7 13 8 14 9 15 13 16 11 17 10 18 12 20 4 22 18 24
REMARK H PARENT 10 19 12 21 4 23 18 25
REMARK Flexibility Score: inf
ROOT
ATOM      1  C   UNL     1      24.187  29.481   6.034  1.00  0.00     0.180 A 
ATOM      2  C   UNL     1      25.474  28.930   6.204  1.00  0.00     0.208 A 
ATOM      3  C   UNL     1      25.605  27.536   6.304  1.00  0.00     0.235 A 
ATOM      4  O   UNL     1      26.744  27.020   6.467  1.00  0.00    -0.285 OA
ATOM      5  C   UNL     1      24.461  26.727   6.210  1.00  0.00     0.069 A 
ATOM      6  C   UNL     1      23.212  27.355   6.016  1.00  0.00     0.142 A 
ATOM      7  O   UNL     1      23.129  28.678   5.936  1.00  0.00    -0.452 OA
ATOM      8  C   UNL     1      22.050  26.582   5.908  1.00  0.00     0.094 A 
ATOM      9  C   UNL     1      22.119  25.188   5.995  1.00  0.00     0.119 A 
ATOM     10  C   UNL     1      23.358  24.562   6.190  1.00  0.00     0.047 A 
ATOM     11  C   UNL     1      24.524  25.325   6.297  1.00  0.00     0.020 A 
ENDROOT
BRANCH   1  12
ATOM     12  C   UNL     1      23.964  30.942   5.940  1.00  0.00     0.025 A 
ATOM     13  C   UNL     1      23.772  31.531   4.680  1.00  0.00     0.016 A 
ATOM     14  C   UNL     1      23.539  32.904   4.568  1.00  0.00     0.051 A 
ATOM     15  C   UNL     1      23.479  33.706   5.712  1.00  0.00     0.157 A 
ATOM     16  C   UNL     1      23.882  31.747   7.091  1.00  0.00     0.062 A 
ATOM     17  C   UNL     1      23.647  33.126   6.981  1.00  0.00     0.158 A 
BRANCH  15  18
ATOM     18  O   UNL     1      23.248  35.074   5.570  1.00  0.00    -0.504 OA
ATOM     19  H   UNL     1      22.331  35.445   5.352  1.00  0.00     0.293 HD
ENDBRANCH  15  18
BRANCH  17  20
ATOM     20  O   UNL     1      23.575  33.917   8.127  1.00  0.00    -0.504 OA
ATOM     21  H   UNL     1      22.762  34.488   8.327  1.00  0.00     0.293 HD
ENDBRANCH  17  20
ENDBRANCH   1  12
BRANCH   2  22
ATOM     22  O   UNL     1      26.599  29.758   6.244  1.00  0.00    -0.502 OA
ATOM     23  H   UNL     1      27.457  29.483   6.706  1.00  0.00     0.293 HD
ENDBRANCH   2  22
BRANCH   9  24
ATOM     24  O   UNL     1      20.952  24.434   5.886  1.00  0.00    -0.508 OA
ATOM     25  H   UNL     1      20.774  23.847   5.079  1.00  0.00     0.293 HD
ENDBRANCH   9  24
TORSDOF 5
ENDMDL
