MODEL 1
REMARK VINA RESULT:    -2.679      0.000      0.000
REMARK INTER + INTRA:          -3.216
REMARK INTER:                  -3.149
REMARK INTRA:                  -0.067
REMARK UNBOUND:                -0.067
REMARK SMILES O=C([O-])CCC(=O)[O-]
REMARK SMILES IDX 4 1 2 2 1 3 3 4 5 5 6 6 7 7 8 8
REMARK H PARENT
REMARK Flexibility Score: inf
ROOT
ATOM      1  C   UNL     1      -0.833  25.043  25.244  1.00  0.00     0.059 C 
ENDROOT
BRANCH   1   2
ATOM      2  C   UNL     1      -0.324  25.304  23.860  1.00  0.00     0.042 C 
ATOM      3  O   UNL     1      -0.916  26.124  23.110  1.00  0.00    -0.550 OA
ATOM      4  O   UNL     1       0.782  24.610  23.383  1.00  0.00    -0.550 OA
ENDBRANCH   1   2
BRANCH   1   5
ATOM      5  C   UNL     1      -0.321  26.090  26.240  1.00  0.00     0.059 C 
BRANCH   5   6
ATOM      6  C   UNL     1       0.316  25.448  27.434  1.00  0.00     0.042 C 
ATOM      7  O   UNL     1      -0.107  25.701  28.591  1.00  0.00    -0.550 OA
ATOM      8  O   UNL     1       1.406  24.601  27.269  1.00  0.00    -0.550 OA
ENDBRANCH   5   6
ENDBRANCH   1   5
TORSDOF 3
ENDMDL
MODEL 2
REMARK VINA RESULT:    -2.657      0.244      4.213
REMARK INTER + INTRA:          -3.190
REMARK INTER:                  -3.126
REMARK INTRA:                  -0.064
REMARK UNBOUND:                -0.067
REMARK SMILES O=C([O-])CCC(=O)[O-]
REMARK SMILES IDX 4 1 2 2 1 3 3 4 5 5 6 6 7 7 8 8
REMARK H PARENT
REMARK Flexibility Score: inf
ROOT
ATOM      1  C   UNL     1      -0.373  26.125  26.096  1.00  0.00     0.059 C 
ENDROOT
BRANCH   1   2
ATOM      2  C   UNL     1       0.200  25.620  27.385  1.00  0.00     0.042 C 
ATOM      3  O   UNL     1       1.110  24.750  27.376  1.00  0.00    -0.550 OA
ATOM      4  O   UNL     1      -0.301  26.080  28.596  1.00  0.00    -0.550 OA
ENDBRANCH   1   2
BRANCH   1   5
ATOM      5  C   UNL     1      -0.801  24.974  25.179  1.00  0.00     0.059 C 
BRANCH   5   6
ATOM      6  C   UNL     1      -0.323  25.182  23.775  1.00  0.00     0.042 C 
ATOM      7  O   UNL     1       0.745  24.645  23.382  1.00  0.00    -0.550 OA
ATOM      8  O   UNL     1      -1.038  26.004  22.912  1.00  0.00    -0.550 OA
ENDBRANCH   5   6
ENDBRANCH   1   5
TORSDOF 3
ENDMDL
MODEL 3
REMARK VINA RESULT:    -2.501     12.989     14.165
REMARK INTER + INTRA:          -3.006
REMARK INTER:                  -2.972
REMARK INTRA:                  -0.034
REMARK UNBOUND:                -0.067
REMARK SMILES O=C([O-])CCC(=O)[O-]
REMARK SMILES IDX 4 1 2 2 1 3 3 4 5 5 6 6 7 7 8 8
REMARK H PARENT
REMARK Flexibility Score: inf
ROOT
ATOM      1  C   UNL     1      -9.453  16.663  22.572  1.00  0.00     0.059 C 
ENDROOT
BRANCH   1   2
ATOM      2  C   UNL     1      -9.773  17.586  23.708  1.00  0.00     0.042 C 
ATOM      3  O   UNL     1     -10.072  17.119  24.839  1.00  0.00    -0.550 OA
ATOM      4  O   UNL     1      -9.778  18.960  23.507  1.00  0.00    -0.550 OA
ENDBRANCH   1   2
BRANCH   1   5
ATOM      5  C   UNL     1     -10.103  17.131  21.265  1.00  0.00     0.059 C 
BRANCH   5   6
ATOM      6  C   UNL     1     -10.002  16.087  20.196  1.00  0.00     0.042 C 
ATOM      7  O   UNL     1      -9.772  14.888  20.500  1.00  0.00    -0.550 OA
ATOM      8  O   UNL     1     -10.125  16.446  18.859  1.00  0.00    -0.550 OA
ENDBRANCH   5   6
ENDBRANCH   1   5
TORSDOF 3
ENDMDL
MODEL 4
REMARK VINA RESULT:    -2.442      7.186      8.043
REMARK INTER + INTRA:          -2.937
REMARK INTER:                  -2.805
REMARK INTRA:                  -0.133
REMARK UNBOUND:                -0.067
REMARK SMILES O=C([O-])CCC(=O)[O-]
REMARK SMILES IDX 4 1 2 2 1 3 3 4 5 5 6 6 7 7 8 8
REMARK H PARENT
REMARK Flexibility Score: inf
ROOT
ATOM      1  C   UNL     1      -7.894  23.308  25.922  1.00  0.00     0.059 C 
ENDROOT
BRANCH   1   2
ATOM      2  C   UNL     1      -7.451  24.563  25.235  1.00  0.00     0.042 C 
ATOM      3  O   UNL     1      -6.444  25.193  25.653  1.00  0.00    -0.550 OA
ATOM      4  O   UNL     1      -8.174  25.058  24.157  1.00  0.00    -0.550 OA
ENDBRANCH   1   2
BRANCH   1   5
ATOM      5  C   UNL     1      -6.762  22.277  25.999  1.00  0.00     0.059 C 
BRANCH   5   6
ATOM      6  C   UNL     1      -6.618  21.522  24.713  1.00  0.00     0.042 C 
ATOM      7  O   UNL     1      -7.391  20.564  24.450  1.00  0.00    -0.550 OA
ATOM      8  O   UNL     1      -5.603  21.851  23.823  1.00  0.00    -0.550 OA
ENDBRANCH   5   6
ENDBRANCH   1   5
TORSDOF 3
ENDMDL
MODEL 5
REMARK VINA RESULT:    -2.440      7.192      7.950
REMARK INTER + INTRA:          -2.935
REMARK INTER:                  -2.803
REMARK INTRA:                  -0.132
REMARK UNBOUND:                -0.067
REMARK SMILES O=C([O-])CCC(=O)[O-]
REMARK SMILES IDX 4 1 2 2 1 3 3 4 5 5 6 6 7 7 8 8
REMARK H PARENT
REMARK Flexibility Score: inf
ROOT
ATOM      1  C   UNL     1      -6.748  22.227  25.992  1.00  0.00     0.059 C 
ENDROOT
BRANCH   1   2
ATOM      2  C   UNL     1      -6.652  21.470  24.703  1.00  0.00     0.042 C 
ATOM      3  O   UNL     1      -7.467  20.545  24.448  1.00  0.00    -0.550 OA
ATOM      4  O   UNL     1      -5.636  21.760  23.800  1.00  0.00    -0.550 OA
ENDBRANCH   1   2
BRANCH   1   5
ATOM      5  C   UNL     1      -7.874  23.266  25.953  1.00  0.00     0.059 C 
BRANCH   5   6
ATOM      6  C   UNL     1      -7.442  24.519  25.256  1.00  0.00     0.042 C 
ATOM      7  O   UNL     1      -6.432  25.153  25.658  1.00  0.00    -0.550 OA
ATOM      8  O   UNL     1      -8.181  25.010  24.186  1.00  0.00    -0.550 OA
ENDBRANCH   5   6
ENDBRANCH   1   5
TORSDOF 3
ENDMDL
MODEL 6
REMARK VINA RESULT:    -2.438      7.166      7.901
REMARK INTER + INTRA:          -2.932
REMARK INTER:                  -2.795
REMARK INTRA:                  -0.137
REMARK UNBOUND:                -0.067
REMARK SMILES O=C([O-])CCC(=O)[O-]
REMARK SMILES IDX 4 1 2 2 1 3 3 4 5 5 6 6 7 7 8 8
REMARK H PARENT
REMARK Flexibility Score: inf
ROOT
ATOM      1  C   UNL     1      -6.777  22.269  26.012  1.00  0.00     0.059 C 
ENDROOT
BRANCH   1   2
ATOM      2  C   UNL     1      -6.638  21.512  24.726  1.00  0.00     0.042 C 
ATOM      3  O   UNL     1      -7.440  20.583  24.447  1.00  0.00    -0.550 OA
ATOM      4  O   UNL     1      -5.597  21.808  23.855  1.00  0.00    -0.550 OA
ENDBRANCH   1   2
BRANCH   1   5
ATOM      5  C   UNL     1      -7.900  23.309  25.935  1.00  0.00     0.059 C 
BRANCH   5   6
ATOM      6  C   UNL     1      -7.447  24.558  25.244  1.00  0.00     0.042 C 
ATOM      7  O   UNL     1      -8.004  24.931  24.178  1.00  0.00    -0.550 OA
ATOM      8  O   UNL     1      -6.383  25.290  25.757  1.00  0.00    -0.550 OA
ENDBRANCH   5   6
ENDBRANCH   1   5
TORSDOF 3
ENDMDL
MODEL 7
REMARK VINA RESULT:    -2.418      7.836      8.829
REMARK INTER + INTRA:          -2.909
REMARK INTER:                  -2.792
REMARK INTRA:                  -0.118
REMARK UNBOUND:                -0.067
REMARK SMILES O=C([O-])CCC(=O)[O-]
REMARK SMILES IDX 4 1 2 2 1 3 3 4 5 5 6 6 7 7 8 8
REMARK H PARENT
REMARK Flexibility Score: inf
ROOT
ATOM      1  C   UNL     1      -7.156  23.424  25.940  1.00  0.00     0.059 C 
ENDROOT
BRANCH   1   2
ATOM      2  C   UNL     1      -8.628  23.522  26.200  1.00  0.00     0.042 C 
ATOM      3  O   UNL     1      -9.444  23.499  25.241  1.00  0.00    -0.550 OA
ATOM      4  O   UNL     1      -9.097  23.679  27.498  1.00  0.00    -0.550 OA
ENDBRANCH   1   2
BRANCH   1   5
ATOM      5  C   UNL     1      -6.665  21.974  26.017  1.00  0.00     0.059 C 
BRANCH   5   6
ATOM      6  C   UNL     1      -6.680  21.316  24.671  1.00  0.00     0.042 C 
ATOM      7  O   UNL     1      -7.565  20.466  24.390  1.00  0.00    -0.550 OA
ATOM      8  O   UNL     1      -5.691  21.614  23.740  1.00  0.00    -0.550 OA
ENDBRANCH   5   6
ENDBRANCH   1   5
TORSDOF 3
ENDMDL
MODEL 8
REMARK VINA RESULT:    -2.352      7.598      8.189
REMARK INTER + INTRA:          -2.831
REMARK INTER:                  -2.762
REMARK INTRA:                  -0.069
REMARK UNBOUND:                -0.067
REMARK SMILES O=C([O-])CCC(=O)[O-]
REMARK SMILES IDX 4 1 2 2 1 3 3 4 5 5 6 6 7 7 8 8
REMARK H PARENT
REMARK Flexibility Score: inf
ROOT
ATOM      1  C   UNL     1      -7.142  23.365  24.954  1.00  0.00     0.059 C 
ENDROOT
BRANCH   1   2
ATOM      2  C   UNL     1      -6.419  22.056  24.862  1.00  0.00     0.042 C 
ATOM      3  O   UNL     1      -6.401  21.270  25.846  1.00  0.00    -0.550 OA
ATOM      4  O   UNL     1      -5.730  21.721  23.702  1.00  0.00    -0.550 OA
ENDBRANCH   1   2
BRANCH   1   5
ATOM      5  C   UNL     1      -7.154  23.902  26.388  1.00  0.00     0.059 C 
BRANCH   5   6
ATOM      6  C   UNL     1      -8.495  23.721  27.032  1.00  0.00     0.042 C 
ATOM      7  O   UNL     1      -8.579  23.462  28.261  1.00  0.00    -0.550 OA
ATOM      8  O   UNL     1      -9.651  23.798  26.264  1.00  0.00    -0.550 OA
ENDBRANCH   5   6
ENDBRANCH   1   5
TORSDOF 3
ENDMDL
MODEL 9
REMARK VINA RESULT:    -0.314     12.965     13.647
REMARK INTER + INTRA:          -0.436
REMARK INTER:                  -0.407
REMARK INTRA:                  -0.029
REMARK UNBOUND:                -0.067
REMARK SMILES O=C([O-])CCC(=O)[O-]
REMARK SMILES IDX 4 1 2 2 1 3 3 4 5 5 6 6 7 7 8 8
REMARK H PARENT
REMARK Flexibility Score: inf
ROOT
ATOM      1  C   UNL     1      -9.249  16.330  21.591  1.00  0.00     0.059 C 
ENDROOT
BRANCH   1   2
ATOM      2  C   UNL     1      -9.866  15.696  20.382  1.00  0.00     0.042 C 
ATOM      3  O   UNL     1     -10.124  14.464  20.374  1.00  0.00    -0.550 OA
ATOM      4  O   UNL     1     -10.117  16.459  19.249  1.00  0.00    -0.550 OA
ENDBRANCH   1   2
BRANCH   1   5
ATOM      5  C   UNL     1     -10.075  17.523  22.085  1.00  0.00     0.059 C 
BRANCH   5   6
ATOM      6  C   UNL     1      -9.749  17.867  23.507  1.00  0.00     0.042 C 
ATOM      7  O   UNL     1     -10.125  17.114  24.443  1.00  0.00    -0.550 OA
ATOM      8  O   UNL     1      -9.064  19.040  23.799  1.00  0.00    -0.550 OA
ENDBRANCH   5   6
ENDBRANCH   1   5
TORSDOF 3
ENDMDL
