MODEL 1
REMARK VINA RESULT:    -4.658      0.000      0.000
REMARK INTER + INTRA:          -5.411
REMARK INTER:                  -5.202
REMARK INTRA:                  -0.209
REMARK UNBOUND:                -0.209
REMARK SMILES CC(C)c1ccc(C(=O)[O-])cc1
REMARK SMILES IDX 7 1 6 2 11 3 5 4 12 5 4 6 8 7 9 8 10 9 2 10 1 11 3 12
REMARK H PARENT
REMARK Flexibility Score: inf
ROOT
ATOM      1  C   UNL     1       4.877 -36.225  20.007  1.00  0.00    -0.003 A 
ATOM      2  C   UNL     1       4.070 -37.287  19.566  1.00  0.00     0.010 A 
ATOM      3  C   UNL     1       5.116 -35.146  19.140  1.00  0.00     0.010 A 
ATOM      4  C   UNL     1       3.513 -37.269  18.284  1.00  0.00     0.004 A 
ATOM      5  C   UNL     1       4.559 -35.128  17.858  1.00  0.00     0.004 A 
ATOM      6  C   UNL     1       3.750 -36.190  17.416  1.00  0.00    -0.045 A 
ENDROOT
BRANCH   1   7
ATOM      7  C   UNL     1       5.465 -36.248  21.365  1.00  0.00     0.071 C 
ATOM      8  O   UNL     1       5.680 -37.341  21.952  1.00  0.00    -0.545 OA
ATOM      9  O   UNL     1       5.788 -35.060  22.012  1.00  0.00    -0.545 OA
ENDBRANCH   1   7
BRANCH   6  10
ATOM     10  C   UNL     1       3.139 -36.184  16.027  1.00  0.00     0.013 C 
ATOM     11  C   UNL     1       3.590 -37.407  15.219  1.00  0.00     0.012 C 
ATOM     12  C   UNL     1       1.609 -36.102  16.097  1.00  0.00     0.012 C 
ENDBRANCH   6  10
TORSDOF 2
ENDMDL
MODEL 2
REMARK VINA RESULT:    -4.645      0.081      1.400
REMARK INTER + INTRA:          -5.397
REMARK INTER:                  -5.191
REMARK INTRA:                  -0.206
REMARK UNBOUND:                -0.209
REMARK SMILES CC(C)c1ccc(C(=O)[O-])cc1
REMARK SMILES IDX 7 1 6 2 11 3 5 4 12 5 4 6 8 7 9 8 10 9 2 10 1 11 3 12
REMARK H PARENT
REMARK Flexibility Score: inf
ROOT
ATOM      1  C   UNL     1       4.929 -36.205  20.017  1.00  0.00    -0.003 A 
ATOM      2  C   UNL     1       5.143 -35.143  19.122  1.00  0.00     0.010 A 
ATOM      3  C   UNL     1       4.123 -37.283  19.614  1.00  0.00     0.010 A 
ATOM      4  C   UNL     1       4.562 -35.160  17.850  1.00  0.00     0.004 A 
ATOM      5  C   UNL     1       3.543 -37.299  18.342  1.00  0.00     0.004 A 
ATOM      6  C   UNL     1       3.757 -36.237  17.446  1.00  0.00    -0.045 A 
ENDROOT
BRANCH   1   7
ATOM      7  C   UNL     1       5.545 -36.184  21.362  1.00  0.00     0.071 C 
ATOM      8  O   UNL     1       5.790 -37.259  21.971  1.00  0.00    -0.545 OA
ATOM      9  O   UNL     1       5.861 -34.976  21.973  1.00  0.00    -0.545 OA
ENDBRANCH   1   7
BRANCH   6  10
ATOM     10  C   UNL     1       3.134 -36.241  16.062  1.00  0.00     0.013 C 
ATOM     11  C   UNL     1       3.568 -37.476  15.264  1.00  0.00     0.012 C 
ATOM     12  C   UNL     1       1.605 -36.146  16.144  1.00  0.00     0.012 C 
ENDBRANCH   6  10
TORSDOF 2
ENDMDL
MODEL 3
REMARK VINA RESULT:    -4.604      0.820      1.315
REMARK INTER + INTRA:          -5.350
REMARK INTER:                  -5.152
REMARK INTRA:                  -0.199
REMARK UNBOUND:                -0.209
REMARK SMILES CC(C)c1ccc(C(=O)[O-])cc1
REMARK SMILES IDX 7 1 6 2 11 3 5 4 12 5 4 6 8 7 9 8 10 9 2 10 1 11 3 12
REMARK H PARENT
REMARK Flexibility Score: inf
ROOT
ATOM      1  C   UNL     1       4.392 -36.099  19.978  1.00  0.00    -0.003 A 
ATOM      2  C   UNL     1       3.454 -37.139  19.870  1.00  0.00     0.010 A 
ATOM      3  C   UNL     1       4.752 -35.384  18.824  1.00  0.00     0.010 A 
ATOM      4  C   UNL     1       2.887 -37.457  18.632  1.00  0.00     0.004 A 
ATOM      5  C   UNL     1       4.185 -35.702  17.586  1.00  0.00     0.004 A 
ATOM      6  C   UNL     1       3.245 -36.742  17.477  1.00  0.00    -0.045 A 
ENDROOT
BRANCH   1   7
ATOM      7  C   UNL     1       4.990 -35.766  21.291  1.00  0.00     0.071 C 
ATOM      8  O   UNL     1       6.096 -36.260  21.634  1.00  0.00    -0.545 OA
ATOM      9  O   UNL     1       4.337 -34.902  22.163  1.00  0.00    -0.545 OA
ENDBRANCH   1   7
BRANCH   6  10
ATOM     10  C   UNL     1       2.622 -37.098  16.140  1.00  0.00     0.013 C 
ATOM     11  C   UNL     1       1.731 -35.961  15.625  1.00  0.00     0.012 C 
ATOM     12  C   UNL     1       3.696 -37.467  15.110  1.00  0.00     0.012 C 
ENDBRANCH   6  10
TORSDOF 2
ENDMDL
MODEL 4
REMARK VINA RESULT:    -4.227      3.094      5.094
REMARK INTER + INTRA:          -4.929
REMARK INTER:                  -4.725
REMARK INTRA:                  -0.204
REMARK UNBOUND:                -0.209
REMARK SMILES CC(C)c1ccc(C(=O)[O-])cc1
REMARK SMILES IDX 7 1 6 2 11 3 5 4 12 5 4 6 8 7 9 8 10 9 2 10 1 11 3 12
REMARK H PARENT
REMARK Flexibility Score: inf
ROOT
ATOM      1  C   UNL     1       3.508 -36.366  17.307  1.00  0.00    -0.003 A 
ATOM      2  C   UNL     1       3.385 -37.406  18.244  1.00  0.00     0.010 A 
ATOM      3  C   UNL     1       4.301 -35.252  17.628  1.00  0.00     0.010 A 
ATOM      4  C   UNL     1       4.043 -37.333  19.475  1.00  0.00     0.004 A 
ATOM      5  C   UNL     1       4.959 -35.180  18.859  1.00  0.00     0.004 A 
ATOM      6  C   UNL     1       4.838 -36.221  19.796  1.00  0.00    -0.045 A 
ENDROOT
BRANCH   1   7
ATOM      7  C   UNL     1       2.809 -36.446  16.005  1.00  0.00     0.071 C 
ATOM      8  O   UNL     1       1.646 -35.981  15.872  1.00  0.00    -0.545 OA
ATOM      9  O   UNL     1       3.428 -37.038  14.910  1.00  0.00    -0.545 OA
ENDBRANCH   1   7
BRANCH   6  10
ATOM     10  C   UNL     1       5.546 -36.155  21.137  1.00  0.00     0.013 C 
ATOM     11  C   UNL     1       4.810 -35.224  22.107  1.00  0.00     0.012 C 
ATOM     12  C   UNL     1       5.720 -37.554  21.739  1.00  0.00     0.012 C 
ENDBRANCH   6  10
TORSDOF 2
ENDMDL
MODEL 5
REMARK VINA RESULT:    -4.138      1.644      2.850
REMARK INTER + INTRA:          -4.831
REMARK INTER:                  -4.626
REMARK INTRA:                  -0.204
REMARK UNBOUND:                -0.209
REMARK SMILES CC(C)c1ccc(C(=O)[O-])cc1
REMARK SMILES IDX 7 1 6 2 11 3 5 4 12 5 4 6 8 7 9 8 10 9 2 10 1 11 3 12
REMARK H PARENT
REMARK Flexibility Score: inf
ROOT
ATOM      1  C   UNL     1       5.207 -35.848  22.067  1.00  0.00    -0.003 A 
ATOM      2  C   UNL     1       4.050 -35.249  21.541  1.00  0.00     0.010 A 
ATOM      3  C   UNL     1       5.757 -36.960  21.408  1.00  0.00     0.010 A 
ATOM      4  C   UNL     1       3.457 -35.751  20.379  1.00  0.00     0.004 A 
ATOM      5  C   UNL     1       5.164 -37.462  20.246  1.00  0.00     0.004 A 
ATOM      6  C   UNL     1       4.007 -36.862  19.718  1.00  0.00    -0.045 A 
ENDROOT
BRANCH   1   7
ATOM      7  C   UNL     1       5.832 -35.314  23.298  1.00  0.00     0.071 C 
ATOM      8  O   UNL     1       6.125 -34.093  23.389  1.00  0.00    -0.545 OA
ATOM      9  O   UNL     1       6.105 -36.155  24.370  1.00  0.00    -0.545 OA
ENDBRANCH   1   7
BRANCH   6  10
ATOM     10  C   UNL     1       3.352 -37.396  18.458  1.00  0.00     0.013 C 
ATOM     11  C   UNL     1       1.885 -37.765  18.710  1.00  0.00     0.012 C 
ATOM     12  C   UNL     1       3.478 -36.395  17.303  1.00  0.00     0.012 C 
ENDBRANCH   6  10
TORSDOF 2
ENDMDL
MODEL 6
REMARK VINA RESULT:    -3.784      2.670      5.456
REMARK INTER + INTRA:          -4.435
REMARK INTER:                  -4.218
REMARK INTRA:                  -0.217
REMARK UNBOUND:                -0.209
REMARK SMILES CC(C)c1ccc(C(=O)[O-])cc1
REMARK SMILES IDX 7 1 6 2 11 3 5 4 12 5 4 6 8 7 9 8 10 9 2 10 1 11 3 12
REMARK H PARENT
REMARK Flexibility Score: inf
ROOT
ATOM      1  C   UNL     1       4.146 -36.491  18.819  1.00  0.00    -0.003 A 
ATOM      2  C   UNL     1       4.634 -35.204  19.101  1.00  0.00     0.010 A 
ATOM      3  C   UNL     1       4.308 -37.506  19.778  1.00  0.00     0.010 A 
ATOM      4  C   UNL     1       5.269 -34.938  20.318  1.00  0.00     0.004 A 
ATOM      5  C   UNL     1       4.943 -37.238  20.994  1.00  0.00     0.004 A 
ATOM      6  C   UNL     1       5.430 -35.950  21.277  1.00  0.00    -0.045 A 
ENDROOT
BRANCH   1   7
ATOM      7  C   UNL     1       3.474 -36.770  17.530  1.00  0.00     0.071 C 
ATOM      8  O   UNL     1       3.705 -36.054  16.520  1.00  0.00    -0.545 OA
ATOM      9  O   UNL     1       2.577 -37.827  17.418  1.00  0.00    -0.545 OA
ENDBRANCH   1   7
BRANCH   6  10
ATOM     10  C   UNL     1       6.122 -35.646  22.593  1.00  0.00     0.013 C 
ATOM     11  C   UNL     1       5.483 -34.437  23.288  1.00  0.00     0.012 C 
ATOM     12  C   UNL     1       6.125 -36.873  23.513  1.00  0.00     0.012 C 
ENDBRANCH   6  10
TORSDOF 2
ENDMDL
MODEL 7
REMARK VINA RESULT:    -3.454      1.834      2.809
REMARK INTER + INTRA:          -4.067
REMARK INTER:                  -3.857
REMARK INTRA:                  -0.210
REMARK UNBOUND:                -0.209
REMARK SMILES CC(C)c1ccc(C(=O)[O-])cc1
REMARK SMILES IDX 7 1 6 2 11 3 5 4 12 5 4 6 8 7 9 8 10 9 2 10 1 11 3 12
REMARK H PARENT
REMARK Flexibility Score: inf
ROOT
ATOM      1  C   UNL     1       5.399 -36.126  22.544  1.00  0.00    -0.003 A 
ATOM      2  C   UNL     1       5.541 -37.425  22.027  1.00  0.00     0.010 A 
ATOM      3  C   UNL     1       4.781 -35.143  21.754  1.00  0.00     0.010 A 
ATOM      4  C   UNL     1       5.073 -37.733  20.747  1.00  0.00     0.004 A 
ATOM      5  C   UNL     1       4.312 -35.452  20.474  1.00  0.00     0.004 A 
ATOM      6  C   UNL     1       4.453 -36.752  19.956  1.00  0.00    -0.045 A 
ENDROOT
BRANCH   1   7
ATOM      7  C   UNL     1       5.896 -35.803  23.900  1.00  0.00     0.071 C 
ATOM      8  O   UNL     1       6.118 -36.719  24.736  1.00  0.00    -0.545 OA
ATOM      9  O   UNL     1       6.125 -34.482  24.270  1.00  0.00    -0.545 OA
ENDBRANCH   1   7
BRANCH   6  10
ATOM     10  C   UNL     1       3.949 -37.101  18.568  1.00  0.00     0.013 C 
ATOM     11  C   UNL     1       2.512 -37.633  18.619  1.00  0.00     0.012 C 
ATOM     12  C   UNL     1       4.060 -35.900  17.621  1.00  0.00     0.012 C 
ENDBRANCH   6  10
TORSDOF 2
ENDMDL
MODEL 8
REMARK VINA RESULT:    -2.393      2.385      3.843
REMARK INTER + INTRA:          -2.882
REMARK INTER:                  -2.671
REMARK INTRA:                  -0.210
REMARK UNBOUND:                -0.209
REMARK SMILES CC(C)c1ccc(C(=O)[O-])cc1
REMARK SMILES IDX 7 1 6 2 11 3 5 4 12 5 4 6 8 7 9 8 10 9 2 10 1 11 3 12
REMARK H PARENT
REMARK Flexibility Score: inf
ROOT
ATOM      1  C   UNL     1       5.538 -36.000  23.513  1.00  0.00    -0.003 A 
ATOM      2  C   UNL     1       5.755 -37.194  22.805  1.00  0.00     0.010 A 
ATOM      3  C   UNL     1       5.169 -34.845  22.804  1.00  0.00     0.010 A 
ATOM      4  C   UNL     1       5.604 -37.231  21.415  1.00  0.00     0.004 A 
ATOM      5  C   UNL     1       5.019 -34.883  21.414  1.00  0.00     0.004 A 
ATOM      6  C   UNL     1       5.234 -36.078  20.705  1.00  0.00    -0.045 A 
ENDROOT
BRANCH   1   7
ATOM      7  C   UNL     1       5.699 -35.964  24.984  1.00  0.00     0.071 C 
ATOM      8  O   UNL     1       6.125 -34.926  25.556  1.00  0.00    -0.545 OA
ATOM      9  O   UNL     1       5.382 -37.077  25.754  1.00  0.00    -0.545 OA
ENDBRANCH   1   7
BRANCH   6  10
ATOM     10  C   UNL     1       5.075 -36.133  19.197  1.00  0.00     0.013 C 
ATOM     11  C   UNL     1       3.811 -36.908  18.802  1.00  0.00     0.012 C 
ATOM     12  C   UNL     1       5.071 -34.726  18.589  1.00  0.00     0.012 C 
ENDBRANCH   6  10
TORSDOF 2
ENDMDL
MODEL 9
REMARK VINA RESULT:    -2.131      2.664      5.794
REMARK INTER + INTRA:          -2.588
REMARK INTER:                  -2.368
REMARK INTRA:                  -0.220
REMARK UNBOUND:                -0.209
REMARK SMILES CC(C)c1ccc(C(=O)[O-])cc1
REMARK SMILES IDX 7 1 6 2 11 3 5 4 12 5 4 6 8 7 9 8 10 9 2 10 1 11 3 12
REMARK H PARENT
REMARK Flexibility Score: inf
ROOT
ATOM      1  C   UNL     1       4.832 -36.144  20.050  1.00  0.00    -0.003 A 
ATOM      2  C   UNL     1       4.942 -37.407  20.654  1.00  0.00     0.010 A 
ATOM      3  C   UNL     1       5.145 -35.000  20.802  1.00  0.00     0.010 A 
ATOM      4  C   UNL     1       5.358 -37.524  21.983  1.00  0.00     0.004 A 
ATOM      5  C   UNL     1       5.562 -35.117  22.131  1.00  0.00     0.004 A 
ATOM      6  C   UNL     1       5.674 -36.381  22.736  1.00  0.00    -0.045 A 
ENDROOT
BRANCH   1   7
ATOM      7  C   UNL     1       4.390 -36.024  18.642  1.00  0.00     0.071 C 
ATOM      8  O   UNL     1       4.673 -35.000  17.967  1.00  0.00    -0.545 OA
ATOM      9  O   UNL     1       3.654 -37.042  18.046  1.00  0.00    -0.545 OA
ENDBRANCH   1   7
BRANCH   6  10
ATOM     10  C   UNL     1       6.125 -36.523  24.179  1.00  0.00     0.013 C 
ATOM     11  C   UNL     1       5.933 -35.211  24.949  1.00  0.00     0.012 C 
ATOM     12  C   UNL     1       5.400 -37.682  24.873  1.00  0.00     0.012 C 
ENDBRANCH   6  10
TORSDOF 2
ENDMDL
