MODEL 1
REMARK VINA RESULT:    -4.413      0.000      0.000
REMARK INTER + INTRA:         -10.046
REMARK INTER:                  -8.025
REMARK INTRA:                  -2.020
REMARK UNBOUND:                -2.020
REMARK SMILES CCCCCCCCCCCCCC[C@@H](C)C(=O)[O-]
REMARK SMILES IDX 9 1 10 2 11 3 12 4 13 5 14 6 15 7 16 8 17 9 18 10 19 11 8 12
REMARK SMILES IDX 7 13 6 14 5 15 4 16 3 17 2 18 1 19
REMARK H PARENT
REMARK Flexibility Score: inf
ROOT
ATOM      1  C   UNL     1      -4.979  12.732  -3.408  1.00  0.00     0.000 C 
ENDROOT
BRANCH   1   2
ATOM      2  C   UNL     1      -3.501  13.043  -3.743  1.00  0.00     0.000 C 
BRANCH   2   3
ATOM      3  C   UNL     1      -3.287  13.531  -5.188  1.00  0.00     0.000 C 
BRANCH   3   4
ATOM      4  C   UNL     1      -4.530  13.447  -6.099  1.00  0.00     0.000 C 
BRANCH   4   5
ATOM      5  C   UNL     1      -4.443  12.426  -7.248  1.00  0.00     0.001 C 
BRANCH   5   6
ATOM      6  C   UNL     1      -3.136  11.614  -7.234  1.00  0.00     0.009 C 
BRANCH   6   7
ATOM      7  C   UNL     1      -2.323  11.803  -8.531  1.00  0.00     0.032 C 
ATOM      8  C   UNL     1      -1.127  12.731  -8.288  1.00  0.00     0.014 C 
BRANCH   7   9
ATOM      9  C   UNL     1      -1.840  10.483  -9.070  1.00  0.00     0.044 C 
ATOM     10  O   UNL     1      -1.345   9.626  -8.292  1.00  0.00    -0.550 OA
ATOM     11  O   UNL     1      -1.930  10.205 -10.428  1.00  0.00    -0.550 OA
ENDBRANCH   7   9
ENDBRANCH   6   7
ENDBRANCH   5   6
ENDBRANCH   4   5
ENDBRANCH   3   4
ENDBRANCH   2   3
ENDBRANCH   1   2
BRANCH   1  12
ATOM     12  C   UNL     1      -5.629  13.780  -2.491  1.00  0.00     0.000 C 
BRANCH  12  13
ATOM     13  C   UNL     1      -7.160  13.812  -2.634  1.00  0.00    -0.000 C 
BRANCH  13  14
ATOM     14  C   UNL     1      -7.652  13.212  -3.963  1.00  0.00    -0.000 C 
BRANCH  14  15
ATOM     15  C   UNL     1      -8.678  12.070  -3.828  1.00  0.00    -0.000 C 
BRANCH  15  16
ATOM     16  C   UNL     1      -8.084  10.689  -4.144  1.00  0.00    -0.000 C 
BRANCH  16  17
ATOM     17  C   UNL     1      -7.265  10.727  -5.443  1.00  0.00    -0.000 C 
BRANCH  17  18
ATOM     18  C   UNL     1      -8.144  10.612  -6.697  1.00  0.00    -0.003 C 
ATOM     19  C   UNL     1      -8.030  11.830  -7.613  1.00  0.00     0.004 C 
ENDBRANCH  17  18
ENDBRANCH  16  17
ENDBRANCH  15  16
ENDBRANCH  14  15
ENDBRANCH  13  14
ENDBRANCH  12  13
ENDBRANCH   1  12
TORSDOF 14
ENDMDL
MODEL 2
REMARK VINA RESULT:    -4.354      2.659      5.879
REMARK INTER + INTRA:          -9.939
REMARK INTER:                  -8.267
REMARK INTRA:                  -1.672
REMARK UNBOUND:                -2.020
REMARK SMILES CCCCCCCCCCCCCC[C@@H](C)C(=O)[O-]
REMARK SMILES IDX 9 1 10 2 11 3 12 4 13 5 14 6 15 7 16 8 17 9 18 10 19 11 8 12
REMARK SMILES IDX 7 13 6 14 5 15 4 16 3 17 2 18 1 19
REMARK H PARENT
REMARK Flexibility Score: inf
ROOT
ATOM      1  C   UNL     1      -4.589  12.617  -3.451  1.00  0.00     0.000 C 
ENDROOT
BRANCH   1   2
ATOM      2  C   UNL     1      -5.575  13.635  -2.828  1.00  0.00     0.000 C 
BRANCH   2   3
ATOM      3  C   UNL     1      -7.050  13.349  -3.168  1.00  0.00     0.000 C 
BRANCH   3   4
ATOM      4  C   UNL     1      -7.453  13.634  -4.631  1.00  0.00     0.000 C 
BRANCH   4   5
ATOM      5  C   UNL     1      -8.454  12.642  -5.249  1.00  0.00     0.001 C 
BRANCH   5   6
ATOM      6  C   UNL     1      -7.781  11.579  -6.133  1.00  0.00     0.009 C 
BRANCH   6   7
ATOM      7  C   UNL     1      -7.947  10.157  -5.560  1.00  0.00     0.032 C 
ATOM      8  C   UNL     1      -8.778  10.188  -4.272  1.00  0.00     0.014 C 
BRANCH   7   9
ATOM      9  C   UNL     1      -8.594   9.237  -6.560  1.00  0.00     0.044 C 
ATOM     10  O   UNL     1      -9.268   9.711  -7.511  1.00  0.00    -0.550 OA
ATOM     11  O   UNL     1      -8.459   7.859  -6.436  1.00  0.00    -0.550 OA
ENDBRANCH   7   9
ENDBRANCH   6   7
ENDBRANCH   5   6
ENDBRANCH   4   5
ENDBRANCH   3   4
ENDBRANCH   2   3
ENDBRANCH   1   2
BRANCH   1  12
ATOM     12  C   UNL     1      -3.375  13.280  -4.123  1.00  0.00     0.000 C 
BRANCH  12  13
ATOM     13  C   UNL     1      -3.717  13.852  -5.509  1.00  0.00    -0.000 C 
BRANCH  13  14
ATOM     14  C   UNL     1      -4.325  12.804  -6.459  1.00  0.00    -0.000 C 
BRANCH  14  15
ATOM     15  C   UNL     1      -3.309  11.866  -7.138  1.00  0.00    -0.000 C 
BRANCH  15  16
ATOM     16  C   UNL     1      -2.030  12.589  -7.587  1.00  0.00    -0.000 C 
BRANCH  16  17
ATOM     17  C   UNL     1      -1.391  11.879  -8.790  1.00  0.00    -0.000 C 
BRANCH  17  18
ATOM     18  C   UNL     1      -1.859  10.422  -8.931  1.00  0.00    -0.003 C 
ATOM     19  C   UNL     1      -2.199  10.047 -10.373  1.00  0.00     0.004 C 
ENDBRANCH  17  18
ENDBRANCH  16  17
ENDBRANCH  15  16
ENDBRANCH  14  15
ENDBRANCH  13  14
ENDBRANCH  12  13
ENDBRANCH   1  12
TORSDOF 14
ENDMDL
MODEL 3
REMARK VINA RESULT:    -4.221     13.641     16.329
REMARK INTER + INTRA:          -9.697
REMARK INTER:                  -7.571
REMARK INTRA:                  -2.126
REMARK UNBOUND:                -2.020
REMARK SMILES CCCCCCCCCCCCCC[C@@H](C)C(=O)[O-]
REMARK SMILES IDX 9 1 10 2 11 3 12 4 13 5 14 6 15 7 16 8 17 9 18 10 19 11 8 12
REMARK SMILES IDX 7 13 6 14 5 15 4 16 3 17 2 18 1 19
REMARK H PARENT
REMARK Flexibility Score: inf
ROOT
ATOM      1  C   UNL     1       5.892   2.272 -10.143  1.00  0.00     0.000 C 
ENDROOT
BRANCH   1   2
ATOM      2  C   UNL     1       6.462   1.035  -9.408  1.00  0.00     0.000 C 
BRANCH   2   3
ATOM      3  C   UNL     1       7.959   0.794  -9.679  1.00  0.00     0.000 C 
BRANCH   3   4
ATOM      4  C   UNL     1       8.884   1.988  -9.356  1.00  0.00     0.000 C 
BRANCH   4   5
ATOM      5  C   UNL     1       9.818   1.795  -8.147  1.00  0.00     0.001 C 
BRANCH   5   6
ATOM      6  C   UNL     1       9.189   2.257  -6.821  1.00  0.00     0.009 C 
BRANCH   6   7
ATOM      7  C   UNL     1       9.750   1.480  -5.612  1.00  0.00     0.032 C 
ATOM      8  C   UNL     1       9.918   2.409  -4.405  1.00  0.00     0.014 C 
BRANCH   7   9
ATOM      9  C   UNL     1       8.858   0.325  -5.244  1.00  0.00     0.044 C 
ATOM     10  O   UNL     1       9.348  -0.710  -4.719  1.00  0.00    -0.550 OA
ATOM     11  O   UNL     1       7.491   0.389  -5.486  1.00  0.00    -0.550 OA
ENDBRANCH   7   9
ENDBRANCH   6   7
ENDBRANCH   5   6
ENDBRANCH   4   5
ENDBRANCH   3   4
ENDBRANCH   2   3
ENDBRANCH   1   2
BRANCH   1  12
ATOM     12  C   UNL     1       4.721   2.935  -9.400  1.00  0.00     0.000 C 
BRANCH  12  13
ATOM     13  C   UNL     1       4.585   4.428  -9.741  1.00  0.00    -0.000 C 
BRANCH  13  14
ATOM     14  C   UNL     1       5.940   5.113  -9.998  1.00  0.00    -0.000 C 
BRANCH  14  15
ATOM     15  C   UNL     1       6.458   5.995  -8.846  1.00  0.00    -0.000 C 
BRANCH  15  16
ATOM     16  C   UNL     1       7.179   5.192  -7.752  1.00  0.00    -0.000 C 
BRANCH  16  17
ATOM     17  C   UNL     1       6.765   5.676  -6.354  1.00  0.00    -0.000 C 
BRANCH  17  18
ATOM     18  C   UNL     1       6.654   4.526  -5.341  1.00  0.00    -0.003 C 
ATOM     19  C   UNL     1       5.781   3.377  -5.844  1.00  0.00     0.004 C 
ENDBRANCH  17  18
ENDBRANCH  16  17
ENDBRANCH  15  16
ENDBRANCH  14  15
ENDBRANCH  13  14
ENDBRANCH  12  13
ENDBRANCH   1  12
TORSDOF 14
ENDMDL
MODEL 4
REMARK VINA RESULT:    -4.031     13.461     15.660
REMARK INTER + INTRA:          -9.350
REMARK INTER:                  -7.043
REMARK INTRA:                  -2.307
REMARK UNBOUND:                -2.020
REMARK SMILES CCCCCCCCCCCCCC[C@@H](C)C(=O)[O-]
REMARK SMILES IDX 9 1 10 2 11 3 12 4 13 5 14 6 15 7 16 8 17 9 18 10 19 11 8 12
REMARK SMILES IDX 7 13 6 14 5 15 4 16 3 17 2 18 1 19
REMARK H PARENT
REMARK Flexibility Score: inf
ROOT
ATOM      1  C   UNL     1       6.851   5.361  -9.836  1.00  0.00     0.000 C 
ENDROOT
BRANCH   1   2
ATOM      2  C   UNL     1       7.490   6.194  -8.700  1.00  0.00     0.000 C 
BRANCH   2   3
ATOM      3  C   UNL     1       6.520   6.502  -7.543  1.00  0.00     0.000 C 
BRANCH   3   4
ATOM      4  C   UNL     1       6.700   5.625  -6.285  1.00  0.00     0.000 C 
BRANCH   4   5
ATOM      5  C   UNL     1       6.318   4.143  -6.450  1.00  0.00     0.001 C 
BRANCH   5   6
ATOM      6  C   UNL     1       6.685   3.287  -5.225  1.00  0.00     0.009 C 
BRANCH   6   7
ATOM      7  C   UNL     1       8.041   2.574  -5.402  1.00  0.00     0.032 C 
ATOM      8  C   UNL     1       9.040   3.040  -4.338  1.00  0.00     0.014 C 
BRANCH   7   9
ATOM      9  C   UNL     1       7.885   1.078  -5.331  1.00  0.00     0.044 C 
ATOM     10  O   UNL     1       6.830   0.533  -5.750  1.00  0.00    -0.550 OA
ATOM     11  O   UNL     1       8.897   0.292  -4.795  1.00  0.00    -0.550 OA
ENDBRANCH   7   9
ENDBRANCH   6   7
ENDBRANCH   5   6
ENDBRANCH   4   5
ENDBRANCH   3   4
ENDBRANCH   2   3
ENDBRANCH   1   2
BRANCH   1  12
ATOM     12  C   UNL     1       5.458   5.864 -10.250  1.00  0.00     0.000 C 
BRANCH  12  13
ATOM     13  C   UNL     1       4.515   4.714 -10.640  1.00  0.00    -0.000 C 
BRANCH  13  14
ATOM     14  C   UNL     1       4.435   3.611  -9.568  1.00  0.00    -0.000 C 
BRANCH  14  15
ATOM     15  C   UNL     1       4.972   2.234 -10.002  1.00  0.00    -0.000 C 
BRANCH  15  16
ATOM     16  C   UNL     1       6.052   1.685  -9.058  1.00  0.00    -0.000 C 
BRANCH  16  17
ATOM     17  C   UNL     1       7.396   1.540  -9.788  1.00  0.00    -0.000 C 
BRANCH  17  18
ATOM     18  C   UNL     1       8.551   2.223  -9.038  1.00  0.00    -0.003 C 
ATOM     19  C   UNL     1       9.629   1.238  -8.590  1.00  0.00     0.004 C 
ENDBRANCH  17  18
ENDBRANCH  16  17
ENDBRANCH  15  16
ENDBRANCH  14  15
ENDBRANCH  13  14
ENDBRANCH  12  13
ENDBRANCH   1  12
TORSDOF 14
ENDMDL
MODEL 5
REMARK VINA RESULT:    -3.900     13.508     16.081
REMARK INTER + INTRA:          -9.113
REMARK INTER:                  -6.500
REMARK INTRA:                  -2.612
REMARK UNBOUND:                -2.020
REMARK SMILES CCCCCCCCCCCCCC[C@@H](C)C(=O)[O-]
REMARK SMILES IDX 9 1 10 2 11 3 12 4 13 5 14 6 15 7 16 8 17 9 18 10 19 11 8 12
REMARK SMILES IDX 7 13 6 14 5 15 4 16 3 17 2 18 1 19
REMARK H PARENT
REMARK Flexibility Score: inf
ROOT
ATOM      1  C   UNL     1       9.096   2.850  -4.751  1.00  0.00     0.000 C 
ENDROOT
BRANCH   1   2
ATOM      2  C   UNL     1       7.855   3.508  -4.101  1.00  0.00     0.000 C 
BRANCH   2   3
ATOM      3  C   UNL     1       7.004   4.327  -5.090  1.00  0.00     0.000 C 
BRANCH   3   4
ATOM      4  C   UNL     1       5.906   3.530  -5.826  1.00  0.00     0.000 C 
BRANCH   4   5
ATOM      5  C   UNL     1       5.988   3.553  -7.363  1.00  0.00     0.001 C 
BRANCH   5   6
ATOM      6  C   UNL     1       7.317   4.125  -7.887  1.00  0.00     0.009 C 
BRANCH   6   7
ATOM      7  C   UNL     1       7.105   5.376  -8.764  1.00  0.00     0.032 C 
ATOM      8  C   UNL     1       5.749   5.314  -9.475  1.00  0.00     0.014 C 
BRANCH   7   9
ATOM      9  C   UNL     1       7.192   6.637  -7.946  1.00  0.00     0.044 C 
ATOM     10  O   UNL     1       8.308   7.188  -7.750  1.00  0.00    -0.550 OA
ATOM     11  O   UNL     1       6.045   7.198  -7.397  1.00  0.00    -0.550 OA
ENDBRANCH   7   9
ENDBRANCH   6   7
ENDBRANCH   5   6
ENDBRANCH   4   5
ENDBRANCH   3   4
ENDBRANCH   2   3
ENDBRANCH   1   2
BRANCH   1  12
ATOM     12  C   UNL     1       8.883   1.369  -5.108  1.00  0.00     0.000 C 
BRANCH  12  13
ATOM     13  C   UNL     1       8.782   1.143  -6.625  1.00  0.00    -0.000 C 
BRANCH  13  14
ATOM     14  C   UNL     1      10.001   1.682  -7.396  1.00  0.00    -0.000 C 
BRANCH  14  15
ATOM     15  C   UNL     1       9.995   1.402  -8.911  1.00  0.00    -0.000 C 
BRANCH  15  16
ATOM     16  C   UNL     1       8.629   0.926  -9.429  1.00  0.00    -0.000 C 
BRANCH  16  17
ATOM     17  C   UNL     1       8.247   1.659 -10.723  1.00  0.00    -0.000 C 
BRANCH  17  18
ATOM     18  C   UNL     1       6.736   1.911 -10.834  1.00  0.00    -0.003 C 
ATOM     19  C   UNL     1       5.914   0.978  -9.945  1.00  0.00     0.004 C 
ENDBRANCH  17  18
ENDBRANCH  16  17
ENDBRANCH  15  16
ENDBRANCH  14  15
ENDBRANCH  13  14
ENDBRANCH  12  13
ENDBRANCH   1  12
TORSDOF 14
ENDMDL
MODEL 6
REMARK VINA RESULT:    -3.874     12.888     15.563
REMARK INTER + INTRA:          -9.065
REMARK INTER:                  -6.534
REMARK INTRA:                  -2.531
REMARK UNBOUND:                -2.020
REMARK SMILES CCCCCCCCCCCCCC[C@@H](C)C(=O)[O-]
REMARK SMILES IDX 9 1 10 2 11 3 12 4 13 5 14 6 15 7 16 8 17 9 18 10 19 11 8 12
REMARK SMILES IDX 7 13 6 14 5 15 4 16 3 17 2 18 1 19
REMARK H PARENT
REMARK Flexibility Score: inf
ROOT
ATOM      1  C   UNL     1       4.837   6.355 -10.039  1.00  0.00     0.000 C 
ENDROOT
BRANCH   1   2
ATOM      2  C   UNL     1       6.266   6.917  -9.850  1.00  0.00     0.000 C 
BRANCH   2   3
ATOM      3  C   UNL     1       7.364   5.837  -9.902  1.00  0.00     0.000 C 
BRANCH   3   4
ATOM      4  C   UNL     1       8.066   5.551  -8.558  1.00  0.00     0.000 C 
BRANCH   4   5
ATOM      5  C   UNL     1       7.783   4.168  -7.943  1.00  0.00     0.001 C 
BRANCH   5   6
ATOM      6  C   UNL     1       6.630   4.187  -6.924  1.00  0.00     0.009 C 
BRANCH   6   7
ATOM      7  C   UNL     1       6.613   2.921  -6.044  1.00  0.00     0.032 C 
ATOM      8  C   UNL     1       6.959   1.681  -6.875  1.00  0.00     0.014 C 
BRANCH   7   9
ATOM      9  C   UNL     1       7.572   3.044  -4.891  1.00  0.00     0.044 C 
ATOM     10  O   UNL     1       8.199   2.033  -4.479  1.00  0.00    -0.550 OA
ATOM     11  O   UNL     1       7.767   4.271  -4.268  1.00  0.00    -0.550 OA
ENDBRANCH   7   9
ENDBRANCH   6   7
ENDBRANCH   5   6
ENDBRANCH   4   5
ENDBRANCH   3   4
ENDBRANCH   2   3
ENDBRANCH   1   2
BRANCH   1  12
ATOM     12  C   UNL     1       4.795   5.071 -10.884  1.00  0.00     0.000 C 
BRANCH  12  13
ATOM     13  C   UNL     1       3.975   3.958 -10.212  1.00  0.00    -0.000 C 
BRANCH  13  14
ATOM     14  C   UNL     1       4.846   2.802  -9.687  1.00  0.00    -0.000 C 
BRANCH  14  15
ATOM     15  C   UNL     1       4.837   1.528 -10.553  1.00  0.00    -0.000 C 
BRANCH  15  16
ATOM     16  C   UNL     1       6.241   1.096 -11.003  1.00  0.00    -0.000 C 
BRANCH  16  17
ATOM     17  C   UNL     1       7.175   2.309 -11.124  1.00  0.00    -0.000 C 
BRANCH  17  18
ATOM     18  C   UNL     1       8.641   1.955 -10.830  1.00  0.00    -0.003 C 
ATOM     19  C   UNL     1       8.791   0.637 -10.071  1.00  0.00     0.004 C 
ENDBRANCH  17  18
ENDBRANCH  16  17
ENDBRANCH  15  16
ENDBRANCH  14  15
ENDBRANCH  13  14
ENDBRANCH  12  13
ENDBRANCH   1  12
TORSDOF 14
ENDMDL
MODEL 7
REMARK VINA RESULT:    -3.870     13.321     16.281
REMARK INTER + INTRA:          -9.057
REMARK INTER:                  -6.703
REMARK INTRA:                  -2.355
REMARK UNBOUND:                -2.020
REMARK SMILES CCCCCCCCCCCCCC[C@@H](C)C(=O)[O-]
REMARK SMILES IDX 9 1 10 2 11 3 12 4 13 5 14 6 15 7 16 8 17 9 18 10 19 11 8 12
REMARK SMILES IDX 7 13 6 14 5 15 4 16 3 17 2 18 1 19
REMARK H PARENT
REMARK Flexibility Score: inf
ROOT
ATOM      1  C   UNL     1       3.830   2.858  -9.767  1.00  0.00     0.000 C 
ENDROOT
BRANCH   1   2
ATOM      2  C   UNL     1       4.178   4.346 -10.009  1.00  0.00     0.000 C 
BRANCH   2   3
ATOM      3  C   UNL     1       5.647   4.576 -10.410  1.00  0.00     0.000 C 
BRANCH   3   4
ATOM      4  C   UNL     1       6.515   5.281  -9.346  1.00  0.00     0.000 C 
BRANCH   4   5
ATOM      5  C   UNL     1       7.480   4.369  -8.567  1.00  0.00     0.001 C 
BRANCH   5   6
ATOM      6  C   UNL     1       6.782   3.557  -7.462  1.00  0.00     0.009 C 
BRANCH   6   7
ATOM      7  C   UNL     1       7.326   3.900  -6.060  1.00  0.00     0.032 C 
ATOM      8  C   UNL     1       6.701   5.200  -5.541  1.00  0.00     0.014 C 
BRANCH   7   9
ATOM      9  C   UNL     1       7.062   2.785  -5.084  1.00  0.00     0.044 C 
ATOM     10  O   UNL     1       7.921   2.492  -4.211  1.00  0.00    -0.550 OA
ATOM     11  O   UNL     1       5.873   2.067  -5.143  1.00  0.00    -0.550 OA
ENDBRANCH   7   9
ENDBRANCH   6   7
ENDBRANCH   5   6
ENDBRANCH   4   5
ENDBRANCH   3   4
ENDBRANCH   2   3
ENDBRANCH   1   2
BRANCH   1  12
ATOM     12  C   UNL     1       4.253   1.937 -10.923  1.00  0.00     0.000 C 
BRANCH  12  13
ATOM     13  C   UNL     1       4.980   0.676 -10.429  1.00  0.00    -0.000 C 
BRANCH  13  14
ATOM     14  C   UNL     1       6.413   0.958  -9.942  1.00  0.00    -0.000 C 
BRANCH  14  15
ATOM     15  C   UNL     1       7.374   1.507 -11.014  1.00  0.00    -0.000 C 
BRANCH  15  16
ATOM     16  C   UNL     1       8.845   1.164 -10.734  1.00  0.00    -0.000 C 
BRANCH  16  17
ATOM     17  C   UNL     1       9.016   0.597  -9.317  1.00  0.00    -0.000 C 
BRANCH  17  18
ATOM     18  C   UNL     1       9.787   1.549  -8.390  1.00  0.00    -0.003 C 
ATOM     19  C   UNL     1       9.800   1.077  -6.936  1.00  0.00     0.004 C 
ENDBRANCH  17  18
ENDBRANCH  16  17
ENDBRANCH  15  16
ENDBRANCH  14  15
ENDBRANCH  13  14
ENDBRANCH  12  13
ENDBRANCH   1  12
TORSDOF 14
ENDMDL
MODEL 8
REMARK VINA RESULT:    -3.866     13.214     15.319
REMARK INTER + INTRA:          -9.050
REMARK INTER:                  -6.527
REMARK INTRA:                  -2.523
REMARK UNBOUND:                -2.020
REMARK SMILES CCCCCCCCCCCCCC[C@@H](C)C(=O)[O-]
REMARK SMILES IDX 9 1 10 2 11 3 12 4 13 5 14 6 15 7 16 8 17 9 18 10 19 11 8 12
REMARK SMILES IDX 7 13 6 14 5 15 4 16 3 17 2 18 1 19
REMARK H PARENT
REMARK Flexibility Score: inf
ROOT
ATOM      1  C   UNL     1       6.658   2.520  -5.338  1.00  0.00     0.000 C 
ENDROOT
BRANCH   1   2
ATOM      2  C   UNL     1       8.120   2.744  -4.883  1.00  0.00     0.000 C 
BRANCH   2   3
ATOM      3  C   UNL     1       9.161   2.092  -5.813  1.00  0.00     0.000 C 
BRANCH   3   4
ATOM      4  C   UNL     1       8.653   1.758  -7.232  1.00  0.00     0.000 C 
BRANCH   4   5
ATOM      5  C   UNL     1       8.619   2.939  -8.219  1.00  0.00     0.001 C 
BRANCH   5   6
ATOM      6  C   UNL     1       7.643   2.718  -9.388  1.00  0.00     0.009 C 
BRANCH   6   7
ATOM      7  C   UNL     1       6.317   2.082  -8.924  1.00  0.00     0.032 C 
ATOM      8  C   UNL     1       5.145   3.040  -9.164  1.00  0.00     0.014 C 
BRANCH   7   9
ATOM      9  C   UNL     1       6.060   0.778  -9.631  1.00  0.00     0.044 C 
ATOM     10  O   UNL     1       6.191   0.700 -10.880  1.00  0.00    -0.550 OA
ATOM     11  O   UNL     1       5.669  -0.344  -8.911  1.00  0.00    -0.550 OA
ENDBRANCH   7   9
ENDBRANCH   6   7
ENDBRANCH   5   6
ENDBRANCH   4   5
ENDBRANCH   3   4
ENDBRANCH   2   3
ENDBRANCH   1   2
BRANCH   1  12
ATOM     12  C   UNL     1       5.886   3.829  -5.572  1.00  0.00     0.000 C 
BRANCH  12  13
ATOM     13  C   UNL     1       6.786   5.068  -5.435  1.00  0.00    -0.000 C 
BRANCH  13  14
ATOM     14  C   UNL     1       6.366   6.222  -6.364  1.00  0.00    -0.000 C 
BRANCH  14  15
ATOM     15  C   UNL     1       6.927   6.148  -7.797  1.00  0.00    -0.000 C 
BRANCH  15  16
ATOM     16  C   UNL     1       5.923   6.619  -8.860  1.00  0.00    -0.000 C 
BRANCH  16  17
ATOM     17  C   UNL     1       6.520   6.500 -10.270  1.00  0.00    -0.000 C 
BRANCH  17  18
ATOM     18  C   UNL     1       8.036   6.255 -10.249  1.00  0.00    -0.003 C 
ATOM     19  C   UNL     1       8.833   7.427 -10.822  1.00  0.00     0.004 C 
ENDBRANCH  17  18
ENDBRANCH  16  17
ENDBRANCH  15  16
ENDBRANCH  14  15
ENDBRANCH  13  14
ENDBRANCH  12  13
ENDBRANCH   1  12
TORSDOF 14
ENDMDL
MODEL 9
REMARK VINA RESULT:    -3.859     13.172     15.670
REMARK INTER + INTRA:          -9.038
REMARK INTER:                  -6.462
REMARK INTRA:                  -2.577
REMARK UNBOUND:                -2.020
REMARK SMILES CCCCCCCCCCCCCC[C@@H](C)C(=O)[O-]
REMARK SMILES IDX 9 1 10 2 11 3 12 4 13 5 14 6 15 7 16 8 17 9 18 10 19 11 8 12
REMARK SMILES IDX 7 13 6 14 5 15 4 16 3 17 2 18 1 19
REMARK H PARENT
REMARK Flexibility Score: inf
ROOT
ATOM      1  C   UNL     1       4.693   4.816 -10.777  1.00  0.00     0.000 C 
ENDROOT
BRANCH   1   2
ATOM      2  C   UNL     1       3.949   3.731  -9.963  1.00  0.00     0.000 C 
BRANCH   2   3
ATOM      3  C   UNL     1       4.659   2.364  -9.968  1.00  0.00     0.000 C 
BRANCH   3   4
ATOM      4  C   UNL     1       5.844   2.244 -10.950  1.00  0.00     0.000 C 
BRANCH   4   5
ATOM      5  C   UNL     1       6.963   1.276 -10.525  1.00  0.00     0.001 C 
BRANCH   5   6
ATOM      6  C   UNL     1       7.409   1.476  -9.066  1.00  0.00     0.009 C 
BRANCH   6   7
ATOM      7  C   UNL     1       8.922   1.235  -8.883  1.00  0.00     0.032 C 
ATOM      8  C   UNL     1       9.733   2.218  -9.734  1.00  0.00     0.014 C 
BRANCH   7   9
ATOM      9  C   UNL     1       9.325   1.361  -7.439  1.00  0.00     0.044 C 
ATOM     10  O   UNL     1       9.709   2.470  -6.984  1.00  0.00    -0.550 OA
ATOM     11  O   UNL     1       9.283   0.254  -6.600  1.00  0.00    -0.550 OA
ENDBRANCH   7   9
ENDBRANCH   6   7
ENDBRANCH   5   6
ENDBRANCH   4   5
ENDBRANCH   3   4
ENDBRANCH   2   3
ENDBRANCH   1   2
BRANCH   1  12
ATOM     12  C   UNL     1       4.875   6.136 -10.009  1.00  0.00     0.000 C 
BRANCH  12  13
ATOM     13  C   UNL     1       6.354   6.446  -9.724  1.00  0.00    -0.000 C 
BRANCH  13  14
ATOM     14  C   UNL     1       7.194   5.182  -9.465  1.00  0.00    -0.000 C 
BRANCH  14  15
ATOM     15  C   UNL     1       7.809   5.081  -8.056  1.00  0.00    -0.000 C 
BRANCH  15  16
ATOM     16  C   UNL     1       6.765   5.198  -6.935  1.00  0.00    -0.000 C 
BRANCH  16  17
ATOM     17  C   UNL     1       5.951   3.902  -6.806  1.00  0.00    -0.000 C 
BRANCH  17  18
ATOM     18  C   UNL     1       6.498   2.968  -5.715  1.00  0.00    -0.003 C 
ATOM     19  C   UNL     1       7.277   3.715  -4.634  1.00  0.00     0.004 C 
ENDBRANCH  17  18
ENDBRANCH  16  17
ENDBRANCH  15  16
ENDBRANCH  14  15
ENDBRANCH  13  14
ENDBRANCH  12  13
ENDBRANCH   1  12
TORSDOF 14
ENDMDL
