MODEL 1
REMARK VINA RESULT:    -5.514      0.000      0.000
REMARK INTER + INTRA:          -6.762
REMARK INTER:                  -6.481
REMARK INTRA:                  -0.281
REMARK UNBOUND:                -0.281
REMARK SMILES O=c1cc(-c2ccc(O)c(O)c2)oc2cc(O)cc(O)c12
REMARK SMILES IDX 4 1 3 2 2 3 1 4 21 5 19 6 18 7 16 8 15 9 14 10 13 11 5 12
REMARK SMILES IDX 6 13 7 14 8 15 12 16 10 17 9 18 11 20 20 22 17 24
REMARK H PARENT 9 19 11 21 20 23 17 25
REMARK Flexibility Score: inf
ROOT
ATOM      1  C   UNL     1      -8.463  91.711 -13.531  1.00  0.00     0.138 A 
ATOM      2  C   UNL     1      -7.803  92.390 -12.497  1.00  0.00     0.100 A 
ATOM      3  C   UNL     1      -6.424  92.583 -12.567  1.00  0.00     0.197 A 
ATOM      4  O   UNL     1      -5.870  93.245 -11.651  1.00  0.00    -0.289 OA
ATOM      5  C   UNL     1      -5.694  92.060 -13.663  1.00  0.00     0.107 A 
ATOM      6  C   UNL     1      -4.279  92.166 -13.825  1.00  0.00     0.134 A 
ATOM      7  C   UNL     1      -3.683  91.695 -15.001  1.00  0.00     0.093 A 
ATOM      8  C   UNL     1      -4.440  91.071 -15.994  1.00  0.00     0.123 A 
ATOM      9  C   UNL     1      -5.815  90.918 -15.824  1.00  0.00     0.094 A 
ATOM     10  C   UNL     1      -6.445  91.408 -14.678  1.00  0.00     0.146 A 
ATOM     11  O   UNL     1      -7.760  91.258 -14.564  1.00  0.00    -0.456 OA
ENDROOT
BRANCH   1  12
ATOM     12  C   UNL     1      -9.929  91.475 -13.506  1.00  0.00     0.021 A 
ATOM     13  C   UNL     1     -10.801  92.568 -13.364  1.00  0.00     0.016 A 
ATOM     14  C   UNL     1     -12.184  92.373 -13.330  1.00  0.00     0.051 A 
ATOM     15  C   UNL     1     -12.720  91.087 -13.427  1.00  0.00     0.157 A 
ATOM     16  C   UNL     1     -10.473  90.178 -13.591  1.00  0.00     0.062 A 
ATOM     17  C   UNL     1     -11.861  89.983 -13.554  1.00  0.00     0.158 A 
BRANCH  15  18
ATOM     18  O   UNL     1     -14.104  90.924 -13.393  1.00  0.00    -0.504 OA
ATOM     19  H   UNL     1     -14.731  91.532 -13.906  1.00  0.00     0.293 HD
ENDBRANCH  15  18
BRANCH  17  20
ATOM     20  O   UNL     1     -12.389  88.695 -13.640  1.00  0.00    -0.504 OA
ATOM     21  H   UNL     1     -13.386  88.534 -13.723  1.00  0.00     0.293 HD
ENDBRANCH  17  20
ENDBRANCH   1  12
BRANCH   6  22
ATOM     22  O   UNL     1      -3.418  92.699 -12.861  1.00  0.00    -0.507 OA
ATOM     23  H   UNL     1      -2.635  92.215 -12.451  1.00  0.00     0.293 HD
ENDBRANCH   6  22
BRANCH   8  24
ATOM     24  O   UNL     1      -3.835  90.592 -17.154  1.00  0.00    -0.508 OA
ATOM     25  H   UNL     1      -2.828  90.596 -17.267  1.00  0.00     0.293 HD
ENDBRANCH   8  24
TORSDOF 5
ENDMDL
MODEL 2
REMARK VINA RESULT:    -5.461      6.217      9.872
REMARK INTER + INTRA:          -6.699
REMARK INTER:                  -6.403
REMARK INTRA:                  -0.297
REMARK UNBOUND:                -0.281
REMARK SMILES O=c1cc(-c2ccc(O)c(O)c2)oc2cc(O)cc(O)c12
REMARK SMILES IDX 4 1 3 2 2 3 1 4 21 5 19 6 18 7 16 8 15 9 14 10 13 11 5 12
REMARK SMILES IDX 6 13 7 14 8 15 12 16 10 17 9 18 11 20 20 22 17 24
REMARK H PARENT 9 19 11 21 20 23 17 25
REMARK Flexibility Score: inf
ROOT
ATOM      1  C   UNL     1      -3.728  92.848 -21.361  1.00  0.00     0.138 A 
ATOM      2  C   UNL     1      -2.899  91.736 -21.154  1.00  0.00     0.100 A 
ATOM      3  C   UNL     1      -2.580  91.345 -19.854  1.00  0.00     0.197 A 
ATOM      4  O   UNL     1      -1.880  90.310 -19.702  1.00  0.00    -0.289 OA
ATOM      5  C   UNL     1      -3.065  92.094 -18.754  1.00  0.00     0.107 A 
ATOM      6  C   UNL     1      -2.777  91.809 -17.385  1.00  0.00     0.134 A 
ATOM      7  C   UNL     1      -3.395  92.563 -16.380  1.00  0.00     0.093 A 
ATOM      8  C   UNL     1      -4.243  93.626 -16.694  1.00  0.00     0.123 A 
ATOM      9  C   UNL     1      -4.492  93.944 -18.027  1.00  0.00     0.094 A 
ATOM     10  C   UNL     1      -3.918  93.189 -19.053  1.00  0.00     0.146 A 
ATOM     11  O   UNL     1      -4.196  93.515 -20.311  1.00  0.00    -0.456 OA
ENDROOT
BRANCH   1  12
ATOM     12  C   UNL     1      -4.098  93.310 -22.723  1.00  0.00     0.021 A 
ATOM     13  C   UNL     1      -4.848  94.490 -22.872  1.00  0.00     0.016 A 
ATOM     14  C   UNL     1      -5.215  94.943 -24.141  1.00  0.00     0.051 A 
ATOM     15  C   UNL     1      -4.849  94.225 -25.282  1.00  0.00     0.157 A 
ATOM     16  C   UNL     1      -3.742  92.582 -23.875  1.00  0.00     0.062 A 
ATOM     17  C   UNL     1      -4.111  93.036 -25.150  1.00  0.00     0.158 A 
BRANCH  15  18
ATOM     18  O   UNL     1      -5.227  94.703 -26.535  1.00  0.00    -0.504 OA
ATOM     19  H   UNL     1      -4.810  95.530 -26.945  1.00  0.00     0.293 HD
ENDBRANCH  15  18
BRANCH  17  20
ATOM     20  O   UNL     1      -3.753  92.308 -26.284  1.00  0.00    -0.504 OA
ATOM     21  H   UNL     1      -4.431  91.760 -26.800  1.00  0.00     0.293 HD
ENDBRANCH  17  20
ENDBRANCH   1  12
BRANCH   6  22
ATOM     22  O   UNL     1      -1.883  90.821 -16.961  1.00  0.00    -0.507 OA
ATOM     23  H   UNL     1      -0.989  90.995 -16.529  1.00  0.00     0.293 HD
ENDBRANCH   6  22
BRANCH   8  24
ATOM     24  O   UNL     1      -4.841  94.380 -15.686  1.00  0.00    -0.508 OA
ATOM     25  H   UNL     1      -4.525  95.317 -15.465  1.00  0.00     0.293 HD
ENDBRANCH   8  24
TORSDOF 5
ENDMDL
MODEL 3
REMARK VINA RESULT:    -5.402      7.204      9.023
REMARK INTER + INTRA:          -6.631
REMARK INTER:                  -6.348
REMARK INTRA:                  -0.283
REMARK UNBOUND:                -0.281
REMARK SMILES O=c1cc(-c2ccc(O)c(O)c2)oc2cc(O)cc(O)c12
REMARK SMILES IDX 4 1 3 2 2 3 1 4 21 5 19 6 18 7 16 8 15 9 14 10 13 11 5 12
REMARK SMILES IDX 6 13 7 14 8 15 12 16 10 17 9 18 11 20 20 22 17 24
REMARK H PARENT 9 19 11 21 20 23 17 25
REMARK Flexibility Score: inf
ROOT
ATOM      1  C   UNL     1      -4.917  87.914  -9.099  1.00  0.00     0.138 A 
ATOM      2  C   UNL     1      -6.075  87.383  -9.684  1.00  0.00     0.100 A 
ATOM      3  C   UNL     1      -6.189  86.004  -9.862  1.00  0.00     0.197 A 
ATOM      4  O   UNL     1      -7.264  85.555 -10.338  1.00  0.00    -0.289 OA
ATOM      5  C   UNL     1      -5.121  85.155  -9.485  1.00  0.00     0.107 A 
ATOM      6  C   UNL     1      -5.110  83.736  -9.650  1.00  0.00     0.134 A 
ATOM      7  C   UNL     1      -4.036  82.992  -9.147  1.00  0.00     0.093 A 
ATOM      8  C   UNL     1      -2.946  83.618  -8.539  1.00  0.00     0.123 A 
ATOM      9  C   UNL     1      -2.923  85.006  -8.417  1.00  0.00     0.094 A 
ATOM     10  C   UNL     1      -3.996  85.774  -8.877  1.00  0.00     0.146 A 
ATOM     11  O   UNL     1      -3.942  87.093  -8.724  1.00  0.00    -0.456 OA
ENDROOT
BRANCH   1  12
ATOM     12  C   UNL     1      -4.742  89.374  -8.888  1.00  0.00     0.021 A 
ATOM     13  C   UNL     1      -4.093  89.831  -7.727  1.00  0.00     0.016 A 
ATOM     14  C   UNL     1      -3.922  91.198  -7.502  1.00  0.00     0.051 A 
ATOM     15  C   UNL     1      -4.401  92.133  -8.422  1.00  0.00     0.157 A 
ATOM     16  C   UNL     1      -5.235  90.320  -9.808  1.00  0.00     0.062 A 
ATOM     17  C   UNL     1      -5.065  91.693  -9.580  1.00  0.00     0.158 A 
BRANCH  15  18
ATOM     18  O   UNL     1      -4.213  93.491  -8.171  1.00  0.00    -0.504 OA
ATOM     19  H   UNL     1      -3.969  93.840  -7.252  1.00  0.00     0.293 HD
ENDBRANCH  15  18
BRANCH  17  20
ATOM     20  O   UNL     1      -5.556  92.622 -10.497  1.00  0.00    -0.504 OA
ATOM     21  H   UNL     1      -6.456  93.069 -10.370  1.00  0.00     0.293 HD
ENDBRANCH  17  20
ENDBRANCH   1  12
BRANCH   6  22
ATOM     22  O   UNL     1      -6.109  83.018 -10.314  1.00  0.00    -0.507 OA
ATOM     23  H   UNL     1      -6.786  83.414 -10.947  1.00  0.00     0.293 HD
ENDBRANCH   6  22
BRANCH   8  24
ATOM     24  O   UNL     1      -1.875  82.869  -8.056  1.00  0.00    -0.508 OA
ATOM     25  H   UNL     1      -1.722  82.741  -7.064  1.00  0.00     0.293 HD
ENDBRANCH   8  24
TORSDOF 5
ENDMDL
MODEL 4
REMARK VINA RESULT:    -5.332      8.943     11.430
REMARK INTER + INTRA:          -6.549
REMARK INTER:                  -6.243
REMARK INTRA:                  -0.305
REMARK UNBOUND:                -0.281
REMARK SMILES O=c1cc(-c2ccc(O)c(O)c2)oc2cc(O)cc(O)c12
REMARK SMILES IDX 4 1 3 2 2 3 1 4 21 5 19 6 18 7 16 8 15 9 14 10 13 11 5 12
REMARK SMILES IDX 6 13 7 14 8 15 12 16 10 17 9 18 11 20 20 22 17 24
REMARK H PARENT 9 19 11 21 20 23 17 25
REMARK Flexibility Score: inf
ROOT
ATOM      1  C   UNL     1      -7.876  84.045  -8.689  1.00  0.00     0.138 A 
ATOM      2  C   UNL     1      -8.501  85.149  -8.091  1.00  0.00     0.100 A 
ATOM      3  C   UNL     1      -9.892  85.253  -8.119  1.00  0.00     0.197 A 
ATOM      4  O   UNL     1     -10.425  86.226  -7.525  1.00  0.00    -0.289 OA
ATOM      5  C   UNL     1     -10.659  84.264  -8.781  1.00  0.00     0.107 A 
ATOM      6  C   UNL     1     -12.082  84.283  -8.902  1.00  0.00     0.134 A 
ATOM      7  C   UNL     1     -12.738  83.197  -9.494  1.00  0.00     0.093 A 
ATOM      8  C   UNL     1     -12.020  82.121 -10.021  1.00  0.00     0.123 A 
ATOM      9  C   UNL     1     -10.629  82.116  -9.953  1.00  0.00     0.094 A 
ATOM     10  C   UNL     1      -9.947  83.168  -9.337  1.00  0.00     0.146 A 
ATOM     11  O   UNL     1      -8.620  83.115  -9.276  1.00  0.00    -0.456 OA
ENDROOT
BRANCH   1  12
ATOM     12  C   UNL     1      -6.399  83.886  -8.692  1.00  0.00     0.021 A 
ATOM     13  C   UNL     1      -5.645  84.421  -7.633  1.00  0.00     0.016 A 
ATOM     14  C   UNL     1      -4.255  84.291  -7.615  1.00  0.00     0.051 A 
ATOM     15  C   UNL     1      -3.592  83.636  -8.655  1.00  0.00     0.157 A 
ATOM     16  C   UNL     1      -5.726  83.237  -9.745  1.00  0.00     0.062 A 
ATOM     17  C   UNL     1      -4.329  83.108  -9.728  1.00  0.00     0.158 A 
BRANCH  15  18
ATOM     18  O   UNL     1      -2.203  83.520  -8.609  1.00  0.00    -0.504 OA
ATOM     19  H   UNL     1      -1.697  82.865  -9.193  1.00  0.00     0.293 HD
ENDBRANCH  15  18
BRANCH  17  20
ATOM     20  O   UNL     1      -3.672  82.463 -10.776  1.00  0.00    -0.504 OA
ATOM     21  H   UNL     1      -3.480  81.468 -10.749  1.00  0.00     0.293 HD
ENDBRANCH  17  20
ENDBRANCH   1  12
BRANCH   6  22
ATOM     22  O   UNL     1     -12.890  85.344  -8.482  1.00  0.00    -0.507 OA
ATOM     23  H   UNL     1     -13.798  85.248  -8.054  1.00  0.00     0.293 HD
ENDBRANCH   6  22
BRANCH   8  24
ATOM     24  O   UNL     1     -12.682  81.052 -10.623  1.00  0.00    -0.508 OA
ATOM     25  H   UNL     1     -12.188  80.378 -11.195  1.00  0.00     0.293 HD
ENDBRANCH   8  24
TORSDOF 5
ENDMDL
MODEL 5
REMARK VINA RESULT:    -5.286      4.085      6.352
REMARK INTER + INTRA:          -6.494
REMARK INTER:                  -6.188
REMARK INTRA:                  -0.305
REMARK UNBOUND:                -0.281
REMARK SMILES O=c1cc(-c2ccc(O)c(O)c2)oc2cc(O)cc(O)c12
REMARK SMILES IDX 4 1 3 2 2 3 1 4 21 5 19 6 18 7 16 8 15 9 14 10 13 11 5 12
REMARK SMILES IDX 6 13 7 14 8 15 12 16 10 17 9 18 11 20 20 22 17 24
REMARK H PARENT 9 19 11 21 20 23 17 25
REMARK Flexibility Score: inf
ROOT
ATOM      1  C   UNL     1      -4.695  92.081 -15.009  1.00  0.00     0.138 A 
ATOM      2  C   UNL     1      -4.128  92.984 -14.100  1.00  0.00     0.100 A 
ATOM      3  C   UNL     1      -4.236  92.743 -12.730  1.00  0.00     0.197 A 
ATOM      4  O   UNL     1      -3.667  93.542 -11.941  1.00  0.00    -0.289 OA
ATOM      5  C   UNL     1      -4.948  91.610 -12.268  1.00  0.00     0.107 A 
ATOM      6  C   UNL     1      -5.152  91.281 -10.893  1.00  0.00     0.134 A 
ATOM      7  C   UNL     1      -5.789  90.079 -10.559  1.00  0.00     0.093 A 
ATOM      8  C   UNL     1      -6.281  89.224 -11.548  1.00  0.00     0.123 A 
ATOM      9  C   UNL     1      -6.131  89.560 -12.891  1.00  0.00     0.094 A 
ATOM     10  C   UNL     1      -5.469  90.735 -13.258  1.00  0.00     0.146 A 
ATOM     11  O   UNL     1      -5.331  91.008 -14.551  1.00  0.00    -0.456 OA
ENDROOT
BRANCH   1  12
ATOM     12  C   UNL     1      -4.613  92.289 -16.478  1.00  0.00     0.021 A 
ATOM     13  C   UNL     1      -3.515  92.983 -17.016  1.00  0.00     0.016 A 
ATOM     14  C   UNL     1      -3.418  93.199 -18.392  1.00  0.00     0.051 A 
ATOM     15  C   UNL     1      -4.415  92.737 -19.254  1.00  0.00     0.157 A 
ATOM     16  C   UNL     1      -5.624  91.837 -17.349  1.00  0.00     0.062 A 
ATOM     17  C   UNL     1      -5.527  92.056 -18.730  1.00  0.00     0.158 A 
BRANCH  15  18
ATOM     18  O   UNL     1      -4.289  92.966 -20.623  1.00  0.00    -0.504 OA
ATOM     19  H   UNL     1      -4.717  93.764 -21.078  1.00  0.00     0.293 HD
ENDBRANCH  15  18
BRANCH  17  20
ATOM     20  O   UNL     1      -6.532  91.602 -19.584  1.00  0.00    -0.504 OA
ATOM     21  H   UNL     1      -6.520  91.810 -20.576  1.00  0.00     0.293 HD
ENDBRANCH  17  20
ENDBRANCH   1  12
BRANCH   6  22
ATOM     22  O   UNL     1      -4.773  92.101  -9.826  1.00  0.00    -0.507 OA
ATOM     23  H   UNL     1      -4.038  92.791  -9.858  1.00  0.00     0.293 HD
ENDBRANCH   6  22
BRANCH   8  24
ATOM     24  O   UNL     1      -6.927  88.039 -11.205  1.00  0.00    -0.508 OA
ATOM     25  H   UNL     1      -6.562  87.136 -11.483  1.00  0.00     0.293 HD
ENDBRANCH   8  24
TORSDOF 5
ENDMDL
MODEL 6
REMARK VINA RESULT:    -5.282      2.992      4.719
REMARK INTER + INTRA:          -6.490
REMARK INTER:                  -6.172
REMARK INTRA:                  -0.318
REMARK UNBOUND:                -0.281
REMARK SMILES O=c1cc(-c2ccc(O)c(O)c2)oc2cc(O)cc(O)c12
REMARK SMILES IDX 4 1 3 2 2 3 1 4 21 5 19 6 18 7 16 8 15 9 14 10 13 11 5 12
REMARK SMILES IDX 6 13 7 14 8 15 12 16 10 17 9 18 11 20 20 22 17 24
REMARK H PARENT 9 19 11 21 20 23 17 25
REMARK Flexibility Score: inf
ROOT
ATOM      1  C   UNL     1      -5.401  90.906 -15.348  1.00  0.00     0.138 A 
ATOM      2  C   UNL     1      -4.001  90.918 -15.272  1.00  0.00     0.100 A 
ATOM      3  C   UNL     1      -3.257  91.452 -16.324  1.00  0.00     0.197 A 
ATOM      4  O   UNL     1      -2.005  91.499 -16.201  1.00  0.00    -0.289 OA
ATOM      5  C   UNL     1      -3.918  91.945 -17.475  1.00  0.00     0.107 A 
ATOM      6  C   UNL     1      -3.261  92.482 -18.624  1.00  0.00     0.134 A 
ATOM      7  C   UNL     1      -4.026  93.030 -19.661  1.00  0.00     0.093 A 
ATOM      8  C   UNL     1      -5.421  93.008 -19.619  1.00  0.00     0.123 A 
ATOM      9  C   UNL     1      -6.072  92.441 -18.525  1.00  0.00     0.094 A 
ATOM     10  C   UNL     1      -5.338  91.918 -17.458  1.00  0.00     0.146 A 
ATOM     11  O   UNL     1      -5.998  91.403 -16.426  1.00  0.00    -0.456 OA
ENDROOT
BRANCH   1  12
ATOM     12  C   UNL     1      -6.242  90.346 -14.260  1.00  0.00     0.021 A 
ATOM     13  C   UNL     1      -5.627  89.866 -13.090  1.00  0.00     0.016 A 
ATOM     14  C   UNL     1      -6.394  89.329 -12.054  1.00  0.00     0.051 A 
ATOM     15  C   UNL     1      -7.784  89.251 -12.170  1.00  0.00     0.157 A 
ATOM     16  C   UNL     1      -7.643  90.254 -14.378  1.00  0.00     0.062 A 
ATOM     17  C   UNL     1      -8.413  89.712 -13.338  1.00  0.00     0.158 A 
BRANCH  15  18
ATOM     18  O   UNL     1      -8.524  88.711 -11.118  1.00  0.00    -0.504 OA
ATOM     19  H   UNL     1      -8.103  88.481 -10.226  1.00  0.00     0.293 HD
ENDBRANCH  15  18
BRANCH  17  20
ATOM     20  O   UNL     1      -9.799  89.627 -13.465  1.00  0.00    -0.504 OA
ATOM     21  H   UNL     1     -10.318  90.261 -14.060  1.00  0.00     0.293 HD
ENDBRANCH  17  20
ENDBRANCH   1  12
BRANCH   6  22
ATOM     22  O   UNL     1      -1.875  92.482 -18.806  1.00  0.00    -0.507 OA
ATOM     23  H   UNL     1      -1.193  92.526 -18.065  1.00  0.00     0.293 HD
ENDBRANCH   6  22
BRANCH   8  24
ATOM     24  O   UNL     1      -6.173  93.542 -20.663  1.00  0.00    -0.508 OA
ATOM     25  H   UNL     1      -6.601  92.951 -21.365  1.00  0.00     0.293 HD
ENDBRANCH   8  24
TORSDOF 5
ENDMDL
MODEL 7
REMARK VINA RESULT:    -5.274      8.049      8.997
REMARK INTER + INTRA:          -6.481
REMARK INTER:                  -6.205
REMARK INTRA:                  -0.275
REMARK UNBOUND:                -0.281
REMARK SMILES O=c1cc(-c2ccc(O)c(O)c2)oc2cc(O)cc(O)c12
REMARK SMILES IDX 4 1 3 2 2 3 1 4 21 5 19 6 18 7 16 8 15 9 14 10 13 11 5 12
REMARK SMILES IDX 6 13 7 14 8 15 12 16 10 17 9 18 11 20 20 22 17 24
REMARK H PARENT 9 19 11 21 20 23 17 25
REMARK Flexibility Score: inf
ROOT
ATOM      1  C   UNL     1      -9.795  84.216  -9.023  1.00  0.00     0.138 A 
ATOM      2  C   UNL     1      -9.712  85.588  -8.745  1.00  0.00     0.100 A 
ATOM      3  C   UNL     1      -8.479  86.235  -8.827  1.00  0.00     0.197 A 
ATOM      4  O   UNL     1      -8.447  87.476  -8.626  1.00  0.00    -0.289 OA
ATOM      5  C   UNL     1      -7.316  85.496  -9.153  1.00  0.00     0.107 A 
ATOM      6  C   UNL     1      -5.999  86.042  -9.232  1.00  0.00     0.134 A 
ATOM      7  C   UNL     1      -4.941  85.231  -9.662  1.00  0.00     0.093 A 
ATOM      8  C   UNL     1      -5.140  83.882  -9.958  1.00  0.00     0.123 A 
ATOM      9  C   UNL     1      -6.412  83.326  -9.836  1.00  0.00     0.094 A 
ATOM     10  C   UNL     1      -7.495  84.117  -9.444  1.00  0.00     0.146 A 
ATOM     11  O   UNL     1      -8.695  83.551  -9.358  1.00  0.00    -0.456 OA
ENDROOT
BRANCH   1  12
ATOM     12  C   UNL     1     -11.081  83.477  -8.949  1.00  0.00     0.021 A 
ATOM     13  C   UNL     1     -11.135  82.254  -8.257  1.00  0.00     0.016 A 
ATOM     14  C   UNL     1     -12.330  81.535  -8.178  1.00  0.00     0.051 A 
ATOM     15  C   UNL     1     -13.487  82.016  -8.794  1.00  0.00     0.157 A 
ATOM     16  C   UNL     1     -12.248  83.952  -9.580  1.00  0.00     0.062 A 
ATOM     17  C   UNL     1     -13.447  83.229  -9.502  1.00  0.00     0.158 A 
BRANCH  15  18
ATOM     18  O   UNL     1     -14.665  81.277  -8.696  1.00  0.00    -0.504 OA
ATOM     19  H   UNL     1     -14.809  80.420  -9.217  1.00  0.00     0.293 HD
ENDBRANCH  15  18
BRANCH  17  20
ATOM     20  O   UNL     1     -14.596  83.709 -10.129  1.00  0.00    -0.504 OA
ATOM     21  H   UNL     1     -14.565  84.114 -11.057  1.00  0.00     0.293 HD
ENDBRANCH  17  20
ENDBRANCH   1  12
BRANCH   6  22
ATOM     22  O   UNL     1      -5.673  87.356  -8.883  1.00  0.00    -0.507 OA
ATOM     23  H   UNL     1      -5.202  88.016  -9.482  1.00  0.00     0.293 HD
ENDBRANCH   6  22
BRANCH   8  24
ATOM     24  O   UNL     1      -4.078  83.080 -10.370  1.00  0.00    -0.508 OA
ATOM     25  H   UNL     1      -4.162  82.451 -11.159  1.00  0.00     0.293 HD
ENDBRANCH   8  24
TORSDOF 5
ENDMDL
MODEL 8
REMARK VINA RESULT:    -5.236      4.379      6.634
REMARK INTER + INTRA:          -6.436
REMARK INTER:                  -6.151
REMARK INTRA:                  -0.285
REMARK UNBOUND:                -0.281
REMARK SMILES O=c1cc(-c2ccc(O)c(O)c2)oc2cc(O)cc(O)c12
REMARK SMILES IDX 4 1 3 2 2 3 1 4 21 5 19 6 18 7 16 8 15 9 14 10 13 11 5 12
REMARK SMILES IDX 6 13 7 14 8 15 12 16 10 17 9 18 11 20 20 22 17 24
REMARK H PARENT 9 19 11 21 20 23 17 25
REMARK Flexibility Score: inf
ROOT
ATOM      1  C   UNL     1      -4.779  92.048 -14.952  1.00  0.00     0.138 A 
ATOM      2  C   UNL     1      -5.317  90.851 -14.459  1.00  0.00     0.100 A 
ATOM      3  C   UNL     1      -5.425  90.657 -13.082  1.00  0.00     0.197 A 
ATOM      4  O   UNL     1      -5.965  89.597 -12.673  1.00  0.00    -0.289 OA
ATOM      5  C   UNL     1      -4.957  91.654 -12.192  1.00  0.00     0.107 A 
ATOM      6  C   UNL     1      -4.985  91.553 -10.768  1.00  0.00     0.134 A 
ATOM      7  C   UNL     1      -4.584  92.647  -9.991  1.00  0.00     0.093 A 
ATOM      8  C   UNL     1      -4.102  93.815 -10.584  1.00  0.00     0.123 A 
ATOM      9  C   UNL     1      -4.024  93.906 -11.972  1.00  0.00     0.094 A 
ATOM     10  C   UNL     1      -4.450  92.845 -12.776  1.00  0.00     0.146 A 
ATOM     11  O   UNL     1      -4.376  92.981 -14.096  1.00  0.00    -0.456 OA
ENDROOT
BRANCH   1  12
ATOM     12  C   UNL     1      -4.637  92.305 -16.408  1.00  0.00     0.021 A 
ATOM     13  C   UNL     1      -3.541  93.052 -16.873  1.00  0.00     0.016 A 
ATOM     14  C   UNL     1      -3.388  93.315 -18.236  1.00  0.00     0.051 A 
ATOM     15  C   UNL     1      -4.329  92.847 -19.157  1.00  0.00     0.157 A 
ATOM     16  C   UNL     1      -5.591  91.846 -17.338  1.00  0.00     0.062 A 
ATOM     17  C   UNL     1      -5.438  92.112 -18.706  1.00  0.00     0.158 A 
BRANCH  15  18
ATOM     18  O   UNL     1      -4.149  93.123 -20.511  1.00  0.00    -0.504 OA
ATOM     19  H   UNL     1      -4.224  94.062 -20.885  1.00  0.00     0.293 HD
ENDBRANCH  15  18
BRANCH  17  20
ATOM     20  O   UNL     1      -6.387  91.652 -19.619  1.00  0.00    -0.504 OA
ATOM     21  H   UNL     1      -7.191  92.212 -19.877  1.00  0.00     0.293 HD
ENDBRANCH  17  20
ENDBRANCH   1  12
BRANCH   6  22
ATOM     22  O   UNL     1      -5.372  90.404 -10.072  1.00  0.00    -0.507 OA
ATOM     23  H   UNL     1      -6.148  89.810 -10.318  1.00  0.00     0.293 HD
ENDBRANCH   6  22
BRANCH   8  24
ATOM     24  O   UNL     1      -3.691  94.892  -9.802  1.00  0.00    -0.508 OA
ATOM     25  H   UNL     1      -3.395  95.767 -10.217  1.00  0.00     0.293 HD
ENDBRANCH   8  24
TORSDOF 5
ENDMDL
MODEL 9
REMARK VINA RESULT:    -5.198      8.168      9.718
REMARK INTER + INTRA:          -6.390
REMARK INTER:                  -6.104
REMARK INTRA:                  -0.287
REMARK UNBOUND:                -0.281
REMARK SMILES O=c1cc(-c2ccc(O)c(O)c2)oc2cc(O)cc(O)c12
REMARK SMILES IDX 4 1 3 2 2 3 1 4 21 5 19 6 18 7 16 8 15 9 14 10 13 11 5 12
REMARK SMILES IDX 6 13 7 14 8 15 12 16 10 17 9 18 11 20 20 22 17 24
REMARK H PARENT 9 19 11 21 20 23 17 25
REMARK Flexibility Score: inf
ROOT
ATOM      1  C   UNL     1      -4.696  85.761  -9.157  1.00  0.00     0.138 A 
ATOM      2  C   UNL     1      -5.822  85.983  -9.962  1.00  0.00     0.100 A 
ATOM      3  C   UNL     1      -6.297  87.282 -10.142  1.00  0.00     0.197 A 
ATOM      4  O   UNL     1      -7.275  87.454 -10.915  1.00  0.00    -0.289 OA
ATOM      5  C   UNL     1      -5.661  88.362  -9.482  1.00  0.00     0.107 A 
ATOM      6  C   UNL     1      -6.078  89.725  -9.565  1.00  0.00     0.134 A 
ATOM      7  C   UNL     1      -5.309  90.719  -8.946  1.00  0.00     0.093 A 
ATOM      8  C   UNL     1      -4.174  90.394  -8.201  1.00  0.00     0.123 A 
ATOM      9  C   UNL     1      -3.787  89.062  -8.073  1.00  0.00     0.094 A 
ATOM     10  C   UNL     1      -4.513  88.050  -8.707  1.00  0.00     0.146 A 
ATOM     11  O   UNL     1      -4.098  86.795  -8.574  1.00  0.00    -0.456 OA
ENDROOT
BRANCH   1  12
ATOM     12  C   UNL     1      -4.150  84.399  -8.928  1.00  0.00     0.021 A 
ATOM     13  C   UNL     1      -3.520  84.104  -7.706  1.00  0.00     0.016 A 
ATOM     14  C   UNL     1      -2.992  82.833  -7.468  1.00  0.00     0.051 A 
ATOM     15  C   UNL     1      -3.073  81.839  -8.445  1.00  0.00     0.157 A 
ATOM     16  C   UNL     1      -4.218  83.397  -9.916  1.00  0.00     0.062 A 
ATOM     17  C   UNL     1      -3.686  82.122  -9.677  1.00  0.00     0.158 A 
BRANCH  15  18
ATOM     18  O   UNL     1      -2.539  80.579  -8.178  1.00  0.00    -0.504 OA
ATOM     19  H   UNL     1      -2.851  80.016  -7.396  1.00  0.00     0.293 HD
ENDBRANCH  15  18
BRANCH  17  20
ATOM     20  O   UNL     1      -3.760  81.136 -10.661  1.00  0.00    -0.504 OA
ATOM     21  H   UNL     1      -2.955  80.886 -11.224  1.00  0.00     0.293 HD
ENDBRANCH  17  20
ENDBRANCH   1  12
BRANCH   6  22
ATOM     22  O   UNL     1      -7.239  90.152 -10.216  1.00  0.00    -0.507 OA
ATOM     23  H   UNL     1      -7.264  90.639 -11.098  1.00  0.00     0.293 HD
ENDBRANCH   6  22
BRANCH   8  24
ATOM     24  O   UNL     1      -3.425  91.390  -7.576  1.00  0.00    -0.508 OA
ATOM     25  H   UNL     1      -2.641  91.833  -8.040  1.00  0.00     0.293 HD
ENDBRANCH   8  24
TORSDOF 5
ENDMDL
