MODEL 1
REMARK VINA RESULT:    -3.592      0.000      0.000
REMARK INTER + INTRA:          -7.103
REMARK INTER:                  -5.692
REMARK INTRA:                  -1.411
REMARK UNBOUND:                -1.411
REMARK SMILES C=CCCCCCCCCCCC
REMARK SMILES IDX 7 1 8 2 9 3 10 4 11 5 12 6 13 7 6 8 5 9 4 10 3 11 2 12 1 13
REMARK H PARENT
REMARK Flexibility Score: inf
ROOT
ATOM      1  C   UNL     1      14.466  13.186  36.662  1.00  0.00     0.000 C 
ENDROOT
BRANCH   1   2
ATOM      2  C   UNL     1      13.344  13.895  37.439  1.00  0.00     0.000 C 
BRANCH   2   3
ATOM      3  C   UNL     1      11.942  13.475  36.975  1.00  0.00    -0.000 C 
BRANCH   3   4
ATOM      4  C   UNL     1      10.883  13.849  38.022  1.00  0.00    -0.000 C 
BRANCH   4   5
ATOM      5  C   UNL     1      11.480  14.583  39.234  1.00  0.00    -0.000 C 
BRANCH   5   6
ATOM      6  C   UNL     1      10.570  15.707  39.752  1.00  0.00    -0.003 C 
ATOM      7  C   UNL     1       9.335  15.864  38.869  1.00  0.00     0.004 C 
ENDBRANCH   5   6
ENDBRANCH   4   5
ENDBRANCH   3   4
ENDBRANCH   2   3
ENDBRANCH   1   2
BRANCH   1   8
ATOM      8  C   UNL     1      15.588  14.149  36.235  1.00  0.00     0.000 C 
BRANCH   8   9
ATOM      9  C   UNL     1      15.215  15.624  36.454  1.00  0.00     0.000 C 
BRANCH   9  10
ATOM     10  C   UNL     1      14.908  16.360  35.138  1.00  0.00     0.004 C 
BRANCH  10  11
ATOM     11  C   UNL     1      13.894  17.494  35.334  1.00  0.00     0.027 C 
BRANCH  11  12
ATOM     12  C   UNL     1      13.146  17.350  36.633  1.00  0.00    -0.035 C 
ATOM     13  C   UNL     1      11.860  17.692  36.749  1.00  0.00     0.004 C 
ENDBRANCH  11  12
ENDBRANCH  10  11
ENDBRANCH   9  10
ENDBRANCH   8   9
ENDBRANCH   1   8
TORSDOF 10
ENDMDL
MODEL 2
REMARK VINA RESULT:    -3.493     13.058     14.860
REMARK INTER + INTRA:          -6.946
REMARK INTER:                  -5.720
REMARK INTRA:                  -1.226
REMARK UNBOUND:                -1.411
REMARK SMILES C=CCCCCCCCCCCC
REMARK SMILES IDX 7 1 8 2 9 3 10 4 11 5 12 6 13 7 6 8 5 9 4 10 3 11 2 12 1 13
REMARK H PARENT
REMARK Flexibility Score: inf
ROOT
ATOM      1  C   UNL     1       9.718  20.030  23.341  1.00  0.00     0.000 C 
ENDROOT
BRANCH   1   2
ATOM      2  C   UNL     1       9.003  19.557  22.065  1.00  0.00     0.000 C 
BRANCH   2   3
ATOM      3  C   UNL     1       8.180  18.278  22.285  1.00  0.00    -0.000 C 
BRANCH   3   4
ATOM      4  C   UNL     1       7.188  18.457  23.443  1.00  0.00    -0.000 C 
BRANCH   4   5
ATOM      5  C   UNL     1       5.984  19.335  23.062  1.00  0.00    -0.000 C 
BRANCH   5   6
ATOM      6  C   UNL     1       5.194  18.772  21.871  1.00  0.00    -0.003 C 
ATOM      7  C   UNL     1       4.313  19.847  21.240  1.00  0.00     0.004 C 
ENDBRANCH   5   6
ENDBRANCH   4   5
ENDBRANCH   3   4
ENDBRANCH   2   3
ENDBRANCH   1   2
BRANCH   1   8
ATOM      8  C   UNL     1      10.844  19.076  23.775  1.00  0.00     0.000 C 
BRANCH   8   9
ATOM      9  C   UNL     1      11.231  19.253  25.253  1.00  0.00     0.000 C 
BRANCH   9  10
ATOM     10  C   UNL     1      10.098  19.865  26.094  1.00  0.00     0.004 C 
BRANCH  10  11
ATOM     11  C   UNL     1       9.489  18.849  27.068  1.00  0.00     0.027 C 
BRANCH  11  12
ATOM     12  C   UNL     1       7.985  18.830  26.982  1.00  0.00    -0.035 C 
ATOM     13  C   UNL     1       7.280  19.932  26.712  1.00  0.00     0.004 C 
ENDBRANCH  11  12
ENDBRANCH  10  11
ENDBRANCH   9  10
ENDBRANCH   8   9
ENDBRANCH   1   8
TORSDOF 10
ENDMDL
MODEL 3
REMARK VINA RESULT:    -3.480      1.024      2.962
REMARK INTER + INTRA:          -6.926
REMARK INTER:                  -5.562
REMARK INTRA:                  -1.364
REMARK UNBOUND:                -1.411
REMARK SMILES C=CCCCCCCCCCCC
REMARK SMILES IDX 7 1 8 2 9 3 10 4 11 5 12 6 13 7 6 8 5 9 4 10 3 11 2 12 1 13
REMARK H PARENT
REMARK Flexibility Score: inf
ROOT
ATOM      1  C   UNL     1      11.916  13.487  37.143  1.00  0.00     0.000 C 
ENDROOT
BRANCH   1   2
ATOM      2  C   UNL     1      10.918  13.968  38.209  1.00  0.00     0.000 C 
BRANCH   2   3
ATOM      3  C   UNL     1      11.603  14.686  39.382  1.00  0.00    -0.000 C 
BRANCH   3   4
ATOM      4  C   UNL     1      10.991  16.077  39.606  1.00  0.00    -0.000 C 
BRANCH   4   5
ATOM      5  C   UNL     1      10.753  16.838  38.291  1.00  0.00    -0.000 C 
BRANCH   5   6
ATOM      6  C   UNL     1      11.992  17.617  37.826  1.00  0.00    -0.003 C 
ATOM      7  C   UNL     1      12.114  17.596  36.304  1.00  0.00     0.004 C 
ENDBRANCH   5   6
ENDBRANCH   4   5
ENDBRANCH   3   4
ENDBRANCH   2   3
ENDBRANCH   1   2
BRANCH   1   8
ATOM      8  C   UNL     1      13.270  14.213  37.231  1.00  0.00     0.000 C 
BRANCH   8   9
ATOM      9  C   UNL     1      14.441  13.336  36.757  1.00  0.00     0.000 C 
BRANCH   9  10
ATOM     10  C   UNL     1      15.618  14.162  36.210  1.00  0.00     0.004 C 
BRANCH  10  11
ATOM     11  C   UNL     1      15.350  15.670  36.290  1.00  0.00     0.027 C 
BRANCH  11  12
ATOM     12  C   UNL     1      16.163  16.322  37.377  1.00  0.00    -0.035 C 
ATOM     13  C   UNL     1      15.778  17.459  37.962  1.00  0.00     0.004 C 
ENDBRANCH  11  12
ENDBRANCH  10  11
ENDBRANCH   9  10
ENDBRANCH   8   9
ENDBRANCH   1   8
TORSDOF 10
ENDMDL
MODEL 4
REMARK VINA RESULT:    -3.469     11.517     13.795
REMARK INTER + INTRA:          -6.908
REMARK INTER:                  -5.519
REMARK INTRA:                  -1.389
REMARK UNBOUND:                -1.411
REMARK SMILES C=CCCCCCCCCCCC
REMARK SMILES IDX 7 1 8 2 9 3 10 4 11 5 12 6 13 7 6 8 5 9 4 10 3 11 2 12 1 13
REMARK H PARENT
REMARK Flexibility Score: inf
ROOT
ATOM      1  C   UNL     1       7.019  20.298  25.468  1.00  0.00     0.000 C 
ENDROOT
BRANCH   1   2
ATOM      2  C   UNL     1       7.780  19.248  26.294  1.00  0.00     0.000 C 
BRANCH   2   3
ATOM      3  C   UNL     1       9.198  19.703  26.673  1.00  0.00    -0.000 C 
BRANCH   3   4
ATOM      4  C   UNL     1      10.007  18.539  27.262  1.00  0.00    -0.000 C 
BRANCH   4   5
ATOM      5  C   UNL     1      11.476  18.910  27.522  1.00  0.00    -0.000 C 
BRANCH   5   6
ATOM      6  C   UNL     1      11.944  20.102  26.674  1.00  0.00    -0.003 C 
ATOM      7  C   UNL     1      13.463  20.245  26.720  1.00  0.00     0.004 C 
ENDBRANCH   5   6
ENDBRANCH   4   5
ENDBRANCH   3   4
ENDBRANCH   2   3
ENDBRANCH   1   2
BRANCH   1   8
ATOM      8  C   UNL     1       7.469  20.332  23.997  1.00  0.00     0.000 C 
BRANCH   8   9
ATOM      9  C   UNL     1       7.531  18.931  23.367  1.00  0.00     0.000 C 
BRANCH   9  10
ATOM     10  C   UNL     1       8.842  18.683  22.601  1.00  0.00     0.004 C 
BRANCH  10  11
ATOM     11  C   UNL     1       9.985  19.568  23.112  1.00  0.00     0.027 C 
BRANCH  11  12
ATOM     12  C   UNL     1      11.250  18.777  23.317  1.00  0.00    -0.035 C 
ATOM     13  C   UNL     1      12.457  19.304  23.094  1.00  0.00     0.004 C 
ENDBRANCH  11  12
ENDBRANCH  10  11
ENDBRANCH   9  10
ENDBRANCH   8   9
ENDBRANCH   1   8
TORSDOF 10
ENDMDL
MODEL 5
REMARK VINA RESULT:    -3.464     13.242     15.180
REMARK INTER + INTRA:          -6.900
REMARK INTER:                  -5.730
REMARK INTRA:                  -1.170
REMARK UNBOUND:                -1.411
REMARK SMILES C=CCCCCCCCCCCC
REMARK SMILES IDX 7 1 8 2 9 3 10 4 11 5 12 6 13 7 6 8 5 9 4 10 3 11 2 12 1 13
REMARK H PARENT
REMARK Flexibility Score: inf
ROOT
ATOM      1  C   UNL     1       7.132  20.177  24.800  1.00  0.00     0.000 C 
ENDROOT
BRANCH   1   2
ATOM      2  C   UNL     1       7.184  19.964  26.322  1.00  0.00     0.000 C 
BRANCH   2   3
ATOM      3  C   UNL     1       8.230  18.919  26.740  1.00  0.00    -0.000 C 
BRANCH   3   4
ATOM      4  C   UNL     1       9.558  19.593  27.113  1.00  0.00    -0.000 C 
BRANCH   4   5
ATOM      5  C   UNL     1      10.754  19.016  26.338  1.00  0.00    -0.000 C 
BRANCH   5   6
ATOM      6  C   UNL     1      11.125  19.859  25.109  1.00  0.00    -0.003 C 
ATOM      7  C   UNL     1      11.269  18.985  23.867  1.00  0.00     0.004 C 
ENDBRANCH   5   6
ENDBRANCH   4   5
ENDBRANCH   3   4
ENDBRANCH   2   3
ENDBRANCH   1   2
BRANCH   1   8
ATOM      8  C   UNL     1       7.537  18.918  24.013  1.00  0.00     0.000 C 
BRANCH   8   9
ATOM      9  C   UNL     1       7.040  18.946  22.558  1.00  0.00     0.000 C 
BRANCH   9  10
ATOM     10  C   UNL     1       5.678  18.253  22.383  1.00  0.00     0.004 C 
BRANCH  10  11
ATOM     11  C   UNL     1       4.695  19.109  21.574  1.00  0.00     0.027 C 
BRANCH  11  12
ATOM     12  C   UNL     1       3.577  19.634  22.435  1.00  0.00    -0.035 C 
ATOM     13  C   UNL     1       3.707  20.746  23.161  1.00  0.00     0.004 C 
ENDBRANCH  11  12
ENDBRANCH  10  11
ENDBRANCH   9  10
ENDBRANCH   8   9
ENDBRANCH   1   8
TORSDOF 10
ENDMDL
MODEL 6
REMARK VINA RESULT:    -3.458     12.975     14.860
REMARK INTER + INTRA:          -6.890
REMARK INTER:                  -5.785
REMARK INTRA:                  -1.105
REMARK UNBOUND:                -1.411
REMARK SMILES C=CCCCCCCCCCCC
REMARK SMILES IDX 7 1 8 2 9 3 10 4 11 5 12 6 13 7 6 8 5 9 4 10 3 11 2 12 1 13
REMARK H PARENT
REMARK Flexibility Score: inf
ROOT
ATOM      1  C   UNL     1       7.599  20.282  25.576  1.00  0.00     0.000 C 
ENDROOT
BRANCH   1   2
ATOM      2  C   UNL     1       6.831  19.986  24.277  1.00  0.00     0.000 C 
BRANCH   2   3
ATOM      3  C   UNL     1       7.456  18.841  23.465  1.00  0.00    -0.000 C 
BRANCH   3   4
ATOM      4  C   UNL     1       6.400  18.149  22.592  1.00  0.00    -0.000 C 
BRANCH   4   5
ATOM      5  C   UNL     1       5.031  18.844  22.654  1.00  0.00    -0.000 C 
BRANCH   5   6
ATOM      6  C   UNL     1       4.611  19.446  21.304  1.00  0.00    -0.003 C 
ATOM      7  C   UNL     1       4.337  20.942  21.432  1.00  0.00     0.004 C 
ENDBRANCH   5   6
ENDBRANCH   4   5
ENDBRANCH   3   4
ENDBRANCH   2   3
ENDBRANCH   1   2
BRANCH   1   8
ATOM      8  C   UNL     1       7.372  19.208  26.654  1.00  0.00     0.000 C 
BRANCH   8   9
ATOM      9  C   UNL     1       8.688  18.684  27.251  1.00  0.00     0.000 C 
BRANCH   9  10
ATOM     10  C   UNL     1       9.866  19.648  27.028  1.00  0.00     0.004 C 
BRANCH  10  11
ATOM     11  C   UNL     1      11.127  18.916  26.552  1.00  0.00     0.027 C 
BRANCH  11  12
ATOM     12  C   UNL     1      11.628  19.469  25.243  1.00  0.00    -0.035 C 
ATOM     13  C   UNL     1      11.017  19.205  24.086  1.00  0.00     0.004 C 
ENDBRANCH  11  12
ENDBRANCH  10  11
ENDBRANCH   9  10
ENDBRANCH   8   9
ENDBRANCH   1   8
TORSDOF 10
ENDMDL
MODEL 7
REMARK VINA RESULT:    -3.456     12.101     14.502
REMARK INTER + INTRA:          -6.888
REMARK INTER:                  -5.108
REMARK INTRA:                  -1.779
REMARK UNBOUND:                -1.411
REMARK SMILES C=CCCCCCCCCCCC
REMARK SMILES IDX 7 1 8 2 9 3 10 4 11 5 12 6 13 7 6 8 5 9 4 10 3 11 2 12 1 13
REMARK H PARENT
REMARK Flexibility Score: inf
ROOT
ATOM      1  C   UNL     1       7.275  18.672  23.442  1.00  0.00     0.000 C 
ENDROOT
BRANCH   1   2
ATOM      2  C   UNL     1       8.399  18.507  22.406  1.00  0.00     0.000 C 
BRANCH   2   3
ATOM      3  C   UNL     1       9.496  19.574  22.544  1.00  0.00    -0.000 C 
BRANCH   3   4
ATOM      4  C   UNL     1      10.576  19.124  23.539  1.00  0.00    -0.000 C 
BRANCH   4   5
ATOM      5  C   UNL     1      11.629  20.213  23.804  1.00  0.00    -0.000 C 
BRANCH   5   6
ATOM      6  C   UNL     1      11.080  21.631  23.592  1.00  0.00    -0.003 C 
ATOM      7  C   UNL     1      10.628  22.248  24.914  1.00  0.00     0.004 C 
ENDBRANCH   5   6
ENDBRANCH   4   5
ENDBRANCH   3   4
ENDBRANCH   2   3
ENDBRANCH   1   2
BRANCH   1   8
ATOM      8  C   UNL     1       7.014  20.146  23.801  1.00  0.00     0.000 C 
BRANCH   8   9
ATOM      9  C   UNL     1       7.003  20.390  25.318  1.00  0.00     0.000 C 
BRANCH   9  10
ATOM     10  C   UNL     1       7.687  19.261  26.107  1.00  0.00     0.004 C 
BRANCH  10  11
ATOM     11  C   UNL     1       8.915  19.759  26.880  1.00  0.00     0.027 C 
BRANCH  11  12
ATOM     12  C   UNL     1       9.857  18.632  27.211  1.00  0.00    -0.035 C 
ATOM     13  C   UNL     1      11.171  18.828  27.348  1.00  0.00     0.004 C 
ENDBRANCH  11  12
ENDBRANCH  10  11
ENDBRANCH   9  10
ENDBRANCH   8   9
ENDBRANCH   1   8
TORSDOF 10
ENDMDL
MODEL 8
REMARK VINA RESULT:    -3.445     12.469     14.413
REMARK INTER + INTRA:          -6.870
REMARK INTER:                  -5.261
REMARK INTRA:                  -1.609
REMARK UNBOUND:                -1.411
REMARK SMILES C=CCCCCCCCCCCC
REMARK SMILES IDX 7 1 8 2 9 3 10 4 11 5 12 6 13 7 6 8 5 9 4 10 3 11 2 12 1 13
REMARK H PARENT
REMARK Flexibility Score: inf
ROOT
ATOM      1  C   UNL     1      11.269  20.397  24.180  1.00  0.00     0.000 C 
ENDROOT
BRANCH   1   2
ATOM      2  C   UNL     1      10.560  19.206  23.514  1.00  0.00     0.000 C 
BRANCH   2   3
ATOM      3  C   UNL     1       9.201  19.587  22.908  1.00  0.00    -0.000 C 
BRANCH   3   4
ATOM      4  C   UNL     1       8.483  18.350  22.350  1.00  0.00    -0.000 C 
BRANCH   4   5
ATOM      5  C   UNL     1       7.060  18.187  22.909  1.00  0.00    -0.000 C 
BRANCH   5   6
ATOM      6  C   UNL     1       6.025  19.023  22.142  1.00  0.00    -0.003 C 
ATOM      7  C   UNL     1       5.374  20.061  23.052  1.00  0.00     0.004 C 
ENDBRANCH   5   6
ENDBRANCH   4   5
ENDBRANCH   3   4
ENDBRANCH   2   3
ENDBRANCH   1   2
BRANCH   1   8
ATOM      8  C   UNL     1      11.037  20.447  25.700  1.00  0.00     0.000 C 
BRANCH   8   9
ATOM      9  C   UNL     1      10.727  19.064  26.296  1.00  0.00     0.000 C 
BRANCH   9  10
ATOM     10  C   UNL     1       9.495  19.077  27.218  1.00  0.00     0.004 C 
BRANCH  10  11
ATOM     11  C   UNL     1       8.187  18.917  26.434  1.00  0.00     0.027 C 
BRANCH  11  12
ATOM     12  C   UNL     1       7.301  20.126  26.579  1.00  0.00    -0.035 C 
ATOM     13  C   UNL     1       7.458  21.211  25.818  1.00  0.00     0.004 C 
ENDBRANCH  11  12
ENDBRANCH  10  11
ENDBRANCH   9  10
ENDBRANCH   8   9
ENDBRANCH   1   8
TORSDOF 10
ENDMDL
MODEL 9
REMARK VINA RESULT:    -3.421     13.171     15.015
REMARK INTER + INTRA:          -6.832
REMARK INTER:                  -5.501
REMARK INTRA:                  -1.330
REMARK UNBOUND:                -1.411
REMARK SMILES C=CCCCCCCCCCCC
REMARK SMILES IDX 7 1 8 2 9 3 10 4 11 5 12 6 13 7 6 8 5 9 4 10 3 11 2 12 1 13
REMARK H PARENT
REMARK Flexibility Score: inf
ROOT
ATOM      1  C   UNL     1       9.524  19.544  22.823  1.00  0.00     0.000 C 
ENDROOT
BRANCH   1   2
ATOM      2  C   UNL     1      10.792  18.877  23.380  1.00  0.00     0.000 C 
BRANCH   2   3
ATOM      3  C   UNL     1      11.065  19.250  24.846  1.00  0.00    -0.000 C 
BRANCH   3   4
ATOM      4  C   UNL     1      10.321  20.536  25.231  1.00  0.00    -0.000 C 
BRANCH   4   5
ATOM      5  C   UNL     1       9.643  20.440  26.607  1.00  0.00    -0.000 C 
BRANCH   5   6
ATOM      6  C   UNL     1       9.221  19.006  26.961  1.00  0.00    -0.003 C 
ATOM      7  C   UNL     1       7.702  18.859  26.932  1.00  0.00     0.004 C 
ENDBRANCH   5   6
ENDBRANCH   4   5
ENDBRANCH   3   4
ENDBRANCH   2   3
ENDBRANCH   1   2
BRANCH   1   8
ATOM      8  C   UNL     1       8.500  18.522  22.300  1.00  0.00     0.000 C 
BRANCH   8   9
ATOM      9  C   UNL     1       7.251  18.429  23.192  1.00  0.00     0.000 C 
BRANCH   9  10
ATOM     10  C   UNL     1       6.697  19.810  23.584  1.00  0.00     0.004 C 
BRANCH  10  11
ATOM     11  C   UNL     1       5.823  20.415  22.478  1.00  0.00     0.027 C 
BRANCH  11  12
ATOM     12  C   UNL     1       4.835  19.414  21.941  1.00  0.00    -0.035 C 
ATOM     13  C   UNL     1       3.593  19.319  22.424  1.00  0.00     0.004 C 
ENDBRANCH  11  12
ENDBRANCH  10  11
ENDBRANCH   9  10
ENDBRANCH   8   9
ENDBRANCH   1   8
TORSDOF 10
ENDMDL
