MODEL 1
REMARK VINA RESULT:    -3.722      0.000      0.000
REMARK INTER + INTRA:          -3.831
REMARK INTER:                  -3.831
REMARK INTRA:                   0.000
REMARK UNBOUND:                 0.000
REMARK SMILES CC1(C)[C@H]2CC[C@](C)(C2)[C@H]1O
REMARK SMILES IDX 1 1 2 2 4 3 5 4 6 5 7 6 9 7 10 8 8 9 3 10 11 11
REMARK H PARENT 11 12
REMARK Flexibility Score: inf
ROOT
ATOM      1  C   UNL     1       8.041   0.050  -2.126  1.00  0.00     0.014 C 
ATOM      2  C   UNL     1       6.954   0.975  -1.525  1.00  0.00    -0.006 C 
ATOM      3  C   UNL     1       7.428   2.469  -1.584  1.00  0.00    -0.002 C 
ATOM      4  C   UNL     1       6.274   3.436  -1.240  1.00  0.00     0.005 C 
ATOM      5  C   UNL     1       6.030   3.159   0.251  1.00  0.00     0.010 C 
ATOM      6  C   UNL     1       7.150   2.149   0.599  1.00  0.00    -0.006 C 
ATOM      7  C   UNL     1       8.263   2.601  -0.321  1.00  0.00     0.013 C 
ATOM      8  C   UNL     1       6.814   0.748   0.017  1.00  0.00     0.126 C 
ATOM      9  C   UNL     1       7.538   2.136   2.081  1.00  0.00     0.014 C 
ATOM     10  C   UNL     1       5.643   0.716  -2.312  1.00  0.00     0.014 C 
ENDROOT
BRANCH   8  11
ATOM     11  O   UNL     1       5.528   0.315   0.391  1.00  0.00    -0.392 OA
ATOM     12  H   UNL     1       4.931   0.497  -0.381  1.00  0.00     0.211 HD
ENDBRANCH   8  11
TORSDOF 1
ENDMDL
MODEL 2
REMARK VINA RESULT:    -3.600      1.638      3.186
REMARK INTER + INTRA:          -3.705
REMARK INTER:                  -3.705
REMARK INTRA:                   0.000
REMARK UNBOUND:                 0.000
REMARK SMILES CC1(C)[C@H]2CC[C@](C)(C2)[C@H]1O
REMARK SMILES IDX 1 1 2 2 4 3 5 4 6 5 7 6 9 7 10 8 8 9 3 10 11 11
REMARK H PARENT 11 12
REMARK Flexibility Score: inf
ROOT
ATOM      1  C   UNL     1       7.528  -0.164   0.686  1.00  0.00     0.014 C 
ATOM      2  C   UNL     1       7.162   1.316   0.417  1.00  0.00    -0.006 C 
ATOM      3  C   UNL     1       5.654   1.431   0.004  1.00  0.00    -0.002 C 
ATOM      4  C   UNL     1       5.189   2.903  -0.015  1.00  0.00     0.005 C 
ATOM      5  C   UNL     1       5.968   3.492  -1.201  1.00  0.00     0.010 C 
ATOM      6  C   UNL     1       6.694   2.254  -1.780  1.00  0.00    -0.006 C 
ATOM      7  C   UNL     1       5.698   1.153  -1.489  1.00  0.00     0.013 C 
ATOM      8  C   UNL     1       7.883   1.848  -0.865  1.00  0.00     0.126 C 
ATOM      9  C   UNL     1       7.059   2.384  -3.263  1.00  0.00     0.014 C 
ATOM     10  C   UNL     1       7.510   2.116   1.700  1.00  0.00     0.014 C 
ENDROOT
BRANCH   8  11
ATOM     11  O   UNL     1       8.740   2.933  -0.602  1.00  0.00    -0.392 OA
ATOM     12  H   UNL     1       9.601   2.547  -0.294  1.00  0.00     0.211 HD
ENDBRANCH   8  11
TORSDOF 1
ENDMDL
MODEL 3
REMARK VINA RESULT:    -3.476      1.500      2.345
REMARK INTER + INTRA:          -3.578
REMARK INTER:                  -3.578
REMARK INTRA:                   0.000
REMARK UNBOUND:                 0.000
REMARK SMILES CC1(C)[C@H]2CC[C@](C)(C2)[C@H]1O
REMARK SMILES IDX 1 1 2 2 4 3 5 4 6 5 7 6 9 7 10 8 8 9 3 10 11 11
REMARK H PARENT 11 12
REMARK Flexibility Score: inf
ROOT
ATOM      1  C   UNL     1       8.780   3.672  -1.485  1.00  0.00     0.014 C 
ATOM      2  C   UNL     1       7.443   2.894  -1.413  1.00  0.00    -0.006 C 
ATOM      3  C   UNL     1       6.690   3.240  -0.081  1.00  0.00    -0.002 C 
ATOM      4  C   UNL     1       5.247   2.692  -0.096  1.00  0.00     0.005 C 
ATOM      5  C   UNL     1       5.458   1.172  -0.044  1.00  0.00     0.010 C 
ATOM      6  C   UNL     1       6.993   1.046   0.108  1.00  0.00    -0.006 C 
ATOM      7  C   UNL     1       7.322   2.283   0.915  1.00  0.00     0.013 C 
ATOM      8  C   UNL     1       7.697   1.359  -1.242  1.00  0.00     0.126 C 
ATOM      9  C   UNL     1       7.449  -0.262   0.764  1.00  0.00     0.014 C 
ATOM     10  C   UNL     1       6.633   3.250  -2.687  1.00  0.00     0.014 C 
ENDROOT
BRANCH   8  11
ATOM     11  O   UNL     1       7.170   0.597  -2.301  1.00  0.00    -0.392 OA
ATOM     12  H   UNL     1       6.872   1.241  -2.995  1.00  0.00     0.211 HD
ENDBRANCH   8  11
TORSDOF 1
ENDMDL
MODEL 4
REMARK VINA RESULT:    -3.434     13.281     14.189
REMARK INTER + INTRA:          -3.534
REMARK INTER:                  -3.534
REMARK INTRA:                   0.000
REMARK UNBOUND:                 0.000
REMARK SMILES CC1(C)[C@H]2CC[C@](C)(C2)[C@H]1O
REMARK SMILES IDX 1 1 2 2 4 3 5 4 6 5 7 6 9 7 10 8 8 9 3 10 11 11
REMARK H PARENT 11 12
REMARK Flexibility Score: inf
ROOT
ATOM      1  C   UNL     1      -5.648  -6.760   4.459  1.00  0.00     0.014 C 
ATOM      2  C   UNL     1      -4.421  -5.815   4.467  1.00  0.00    -0.006 C 
ATOM      3  C   UNL     1      -3.495  -6.146   5.689  1.00  0.00    -0.002 C 
ATOM      4  C   UNL     1      -2.143  -5.409   5.581  1.00  0.00     0.005 C 
ATOM      5  C   UNL     1      -2.540  -3.938   5.776  1.00  0.00     0.010 C 
ATOM      6  C   UNL     1      -4.054  -4.030   6.082  1.00  0.00    -0.006 C 
ATOM      7  C   UNL     1      -4.136  -5.352   6.814  1.00  0.00     0.013 C 
ATOM      8  C   UNL     1      -4.849  -4.344   4.784  1.00  0.00     0.126 C 
ATOM      9  C   UNL     1      -4.601  -2.843   6.882  1.00  0.00     0.014 C 
ATOM     10  C   UNL     1      -3.711  -5.973   3.097  1.00  0.00     0.014 C 
ENDROOT
BRANCH   8  11
ATOM     11  O   UNL     1      -4.538  -3.448   3.745  1.00  0.00    -0.392 OA
ATOM     12  H   UNL     1      -3.666  -3.739   3.369  1.00  0.00     0.211 HD
ENDBRANCH   8  11
TORSDOF 1
ENDMDL
MODEL 5
REMARK VINA RESULT:    -3.356      1.954      3.309
REMARK INTER + INTRA:          -3.454
REMARK INTER:                  -3.454
REMARK INTRA:                   0.000
REMARK UNBOUND:                 0.000
REMARK SMILES CC1(C)[C@H]2CC[C@](C)(C2)[C@H]1O
REMARK SMILES IDX 1 1 2 2 4 3 5 4 6 5 7 6 9 7 10 8 8 9 3 10 11 11
REMARK H PARENT 11 12
REMARK Flexibility Score: inf
ROOT
ATOM      1  C   UNL     1       8.477   0.664  -1.871  1.00  0.00     0.014 C 
ATOM      2  C   UNL     1       7.827   1.847  -1.112  1.00  0.00    -0.006 C 
ATOM      3  C   UNL     1       6.326   1.522  -0.795  1.00  0.00    -0.002 C 
ATOM      4  C   UNL     1       5.724   2.555   0.182  1.00  0.00     0.005 C 
ATOM      5  C   UNL     1       5.680   3.838  -0.661  1.00  0.00     0.010 C 
ATOM      6  C   UNL     1       6.157   3.349  -2.050  1.00  0.00    -0.006 C 
ATOM      7  C   UNL     1       5.620   1.934  -2.075  1.00  0.00     0.013 C 
ATOM      8  C   UNL     1       7.691   3.101  -2.037  1.00  0.00     0.126 C 
ATOM      9  C   UNL     1       5.672   4.218  -3.216  1.00  0.00     0.014 C 
ATOM     10  C   UNL     1       8.681   2.103   0.158  1.00  0.00     0.014 C 
ENDROOT
BRANCH   8  11
ATOM     11  O   UNL     1       8.402   4.215  -1.556  1.00  0.00    -0.392 OA
ATOM     12  H   UNL     1       9.345   3.925  -1.446  1.00  0.00     0.211 HD
ENDBRANCH   8  11
TORSDOF 1
ENDMDL
MODEL 6
REMARK VINA RESULT:    -3.342      1.382      2.180
REMARK INTER + INTRA:          -3.440
REMARK INTER:                  -3.440
REMARK INTRA:                   0.000
REMARK UNBOUND:                 0.000
REMARK SMILES CC1(C)[C@H]2CC[C@](C)(C2)[C@H]1O
REMARK SMILES IDX 1 1 2 2 4 3 5 4 6 5 7 6 9 7 10 8 8 9 3 10 11 11
REMARK H PARENT 11 12
REMARK Flexibility Score: inf
ROOT
ATOM      1  C   UNL     1       5.748   0.650  -3.061  1.00  0.00     0.014 C 
ATOM      2  C   UNL     1       6.050   1.135  -1.621  1.00  0.00    -0.006 C 
ATOM      3  C   UNL     1       5.522   2.599  -1.425  1.00  0.00    -0.002 C 
ATOM      4  C   UNL     1       5.569   3.016   0.060  1.00  0.00     0.005 C 
ATOM      5  C   UNL     1       7.076   3.100   0.344  1.00  0.00     0.010 C 
ATOM      6  C   UNL     1       7.700   2.830  -1.046  1.00  0.00    -0.006 C 
ATOM      7  C   UNL     1       6.666   3.439  -1.967  1.00  0.00     0.013 C 
ATOM      8  C   UNL     1       7.588   1.322  -1.404  1.00  0.00     0.126 C 
ATOM      9  C   UNL     1       9.106   3.414  -1.220  1.00  0.00     0.014 C 
ATOM     10  C   UNL     1       5.406   0.114  -0.647  1.00  0.00     0.014 C 
ENDROOT
BRANCH   8  11
ATOM     11  O   UNL     1       8.101   0.498  -0.385  1.00  0.00    -0.392 OA
ATOM     12  H   UNL     1       8.070   1.029   0.453  1.00  0.00     0.211 HD
ENDBRANCH   8  11
TORSDOF 1
ENDMDL
MODEL 7
REMARK VINA RESULT:    -3.331      1.651      2.975
REMARK INTER + INTRA:          -3.428
REMARK INTER:                  -3.428
REMARK INTRA:                   0.000
REMARK UNBOUND:                 0.000
REMARK SMILES CC1(C)[C@H]2CC[C@](C)(C2)[C@H]1O
REMARK SMILES IDX 1 1 2 2 4 3 5 4 6 5 7 6 9 7 10 8 8 9 3 10 11 11
REMARK H PARENT 11 12
REMARK Flexibility Score: inf
ROOT
ATOM      1  C   UNL     1       5.240  -0.441  -0.751  1.00  0.00     0.014 C 
ATOM      2  C   UNL     1       6.373   0.597  -0.943  1.00  0.00    -0.006 C 
ATOM      3  C   UNL     1       6.346   1.645   0.223  1.00  0.00    -0.002 C 
ATOM      4  C   UNL     1       7.611   2.530   0.209  1.00  0.00     0.005 C 
ATOM      5  C   UNL     1       7.433   3.360  -1.071  1.00  0.00     0.010 C 
ATOM      6  C   UNL     1       6.033   2.925  -1.568  1.00  0.00    -0.006 C 
ATOM      7  C   UNL     1       5.318   2.653  -0.262  1.00  0.00     0.013 C 
ATOM      8  C   UNL     1       6.099   1.502  -2.189  1.00  0.00     0.126 C 
ATOM      9  C   UNL     1       5.336   3.964  -2.452  1.00  0.00     0.014 C 
ATOM     10  C   UNL     1       7.707  -0.190  -1.030  1.00  0.00     0.014 C 
ENDROOT
BRANCH   8  11
ATOM     11  O   UNL     1       7.103   1.401  -3.170  1.00  0.00    -0.392 OA
ATOM     12  H   UNL     1       6.798   1.939  -3.946  1.00  0.00     0.211 HD
ENDBRANCH   8  11
TORSDOF 1
ENDMDL
MODEL 8
REMARK VINA RESULT:    -3.319      0.881      3.330
REMARK INTER + INTRA:          -3.416
REMARK INTER:                  -3.416
REMARK INTRA:                   0.000
REMARK UNBOUND:                 0.000
REMARK SMILES CC1(C)[C@H]2CC[C@](C)(C2)[C@H]1O
REMARK SMILES IDX 1 1 2 2 4 3 5 4 6 5 7 6 9 7 10 8 8 9 3 10 11 11
REMARK H PARENT 11 12
REMARK Flexibility Score: inf
ROOT
ATOM      1  C   UNL     1       6.000   3.506   0.316  1.00  0.00     0.014 C 
ATOM      2  C   UNL     1       6.764   2.200  -0.011  1.00  0.00    -0.006 C 
ATOM      3  C   UNL     1       7.638   2.396  -1.299  1.00  0.00    -0.002 C 
ATOM      4  C   UNL     1       8.607   1.212  -1.502  1.00  0.00     0.005 C 
ATOM      5  C   UNL     1       7.660   0.051  -1.843  1.00  0.00     0.010 C 
ATOM      6  C   UNL     1       6.278   0.744  -1.901  1.00  0.00    -0.006 C 
ATOM      7  C   UNL     1       6.648   2.118  -2.417  1.00  0.00     0.013 C 
ATOM      8  C   UNL     1       5.778   1.073  -0.467  1.00  0.00     0.126 C 
ATOM      9  C   UNL     1       5.251   0.011  -2.771  1.00  0.00     0.014 C 
ATOM     10  C   UNL     1       7.595   1.826   1.244  1.00  0.00     0.014 C 
ENDROOT
BRANCH   8  11
ATOM     11  O   UNL     1       5.810  -0.054   0.375  1.00  0.00    -0.392 OA
ATOM     12  H   UNL     1       5.912   0.286   1.302  1.00  0.00     0.211 HD
ENDBRANCH   8  11
TORSDOF 1
ENDMDL
MODEL 9
REMARK VINA RESULT:    -3.250      1.744      3.422
REMARK INTER + INTRA:          -3.345
REMARK INTER:                  -3.345
REMARK INTRA:                   0.000
REMARK UNBOUND:                 0.000
REMARK SMILES CC1(C)[C@H]2CC[C@](C)(C2)[C@H]1O
REMARK SMILES IDX 1 1 2 2 4 3 5 4 6 5 7 6 9 7 10 8 8 9 3 10 11 11
REMARK H PARENT 11 12
REMARK Flexibility Score: inf
ROOT
ATOM      1  C   UNL     1       7.332   2.248   1.220  1.00  0.00     0.014 C 
ATOM      2  C   UNL     1       6.662   2.259  -0.175  1.00  0.00    -0.006 C 
ATOM      3  C   UNL     1       6.570   0.799  -0.740  1.00  0.00    -0.002 C 
ATOM      4  C   UNL     1       5.679   0.741  -1.999  1.00  0.00     0.005 C 
ATOM      5  C   UNL     1       6.505   1.513  -3.038  1.00  0.00     0.010 C 
ATOM      6  C   UNL     1       7.815   1.819  -2.273  1.00  0.00    -0.006 C 
ATOM      7  C   UNL     1       7.935   0.605  -1.378  1.00  0.00     0.013 C 
ATOM      8  C   UNL     1       7.583   2.951  -1.235  1.00  0.00     0.126 C 
ATOM      9  C   UNL     1       9.029   2.041  -3.182  1.00  0.00     0.014 C 
ATOM     10  C   UNL     1       5.278   2.944  -0.016  1.00  0.00     0.014 C 
ENDROOT
BRANCH   8  11
ATOM     11  O   UNL     1       6.990   4.087  -1.816  1.00  0.00    -0.392 OA
ATOM     12  H   UNL     1       7.551   4.332  -2.597  1.00  0.00     0.211 HD
ENDBRANCH   8  11
TORSDOF 1
ENDMDL
