MODEL 1
REMARK VINA RESULT:    -5.867      0.000      0.000
REMARK INTER + INTRA:         -10.970
REMARK INTER:                  -8.954
REMARK INTRA:                  -2.016
REMARK UNBOUND:                -2.016
REMARK SMILES CC(=O)CCC=C(C)CCC=C(C)CCC=C(C)C
REMARK SMILES IDX 10 1 11 2 12 3 13 4 14 5 15 6 16 7 18 8 17 9 19 10 9 11 7 12
REMARK SMILES IDX 6 13 8 14 5 15 4 16 2 17 3 18 1 19
REMARK H PARENT
REMARK Flexibility Score: inf
ROOT
ATOM      1  C   UNL     1     -10.190 -32.650  30.155  1.00  0.00     0.032 C 
ENDROOT
BRANCH   1   2
ATOM      2  C   UNL     1     -10.563 -33.663  29.103  1.00  0.00    -0.028 C 
ATOM      3  C   UNL     1     -11.776 -33.739  28.511  1.00  0.00    -0.077 C 
ATOM      4  C   UNL     1     -12.883 -32.760  28.830  1.00  0.00     0.039 C 
BRANCH   3   5
ATOM      5  C   UNL     1     -12.022 -34.814  27.473  1.00  0.00     0.034 C 
BRANCH   5   6
ATOM      6  C   UNL     1     -13.211 -35.706  27.849  1.00  0.00     0.032 C 
BRANCH   6   7
ATOM      7  C   UNL     1     -12.986 -36.377  29.184  1.00  0.00    -0.028 C 
ATOM      8  C   UNL     1     -14.399 -38.372  28.632  1.00  0.00     0.039 C 
ATOM      9  C   UNL     1     -13.531 -37.556  29.560  1.00  0.00    -0.080 C 
ATOM     10  C   UNL     1     -13.256 -38.061  30.953  1.00  0.00     0.039 C 
ENDBRANCH   6   7
ENDBRANCH   5   6
ENDBRANCH   3   5
ENDBRANCH   1   2
BRANCH   1  11
ATOM     11  C   UNL     1      -9.875 -33.339  31.488  1.00  0.00     0.034 C 
BRANCH  11  12
ATOM     12  C   UNL     1     -10.973 -34.311  31.861  1.00  0.00    -0.077 C 
ATOM     13  C   UNL     1     -12.223 -33.839  32.074  1.00  0.00    -0.028 C 
ATOM     14  C   UNL     1     -10.638 -35.777  31.999  1.00  0.00     0.039 C 
BRANCH  13  15
ATOM     15  C   UNL     1     -13.416 -34.702  32.400  1.00  0.00     0.035 C 
BRANCH  15  16
ATOM     16  C   UNL     1     -14.719 -33.995  31.996  1.00  0.00     0.079 C 
BRANCH  16  17
ATOM     17  C   UNL     1     -15.450 -33.330  33.141  1.00  0.00     0.130 C 
ATOM     18  O   UNL     1     -15.066 -32.231  33.512  1.00  0.00    -0.300 OA
ATOM     19  C   UNL     1     -16.631 -33.954  33.833  1.00  0.00     0.087 C 
ENDBRANCH  16  17
ENDBRANCH  15  16
ENDBRANCH  13  15
ENDBRANCH  11  12
ENDBRANCH   1  11
TORSDOF 9
ENDMDL
MODEL 2
REMARK VINA RESULT:    -5.589      2.351      4.716
REMARK INTER + INTRA:         -10.546
REMARK INTER:                  -9.350
REMARK INTRA:                  -1.195
REMARK UNBOUND:                -2.016
REMARK SMILES CC(=O)CCC=C(C)CCC=C(C)CCC=C(C)C
REMARK SMILES IDX 10 1 11 2 12 3 13 4 14 5 15 6 16 7 18 8 17 9 19 10 9 11 7 12
REMARK SMILES IDX 6 13 8 14 5 15 4 16 2 17 3 18 1 19
REMARK H PARENT
REMARK Flexibility Score: inf
ROOT
ATOM      1  C   UNL     1     -15.972 -32.018  32.144  1.00  0.00     0.032 C 
ENDROOT
BRANCH   1   2
ATOM      2  C   UNL     1     -15.119 -32.148  30.908  1.00  0.00    -0.028 C 
ATOM      3  C   UNL     1     -15.414 -31.589  29.712  1.00  0.00    -0.077 C 
ATOM      4  C   UNL     1     -16.639 -30.726  29.515  1.00  0.00     0.039 C 
BRANCH   3   5
ATOM      5  C   UNL     1     -14.472 -31.806  28.547  1.00  0.00     0.034 C 
BRANCH   5   6
ATOM      6  C   UNL     1     -13.343 -32.780  28.903  1.00  0.00     0.032 C 
BRANCH   6   7
ATOM      7  C   UNL     1     -12.991 -33.660  27.726  1.00  0.00    -0.028 C 
ATOM      8  C   UNL     1     -10.703 -34.215  28.582  1.00  0.00     0.039 C 
ATOM      9  C   UNL     1     -11.806 -34.287  27.553  1.00  0.00    -0.080 C 
ATOM     10  C   UNL     1     -11.593 -35.080  26.291  1.00  0.00     0.039 C 
ENDBRANCH   6   7
ENDBRANCH   5   6
ENDBRANCH   3   5
ENDBRANCH   1   2
BRANCH   1  11
ATOM     11  C   UNL     1     -15.720 -33.184  33.106  1.00  0.00     0.034 C 
BRANCH  11  12
ATOM     12  C   UNL     1     -14.305 -33.701  32.962  1.00  0.00    -0.077 C 
ATOM     13  C   UNL     1     -14.072 -34.765  32.160  1.00  0.00    -0.028 C 
ATOM     14  C   UNL     1     -13.195 -33.021  33.729  1.00  0.00     0.039 C 
BRANCH  13  15
ATOM     15  C   UNL     1     -12.708 -35.347  31.888  1.00  0.00     0.035 C 
BRANCH  15  16
ATOM     16  C   UNL     1     -12.721 -36.168  30.590  1.00  0.00     0.079 C 
BRANCH  16  17
ATOM     17  C   UNL     1     -13.040 -37.635  30.782  1.00  0.00     0.130 C 
ATOM     18  O   UNL     1     -13.705 -38.199  29.927  1.00  0.00    -0.300 OA
ATOM     19  C   UNL     1     -12.567 -38.428  31.970  1.00  0.00     0.087 C 
ENDBRANCH  16  17
ENDBRANCH  15  16
ENDBRANCH  13  15
ENDBRANCH  11  12
ENDBRANCH   1  11
TORSDOF 9
ENDMDL
MODEL 3
REMARK VINA RESULT:    -5.581      1.162      3.287
REMARK INTER + INTRA:         -10.534
REMARK INTER:                  -9.531
REMARK INTRA:                  -1.003
REMARK UNBOUND:                -2.016
REMARK SMILES CC(=O)CCC=C(C)CCC=C(C)CCC=C(C)C
REMARK SMILES IDX 10 1 11 2 12 3 13 4 14 5 15 6 16 7 18 8 17 9 19 10 9 11 7 12
REMARK SMILES IDX 6 13 8 14 5 15 4 16 2 17 3 18 1 19
REMARK H PARENT
REMARK Flexibility Score: inf
ROOT
ATOM      1  C   UNL     1     -10.646 -36.121  32.002  1.00  0.00     0.032 C 
ENDROOT
BRANCH   1   2
ATOM      2  C   UNL     1     -11.501 -36.480  30.813  1.00  0.00    -0.028 C 
ATOM      3  C   UNL     1     -12.390 -37.498  30.790  1.00  0.00    -0.077 C 
ATOM      4  C   UNL     1     -12.643 -38.365  32.003  1.00  0.00     0.039 C 
BRANCH   3   5
ATOM      5  C   UNL     1     -13.181 -37.756  29.525  1.00  0.00     0.034 C 
BRANCH   5   6
ATOM      6  C   UNL     1     -13.556 -36.450  28.814  1.00  0.00     0.032 C 
BRANCH   6   7
ATOM      7  C   UNL     1     -12.488 -36.042  27.825  1.00  0.00    -0.028 C 
ATOM      8  C   UNL     1     -13.716 -33.999  27.054  1.00  0.00     0.039 C 
ATOM      9  C   UNL     1     -12.556 -34.965  27.011  1.00  0.00    -0.080 C 
ATOM     10  C   UNL     1     -11.432 -34.732  26.036  1.00  0.00     0.039 C 
ENDBRANCH   6   7
ENDBRANCH   5   6
ENDBRANCH   3   5
ENDBRANCH   1   2
BRANCH   1  11
ATOM     11  C   UNL     1     -10.831 -34.648  32.382  1.00  0.00     0.034 C 
BRANCH  11  12
ATOM     12  C   UNL     1     -11.786 -33.964  31.428  1.00  0.00    -0.077 C 
ATOM     13  C   UNL     1     -13.099 -33.899  31.747  1.00  0.00    -0.028 C 
ATOM     14  C   UNL     1     -11.247 -33.386  30.141  1.00  0.00     0.039 C 
BRANCH  13  15
ATOM     15  C   UNL     1     -14.146 -33.205  30.913  1.00  0.00     0.035 C 
BRANCH  15  16
ATOM     16  C   UNL     1     -15.058 -32.344  31.800  1.00  0.00     0.079 C 
BRANCH  16  17
ATOM     17  C   UNL     1     -15.249 -32.877  33.203  1.00  0.00     0.130 C 
ATOM     18  O   UNL     1     -14.501 -32.474  34.081  1.00  0.00    -0.300 OA
ATOM     19  C   UNL     1     -16.321 -33.868  33.564  1.00  0.00     0.087 C 
ENDBRANCH  16  17
ENDBRANCH  15  16
ENDBRANCH  13  15
ENDBRANCH  11  12
ENDBRANCH   1  11
TORSDOF 9
ENDMDL
MODEL 4
REMARK VINA RESULT:    -5.525      1.543      2.100
REMARK INTER + INTRA:         -10.448
REMARK INTER:                  -8.703
REMARK INTRA:                  -1.745
REMARK UNBOUND:                -2.016
REMARK SMILES CC(=O)CCC=C(C)CCC=C(C)CCC=C(C)C
REMARK SMILES IDX 10 1 11 2 12 3 13 4 14 5 15 6 16 7 18 8 17 9 19 10 9 11 7 12
REMARK SMILES IDX 6 13 8 14 5 15 4 16 2 17 3 18 1 19
REMARK H PARENT
REMARK Flexibility Score: inf
ROOT
ATOM      1  C   UNL     1     -10.841 -33.428  30.997  1.00  0.00     0.032 C 
ENDROOT
BRANCH   1   2
ATOM      2  C   UNL     1     -11.208 -34.571  30.084  1.00  0.00    -0.028 C 
ATOM      3  C   UNL     1     -12.129 -34.496  29.097  1.00  0.00    -0.077 C 
ATOM      4  C   UNL     1     -12.864 -33.212  28.786  1.00  0.00     0.039 C 
BRANCH   3   5
ATOM      5  C   UNL     1     -12.408 -35.724  28.256  1.00  0.00     0.034 C 
BRANCH   5   6
ATOM      6  C   UNL     1     -13.597 -36.526  28.799  1.00  0.00     0.032 C 
BRANCH   6   7
ATOM      7  C   UNL     1     -13.132 -37.645  29.702  1.00  0.00    -0.028 C 
ATOM      8  C   UNL     1     -13.645 -36.404  31.818  1.00  0.00     0.039 C 
ATOM      9  C   UNL     1     -13.122 -37.596  31.053  1.00  0.00    -0.080 C 
ATOM     10  C   UNL     1     -12.569 -38.777  31.808  1.00  0.00     0.039 C 
ENDBRANCH   6   7
ENDBRANCH   5   6
ENDBRANCH   3   5
ENDBRANCH   1   2
BRANCH   1  11
ATOM     11  C   UNL     1     -10.355 -33.949  32.353  1.00  0.00     0.034 C 
BRANCH  11  12
ATOM     12  C   UNL     1     -11.099 -33.275  33.485  1.00  0.00    -0.077 C 
ATOM     13  C   UNL     1     -12.451 -33.313  33.496  1.00  0.00    -0.028 C 
ATOM     14  C   UNL     1     -10.311 -32.566  34.561  1.00  0.00     0.039 C 
BRANCH  13  15
ATOM     15  C   UNL     1     -13.312 -32.728  34.587  1.00  0.00     0.035 C 
BRANCH  15  16
ATOM     16  C   UNL     1     -14.553 -32.049  33.988  1.00  0.00     0.079 C 
BRANCH  16  17
ATOM     17  C   UNL     1     -15.226 -32.836  32.886  1.00  0.00     0.130 C 
ATOM     18  O   UNL     1     -15.827 -33.856  33.187  1.00  0.00    -0.300 OA
ATOM     19  C   UNL     1     -15.196 -32.415  31.442  1.00  0.00     0.087 C 
ENDBRANCH  16  17
ENDBRANCH  15  16
ENDBRANCH  13  15
ENDBRANCH  11  12
ENDBRANCH   1  11
TORSDOF 9
ENDMDL
MODEL 5
REMARK VINA RESULT:    -5.524      1.844      3.670
REMARK INTER + INTRA:         -10.446
REMARK INTER:                  -9.166
REMARK INTRA:                  -1.280
REMARK UNBOUND:                -2.016
REMARK SMILES CC(=O)CCC=C(C)CCC=C(C)CCC=C(C)C
REMARK SMILES IDX 10 1 11 2 12 3 13 4 14 5 15 6 16 7 18 8 17 9 19 10 9 11 7 12
REMARK SMILES IDX 6 13 8 14 5 15 4 16 2 17 3 18 1 19
REMARK H PARENT
REMARK Flexibility Score: inf
ROOT
ATOM      1  C   UNL     1     -14.160 -32.736  28.049  1.00  0.00     0.032 C 
ENDROOT
BRANCH   1   2
ATOM      2  C   UNL     1     -12.974 -33.086  28.912  1.00  0.00    -0.028 C 
ATOM      3  C   UNL     1     -11.994 -33.946  28.552  1.00  0.00    -0.077 C 
ATOM      4  C   UNL     1     -11.979 -34.619  27.199  1.00  0.00     0.039 C 
BRANCH   3   5
ATOM      5  C   UNL     1     -10.861 -34.216  29.520  1.00  0.00     0.034 C 
BRANCH   5   6
ATOM      6  C   UNL     1     -10.424 -35.685  29.487  1.00  0.00     0.032 C 
BRANCH   6   7
ATOM      7  C   UNL     1     -10.934 -36.433  30.697  1.00  0.00    -0.028 C 
ATOM      8  C   UNL     1     -12.871 -37.458  29.482  1.00  0.00     0.039 C 
ATOM      9  C   UNL     1     -12.041 -37.208  30.719  1.00  0.00    -0.080 C 
ATOM     10  C   UNL     1     -12.449 -37.837  32.025  1.00  0.00     0.039 C 
ENDBRANCH   6   7
ENDBRANCH   5   6
ENDBRANCH   3   5
ENDBRANCH   1   2
BRANCH   1  11
ATOM     11  C   UNL     1     -14.702 -31.347  28.405  1.00  0.00     0.034 C 
BRANCH  11  12
ATOM     12  C   UNL     1     -15.580 -31.414  29.635  1.00  0.00    -0.077 C 
ATOM     13  C   UNL     1     -15.088 -31.975  30.764  1.00  0.00    -0.028 C 
ATOM     14  C   UNL     1     -16.985 -30.864  29.564  1.00  0.00     0.039 C 
BRANCH  13  15
ATOM     15  C   UNL     1     -15.836 -32.060  32.070  1.00  0.00     0.035 C 
BRANCH  15  16
ATOM     16  C   UNL     1     -15.422 -33.318  32.848  1.00  0.00     0.079 C 
BRANCH  16  17
ATOM     17  C   UNL     1     -14.000 -33.294  33.365  1.00  0.00     0.130 C 
ATOM     18  O   UNL     1     -13.774 -32.700  34.408  1.00  0.00    -0.300 OA
ATOM     19  C   UNL     1     -12.859 -33.974  32.658  1.00  0.00     0.087 C 
ENDBRANCH  16  17
ENDBRANCH  15  16
ENDBRANCH  13  15
ENDBRANCH  11  12
ENDBRANCH   1  11
TORSDOF 9
ENDMDL
MODEL 6
REMARK VINA RESULT:    -5.508      2.984      3.478
REMARK INTER + INTRA:         -10.422
REMARK INTER:                  -9.103
REMARK INTRA:                  -1.320
REMARK UNBOUND:                -2.016
REMARK SMILES CC(=O)CCC=C(C)CCC=C(C)CCC=C(C)C
REMARK SMILES IDX 10 1 11 2 12 3 13 4 14 5 15 6 16 7 18 8 17 9 19 10 9 11 7 12
REMARK SMILES IDX 6 13 8 14 5 15 4 16 2 17 3 18 1 19
REMARK H PARENT
REMARK Flexibility Score: inf
ROOT
ATOM      1  C   UNL     1     -10.465 -33.508  30.725  1.00  0.00     0.032 C 
ENDROOT
BRANCH   1   2
ATOM      2  C   UNL     1     -10.936 -34.626  29.830  1.00  0.00    -0.028 C 
ATOM      3  C   UNL     1     -12.024 -34.557  29.029  1.00  0.00    -0.077 C 
ATOM      4  C   UNL     1     -12.863 -33.304  28.927  1.00  0.00     0.039 C 
BRANCH   3   5
ATOM      5  C   UNL     1     -12.392 -35.759  28.184  1.00  0.00     0.034 C 
BRANCH   5   6
ATOM      6  C   UNL     1     -13.585 -36.522  28.771  1.00  0.00     0.032 C 
BRANCH   6   7
ATOM      7  C   UNL     1     -13.123 -37.648  29.667  1.00  0.00    -0.028 C 
ATOM      8  C   UNL     1     -13.618 -36.415  31.791  1.00  0.00     0.039 C 
ATOM      9  C   UNL     1     -13.105 -37.607  31.018  1.00  0.00    -0.080 C 
ATOM     10  C   UNL     1     -12.556 -38.794  31.764  1.00  0.00     0.039 C 
ENDBRANCH   6   7
ENDBRANCH   5   6
ENDBRANCH   3   5
ENDBRANCH   1   2
BRANCH   1  11
ATOM     11  C   UNL     1     -10.086 -34.043  32.111  1.00  0.00     0.034 C 
BRANCH  11  12
ATOM     12  C   UNL     1     -10.966 -33.434  33.180  1.00  0.00    -0.077 C 
ATOM     13  C   UNL     1     -10.386 -32.812  34.232  1.00  0.00    -0.028 C 
ATOM     14  C   UNL     1     -12.466 -33.550  33.049  1.00  0.00     0.039 C 
BRANCH  13  15
ATOM     15  C   UNL     1     -11.143 -32.120  35.337  1.00  0.00     0.035 C 
BRANCH  15  16
ATOM     16  C   UNL     1     -10.477 -30.783  35.692  1.00  0.00     0.079 C 
BRANCH  16  17
ATOM     17  C   UNL     1     -11.396 -29.785  36.362  1.00  0.00     0.130 C 
ATOM     18  O   UNL     1     -11.340 -28.617  36.007  1.00  0.00    -0.300 OA
ATOM     19  C   UNL     1     -12.378 -30.167  37.435  1.00  0.00     0.087 C 
ENDBRANCH  16  17
ENDBRANCH  15  16
ENDBRANCH  13  15
ENDBRANCH  11  12
ENDBRANCH   1  11
TORSDOF 9
ENDMDL
MODEL 7
REMARK VINA RESULT:    -5.484      2.191      4.436
REMARK INTER + INTRA:         -10.385
REMARK INTER:                  -9.230
REMARK INTRA:                  -1.156
REMARK UNBOUND:                -2.016
REMARK SMILES CC(=O)CCC=C(C)CCC=C(C)CCC=C(C)C
REMARK SMILES IDX 10 1 11 2 12 3 13 4 14 5 15 6 16 7 18 8 17 9 19 10 9 11 7 12
REMARK SMILES IDX 6 13 8 14 5 15 4 16 2 17 3 18 1 19
REMARK H PARENT
REMARK Flexibility Score: inf
ROOT
ATOM      1  C   UNL     1     -12.854 -33.607  32.644  1.00  0.00     0.032 C 
ENDROOT
BRANCH   1   2
ATOM      2  C   UNL     1     -13.387 -34.835  31.950  1.00  0.00    -0.028 C 
ATOM      3  C   UNL     1     -12.631 -35.895  31.584  1.00  0.00    -0.077 C 
ATOM      4  C   UNL     1     -11.151 -35.962  31.885  1.00  0.00     0.039 C 
BRANCH   3   5
ATOM      5  C   UNL     1     -13.292 -37.063  30.883  1.00  0.00     0.034 C 
BRANCH   5   6
ATOM      6  C   UNL     1     -12.775 -37.233  29.450  1.00  0.00     0.032 C 
BRANCH   6   7
ATOM      7  C   UNL     1     -13.389 -36.208  28.525  1.00  0.00    -0.028 C 
ATOM      8  C   UNL     1     -11.266 -34.906  28.251  1.00  0.00     0.039 C 
ATOM      9  C   UNL     1     -12.736 -35.147  28.001  1.00  0.00    -0.080 C 
ATOM     10  C   UNL     1     -13.511 -34.181  27.143  1.00  0.00     0.039 C 
ENDBRANCH   6   7
ENDBRANCH   5   6
ENDBRANCH   3   5
ENDBRANCH   1   2
BRANCH   1  11
ATOM     11  C   UNL     1     -13.801 -33.161  33.764  1.00  0.00     0.034 C 
BRANCH  11  12
ATOM     12  C   UNL     1     -15.234 -33.141  33.279  1.00  0.00    -0.077 C 
ATOM     13  C   UNL     1     -16.150 -33.915  33.905  1.00  0.00    -0.028 C 
ATOM     14  C   UNL     1     -15.597 -32.269  32.100  1.00  0.00     0.039 C 
BRANCH  13  15
ATOM     15  C   UNL     1     -17.616 -33.952  33.557  1.00  0.00     0.035 C 
BRANCH  15  16
ATOM     16  C   UNL     1     -18.449 -34.375  34.777  1.00  0.00     0.079 C 
BRANCH  16  17
ATOM     17  C   UNL     1     -19.859 -34.815  34.449  1.00  0.00     0.130 C 
ATOM     18  O   UNL     1     -20.642 -34.986  35.371  1.00  0.00    -0.300 OA
ATOM     19  C   UNL     1     -20.341 -35.040  33.041  1.00  0.00     0.087 C 
ENDBRANCH  16  17
ENDBRANCH  15  16
ENDBRANCH  13  15
ENDBRANCH  11  12
ENDBRANCH   1  11
TORSDOF 9
ENDMDL
MODEL 8
REMARK VINA RESULT:    -5.390      2.148      4.896
REMARK INTER + INTRA:         -10.243
REMARK INTER:                  -9.199
REMARK INTRA:                  -1.044
REMARK UNBOUND:                -2.016
REMARK SMILES CC(=O)CCC=C(C)CCC=C(C)CCC=C(C)C
REMARK SMILES IDX 10 1 11 2 12 3 13 4 14 5 15 6 16 7 18 8 17 9 19 10 9 11 7 12
REMARK SMILES IDX 6 13 8 14 5 15 4 16 2 17 3 18 1 19
REMARK H PARENT
REMARK Flexibility Score: inf
ROOT
ATOM      1  C   UNL     1     -13.393 -33.226  33.475  1.00  0.00     0.032 C 
ENDROOT
BRANCH   1   2
ATOM      2  C   UNL     1     -12.413 -33.975  32.607  1.00  0.00    -0.028 C 
ATOM      3  C   UNL     1     -11.069 -33.915  32.744  1.00  0.00    -0.077 C 
ATOM      4  C   UNL     1     -10.413 -33.102  33.837  1.00  0.00     0.039 C 
BRANCH   3   5
ATOM      5  C   UNL     1     -10.197 -34.713  31.798  1.00  0.00     0.034 C 
BRANCH   5   6
ATOM      6  C   UNL     1     -10.599 -36.192  31.766  1.00  0.00     0.032 C 
BRANCH   6   7
ATOM      7  C   UNL     1     -11.348 -36.526  30.496  1.00  0.00    -0.028 C 
ATOM      8  C   UNL     1     -13.408 -37.306  31.692  1.00  0.00     0.039 C 
ATOM      9  C   UNL     1     -12.593 -37.049  30.446  1.00  0.00    -0.080 C 
ATOM     10  C   UNL     1     -13.176 -37.382  29.097  1.00  0.00     0.039 C 
ENDBRANCH   6   7
ENDBRANCH   5   6
ENDBRANCH   3   5
ENDBRANCH   1   2
BRANCH   1  11
ATOM     11  C   UNL     1     -14.787 -33.215  32.838  1.00  0.00     0.034 C 
BRANCH  11  12
ATOM     12  C   UNL     1     -14.715 -32.751  31.399  1.00  0.00    -0.077 C 
ATOM     13  C   UNL     1     -13.845 -33.354  30.558  1.00  0.00    -0.028 C 
ATOM     14  C   UNL     1     -15.608 -31.619  30.949  1.00  0.00     0.039 C 
BRANCH  13  15
ATOM     15  C   UNL     1     -13.708 -33.025  29.092  1.00  0.00     0.035 C 
BRANCH  15  16
ATOM     16  C   UNL     1     -12.472 -33.717  28.498  1.00  0.00     0.079 C 
BRANCH  16  17
ATOM     17  C   UNL     1     -12.693 -34.323  27.129  1.00  0.00     0.130 C 
ATOM     18  O   UNL     1     -13.805 -34.236  26.630  1.00  0.00    -0.300 OA
ATOM     19  C   UNL     1     -11.606 -35.017  26.355  1.00  0.00     0.087 C 
ENDBRANCH  16  17
ENDBRANCH  15  16
ENDBRANCH  13  15
ENDBRANCH  11  12
ENDBRANCH   1  11
TORSDOF 9
ENDMDL
MODEL 9
REMARK VINA RESULT:    -5.245      3.536      6.760
REMARK INTER + INTRA:         -10.021
REMARK INTER:                  -8.588
REMARK INTRA:                  -1.434
REMARK UNBOUND:                -2.016
REMARK SMILES CC(=O)CCC=C(C)CCC=C(C)CCC=C(C)C
REMARK SMILES IDX 10 1 11 2 12 3 13 4 14 5 15 6 16 7 18 8 17 9 19 10 9 11 7 12
REMARK SMILES IDX 6 13 8 14 5 15 4 16 2 17 3 18 1 19
REMARK H PARENT
REMARK Flexibility Score: inf
ROOT
ATOM      1  C   UNL     1     -13.254 -33.848  32.224  1.00  0.00     0.032 C 
ENDROOT
BRANCH   1   2
ATOM      2  C   UNL     1     -12.248 -33.505  33.294  1.00  0.00    -0.028 C 
ATOM      3  C   UNL     1     -10.907 -33.534  33.121  1.00  0.00    -0.077 C 
ATOM      4  C   UNL     1     -10.282 -33.881  31.789  1.00  0.00     0.039 C 
BRANCH   3   5
ATOM      5  C   UNL     1     -10.007 -33.173  34.284  1.00  0.00     0.034 C 
BRANCH   5   6
ATOM      6  C   UNL     1     -10.234 -31.730  34.751  1.00  0.00     0.032 C 
BRANCH   6   7
ATOM      7  C   UNL     1     -10.408 -31.664  36.250  1.00  0.00    -0.028 C 
ATOM      8  C   UNL     1     -12.881 -31.273  36.135  1.00  0.00     0.039 C 
ATOM      9  C   UNL     1     -11.579 -31.433  36.885  1.00  0.00    -0.080 C 
ATOM     10  C   UNL     1     -11.573 -31.336  38.388  1.00  0.00     0.039 C 
ENDBRANCH   6   7
ENDBRANCH   5   6
ENDBRANCH   3   5
ENDBRANCH   1   2
BRANCH   1  11
ATOM     11  C   UNL     1     -13.736 -35.295  32.375  1.00  0.00     0.034 C 
BRANCH  11  12
ATOM     12  C   UNL     1     -13.270 -36.140  31.209  1.00  0.00    -0.077 C 
ATOM     13  C   UNL     1     -13.141 -35.564  29.992  1.00  0.00    -0.028 C 
ATOM     14  C   UNL     1     -12.976 -37.604  31.435  1.00  0.00     0.039 C 
BRANCH  13  15
ATOM     15  C   UNL     1     -12.639 -36.275  28.760  1.00  0.00     0.035 C 
BRANCH  15  16
ATOM     16  C   UNL     1     -11.630 -35.398  28.005  1.00  0.00     0.079 C 
BRANCH  16  17
ATOM     17  C   UNL     1     -12.184 -34.734  26.763  1.00  0.00     0.130 C 
ATOM     18  O   UNL     1     -11.496 -34.726  25.754  1.00  0.00    -0.300 OA
ATOM     19  C   UNL     1     -13.545 -34.095  26.715  1.00  0.00     0.087 C 
ENDBRANCH  16  17
ENDBRANCH  15  16
ENDBRANCH  13  15
ENDBRANCH  11  12
ENDBRANCH   1  11
TORSDOF 9
ENDMDL
