MODEL 1
REMARK VINA RESULT:     3.421      0.000      0.000
REMARK INTER + INTRA:           6.567
REMARK INTER:                   8.620
REMARK INTRA:                  -2.053
REMARK UNBOUND:                -2.053
REMARK SMILES CCCCCCCCCCCCCCCCCCCCCCCCCCCC(=O)[O-]
REMARK SMILES IDX 15 1 16 2 17 3 18 4 19 5 20 6 21 7 22 8 23 9 24 10 25 11
REMARK SMILES IDX 26 12 27 13 28 14 29 15 30 16 14 17 13 18 12 19 11 20 10 21
REMARK SMILES IDX 9 22 8 23 7 24 6 25 5 26 4 27 3 28 2 29 1 30
REMARK H PARENT
REMARK Flexibility Score: inf
ROOT
ATOM      1  C   UNL     1      24.360  19.965  25.544  1.00  0.00     0.000 C 
ENDROOT
BRANCH   1   2
ATOM      2  C   UNL     1      24.331  19.193  26.873  1.00  0.00     0.000 C 
BRANCH   2   3
ATOM      3  C   UNL     1      22.898  18.917  27.364  1.00  0.00     0.000 C 
BRANCH   3   4
ATOM      4  C   UNL     1      22.770  18.960  28.898  1.00  0.00     0.000 C 
BRANCH   4   5
ATOM      5  C   UNL     1      21.340  19.184  29.434  1.00  0.00     0.000 C 
BRANCH   5   6
ATOM      6  C   UNL     1      20.631  20.444  28.898  1.00  0.00     0.000 C 
BRANCH   6   7
ATOM      7  C   UNL     1      21.072  20.879  27.488  1.00  0.00     0.000 C 
BRANCH   7   8
ATOM      8  C   UNL     1      21.542  22.349  27.420  1.00  0.00     0.000 C 
BRANCH   8   9
ATOM      9  C   UNL     1      22.618  22.567  26.345  1.00  0.00     0.000 C 
BRANCH   9  10
ATOM     10  C   UNL     1      23.981  22.873  26.978  1.00  0.00     0.000 C 
BRANCH  10  11
ATOM     11  C   UNL     1      23.863  23.964  28.055  1.00  0.00     0.000 C 
BRANCH  11  12
ATOM     12  C   UNL     1      24.388  25.329  27.563  1.00  0.00     0.006 C 
BRANCH  12  13
ATOM     13  C   UNL     1      25.484  25.205  26.490  1.00  0.00     0.053 C 
BRANCH  13  14
ATOM     14  C   UNL     1      25.032  25.694  25.149  1.00  0.00     0.041 C 
ATOM     15  O   UNL     1      24.500  24.899  24.332  1.00  0.00    -0.550 OA
ATOM     16  O   UNL     1      25.142  27.040  24.828  1.00  0.00    -0.550 OA
ENDBRANCH  13  14
ENDBRANCH  12  13
ENDBRANCH  11  12
ENDBRANCH  10  11
ENDBRANCH   9  10
ENDBRANCH   8   9
ENDBRANCH   7   8
ENDBRANCH   6   7
ENDBRANCH   5   6
ENDBRANCH   4   5
ENDBRANCH   3   4
ENDBRANCH   2   3
ENDBRANCH   1   2
BRANCH   1  17
ATOM     17  C   UNL     1      23.527  19.279  24.446  1.00  0.00     0.000 C 
BRANCH  17  18
ATOM     18  C   UNL     1      24.309  19.116  23.132  1.00  0.00     0.000 C 
BRANCH  18  19
ATOM     19  C   UNL     1      25.744  19.665  23.226  1.00  0.00     0.000 C 
BRANCH  19  20
ATOM     20  C   UNL     1      26.734  18.884  22.346  1.00  0.00     0.000 C 
BRANCH  20  21
ATOM     21  C   UNL     1      28.162  19.444  22.416  1.00  0.00     0.000 C 
BRANCH  21  22
ATOM     22  C   UNL     1      29.003  18.950  21.231  1.00  0.00    -0.000 C 
BRANCH  22  23
ATOM     23  C   UNL     1      30.464  19.426  21.293  1.00  0.00    -0.000 C 
BRANCH  23  24
ATOM     24  C   UNL     1      30.812  20.306  22.512  1.00  0.00    -0.000 C 
BRANCH  24  25
ATOM     25  C   UNL     1      31.009  19.539  23.832  1.00  0.00    -0.000 C 
BRANCH  25  26
ATOM     26  C   UNL     1      30.450  20.244  25.083  1.00  0.00    -0.000 C 
BRANCH  26  27
ATOM     27  C   UNL     1      29.734  21.578  24.776  1.00  0.00    -0.000 C 
BRANCH  27  28
ATOM     28  C   UNL     1      28.293  21.608  25.315  1.00  0.00    -0.000 C 
BRANCH  28  29
ATOM     29  C   UNL     1      27.936  20.351  26.123  1.00  0.00    -0.003 C 
ATOM     30  C   UNL     1      27.484  20.675  27.546  1.00  0.00     0.004 C 
ENDBRANCH  28  29
ENDBRANCH  27  28
ENDBRANCH  26  27
ENDBRANCH  25  26
ENDBRANCH  24  25
ENDBRANCH  23  24
ENDBRANCH  22  23
ENDBRANCH  21  22
ENDBRANCH  20  21
ENDBRANCH  19  20
ENDBRANCH  18  19
ENDBRANCH  17  18
ENDBRANCH   1  17
TORSDOF 26
ENDMDL
MODEL 2
REMARK VINA RESULT:     5.229      1.874      4.231
REMARK INTER + INTRA:          11.124
REMARK INTER:                  10.159
REMARK INTRA:                   0.966
REMARK UNBOUND:                -2.053
REMARK SMILES CCCCCCCCCCCCCCCCCCCCCCCCCCCC(=O)[O-]
REMARK SMILES IDX 15 1 16 2 17 3 18 4 19 5 20 6 21 7 22 8 23 9 24 10 25 11
REMARK SMILES IDX 26 12 27 13 28 14 29 15 30 16 14 17 13 18 12 19 11 20 10 21
REMARK SMILES IDX 9 22 8 23 7 24 6 25 5 26 4 27 3 28 2 29 1 30
REMARK H PARENT
REMARK Flexibility Score: inf
ROOT
ATOM      1  C   UNL     1      26.357  20.857  26.015  1.00  0.00     0.000 C 
ENDROOT
BRANCH   1   2
ATOM      2  C   UNL     1      25.895  19.486  26.536  1.00  0.00     0.000 C 
BRANCH   2   3
ATOM      3  C   UNL     1      24.734  18.902  25.712  1.00  0.00     0.000 C 
BRANCH   3   4
ATOM      4  C   UNL     1      23.375  19.007  26.428  1.00  0.00     0.000 C 
BRANCH   4   5
ATOM      5  C   UNL     1      23.433  18.918  27.968  1.00  0.00     0.000 C 
BRANCH   5   6
ATOM      6  C   UNL     1      22.061  18.876  28.672  1.00  0.00     0.000 C 
BRANCH   6   7
ATOM      7  C   UNL     1      21.827  20.006  29.692  1.00  0.00     0.000 C 
BRANCH   7   8
ATOM      8  C   UNL     1      21.156  21.254  29.077  1.00  0.00     0.000 C 
BRANCH   8   9
ATOM      9  C   UNL     1      21.372  21.341  27.558  1.00  0.00     0.000 C 
BRANCH   9  10
ATOM     10  C   UNL     1      22.625  22.159  27.221  1.00  0.00     0.000 C 
BRANCH  10  11
ATOM     11  C   UNL     1      22.254  23.520  26.610  1.00  0.00     0.000 C 
BRANCH  11  12
ATOM     12  C   UNL     1      23.272  24.621  26.976  1.00  0.00     0.006 C 
BRANCH  12  13
ATOM     13  C   UNL     1      24.701  24.308  26.498  1.00  0.00     0.053 C 
BRANCH  13  14
ATOM     14  C   UNL     1      25.353  25.480  25.835  1.00  0.00     0.041 C 
ATOM     15  O   UNL     1      25.184  25.688  24.606  1.00  0.00    -0.550 OA
ATOM     16  O   UNL     1      26.099  26.377  26.589  1.00  0.00    -0.550 OA
ENDBRANCH  13  14
ENDBRANCH  12  13
ENDBRANCH  11  12
ENDBRANCH  10  11
ENDBRANCH   9  10
ENDBRANCH   8   9
ENDBRANCH   7   8
ENDBRANCH   6   7
ENDBRANCH   5   6
ENDBRANCH   4   5
ENDBRANCH   3   4
ENDBRANCH   2   3
ENDBRANCH   1   2
BRANCH   1  17
ATOM     17  C   UNL     1      27.049  20.762  24.643  1.00  0.00     0.000 C 
BRANCH  17  18
ATOM     18  C   UNL     1      28.573  20.597  24.765  1.00  0.00     0.000 C 
BRANCH  18  19
ATOM     19  C   UNL     1      29.042  19.168  24.441  1.00  0.00     0.000 C 
BRANCH  19  20
ATOM     20  C   UNL     1      30.552  19.089  24.165  1.00  0.00     0.000 C 
BRANCH  20  21
ATOM     21  C   UNL     1      30.876  18.878  22.680  1.00  0.00     0.000 C 
BRANCH  21  22
ATOM     22  C   UNL     1      30.275  20.002  21.823  1.00  0.00    -0.000 C 
BRANCH  22  23
ATOM     23  C   UNL     1      28.748  20.116  21.971  1.00  0.00    -0.000 C 
BRANCH  23  24
ATOM     24  C   UNL     1      27.940  18.999  21.279  1.00  0.00    -0.000 C 
BRANCH  24  25
ATOM     25  C   UNL     1      26.476  18.876  21.738  1.00  0.00    -0.000 C 
BRANCH  25  26
ATOM     26  C   UNL     1      25.427  19.091  20.629  1.00  0.00    -0.000 C 
BRANCH  26  27
ATOM     27  C   UNL     1      25.966  19.867  19.408  1.00  0.00    -0.000 C 
BRANCH  27  28
ATOM     28  C   UNL     1      26.912  19.016  18.543  1.00  0.00    -0.000 C 
BRANCH  28  29
ATOM     29  C   UNL     1      27.428  19.771  17.309  1.00  0.00    -0.003 C 
ATOM     30  C   UNL     1      28.228  18.877  16.363  1.00  0.00     0.004 C 
ENDBRANCH  28  29
ENDBRANCH  27  28
ENDBRANCH  26  27
ENDBRANCH  25  26
ENDBRANCH  24  25
ENDBRANCH  23  24
ENDBRANCH  22  23
ENDBRANCH  21  22
ENDBRANCH  20  21
ENDBRANCH  19  20
ENDBRANCH  18  19
ENDBRANCH  17  18
ENDBRANCH   1  17
TORSDOF 26
ENDMDL
MODEL 3
REMARK VINA RESULT:     6.274      1.802      4.178
REMARK INTER + INTRA:          13.759
REMARK INTER:                   8.968
REMARK INTRA:                   4.791
REMARK UNBOUND:                -2.053
REMARK SMILES CCCCCCCCCCCCCCCCCCCCCCCCCCCC(=O)[O-]
REMARK SMILES IDX 15 1 16 2 17 3 18 4 19 5 20 6 21 7 22 8 23 9 24 10 25 11
REMARK SMILES IDX 26 12 27 13 28 14 29 15 30 16 14 17 13 18 12 19 11 20 10 21
REMARK SMILES IDX 9 22 8 23 7 24 6 25 5 26 4 27 3 28 2 29 1 30
REMARK H PARENT
REMARK Flexibility Score: inf
ROOT
ATOM      1  C   UNL     1      26.294  20.516  24.224  1.00  0.00     0.000 C 
ENDROOT
BRANCH   1   2
ATOM      2  C   UNL     1      25.275  19.444  23.803  1.00  0.00     0.000 C 
BRANCH   2   3
ATOM      3  C   UNL     1      24.474  18.889  24.995  1.00  0.00     0.000 C 
BRANCH   3   4
ATOM      4  C   UNL     1      24.913  19.488  26.344  1.00  0.00     0.000 C 
BRANCH   4   5
ATOM      5  C   UNL     1      24.105  19.014  27.570  1.00  0.00     0.000 C 
BRANCH   5   6
ATOM      6  C   UNL     1      22.676  19.585  27.672  1.00  0.00     0.000 C 
BRANCH   6   7
ATOM      7  C   UNL     1      21.830  19.001  28.819  1.00  0.00     0.000 C 
BRANCH   7   8
ATOM      8  C   UNL     1      20.732  19.966  29.320  1.00  0.00     0.000 C 
BRANCH   8   9
ATOM      9  C   UNL     1      20.255  20.926  28.220  1.00  0.00     0.000 C 
BRANCH   9  10
ATOM     10  C   UNL     1      21.324  21.100  27.133  1.00  0.00     0.000 C 
BRANCH  10  11
ATOM     11  C   UNL     1      21.840  22.548  27.086  1.00  0.00     0.000 C 
BRANCH  11  12
ATOM     12  C   UNL     1      23.382  22.619  27.100  1.00  0.00     0.006 C 
BRANCH  12  13
ATOM     13  C   UNL     1      23.949  23.657  26.117  1.00  0.00     0.053 C 
BRANCH  13  14
ATOM     14  C   UNL     1      24.940  24.576  26.762  1.00  0.00     0.041 C 
ATOM     15  O   UNL     1      26.089  24.715  26.270  1.00  0.00    -0.550 OA
ATOM     16  O   UNL     1      24.571  25.324  27.872  1.00  0.00    -0.550 OA
ENDBRANCH  13  14
ENDBRANCH  12  13
ENDBRANCH  11  12
ENDBRANCH  10  11
ENDBRANCH   9  10
ENDBRANCH   8   9
ENDBRANCH   7   8
ENDBRANCH   6   7
ENDBRANCH   5   6
ENDBRANCH   4   5
ENDBRANCH   3   4
ENDBRANCH   2   3
ENDBRANCH   1   2
BRANCH   1  17
ATOM     17  C   UNL     1      26.356  20.701  25.751  1.00  0.00     0.000 C 
BRANCH  17  18
ATOM     18  C   UNL     1      27.797  20.664  26.288  1.00  0.00     0.000 C 
BRANCH  18  19
ATOM     19  C   UNL     1      28.842  20.966  25.199  1.00  0.00     0.000 C 
BRANCH  19  20
ATOM     20  C   UNL     1      29.123  19.754  24.297  1.00  0.00     0.000 C 
BRANCH  20  21
ATOM     21  C   UNL     1      30.462  19.073  24.615  1.00  0.00     0.000 C 
BRANCH  21  22
ATOM     22  C   UNL     1      31.432  19.194  23.430  1.00  0.00    -0.000 C 
BRANCH  22  23
ATOM     23  C   UNL     1      30.777  19.802  22.179  1.00  0.00    -0.000 C 
BRANCH  23  24
ATOM     24  C   UNL     1      29.683  18.931  21.527  1.00  0.00    -0.000 C 
BRANCH  24  25
ATOM     25  C   UNL     1      28.415  19.692  21.101  1.00  0.00    -0.000 C 
BRANCH  25  26
ATOM     26  C   UNL     1      27.104  18.888  21.218  1.00  0.00    -0.000 C 
BRANCH  26  27
ATOM     27  C   UNL     1      25.969  19.418  20.316  1.00  0.00    -0.000 C 
BRANCH  27  28
ATOM     28  C   UNL     1      26.067  18.885  18.876  1.00  0.00    -0.000 C 
BRANCH  28  29
ATOM     29  C   UNL     1      24.736  18.983  18.115  1.00  0.00    -0.003 C 
ATOM     30  C   UNL     1      23.526  19.020  19.047  1.00  0.00     0.004 C 
ENDBRANCH  28  29
ENDBRANCH  27  28
ENDBRANCH  26  27
ENDBRANCH  25  26
ENDBRANCH  24  25
ENDBRANCH  23  24
ENDBRANCH  22  23
ENDBRANCH  21  22
ENDBRANCH  20  21
ENDBRANCH  19  20
ENDBRANCH  18  19
ENDBRANCH  17  18
ENDBRANCH   1  17
TORSDOF 26
ENDMDL
