MODEL 1
REMARK VINA RESULT:    -4.306      0.000      0.000
REMARK INTER + INTRA:          -5.348
REMARK INTER:                  -5.312
REMARK INTRA:                  -0.036
REMARK UNBOUND:                -0.036
REMARK SMILES CCCCCC=O
REMARK SMILES IDX 4 1 3 2 2 3 1 4 5 5 6 6 7 7
REMARK H PARENT
REMARK Flexibility Score: inf
ROOT
ATOM      1  C   UNL     1       7.518   3.994  18.615  1.00  0.00     0.008 C 
ENDROOT
BRANCH   1   2
ATOM      2  C   UNL     1       8.024   5.316  18.007  1.00  0.00     0.000 C 
BRANCH   2   3
ATOM      3  C   UNL     1       6.944   6.406  17.974  1.00  0.00    -0.003 C 
ATOM      4  C   UNL     1       7.563   7.797  18.067  1.00  0.00     0.004 C 
ENDBRANCH   2   3
ENDBRANCH   1   2
BRANCH   1   5
ATOM      5  C   UNL     1       8.390   2.773  18.276  1.00  0.00     0.072 C 
BRANCH   5   6
ATOM      6  C   UNL     1       7.599   1.498  18.257  1.00  0.00     0.224 C 
ATOM      7  O   UNL     1       6.398   1.511  18.478  1.00  0.00    -0.303 OA
ENDBRANCH   5   6
ENDBRANCH   1   5
TORSDOF 4
ENDMDL
MODEL 2
REMARK VINA RESULT:    -4.189      2.622      4.547
REMARK INTER + INTRA:          -5.204
REMARK INTER:                  -5.123
REMARK INTRA:                  -0.081
REMARK UNBOUND:                -0.036
REMARK SMILES CCCCCC=O
REMARK SMILES IDX 4 1 3 2 2 3 1 4 5 5 6 6 7 7
REMARK H PARENT
REMARK Flexibility Score: inf
ROOT
ATOM      1  C   UNL     1       8.883   4.903  17.932  1.00  0.00     0.008 C 
ENDROOT
BRANCH   1   2
ATOM      2  C   UNL     1       8.620   3.431  18.301  1.00  0.00     0.000 C 
BRANCH   2   3
ATOM      3  C   UNL     1       7.136   3.049  18.195  1.00  0.00    -0.003 C 
ATOM      4  C   UNL     1       6.954   1.535  18.248  1.00  0.00     0.004 C 
ENDBRANCH   2   3
ENDBRANCH   1   2
BRANCH   1   5
ATOM      5  C   UNL     1       7.617   5.774  17.881  1.00  0.00     0.072 C 
BRANCH   5   6
ATOM      6  C   UNL     1       7.896   7.205  18.237  1.00  0.00     0.224 C 
ATOM      7  O   UNL     1       7.140   8.092  17.875  1.00  0.00    -0.303 OA
ENDBRANCH   5   6
ENDBRANCH   1   5
TORSDOF 4
ENDMDL
MODEL 3
REMARK VINA RESULT:    -1.793      2.143      2.690
REMARK INTER + INTRA:          -2.248
REMARK INTER:                  -2.149
REMARK INTRA:                  -0.099
REMARK UNBOUND:                -0.036
REMARK SMILES CCCCCC=O
REMARK SMILES IDX 4 1 3 2 2 3 1 4 5 5 6 6 7 7
REMARK H PARENT
REMARK Flexibility Score: inf
ROOT
ATOM      1  C   UNL     1       7.115   3.432  19.120  1.00  0.00     0.008 C 
ENDROOT
BRANCH   1   2
ATOM      2  C   UNL     1       8.482   4.109  18.907  1.00  0.00     0.000 C 
BRANCH   2   3
ATOM      3  C   UNL     1       9.352   3.377  17.875  1.00  0.00    -0.003 C 
ATOM      4  C   UNL     1      10.783   3.906  17.889  1.00  0.00     0.004 C 
ENDBRANCH   2   3
ENDBRANCH   1   2
BRANCH   1   5
ATOM      5  C   UNL     1       6.679   2.518  17.962  1.00  0.00     0.072 C 
BRANCH   5   6
ATOM      6  C   UNL     1       6.252   1.161  18.439  1.00  0.00     0.224 C 
ATOM      7  O   UNL     1       5.509   1.048  19.400  1.00  0.00    -0.303 OA
ENDBRANCH   5   6
ENDBRANCH   1   5
TORSDOF 4
ENDMDL
MODEL 4
REMARK VINA RESULT:    -1.433      2.251      3.664
REMARK INTER + INTRA:          -1.804
REMARK INTER:                  -1.974
REMARK INTRA:                   0.170
REMARK UNBOUND:                -0.036
REMARK SMILES CCCCCC=O
REMARK SMILES IDX 4 1 3 2 2 3 1 4 5 5 6 6 7 7
REMARK H PARENT
REMARK Flexibility Score: inf
ROOT
ATOM      1  C   UNL     1       7.852   4.426  19.099  1.00  0.00     0.008 C 
ENDROOT
BRANCH   1   2
ATOM      2  C   UNL     1       6.563   3.855  18.480  1.00  0.00     0.000 C 
BRANCH   2   3
ATOM      3  C   UNL     1       6.761   2.453  17.886  1.00  0.00    -0.003 C 
ATOM      4  C   UNL     1       6.345   1.372  18.879  1.00  0.00     0.004 C 
ENDBRANCH   2   3
ENDBRANCH   1   2
BRANCH   1   5
ATOM      5  C   UNL     1       8.886   4.905  18.065  1.00  0.00     0.072 C 
BRANCH   5   6
ATOM      6  C   UNL     1       9.999   3.917  17.875  1.00  0.00     0.224 C 
ATOM      7  O   UNL     1       9.799   2.722  18.022  1.00  0.00    -0.303 OA
ENDBRANCH   5   6
ENDBRANCH   1   5
TORSDOF 4
ENDMDL
