MODEL 1
REMARK VINA RESULT:    -3.598      0.000      0.000
REMARK INTER + INTRA:          -5.262
REMARK INTER:                  -4.860
REMARK INTRA:                  -0.402
REMARK UNBOUND:                -0.402
REMARK SMILES CCCCCCCC(=O)[O-]
REMARK SMILES IDX 5 1 6 2 7 3 8 4 9 5 10 6 4 7 3 8 2 9 1 10
REMARK H PARENT
REMARK Flexibility Score: inf
ROOT
ATOM      1  C   UNL     1      31.738   9.593  28.650  1.00  0.00     0.000 C 
ENDROOT
BRANCH   1   2
ATOM      2  C   UNL     1      30.732  10.292  29.580  1.00  0.00     0.006 C 
BRANCH   2   3
ATOM      3  C   UNL     1      30.128  11.549  28.941  1.00  0.00     0.053 C 
BRANCH   3   4
ATOM      4  C   UNL     1      28.833  11.255  28.249  1.00  0.00     0.041 C 
ATOM      5  O   UNL     1      27.766  11.164  28.912  1.00  0.00    -0.550 OA
ATOM      6  O   UNL     1      28.809  11.052  26.875  1.00  0.00    -0.550 OA
ENDBRANCH   3   4
ENDBRANCH   2   3
ENDBRANCH   1   2
BRANCH   1   7
ATOM      7  C   UNL     1      31.681   8.058  28.753  1.00  0.00     0.000 C 
BRANCH   7   8
ATOM      8  C   UNL     1      30.269   7.465  28.926  1.00  0.00    -0.000 C 
BRANCH   8   9
ATOM      9  C   UNL     1      30.100   6.530  30.138  1.00  0.00    -0.003 C 
ATOM     10  C   UNL     1      31.039   6.878  31.292  1.00  0.00     0.004 C 
ENDBRANCH   8   9
ENDBRANCH   7   8
ENDBRANCH   1   7
TORSDOF 6
ENDMDL
MODEL 2
REMARK VINA RESULT:    -3.583      1.256      1.581
REMARK INTER + INTRA:          -5.242
REMARK INTER:                  -4.733
REMARK INTRA:                  -0.509
REMARK UNBOUND:                -0.402
REMARK SMILES CCCCCCCC(=O)[O-]
REMARK SMILES IDX 5 1 6 2 7 3 8 4 9 5 10 6 4 7 3 8 2 9 1 10
REMARK H PARENT
REMARK Flexibility Score: inf
ROOT
ATOM      1  C   UNL     1      31.398   9.362  27.803  1.00  0.00     0.000 C 
ENDROOT
BRANCH   1   2
ATOM      2  C   UNL     1      29.943   9.849  27.685  1.00  0.00     0.006 C 
BRANCH   2   3
ATOM      3  C   UNL     1      29.699  11.142  28.474  1.00  0.00     0.053 C 
BRANCH   3   4
ATOM      4  C   UNL     1      28.833  10.907  29.674  1.00  0.00     0.041 C 
ATOM      5  O   UNL     1      27.676  11.399  29.727  1.00  0.00    -0.550 OA
ATOM      6  O   UNL     1      29.318  10.168  30.745  1.00  0.00    -0.550 OA
ENDBRANCH   3   4
ENDBRANCH   2   3
ENDBRANCH   1   2
BRANCH   1   7
ATOM      7  C   UNL     1      31.535   8.094  28.664  1.00  0.00     0.000 C 
BRANCH   7   8
ATOM      8  C   UNL     1      30.266   7.223  28.755  1.00  0.00    -0.000 C 
BRANCH   8   9
ATOM      9  C   UNL     1      29.896   6.758  30.175  1.00  0.00    -0.003 C 
ATOM     10  C   UNL     1      31.021   6.978  31.185  1.00  0.00     0.004 C 
ENDBRANCH   8   9
ENDBRANCH   7   8
ENDBRANCH   1   7
TORSDOF 6
ENDMDL
MODEL 3
REMARK VINA RESULT:    -3.572      0.920      1.805
REMARK INTER + INTRA:          -5.227
REMARK INTER:                  -4.888
REMARK INTRA:                  -0.340
REMARK UNBOUND:                -0.402
REMARK SMILES CCCCCCCC(=O)[O-]
REMARK SMILES IDX 5 1 6 2 7 3 8 4 9 5 10 6 4 7 3 8 2 9 1 10
REMARK H PARENT
REMARK Flexibility Score: inf
ROOT
ATOM      1  C   UNL     1      31.726   8.175  28.635  1.00  0.00     0.000 C 
ENDROOT
BRANCH   1   2
ATOM      2  C   UNL     1      31.161   9.507  28.112  1.00  0.00     0.006 C 
BRANCH   2   3
ATOM      3  C   UNL     1      29.964   9.992  28.939  1.00  0.00     0.053 C 
BRANCH   3   4
ATOM      4  C   UNL     1      29.110  10.955  28.172  1.00  0.00     0.041 C 
ATOM      5  O   UNL     1      29.134  10.960  26.913  1.00  0.00    -0.550 OA
ATOM      6  O   UNL     1      28.309  11.865  28.849  1.00  0.00    -0.550 OA
ENDBRANCH   3   4
ENDBRANCH   2   3
ENDBRANCH   1   2
BRANCH   1   7
ATOM      7  C   UNL     1      31.710   8.082  30.172  1.00  0.00     0.000 C 
BRANCH   7   8
ATOM      8  C   UNL     1      30.939   6.878  30.747  1.00  0.00    -0.000 C 
BRANCH   8   9
ATOM      9  C   UNL     1      29.792   6.357  29.863  1.00  0.00    -0.003 C 
ATOM     10  C   UNL     1      29.600   4.845  29.966  1.00  0.00     0.004 C 
ENDBRANCH   8   9
ENDBRANCH   7   8
ENDBRANCH   1   7
TORSDOF 6
ENDMDL
MODEL 4
REMARK VINA RESULT:    -3.482      1.321      2.041
REMARK INTER + INTRA:          -5.106
REMARK INTER:                  -4.517
REMARK INTRA:                  -0.589
REMARK UNBOUND:                -0.402
REMARK SMILES CCCCCCCC(=O)[O-]
REMARK SMILES IDX 5 1 6 2 7 3 8 4 9 5 10 6 4 7 3 8 2 9 1 10
REMARK H PARENT
REMARK Flexibility Score: inf
ROOT
ATOM      1  C   UNL     1      31.990  10.688  30.656  1.00  0.00     0.000 C 
ENDROOT
BRANCH   1   2
ATOM      2  C   UNL     1      30.525  11.062  30.372  1.00  0.00     0.006 C 
BRANCH   2   3
ATOM      3  C   UNL     1      30.359  11.761  29.016  1.00  0.00     0.053 C 
BRANCH   3   4
ATOM      4  C   UNL     1      29.101  11.337  28.321  1.00  0.00     0.041 C 
ATOM      5  O   UNL     1      28.017  11.272  28.957  1.00  0.00    -0.550 OA
ATOM      6  O   UNL     1      29.134  10.988  26.978  1.00  0.00    -0.550 OA
ENDBRANCH   3   4
ENDBRANCH   2   3
ENDBRANCH   1   2
BRANCH   1   7
ATOM      7  C   UNL     1      32.288   9.200  30.400  1.00  0.00     0.000 C 
BRANCH   7   8
ATOM      8  C   UNL     1      32.910   8.883  29.025  1.00  0.00    -0.000 C 
BRANCH   8   9
ATOM      9  C   UNL     1      31.898   8.535  27.918  1.00  0.00    -0.003 C 
ATOM     10  C   UNL     1      30.637   7.861  28.455  1.00  0.00     0.004 C 
ENDBRANCH   8   9
ENDBRANCH   7   8
ENDBRANCH   1   7
TORSDOF 6
ENDMDL
MODEL 5
REMARK VINA RESULT:    -3.463      9.724     11.748
REMARK INTER + INTRA:          -5.080
REMARK INTER:                  -4.493
REMARK INTRA:                  -0.587
REMARK UNBOUND:                -0.402
REMARK SMILES CCCCCCCC(=O)[O-]
REMARK SMILES IDX 5 1 6 2 7 3 8 4 9 5 10 6 4 7 3 8 2 9 1 10
REMARK H PARENT
REMARK Flexibility Score: inf
ROOT
ATOM      1  C   UNL     1      29.694  19.210  21.720  1.00  0.00     0.000 C 
ENDROOT
BRANCH   1   2
ATOM      2  C   UNL     1      29.935  18.880  23.203  1.00  0.00     0.006 C 
BRANCH   2   3
ATOM      3  C   UNL     1      29.586  17.424  23.537  1.00  0.00     0.053 C 
BRANCH   3   4
ATOM      4  C   UNL     1      30.472  16.459  22.809  1.00  0.00     0.041 C 
ATOM      5  O   UNL     1      29.971  15.556  22.089  1.00  0.00    -0.550 OA
ATOM      6  O   UNL     1      31.851  16.541  22.951  1.00  0.00    -0.550 OA
ENDBRANCH   3   4
ENDBRANCH   2   3
ENDBRANCH   1   2
BRANCH   1   7
ATOM      7  C   UNL     1      28.334  19.886  21.471  1.00  0.00     0.000 C 
BRANCH   7   8
ATOM      8  C   UNL     1      27.324  19.048  20.661  1.00  0.00    -0.000 C 
BRANCH   8   9
ATOM      9  C   UNL     1      27.857  17.695  20.157  1.00  0.00    -0.003 C 
ATOM     10  C   UNL     1      26.926  16.530  20.485  1.00  0.00     0.004 C 
ENDBRANCH   8   9
ENDBRANCH   7   8
ENDBRANCH   1   7
TORSDOF 6
ENDMDL
MODEL 6
REMARK VINA RESULT:    -3.456      0.885      1.787
REMARK INTER + INTRA:          -5.071
REMARK INTER:                  -4.624
REMARK INTRA:                  -0.447
REMARK UNBOUND:                -0.402
REMARK SMILES CCCCCCCC(=O)[O-]
REMARK SMILES IDX 5 1 6 2 7 3 8 4 9 5 10 6 4 7 3 8 2 9 1 10
REMARK H PARENT
REMARK Flexibility Score: inf
ROOT
ATOM      1  C   UNL     1      31.520   8.129  28.477  1.00  0.00     0.000 C 
ENDROOT
BRANCH   1   2
ATOM      2  C   UNL     1      31.173   9.463  27.793  1.00  0.00     0.006 C 
BRANCH   2   3
ATOM      3  C   UNL     1      30.499  10.448  28.757  1.00  0.00     0.053 C 
BRANCH   3   4
ATOM      4  C   UNL     1      29.318  11.122  28.129  1.00  0.00     0.041 C 
ATOM      5  O   UNL     1      29.086  10.980  26.900  1.00  0.00    -0.550 OA
ATOM      6  O   UNL     1      28.490  11.931  28.897  1.00  0.00    -0.550 OA
ENDBRANCH   3   4
ENDBRANCH   2   3
ENDBRANCH   1   2
BRANCH   1   7
ATOM      7  C   UNL     1      30.287   7.422  29.068  1.00  0.00     0.000 C 
BRANCH   7   8
ATOM      8  C   UNL     1      30.514   6.740  30.433  1.00  0.00    -0.000 C 
BRANCH   8   9
ATOM      9  C   UNL     1      31.606   7.383  31.307  1.00  0.00    -0.003 C 
ATOM     10  C   UNL     1      31.090   8.556  32.137  1.00  0.00     0.004 C 
ENDBRANCH   8   9
ENDBRANCH   7   8
ENDBRANCH   1   7
TORSDOF 6
ENDMDL
MODEL 7
REMARK VINA RESULT:    -3.426      9.717     10.812
REMARK INTER + INTRA:          -5.030
REMARK INTER:                  -4.445
REMARK INTRA:                  -0.585
REMARK UNBOUND:                -0.402
REMARK SMILES CCCCCCCC(=O)[O-]
REMARK SMILES IDX 5 1 6 2 7 3 8 4 9 5 10 6 4 7 3 8 2 9 1 10
REMARK H PARENT
REMARK Flexibility Score: inf
ROOT
ATOM      1  C   UNL     1      23.047   2.721  27.658  1.00  0.00     0.000 C 
ENDROOT
BRANCH   1   2
ATOM      2  C   UNL     1      23.623   4.013  27.054  1.00  0.00     0.006 C 
BRANCH   2   3
ATOM      3  C   UNL     1      22.537   4.883  26.407  1.00  0.00     0.053 C 
BRANCH   3   4
ATOM      4  C   UNL     1      22.001   4.264  25.153  1.00  0.00     0.041 C 
ATOM      5  O   UNL     1      22.701   4.245  24.106  1.00  0.00    -0.550 OA
ATOM      6  O   UNL     1      20.718   3.733  25.134  1.00  0.00    -0.550 OA
ENDBRANCH   3   4
ENDBRANCH   2   3
ENDBRANCH   1   2
BRANCH   1   7
ATOM      7  C   UNL     1      23.643   1.450  27.026  1.00  0.00     0.000 C 
BRANCH   7   8
ATOM      8  C   UNL     1      22.687   0.664  26.106  1.00  0.00    -0.000 C 
BRANCH   8   9
ATOM      9  C   UNL     1      23.054   0.691  24.612  1.00  0.00    -0.003 C 
ATOM     10  C   UNL     1      21.832   0.789  23.701  1.00  0.00     0.004 C 
ENDBRANCH   8   9
ENDBRANCH   7   8
ENDBRANCH   1   7
TORSDOF 6
ENDMDL
MODEL 8
REMARK VINA RESULT:    -3.412      9.161     10.583
REMARK INTER + INTRA:          -5.011
REMARK INTER:                  -4.471
REMARK INTRA:                  -0.540
REMARK UNBOUND:                -0.402
REMARK SMILES CCCCCCCC(=O)[O-]
REMARK SMILES IDX 5 1 6 2 7 3 8 4 9 5 10 6 4 7 3 8 2 9 1 10
REMARK H PARENT
REMARK Flexibility Score: inf
ROOT
ATOM      1  C   UNL     1      22.708   1.531  26.600  1.00  0.00     0.000 C 
ENDROOT
BRANCH   1   2
ATOM      2  C   UNL     1      24.021   1.750  27.372  1.00  0.00     0.006 C 
BRANCH   2   3
ATOM      3  C   UNL     1      24.491   3.210  27.311  1.00  0.00     0.053 C 
BRANCH   3   4
ATOM      4  C   UNL     1      23.419   4.159  27.752  1.00  0.00     0.041 C 
ATOM      5  O   UNL     1      23.083   5.123  27.015  1.00  0.00    -0.550 OA
ATOM      6  O   UNL     1      22.811   3.994  28.990  1.00  0.00    -0.550 OA
ENDBRANCH   3   4
ENDBRANCH   2   3
ENDBRANCH   1   2
BRANCH   1   7
ATOM      7  C   UNL     1      22.928   0.883  25.221  1.00  0.00     0.000 C 
BRANCH   7   8
ATOM      8  C   UNL     1      22.462   1.727  24.018  1.00  0.00    -0.000 C 
BRANCH   8   9
ATOM      9  C   UNL     1      21.827   3.081  24.381  1.00  0.00    -0.003 C 
ATOM     10  C   UNL     1      22.485   4.258  23.661  1.00  0.00     0.004 C 
ENDBRANCH   8   9
ENDBRANCH   7   8
ENDBRANCH   1   7
TORSDOF 6
ENDMDL
MODEL 9
REMARK VINA RESULT:    -3.337      1.695      2.458
REMARK INTER + INTRA:          -4.910
REMARK INTER:                  -4.449
REMARK INTRA:                  -0.461
REMARK UNBOUND:                -0.402
REMARK SMILES CCCCCCCC(=O)[O-]
REMARK SMILES IDX 5 1 6 2 7 3 8 4 9 5 10 6 4 7 3 8 2 9 1 10
REMARK H PARENT
REMARK Flexibility Score: inf
ROOT
ATOM      1  C   UNL     1      30.710   8.579  28.366  1.00  0.00     0.000 C 
ENDROOT
BRANCH   1   2
ATOM      2  C   UNL     1      29.944   9.773  27.771  1.00  0.00     0.006 C 
BRANCH   2   3
ATOM      3  C   UNL     1      30.197  11.070  28.552  1.00  0.00     0.053 C 
BRANCH   3   4
ATOM      4  C   UNL     1      28.930  11.635  29.118  1.00  0.00     0.041 C 
ATOM      5  O   UNL     1      27.817  11.141  28.798  1.00  0.00    -0.550 OA
ATOM      6  O   UNL     1      28.979  12.724  29.978  1.00  0.00    -0.550 OA
ENDBRANCH   3   4
ENDBRANCH   2   3
ENDBRANCH   1   2
BRANCH   1   7
ATOM      7  C   UNL     1      32.145   8.459  27.822  1.00  0.00     0.000 C 
BRANCH   7   8
ATOM      8  C   UNL     1      33.257   8.510  28.888  1.00  0.00    -0.000 C 
BRANCH   8   9
ATOM      9  C   UNL     1      32.780   8.862  30.309  1.00  0.00    -0.003 C 
ATOM     10  C   UNL     1      33.166  10.278  30.733  1.00  0.00     0.004 C 
ENDBRANCH   8   9
ENDBRANCH   7   8
ENDBRANCH   1   7
TORSDOF 6
ENDMDL
