MODEL 1
REMARK VINA RESULT:    87.058      0.000      0.000
REMARK INTER + INTRA:         136.449
REMARK INTER:                 137.952
REMARK INTRA:                  -1.503
REMARK UNBOUND:                -1.503
REMARK SMILES C[C@H]1O[C@@H](O[C@H]2[C@@H](Oc3cc(O)c4c(c3)O[C@H](c3ccc(O)cc3)CC4=O)O[C@H](CO)[C@@H](O)[C@H]2O)[C@H](O)[C@@H](O)[C@H]1O
REMARK SMILES IDX 6 1 34 2 32 3 29 4 28 5 7 6 5 7 4 8 1 9 2 10 40 11 3 12
REMARK SMILES IDX 38 13 36 14 41 15 39 17 37 19 35 21 8 23 9 24 10 25 15 26
REMARK SMILES IDX 11 27 14 28 13 29 16 30 26 31 17 32 27 33 25 34 12 35 18 37
REMARK SMILES IDX 19 38 24 39 20 40 23 41 21 42 22 43 33 45 30 47 31 48
REMARK H PARENT 41 16 39 18 37 20 35 22 12 36 22 44 33 46 31 49
REMARK Flexibility Score: inf
ROOT
ATOM      1  C   UNL     1      22.274   2.707  51.568  1.00  0.00     0.221 C 
ATOM      2  C   UNL     1      22.977   3.932  52.170  1.00  0.00     0.181 C 
ATOM      3  C   UNL     1      21.953   5.040  52.483  1.00  0.00     0.177 C 
ATOM      4  C   UNL     1      20.717   4.483  53.251  1.00  0.00     0.179 C 
ATOM      5  O   UNL     1      20.170   3.338  52.617  1.00  0.00    -0.332 OA
ATOM      6  C   UNL     1      21.105   2.280  52.512  1.00  0.00     0.339 C 
ENDROOT
BRANCH   1   7
ATOM      7  O   UNL     1      23.290   1.760  51.213  1.00  0.00    -0.337 OA
BRANCH   7   8
ATOM      8  C   UNL     1      22.888   0.671  50.374  1.00  0.00     0.282 C 
ATOM      9  C   UNL     1      25.969   0.189  51.439  1.00  0.00     0.041 C 
ATOM     10  C   UNL     1      25.104  -0.239  50.233  1.00  0.00     0.150 C 
ATOM     11  C   UNL     1      25.308   0.657  48.981  1.00  0.00     0.174 C 
ATOM     12  O   UNL     1      23.740  -0.445  50.618  1.00  0.00    -0.344 OA
ATOM     13  C   UNL     1      24.072   0.533  48.085  1.00  0.00     0.179 C 
ATOM     14  C   UNL     1      22.820   1.022  48.848  1.00  0.00     0.202 C 
BRANCH  11  15
ATOM     15  O   UNL     1      25.507   2.008  49.352  1.00  0.00    -0.388 OA
ATOM     16  H   UNL     1      26.374   2.287  48.977  1.00  0.00     0.211 HD
ENDBRANCH  11  15
BRANCH  13  17
ATOM     17  O   UNL     1      24.272   1.288  46.914  1.00  0.00    -0.387 OA
ATOM     18  H   UNL     1      24.328   2.245  47.174  1.00  0.00     0.211 HD
ENDBRANCH  13  17
BRANCH  14  19
ATOM     19  O   UNL     1      21.673   0.409  48.302  1.00  0.00    -0.385 OA
ATOM     20  H   UNL     1      20.944   0.486  48.978  1.00  0.00     0.211 HD
ENDBRANCH  14  19
ENDBRANCH   7   8
ENDBRANCH   1   7
BRANCH   2  21
ATOM     21  O   UNL     1      23.676   3.550  53.329  1.00  0.00    -0.387 OA
ATOM     22  H   UNL     1      24.051   4.368  53.733  1.00  0.00     0.211 HD
ENDBRANCH   2  21
BRANCH   6  23
ATOM     23  O   UNL     1      21.563   1.884  53.814  1.00  0.00    -0.462 OA
BRANCH  23  24
ATOM     24  C   UNL     1      20.953   0.974  54.694  1.00  0.00     0.130 A 
ATOM     25  C   UNL     1      19.739   0.398  54.312  1.00  0.00     0.093 A 
ATOM     26  C   UNL     1      21.471   0.669  55.967  1.00  0.00     0.094 A 
ATOM     27  C   UNL     1      18.956  -0.335  55.214  1.00  0.00     0.133 A 
ATOM     28  C   UNL     1      20.675   0.015  56.909  1.00  0.00     0.138 A 
ATOM     29  C   UNL     1      19.394  -0.464  56.558  1.00  0.00     0.102 A 
ATOM     30  O   UNL     1      21.156  -0.098  58.223  1.00  0.00    -0.484 OA
ATOM     31  C   UNL     1      18.532  -0.942  57.668  1.00  0.00     0.174 C 
ATOM     32  C   UNL     1      20.404  -0.673  59.306  1.00  0.00     0.211 C 
ATOM     33  O   UNL     1      17.486  -1.598  57.467  1.00  0.00    -0.294 OA
ATOM     34  C   UNL     1      18.884  -0.562  59.068  1.00  0.00     0.131 C 
BRANCH  27  35
ATOM     35  O   UNL     1      17.753  -0.865  54.738  1.00  0.00    -0.507 OA
ATOM     36  H   UNL     1      17.058  -0.345  54.241  1.00  0.00     0.293 HD
ENDBRANCH  27  35
BRANCH  32  37
ATOM     37  C   UNL     1      20.909  -2.069  59.618  1.00  0.00    -0.007 A 
ATOM     38  C   UNL     1      20.674  -2.733  60.846  1.00  0.00     0.011 A 
ATOM     39  C   UNL     1      21.688  -2.723  58.648  1.00  0.00     0.011 A 
ATOM     40  C   UNL     1      21.215  -3.999  61.095  1.00  0.00     0.046 A 
ATOM     41  C   UNL     1      22.240  -3.980  58.906  1.00  0.00     0.046 A 
ATOM     42  C   UNL     1      22.016  -4.622  60.133  1.00  0.00     0.115 A 
BRANCH  42  43
ATOM     43  O   UNL     1      22.613  -5.851  60.411  1.00  0.00    -0.508 OA
ATOM     44  H   UNL     1      23.618  -5.951  60.461  1.00  0.00     0.293 HD
ENDBRANCH  42  43
ENDBRANCH  32  37
ENDBRANCH  23  24
ENDBRANCH   6  23
BRANCH   3  45
ATOM     45  O   UNL     1      22.566   6.040  53.247  1.00  0.00    -0.387 OA
ATOM     46  H   UNL     1      21.940   6.262  53.982  1.00  0.00     0.211 HD
ENDBRANCH   3  45
BRANCH   4  47
ATOM     47  C   UNL     1      19.626   5.560  53.330  1.00  0.00     0.191 C 
BRANCH  47  48
ATOM     48  O   UNL     1      18.469   5.057  53.943  1.00  0.00    -0.394 OA
ATOM     49  H   UNL     1      18.604   4.069  54.011  1.00  0.00     0.210 HD
ENDBRANCH  47  48
ENDBRANCH   4  47
TORSDOF 14
ENDMDL
MODEL 2
REMARK VINA RESULT:    87.274      5.402      9.628
REMARK INTER + INTRA:         136.791
REMARK INTER:                 125.294
REMARK INTRA:                  11.497
REMARK UNBOUND:                -1.503
REMARK SMILES C[C@H]1O[C@@H](O[C@H]2[C@@H](Oc3cc(O)c4c(c3)O[C@H](c3ccc(O)cc3)CC4=O)O[C@H](CO)[C@@H](O)[C@H]2O)[C@H](O)[C@@H](O)[C@H]1O
REMARK SMILES IDX 6 1 34 2 32 3 29 4 28 5 7 6 5 7 4 8 1 9 2 10 40 11 3 12
REMARK SMILES IDX 38 13 36 14 41 15 39 17 37 19 35 21 8 23 9 24 10 25 15 26
REMARK SMILES IDX 11 27 14 28 13 29 16 30 26 31 17 32 27 33 25 34 12 35 18 37
REMARK SMILES IDX 19 38 24 39 20 40 23 41 21 42 22 43 33 45 30 47 31 48
REMARK H PARENT 41 16 39 18 37 20 35 22 12 36 22 44 33 46 31 49
REMARK Flexibility Score: inf
ROOT
ATOM      1  C   UNL     1      19.558  -1.037  46.487  1.00  0.00     0.221 C 
ATOM      2  C   UNL     1      19.935  -1.740  47.799  1.00  0.00     0.181 C 
ATOM      3  C   UNL     1      19.788  -3.266  47.652  1.00  0.00     0.177 C 
ATOM      4  C   UNL     1      20.463  -3.788  46.349  1.00  0.00     0.179 C 
ATOM      5  O   UNL     1      20.060  -3.046  45.208  1.00  0.00    -0.332 OA
ATOM      6  C   UNL     1      20.378  -1.671  45.319  1.00  0.00     0.339 C 
ENDROOT
BRANCH   1   7
ATOM      7  O   UNL     1      19.622   0.376  46.722  1.00  0.00    -0.337 OA
BRANCH   7   8
ATOM      8  C   UNL     1      18.454   0.989  47.278  1.00  0.00     0.282 C 
ATOM      9  C   UNL     1      17.586  -1.560  45.378  1.00  0.00     0.041 C 
ATOM     10  C   UNL     1      16.951  -0.241  45.868  1.00  0.00     0.150 C 
ATOM     11  C   UNL     1      17.081   0.922  44.847  1.00  0.00     0.174 C 
ATOM     12  O   UNL     1      17.364   0.073  47.203  1.00  0.00    -0.344 OA
ATOM     13  C   UNL     1      16.953   2.250  45.600  1.00  0.00     0.179 C 
ATOM     14  C   UNL     1      18.086   2.374  46.642  1.00  0.00     0.202 C 
BRANCH  11  15
ATOM     15  O   UNL     1      18.323   0.865  44.170  1.00  0.00    -0.388 OA
ATOM     16  H   UNL     1      19.021   1.091  44.827  1.00  0.00     0.211 HD
ENDBRANCH  11  15
BRANCH  13  17
ATOM     17  O   UNL     1      17.002   3.311  44.677  1.00  0.00    -0.387 OA
ATOM     18  H   UNL     1      16.113   3.374  44.238  1.00  0.00     0.211 HD
ENDBRANCH  13  17
BRANCH  14  19
ATOM     19  O   UNL     1      17.676   3.242  47.676  1.00  0.00    -0.385 OA
ATOM     20  H   UNL     1      17.994   2.852  48.536  1.00  0.00     0.211 HD
ENDBRANCH  14  19
ENDBRANCH   7   8
ENDBRANCH   1   7
BRANCH   2  21
ATOM     21  O   UNL     1      21.249  -1.392  48.157  1.00  0.00    -0.387 OA
ATOM     22  H   UNL     1      21.582  -2.085  48.774  1.00  0.00     0.211 HD
ENDBRANCH   2  21
BRANCH   6  23
ATOM     23  O   UNL     1      21.794  -1.495  45.480  1.00  0.00    -0.462 OA
BRANCH  23  24
ATOM     24  C   UNL     1      22.453  -0.593  46.333  1.00  0.00     0.130 A 
ATOM     25  C   UNL     1      23.465   0.206  45.797  1.00  0.00     0.093 A 
ATOM     26  C   UNL     1      22.187  -0.507  47.713  1.00  0.00     0.094 A 
ATOM     27  C   UNL     1      24.319   0.959  46.614  1.00  0.00     0.133 A 
ATOM     28  C   UNL     1      23.073   0.167  48.556  1.00  0.00     0.138 A 
ATOM     29  C   UNL     1      24.170   0.879  48.023  1.00  0.00     0.102 A 
ATOM     30  O   UNL     1      22.879   0.067  49.942  1.00  0.00    -0.484 OA
ATOM     31  C   UNL     1      25.180   1.374  48.992  1.00  0.00     0.174 C 
ATOM     32  C   UNL     1      23.763   0.643  50.920  1.00  0.00     0.211 C 
ATOM     33  O   UNL     1      26.058   2.206  48.675  1.00  0.00    -0.294 OA
ATOM     34  C   UNL     1      25.196   0.802  50.371  1.00  0.00     0.131 C 
BRANCH  27  35
ATOM     35  O   UNL     1      25.306   1.721  45.982  1.00  0.00    -0.507 OA
ATOM     36  H   UNL     1      26.215   1.902  46.358  1.00  0.00     0.293 HD
ENDBRANCH  27  35
BRANCH  32  37
ATOM     37  C   UNL     1      23.154   1.901  51.510  1.00  0.00    -0.007 A 
ATOM     38  C   UNL     1      23.796   3.162  51.502  1.00  0.00     0.011 A 
ATOM     39  C   UNL     1      21.898   1.798  52.133  1.00  0.00     0.011 A 
ATOM     40  C   UNL     1      23.205   4.274  52.113  1.00  0.00     0.046 A 
ATOM     41  C   UNL     1      21.319   2.906  52.756  1.00  0.00     0.046 A 
ATOM     42  C   UNL     1      21.971   4.148  52.759  1.00  0.00     0.115 A 
BRANCH  42  43
ATOM     43  O   UNL     1      21.419   5.240  53.428  1.00  0.00    -0.508 OA
ATOM     44  H   UNL     1      21.079   6.049  52.926  1.00  0.00     0.293 HD
ENDBRANCH  42  43
ENDBRANCH  32  37
ENDBRANCH  23  24
ENDBRANCH   6  23
BRANCH   3  45
ATOM     45  O   UNL     1      20.361  -3.899  48.761  1.00  0.00    -0.387 OA
ATOM     46  H   UNL     1      20.518  -3.197  49.442  1.00  0.00     0.211 HD
ENDBRANCH   3  45
BRANCH   4  47
ATOM     47  C   UNL     1      20.090  -5.260  46.124  1.00  0.00     0.191 C 
BRANCH  47  48
ATOM     48  O   UNL     1      19.678  -5.477  44.801  1.00  0.00    -0.394 OA
ATOM     49  H   UNL     1      19.271  -4.616  44.497  1.00  0.00     0.210 HD
ENDBRANCH  47  48
ENDBRANCH   4  47
TORSDOF 14
ENDMDL
MODEL 3
REMARK VINA RESULT:    87.675      3.435      9.345
REMARK INTER + INTRA:         137.426
REMARK INTER:                 137.030
REMARK INTRA:                   0.397
REMARK UNBOUND:                -1.503
REMARK SMILES C[C@H]1O[C@@H](O[C@H]2[C@@H](Oc3cc(O)c4c(c3)O[C@H](c3ccc(O)cc3)CC4=O)O[C@H](CO)[C@@H](O)[C@H]2O)[C@H](O)[C@@H](O)[C@H]1O
REMARK SMILES IDX 6 1 34 2 32 3 29 4 28 5 7 6 5 7 4 8 1 9 2 10 40 11 3 12
REMARK SMILES IDX 38 13 36 14 41 15 39 17 37 19 35 21 8 23 9 24 10 25 15 26
REMARK SMILES IDX 11 27 14 28 13 29 16 30 26 31 17 32 27 33 25 34 12 35 18 37
REMARK SMILES IDX 19 38 24 39 20 40 23 41 21 42 22 43 33 45 30 47 31 48
REMARK H PARENT 41 16 39 18 37 20 35 22 12 36 22 44 33 46 31 49
REMARK Flexibility Score: inf
ROOT
ATOM      1  C   UNL     1      22.822  -2.439  60.311  1.00  0.00     0.221 C 
ATOM      2  C   UNL     1      23.034  -3.938  60.056  1.00  0.00     0.181 C 
ATOM      3  C   UNL     1      22.226  -4.774  61.067  1.00  0.00     0.177 C 
ATOM      4  C   UNL     1      20.755  -4.277  61.183  1.00  0.00     0.179 C 
ATOM      5  O   UNL     1      20.683  -2.875  61.390  1.00  0.00    -0.332 OA
ATOM      6  C   UNL     1      21.289  -2.143  60.340  1.00  0.00     0.339 C 
ENDROOT
BRANCH   1   7
ATOM      7  O   UNL     1      23.672  -1.724  59.406  1.00  0.00    -0.337 OA
BRANCH   7   8
ATOM      8  C   UNL     1      24.762  -0.999  59.985  1.00  0.00     0.282 C 
ATOM      9  C   UNL     1      21.901   0.223  61.070  1.00  0.00     0.041 C 
ATOM     10  C   UNL     1      23.347   0.726  60.867  1.00  0.00     0.150 C 
ATOM     11  C   UNL     1      23.554   1.476  59.523  1.00  0.00     0.174 C 
ATOM     12  O   UNL     1      24.301  -0.306  61.142  1.00  0.00    -0.344 OA
ATOM     13  C   UNL     1      25.043   1.432  59.164  1.00  0.00     0.179 C 
ATOM     14  C   UNL     1      25.497  -0.034  58.991  1.00  0.00     0.202 C 
BRANCH  11  15
ATOM     15  O   UNL     1      22.787   0.887  58.491  1.00  0.00    -0.388 OA
ATOM     16  H   UNL     1      23.413   0.397  57.909  1.00  0.00     0.211 HD
ENDBRANCH  11  15
BRANCH  13  17
ATOM     17  O   UNL     1      25.255   2.166  57.982  1.00  0.00    -0.387 OA
ATOM     18  H   UNL     1      26.184   2.517  58.005  1.00  0.00     0.211 HD
ENDBRANCH  13  17
BRANCH  14  19
ATOM     19  O   UNL     1      26.885  -0.124  59.230  1.00  0.00    -0.385 OA
ATOM     20  H   UNL     1      27.097   0.487  59.988  1.00  0.00     0.211 HD
ENDBRANCH  14  19
ENDBRANCH   7   8
ENDBRANCH   1   7
BRANCH   2  21
ATOM     21  O   UNL     1      22.663  -4.246  58.735  1.00  0.00    -0.387 OA
ATOM     22  H   UNL     1      21.937  -4.913  58.779  1.00  0.00     0.211 HD
ENDBRANCH   2  21
BRANCH   6  23
ATOM     23  O   UNL     1      20.646  -2.435  59.089  1.00  0.00    -0.462 OA
BRANCH  23  24
ATOM     24  C   UNL     1      19.989  -1.533  58.234  1.00  0.00     0.130 A 
ATOM     25  C   UNL     1      18.706  -1.105  58.584  1.00  0.00     0.093 A 
ATOM     26  C   UNL     1      20.534  -1.095  57.013  1.00  0.00     0.094 A 
ATOM     27  C   UNL     1      17.897  -0.395  57.688  1.00  0.00     0.133 A 
ATOM     28  C   UNL     1      19.722  -0.461  56.070  1.00  0.00     0.138 A 
ATOM     29  C   UNL     1      18.384  -0.135  56.380  1.00  0.00     0.102 A 
ATOM     30  O   UNL     1      20.251  -0.215  54.794  1.00  0.00    -0.484 OA
ATOM     31  C   UNL     1      17.532   0.329  55.256  1.00  0.00     0.174 C 
ATOM     32  C   UNL     1      19.497   0.354  53.709  1.00  0.00     0.211 C 
ATOM     33  O   UNL     1      16.416   0.864  55.440  1.00  0.00    -0.294 OA
ATOM     34  C   UNL     1      17.987   0.079  53.857  1.00  0.00     0.131 C 
BRANCH  27  35
ATOM     35  O   UNL     1      16.625  -0.019  58.130  1.00  0.00    -0.507 OA
ATOM     36  H   UNL     1      16.144  -0.434  58.902  1.00  0.00     0.293 HD
ENDBRANCH  27  35
BRANCH  32  37
ATOM     37  C   UNL     1      19.872   1.811  53.511  1.00  0.00    -0.007 A 
ATOM     38  C   UNL     1      21.180   2.247  53.189  1.00  0.00     0.011 A 
ATOM     39  C   UNL     1      18.874   2.782  53.696  1.00  0.00     0.011 A 
ATOM     40  C   UNL     1      21.476   3.611  53.075  1.00  0.00     0.046 A 
ATOM     41  C   UNL     1      19.177   4.143  53.597  1.00  0.00     0.046 A 
ATOM     42  C   UNL     1      20.480   4.567  53.296  1.00  0.00     0.115 A 
BRANCH  42  43
ATOM     43  O   UNL     1      20.793   5.924  53.252  1.00  0.00    -0.508 OA
ATOM     44  H   UNL     1      20.596   6.485  52.434  1.00  0.00     0.293 HD
ENDBRANCH  42  43
ENDBRANCH  32  37
ENDBRANCH  23  24
ENDBRANCH   6  23
BRANCH   3  45
ATOM     45  O   UNL     1      22.235  -6.118  60.674  1.00  0.00    -0.387 OA
ATOM     46  H   UNL     1      22.743  -6.164  59.824  1.00  0.00     0.211 HD
ENDBRANCH   3  45
BRANCH   4  47
ATOM     47  C   UNL     1      20.061  -4.975  62.360  1.00  0.00     0.191 C 
BRANCH  47  48
ATOM     48  O   UNL     1      19.175  -4.103  63.010  1.00  0.00    -0.394 OA
ATOM     49  H   UNL     1      18.454  -3.904  62.348  1.00  0.00     0.210 HD
ENDBRANCH  47  48
ENDBRANCH   4  47
TORSDOF 14
ENDMDL
MODEL 4
REMARK VINA RESULT:    87.962      2.012      2.624
REMARK INTER + INTRA:         137.882
REMARK INTER:                 135.911
REMARK INTRA:                   1.971
REMARK UNBOUND:                -1.503
REMARK SMILES C[C@H]1O[C@@H](O[C@H]2[C@@H](Oc3cc(O)c4c(c3)O[C@H](c3ccc(O)cc3)CC4=O)O[C@H](CO)[C@@H](O)[C@H]2O)[C@H](O)[C@@H](O)[C@H]1O
REMARK SMILES IDX 6 1 34 2 32 3 29 4 28 5 7 6 5 7 4 8 1 9 2 10 40 11 3 12
REMARK SMILES IDX 38 13 36 14 41 15 39 17 37 19 35 21 8 23 9 24 10 25 15 26
REMARK SMILES IDX 11 27 14 28 13 29 16 30 26 31 17 32 27 33 25 34 12 35 18 37
REMARK SMILES IDX 19 38 24 39 20 40 23 41 21 42 22 43 33 45 30 47 31 48
REMARK H PARENT 41 16 39 18 37 20 35 22 12 36 22 44 33 46 31 49
REMARK Flexibility Score: inf
ROOT
ATOM      1  C   UNL     1      21.974   2.383  51.556  1.00  0.00     0.221 C 
ATOM      2  C   UNL     1      22.517   3.135  52.780  1.00  0.00     0.181 C 
ATOM      3  C   UNL     1      21.470   4.135  53.304  1.00  0.00     0.177 C 
ATOM      4  C   UNL     1      20.063   3.480  53.442  1.00  0.00     0.179 C 
ATOM      5  O   UNL     1      19.680   2.793  52.261  1.00  0.00    -0.332 OA
ATOM      6  C   UNL     1      20.588   1.762  51.918  1.00  0.00     0.339 C 
ENDROOT
BRANCH   1   7
ATOM      7  O   UNL     1      23.028   1.545  51.063  1.00  0.00    -0.337 OA
BRANCH   7   8
ATOM      8  C   UNL     1      22.653   0.515  50.143  1.00  0.00     0.282 C 
ATOM      9  C   UNL     1      25.645  -0.115  51.373  1.00  0.00     0.041 C 
ATOM     10  C   UNL     1      24.848  -0.452  50.094  1.00  0.00     0.150 C 
ATOM     11  C   UNL     1      25.157   0.502  48.907  1.00  0.00     0.174 C 
ATOM     12  O   UNL     1      23.457  -0.638  50.379  1.00  0.00    -0.344 OA
ATOM     13  C   UNL     1      23.978   0.463  47.930  1.00  0.00     0.179 C 
ATOM     14  C   UNL     1      22.694   0.947  48.637  1.00  0.00     0.202 C 
BRANCH  11  15
ATOM     15  O   UNL     1      25.367   1.825  49.363  1.00  0.00    -0.388 OA
ATOM     16  H   UNL     1      25.261   2.419  48.585  1.00  0.00     0.211 HD
ENDBRANCH  11  15
BRANCH  13  17
ATOM     17  O   UNL     1      24.274   1.271  46.816  1.00  0.00    -0.387 OA
ATOM     18  H   UNL     1      23.437   1.731  46.544  1.00  0.00     0.211 HD
ENDBRANCH  13  17
BRANCH  14  19
ATOM     19  O   UNL     1      21.568   0.398  47.987  1.00  0.00    -0.385 OA
ATOM     20  H   UNL     1      21.301   1.033  47.267  1.00  0.00     0.211 HD
ENDBRANCH  14  19
ENDBRANCH   7   8
ENDBRANCH   1   7
BRANCH   2  21
ATOM     21  O   UNL     1      22.875   2.210  53.777  1.00  0.00    -0.387 OA
ATOM     22  H   UNL     1      22.896   2.694  54.637  1.00  0.00     0.211 HD
ENDBRANCH   2  21
BRANCH   6  23
ATOM     23  O   UNL     1      20.675   0.797  52.979  1.00  0.00    -0.462 OA
BRANCH  23  24
ATOM     24  C   UNL     1      19.793   0.634  54.061  1.00  0.00     0.130 A 
ATOM     25  C   UNL     1      18.745   1.545  54.202  1.00  0.00     0.093 A 
ATOM     26  C   UNL     1      19.957  -0.360  55.043  1.00  0.00     0.094 A 
ATOM     27  C   UNL     1      17.963   1.595  55.364  1.00  0.00     0.133 A 
ATOM     28  C   UNL     1      19.250  -0.281  56.245  1.00  0.00     0.138 A 
ATOM     29  C   UNL     1      18.270   0.717  56.436  1.00  0.00     0.102 A 
ATOM     30  O   UNL     1      19.582  -1.177  57.273  1.00  0.00    -0.484 OA
ATOM     31  C   UNL     1      17.732   0.870  57.812  1.00  0.00     0.174 C 
ATOM     32  C   UNL     1      18.990  -1.150  58.584  1.00  0.00     0.211 C 
ATOM     33  O   UNL     1      16.708   1.546  58.057  1.00  0.00    -0.294 OA
ATOM     34  C   UNL     1      18.479   0.259  58.950  1.00  0.00     0.131 C 
BRANCH  27  35
ATOM     35  O   UNL     1      16.943   2.549  55.412  1.00  0.00    -0.507 OA
ATOM     36  H   UNL     1      16.771   3.237  54.707  1.00  0.00     0.293 HD
ENDBRANCH  27  35
BRANCH  32  37
ATOM     37  C   UNL     1      17.972  -2.265  58.728  1.00  0.00    -0.007 A 
ATOM     38  C   UNL     1      16.950  -2.522  57.783  1.00  0.00     0.011 A 
ATOM     39  C   UNL     1      18.022  -3.061  59.885  1.00  0.00     0.011 A 
ATOM     40  C   UNL     1      16.005  -3.531  58.000  1.00  0.00     0.046 A 
ATOM     41  C   UNL     1      17.067  -4.057  60.107  1.00  0.00     0.046 A 
ATOM     42  C   UNL     1      16.048  -4.292  59.173  1.00  0.00     0.115 A 
BRANCH  42  43
ATOM     43  O   UNL     1      15.063  -5.247  59.420  1.00  0.00    -0.508 OA
ATOM     44  H   UNL     1      14.292  -5.061  60.048  1.00  0.00     0.293 HD
ENDBRANCH  42  43
ENDBRANCH  32  37
ENDBRANCH  23  24
ENDBRANCH   6  23
BRANCH   3  45
ATOM     45  O   UNL     1      21.878   4.630  54.548  1.00  0.00    -0.387 OA
ATOM     46  H   UNL     1      21.220   5.321  54.811  1.00  0.00     0.211 HD
ENDBRANCH   3  45
BRANCH   4  47
ATOM     47  C   UNL     1      19.013   4.560  53.734  1.00  0.00     0.191 C 
BRANCH  47  48
ATOM     48  O   UNL     1      19.590   5.838  53.723  1.00  0.00    -0.394 OA
ATOM     49  H   UNL     1      20.502   5.722  53.330  1.00  0.00     0.210 HD
ENDBRANCH  47  48
ENDBRANCH   4  47
TORSDOF 14
ENDMDL
MODEL 5
REMARK VINA RESULT:    89.035      2.614      9.629
REMARK INTER + INTRA:         139.581
REMARK INTER:                 141.145
REMARK INTRA:                  -1.564
REMARK UNBOUND:                -1.503
REMARK SMILES C[C@H]1O[C@@H](O[C@H]2[C@@H](Oc3cc(O)c4c(c3)O[C@H](c3ccc(O)cc3)CC4=O)O[C@H](CO)[C@@H](O)[C@H]2O)[C@H](O)[C@@H](O)[C@H]1O
REMARK SMILES IDX 6 1 34 2 32 3 29 4 28 5 7 6 5 7 4 8 1 9 2 10 40 11 3 12
REMARK SMILES IDX 38 13 36 14 41 15 39 17 37 19 35 21 8 23 9 24 10 25 15 26
REMARK SMILES IDX 11 27 14 28 13 29 16 30 26 31 17 32 27 33 25 34 12 35 18 37
REMARK SMILES IDX 19 38 24 39 20 40 23 41 21 42 22 43 33 45 30 47 31 48
REMARK H PARENT 41 16 39 18 37 20 35 22 12 36 22 44 33 46 31 49
REMARK Flexibility Score: inf
ROOT
ATOM      1  C   UNL     1      21.069   2.759  54.241  1.00  0.00     0.221 C 
ATOM      2  C   UNL     1      20.388   4.061  53.795  1.00  0.00     0.181 C 
ATOM      3  C   UNL     1      21.436   5.167  53.572  1.00  0.00     0.177 C 
ATOM      4  C   UNL     1      22.634   4.663  52.712  1.00  0.00     0.179 C 
ATOM      5  O   UNL     1      23.163   3.441  53.204  1.00  0.00    -0.332 OA
ATOM      6  C   UNL     1      22.199   2.405  53.223  1.00  0.00     0.339 C 
ENDROOT
BRANCH   1   7
ATOM      7  O   UNL     1      20.035   1.808  54.524  1.00  0.00    -0.337 OA
BRANCH   7   8
ATOM      8  C   UNL     1      20.457   0.497  54.917  1.00  0.00     0.282 C 
ATOM      9  C   UNL     1      17.827   0.282  52.944  1.00  0.00     0.041 C 
ATOM     10  C   UNL     1      18.485  -0.564  54.056  1.00  0.00     0.150 C 
ATOM     11  C   UNL     1      17.849  -0.343  55.455  1.00  0.00     0.174 C 
ATOM     12  O   UNL     1      19.913  -0.461  54.013  1.00  0.00    -0.344 OA
ATOM     13  C   UNL     1      18.869  -0.748  56.525  1.00  0.00     0.179 C 
ATOM     14  C   UNL     1      20.131   0.133  56.407  1.00  0.00     0.202 C 
BRANCH  11  15
ATOM     15  O   UNL     1      17.471   1.009  55.632  1.00  0.00    -0.388 OA
ATOM     16  H   UNL     1      17.837   1.301  56.498  1.00  0.00     0.211 HD
ENDBRANCH  11  15
BRANCH  13  17
ATOM     17  O   UNL     1      18.281  -0.617  57.797  1.00  0.00    -0.387 OA
ATOM     18  H   UNL     1      18.540  -1.411  58.335  1.00  0.00     0.211 HD
ENDBRANCH  13  17
BRANCH  14  19
ATOM     19  O   UNL     1      21.236  -0.559  56.946  1.00  0.00    -0.385 OA
ATOM     20  H   UNL     1      21.822   0.114  57.390  1.00  0.00     0.211 HD
ENDBRANCH  14  19
ENDBRANCH   7   8
ENDBRANCH   1   7
BRANCH   2  21
ATOM     21  O   UNL     1      19.647   3.824  52.623  1.00  0.00    -0.387 OA
ATOM     22  H   UNL     1      20.268   3.895  51.860  1.00  0.00     0.211 HD
ENDBRANCH   2  21
BRANCH   6  23
ATOM     23  O   UNL     1      21.694   2.163  51.900  1.00  0.00    -0.462 OA
BRANCH  23  24
ATOM     24  C   UNL     1      22.354   1.522  50.837  1.00  0.00     0.130 A 
ATOM     25  C   UNL     1      23.657   1.066  51.047  1.00  0.00     0.093 A 
ATOM     26  C   UNL     1      21.790   1.379  49.556  1.00  0.00     0.094 A 
ATOM     27  C   UNL     1      24.463   0.625  49.989  1.00  0.00     0.133 A 
ATOM     28  C   UNL     1      22.595   1.024  48.472  1.00  0.00     0.138 A 
ATOM     29  C   UNL     1      23.949   0.677  48.667  1.00  0.00     0.102 A 
ATOM     30  O   UNL     1      22.040   1.081  47.184  1.00  0.00    -0.484 OA
ATOM     31  C   UNL     1      24.784   0.533  47.448  1.00  0.00     0.174 C 
ATOM     32  C   UNL     1      22.780   0.821  45.978  1.00  0.00     0.211 C 
ATOM     33  O   UNL     1      25.919   0.008  47.473  1.00  0.00    -0.294 OA
ATOM     34  C   UNL     1      24.285   1.103  46.161  1.00  0.00     0.131 C 
BRANCH  27  35
ATOM     35  O   UNL     1      25.756   0.196  50.301  1.00  0.00    -0.507 OA
ATOM     36  H   UNL     1      26.590   0.717  50.117  1.00  0.00     0.293 HD
ENDBRANCH  27  35
BRANCH  32  37
ATOM     37  C   UNL     1      22.442  -0.554  45.435  1.00  0.00    -0.007 A 
ATOM     38  C   UNL     1      23.147  -1.175  44.376  1.00  0.00     0.011 A 
ATOM     39  C   UNL     1      21.342  -1.232  45.988  1.00  0.00     0.011 A 
ATOM     40  C   UNL     1      22.750  -2.423  43.881  1.00  0.00     0.046 A 
ATOM     41  C   UNL     1      20.939  -2.470  45.481  1.00  0.00     0.046 A 
ATOM     42  C   UNL     1      21.633  -3.069  44.419  1.00  0.00     0.115 A 
BRANCH  42  43
ATOM     43  O   UNL     1      21.197  -4.277  43.877  1.00  0.00    -0.508 OA
ATOM     44  H   UNL     1      21.714  -5.135  44.017  1.00  0.00     0.293 HD
ENDBRANCH  42  43
ENDBRANCH  32  37
ENDBRANCH  23  24
ENDBRANCH   6  23
BRANCH   3  45
ATOM     45  O   UNL     1      20.834   6.260  52.938  1.00  0.00    -0.387 OA
ATOM     46  H   UNL     1      21.561   6.888  52.699  1.00  0.00     0.211 HD
ENDBRANCH   3  45
BRANCH   4  47
ATOM     47  C   UNL     1      23.754   5.712  52.716  1.00  0.00     0.191 C 
BRANCH  47  48
ATOM     48  O   UNL     1      24.791   5.341  51.847  1.00  0.00    -0.394 OA
ATOM     49  H   UNL     1      25.627   5.366  52.394  1.00  0.00     0.210 HD
ENDBRANCH  47  48
ENDBRANCH   4  47
TORSDOF 14
ENDMDL
MODEL 6
REMARK VINA RESULT:    89.224      4.647      9.982
REMARK INTER + INTRA:         139.882
REMARK INTER:                 128.624
REMARK INTRA:                  11.258
REMARK UNBOUND:                -1.503
REMARK SMILES C[C@H]1O[C@@H](O[C@H]2[C@@H](Oc3cc(O)c4c(c3)O[C@H](c3ccc(O)cc3)CC4=O)O[C@H](CO)[C@@H](O)[C@H]2O)[C@H](O)[C@@H](O)[C@H]1O
REMARK SMILES IDX 6 1 34 2 32 3 29 4 28 5 7 6 5 7 4 8 1 9 2 10 40 11 3 12
REMARK SMILES IDX 38 13 36 14 41 15 39 17 37 19 35 21 8 23 9 24 10 25 15 26
REMARK SMILES IDX 11 27 14 28 13 29 16 30 26 31 17 32 27 33 25 34 12 35 18 37
REMARK SMILES IDX 19 38 24 39 20 40 23 41 21 42 22 43 33 45 30 47 31 48
REMARK H PARENT 41 16 39 18 37 20 35 22 12 36 22 44 33 46 31 49
REMARK Flexibility Score: inf
ROOT
ATOM      1  C   UNL     1      23.880   2.099  50.791  1.00  0.00     0.221 C 
ATOM      2  C   UNL     1      23.715   2.363  49.287  1.00  0.00     0.181 C 
ATOM      3  C   UNL     1      24.999   1.975  48.530  1.00  0.00     0.177 C 
ATOM      4  C   UNL     1      25.514   0.566  48.950  1.00  0.00     0.179 C 
ATOM      5  O   UNL     1      25.599   0.431  50.360  1.00  0.00    -0.332 OA
ATOM      6  C   UNL     1      24.350   0.624  50.997  1.00  0.00     0.339 C 
ENDROOT
BRANCH   1   7
ATOM      7  O   UNL     1      22.694   2.571  51.443  1.00  0.00    -0.337 OA
BRANCH   7   8
ATOM      8  C   UNL     1      22.770   2.759  52.860  1.00  0.00     0.282 C 
ATOM      9  C   UNL     1      20.051   1.060  52.101  1.00  0.00     0.041 C 
ATOM     10  C   UNL     1      20.530   1.988  53.239  1.00  0.00     0.150 C 
ATOM     11  C   UNL     1      20.076   3.462  53.062  1.00  0.00     0.174 C 
ATOM     12  O   UNL     1      21.926   1.809  53.505  1.00  0.00    -0.344 OA
ATOM     13  C   UNL     1      21.018   4.363  53.867  1.00  0.00     0.179 C 
ATOM     14  C   UNL     1      22.461   4.220  53.336  1.00  0.00     0.202 C 
BRANCH  11  15
ATOM     15  O   UNL     1      20.092   3.837  51.698  1.00  0.00    -0.388 OA
ATOM     16  H   UNL     1      19.293   3.442  51.280  1.00  0.00     0.211 HD
ENDBRANCH  11  15
BRANCH  13  17
ATOM     17  O   UNL     1      20.577   5.696  53.770  1.00  0.00    -0.387 OA
ATOM     18  H   UNL     1      20.561   6.078  54.687  1.00  0.00     0.211 HD
ENDBRANCH  13  17
BRANCH  14  19
ATOM     19  O   UNL     1      23.371   4.555  54.361  1.00  0.00    -0.385 OA
ATOM     20  H   UNL     1      23.721   5.466  54.162  1.00  0.00     0.211 HD
ENDBRANCH  14  19
ENDBRANCH   7   8
ENDBRANCH   1   7
BRANCH   2  21
ATOM     21  O   UNL     1      22.607   1.644  48.804  1.00  0.00    -0.387 OA
ATOM     22  H   UNL     1      22.007   1.474  49.568  1.00  0.00     0.211 HD
ENDBRANCH   2  21
BRANCH   6  23
ATOM     23  O   UNL     1      23.390  -0.333  50.522  1.00  0.00    -0.462 OA
BRANCH  23  24
ATOM     24  C   UNL     1      23.004  -0.568  49.191  1.00  0.00     0.130 A 
ATOM     25  C   UNL     1      23.954  -0.381  48.185  1.00  0.00     0.093 A 
ATOM     26  C   UNL     1      21.692  -0.916  48.822  1.00  0.00     0.094 A 
ATOM     27  C   UNL     1      23.598  -0.371  46.829  1.00  0.00     0.133 A 
ATOM     28  C   UNL     1      21.294  -0.829  47.486  1.00  0.00     0.138 A 
ATOM     29  C   UNL     1      22.232  -0.521  46.476  1.00  0.00     0.102 A 
ATOM     30  O   UNL     1      19.934  -0.995  47.184  1.00  0.00    -0.484 OA
ATOM     31  C   UNL     1      21.688  -0.230  45.126  1.00  0.00     0.174 C 
ATOM     32  C   UNL     1      19.380  -0.850  45.864  1.00  0.00     0.211 C 
ATOM     33  O   UNL     1      22.416  -0.176  44.110  1.00  0.00    -0.294 OA
ATOM     34  C   UNL     1      20.236   0.086  44.986  1.00  0.00     0.131 C 
BRANCH  27  35
ATOM     35  O   UNL     1      24.621  -0.168  45.898  1.00  0.00    -0.507 OA
ATOM     36  H   UNL     1      25.206   0.642  45.861  1.00  0.00     0.293 HD
ENDBRANCH  27  35
BRANCH  32  37
ATOM     37  C   UNL     1      19.085  -2.210  45.261  1.00  0.00    -0.007 A 
ATOM     38  C   UNL     1      17.907  -2.507  44.534  1.00  0.00     0.011 A 
ATOM     39  C   UNL     1      20.014  -3.243  45.471  1.00  0.00     0.011 A 
ATOM     40  C   UNL     1      17.666  -3.798  44.050  1.00  0.00     0.046 A 
ATOM     41  C   UNL     1      19.762  -4.535  45.002  1.00  0.00     0.046 A 
ATOM     42  C   UNL     1      18.585  -4.824  44.297  1.00  0.00     0.115 A 
BRANCH  42  43
ATOM     43  O   UNL     1      18.308  -6.124  43.877  1.00  0.00    -0.508 OA
ATOM     44  H   UNL     1      19.040  -6.816  43.784  1.00  0.00     0.293 HD
ENDBRANCH  42  43
ENDBRANCH  32  37
ENDBRANCH  23  24
ENDBRANCH   6  23
BRANCH   3  45
ATOM     45  O   UNL     1      24.751   1.990  47.152  1.00  0.00    -0.387 OA
ATOM     46  H   UNL     1      24.164   1.216  46.959  1.00  0.00     0.211 HD
ENDBRANCH   3  45
BRANCH   4  47
ATOM     47  C   UNL     1      26.908   0.323  48.356  1.00  0.00     0.191 C 
BRANCH  47  48
ATOM     48  O   UNL     1      26.977   0.785  47.033  1.00  0.00    -0.394 OA
ATOM     49  H   UNL     1      27.945   0.960  46.856  1.00  0.00     0.210 HD
ENDBRANCH  47  48
ENDBRANCH   4  47
TORSDOF 14
ENDMDL
