MODEL 1
REMARK VINA RESULT:    -4.307      0.000      0.000
REMARK INTER + INTRA:          -4.988
REMARK INTER:                  -4.811
REMARK INTRA:                  -0.177
REMARK UNBOUND:                -0.177
REMARK SMILES O=C([O-])c1ccccc1C(=O)[O-]
REMARK SMILES IDX 4 1 9 2 5 3 8 4 6 5 7 6 2 7 1 8 3 9 10 10 11 11 12 12
REMARK H PARENT
REMARK Flexibility Score: inf
ROOT
ATOM      1  C   UNL     1      16.682  45.760   0.076  1.00  0.00     0.006 A 
ATOM      2  C   UNL     1      16.697  44.862   1.178  1.00  0.00     0.006 A 
ATOM      3  C   UNL     1      17.890  46.348  -0.345  1.00  0.00     0.010 A 
ATOM      4  C   UNL     1      17.928  44.535   1.779  1.00  0.00     0.010 A 
ATOM      5  C   UNL     1      19.095  46.027   0.279  1.00  0.00     0.001 A 
ATOM      6  C   UNL     1      19.117  45.113   1.331  1.00  0.00     0.001 A 
ENDROOT
BRANCH   1   7
ATOM      7  C   UNL     1      15.455  46.048  -0.702  1.00  0.00     0.072 C 
ATOM      8  O   UNL     1      14.821  47.120  -0.510  1.00  0.00    -0.545 OA
ATOM      9  O   UNL     1      15.023  45.176  -1.693  1.00  0.00    -0.545 OA
ENDBRANCH   1   7
BRANCH   2  10
ATOM     10  C   UNL     1      15.460  44.307   1.774  1.00  0.00     0.072 C 
ATOM     11  O   UNL     1      15.237  43.068   1.735  1.00  0.00    -0.545 OA
ATOM     12  O   UNL     1      14.563  45.134   2.440  1.00  0.00    -0.545 OA
ENDBRANCH   2  10
TORSDOF 2
ENDMDL
MODEL 2
REMARK VINA RESULT:    -4.306      0.028      3.157
REMARK INTER + INTRA:          -4.986
REMARK INTER:                  -4.823
REMARK INTRA:                  -0.163
REMARK UNBOUND:                -0.177
REMARK SMILES O=C([O-])c1ccccc1C(=O)[O-]
REMARK SMILES IDX 4 1 9 2 5 3 8 4 6 5 7 6 2 7 1 8 3 9 10 10 11 11 12 12
REMARK H PARENT
REMARK Flexibility Score: inf
ROOT
ATOM      1  C   UNL     1      16.711  44.846   1.167  1.00  0.00     0.006 A 
ATOM      2  C   UNL     1      16.693  45.756   0.075  1.00  0.00     0.006 A 
ATOM      3  C   UNL     1      17.944  44.507   1.756  1.00  0.00     0.010 A 
ATOM      4  C   UNL     1      17.902  46.343  -0.348  1.00  0.00     0.010 A 
ATOM      5  C   UNL     1      19.132  45.084   1.307  1.00  0.00     0.001 A 
ATOM      6  C   UNL     1      19.110  46.008   0.266  1.00  0.00     0.001 A 
ENDROOT
BRANCH   1   7
ATOM      7  C   UNL     1      15.474  44.294   1.766  1.00  0.00     0.072 C 
ATOM      8  O   UNL     1      15.261  43.052   1.745  1.00  0.00    -0.545 OA
ATOM      9  O   UNL     1      14.566  45.124   2.411  1.00  0.00    -0.545 OA
ENDBRANCH   1   7
BRANCH   2  10
ATOM     10  C   UNL     1      15.464  46.061  -0.692  1.00  0.00     0.072 C 
ATOM     11  O   UNL     1      14.841  47.138  -0.490  1.00  0.00    -0.545 OA
ATOM     12  O   UNL     1      15.017  45.198  -1.686  1.00  0.00    -0.545 OA
ENDBRANCH   2  10
TORSDOF 2
ENDMDL
MODEL 3
REMARK VINA RESULT:    -4.101      2.673      3.467
REMARK INTER + INTRA:          -4.758
REMARK INTER:                  -4.560
REMARK INTRA:                  -0.198
REMARK UNBOUND:                -0.177
REMARK SMILES O=C([O-])c1ccccc1C(=O)[O-]
REMARK SMILES IDX 4 1 9 2 5 3 8 4 6 5 7 6 2 7 1 8 3 9 10 10 11 11 12 12
REMARK H PARENT
REMARK Flexibility Score: inf
ROOT
ATOM      1  C   UNL     1      16.758  44.323   0.389  1.00  0.00     0.006 A 
ATOM      2  C   UNL     1      18.130  44.058   0.646  1.00  0.00     0.006 A 
ATOM      3  C   UNL     1      15.994  43.366  -0.307  1.00  0.00     0.010 A 
ATOM      4  C   UNL     1      18.674  42.819   0.254  1.00  0.00     0.010 A 
ATOM      5  C   UNL     1      16.559  42.155  -0.706  1.00  0.00     0.001 A 
ATOM      6  C   UNL     1      17.893  41.876  -0.416  1.00  0.00     0.001 A 
ENDROOT
BRANCH   1   7
ATOM      7  C   UNL     1      16.071  45.536   0.890  1.00  0.00     0.072 C 
ATOM      8  O   UNL     1      15.721  45.611   2.099  1.00  0.00    -0.545 OA
ATOM      9  O   UNL     1      15.861  46.627   0.058  1.00  0.00    -0.545 OA
ENDBRANCH   1   7
BRANCH   2  10
ATOM     10  C   UNL     1      19.039  45.061   1.245  1.00  0.00     0.072 C 
ATOM     11  O   UNL     1      19.463  44.911   2.422  1.00  0.00    -0.545 OA
ATOM     12  O   UNL     1      19.488  46.145   0.499  1.00  0.00    -0.545 OA
ENDBRANCH   2  10
TORSDOF 2
ENDMDL
MODEL 4
REMARK VINA RESULT:    -4.085      2.654      3.896
REMARK INTER + INTRA:          -4.740
REMARK INTER:                  -4.559
REMARK INTRA:                  -0.180
REMARK UNBOUND:                -0.177
REMARK SMILES O=C([O-])c1ccccc1C(=O)[O-]
REMARK SMILES IDX 4 1 9 2 5 3 8 4 6 5 7 6 2 7 1 8 3 9 10 10 11 11 12 12
REMARK H PARENT
REMARK Flexibility Score: inf
ROOT
ATOM      1  C   UNL     1      19.011  44.341   0.636  1.00  0.00     0.006 A 
ATOM      2  C   UNL     1      17.634  43.990   0.605  1.00  0.00     0.006 A 
ATOM      3  C   UNL     1      19.394  45.644   0.264  1.00  0.00     0.010 A 
ATOM      4  C   UNL     1      16.684  44.972   0.264  1.00  0.00     0.010 A 
ATOM      5  C   UNL     1      18.437  46.595  -0.092  1.00  0.00     0.001 A 
ATOM      6  C   UNL     1      17.084  46.264  -0.080  1.00  0.00     0.001 A 
ENDROOT
BRANCH   1   7
ATOM      7  C   UNL     1      20.061  43.415   1.118  1.00  0.00     0.072 C 
ATOM      8  O   UNL     1      20.407  43.426   2.330  1.00  0.00    -0.545 OA
ATOM      9  O   UNL     1      20.631  42.482   0.262  1.00  0.00    -0.545 OA
ENDBRANCH   1   7
BRANCH   2  10
ATOM     10  C   UNL     1      17.156  42.609   0.845  1.00  0.00     0.072 C 
ATOM     11  O   UNL     1      16.825  41.875  -0.124  1.00  0.00    -0.545 OA
ATOM     12  O   UNL     1      17.129  42.083   2.131  1.00  0.00    -0.545 OA
ENDBRANCH   2  10
TORSDOF 2
ENDMDL
MODEL 5
REMARK VINA RESULT:    -4.026      2.524      3.909
REMARK INTER + INTRA:          -4.674
REMARK INTER:                  -4.586
REMARK INTRA:                  -0.088
REMARK UNBOUND:                -0.177
REMARK SMILES O=C([O-])c1ccccc1C(=O)[O-]
REMARK SMILES IDX 4 1 9 2 5 3 8 4 6 5 7 6 2 7 1 8 3 9 10 10 11 11 12 12
REMARK H PARENT
REMARK Flexibility Score: inf
ROOT
ATOM      1  C   UNL     1      17.376  43.931   0.614  1.00  0.00     0.006 A 
ATOM      2  C   UNL     1      18.765  44.226   0.693  1.00  0.00     0.006 A 
ATOM      3  C   UNL     1      16.476  44.957   0.268  1.00  0.00     0.010 A 
ATOM      4  C   UNL     1      19.210  45.520   0.361  1.00  0.00     0.010 A 
ATOM      5  C   UNL     1      16.938  46.238  -0.036  1.00  0.00     0.001 A 
ATOM      6  C   UNL     1      18.302  46.517  -0.002  1.00  0.00     0.001 A 
ENDROOT
BRANCH   1   7
ATOM      7  C   UNL     1      16.838  42.565   0.808  1.00  0.00     0.072 C 
ATOM      8  O   UNL     1      16.856  42.034   1.950  1.00  0.00    -0.545 OA
ATOM      9  O   UNL     1      16.252  41.878  -0.247  1.00  0.00    -0.545 OA
ENDBRANCH   1   7
BRANCH   2  10
ATOM     10  C   UNL     1      19.763  43.248   1.183  1.00  0.00     0.072 C 
ATOM     11  O   UNL     1      19.975  43.124   2.418  1.00  0.00    -0.545 OA
ATOM     12  O   UNL     1      20.429  42.412   0.295  1.00  0.00    -0.545 OA
ENDBRANCH   2  10
TORSDOF 2
ENDMDL
MODEL 6
REMARK VINA RESULT:    -4.012      1.769      2.997
REMARK INTER + INTRA:          -4.658
REMARK INTER:                  -4.435
REMARK INTRA:                  -0.223
REMARK UNBOUND:                -0.177
REMARK SMILES O=C([O-])c1ccccc1C(=O)[O-]
REMARK SMILES IDX 4 1 9 2 5 3 8 4 6 5 7 6 2 7 1 8 3 9 10 10 11 11 12 12
REMARK H PARENT
REMARK Flexibility Score: inf
ROOT
ATOM      1  C   UNL     1      17.346  43.385   0.282  1.00  0.00     0.006 A 
ATOM      2  C   UNL     1      17.557  44.742   0.651  1.00  0.00     0.006 A 
ATOM      3  C   UNL     1      18.420  42.479   0.360  1.00  0.00     0.010 A 
ATOM      4  C   UNL     1      18.817  45.129   1.146  1.00  0.00     0.010 A 
ATOM      5  C   UNL     1      19.667  42.889   0.833  1.00  0.00     0.001 A 
ATOM      6  C   UNL     1      19.862  44.208   1.236  1.00  0.00     0.001 A 
ENDROOT
BRANCH   1   7
ATOM      7  C   UNL     1      16.017  42.863  -0.113  1.00  0.00     0.072 C 
ATOM      8  O   UNL     1      15.702  42.790  -1.331  1.00  0.00    -0.545 OA
ATOM      9  O   UNL     1      15.129  42.388   0.843  1.00  0.00    -0.545 OA
ENDBRANCH   1   7
BRANCH   2  10
ATOM     10  C   UNL     1      16.526  45.789   0.469  1.00  0.00     0.072 C 
ATOM     11  O   UNL     1      16.481  46.456  -0.599  1.00  0.00    -0.545 OA
ATOM     12  O   UNL     1      15.557  46.006   1.442  1.00  0.00    -0.545 OA
ENDBRANCH   2  10
TORSDOF 2
ENDMDL
MODEL 7
REMARK VINA RESULT:    -3.962      1.761      2.347
REMARK INTER + INTRA:          -4.603
REMARK INTER:                  -4.377
REMARK INTRA:                  -0.226
REMARK UNBOUND:                -0.177
REMARK SMILES O=C([O-])c1ccccc1C(=O)[O-]
REMARK SMILES IDX 4 1 9 2 5 3 8 4 6 5 7 6 2 7 1 8 3 9 10 10 11 11 12 12
REMARK H PARENT
REMARK Flexibility Score: inf
ROOT
ATOM      1  C   UNL     1      17.537  44.766   0.616  1.00  0.00     0.006 A 
ATOM      2  C   UNL     1      17.368  43.389   0.306  1.00  0.00     0.006 A 
ATOM      3  C   UNL     1      18.794  45.219   1.060  1.00  0.00     0.010 A 
ATOM      4  C   UNL     1      18.478  42.527   0.390  1.00  0.00     0.010 A 
ATOM      5  C   UNL     1      19.875  44.342   1.157  1.00  0.00     0.001 A 
ATOM      6  C   UNL     1      19.721  43.002   0.811  1.00  0.00     0.001 A 
ENDROOT
BRANCH   1   7
ATOM      7  C   UNL     1      16.463  45.767   0.420  1.00  0.00     0.072 C 
ATOM      8  O   UNL     1      16.359  46.377  -0.678  1.00  0.00    -0.545 OA
ATOM      9  O   UNL     1      15.521  46.000   1.413  1.00  0.00    -0.545 OA
ENDBRANCH   1   7
BRANCH   2  10
ATOM     10  C   UNL     1      16.051  42.802  -0.033  1.00  0.00     0.072 C 
ATOM     11  O   UNL     1      15.734  42.607  -1.236  1.00  0.00    -0.545 OA
ATOM     12  O   UNL     1      15.177  42.400   0.970  1.00  0.00    -0.545 OA
ENDBRANCH   2  10
TORSDOF 2
ENDMDL
MODEL 8
REMARK VINA RESULT:    -3.706      2.644      3.705
REMARK INTER + INTRA:          -4.317
REMARK INTER:                  -4.203
REMARK INTRA:                  -0.114
REMARK UNBOUND:                -0.177
REMARK SMILES O=C([O-])c1ccccc1C(=O)[O-]
REMARK SMILES IDX 4 1 9 2 5 3 8 4 6 5 7 6 2 7 1 8 3 9 10 10 11 11 12 12
REMARK H PARENT
REMARK Flexibility Score: inf
ROOT
ATOM      1  C   UNL     1      17.465  45.060   0.429  1.00  0.00     0.006 A 
ATOM      2  C   UNL     1      16.813  43.797   0.446  1.00  0.00     0.006 A 
ATOM      3  C   UNL     1      16.743  46.199   0.022  1.00  0.00     0.010 A 
ATOM      4  C   UNL     1      15.446  43.727   0.117  1.00  0.00     0.010 A 
ATOM      5  C   UNL     1      15.394  46.102  -0.321  1.00  0.00     0.001 A 
ATOM      6  C   UNL     1      14.743  44.872  -0.263  1.00  0.00     0.001 A 
ENDROOT
BRANCH   1   7
ATOM      7  C   UNL     1      18.858  45.246   0.896  1.00  0.00     0.072 C 
ATOM      8  O   UNL     1      19.718  45.761   0.132  1.00  0.00    -0.545 OA
ATOM      9  O   UNL     1      19.221  44.916   2.195  1.00  0.00    -0.545 OA
ENDBRANCH   1   7
BRANCH   2  10
ATOM     10  C   UNL     1      17.530  42.532   0.725  1.00  0.00     0.072 C 
ATOM     11  O   UNL     1      18.198  41.967  -0.182  1.00  0.00    -0.545 OA
ATOM     12  O   UNL     1      17.531  41.985   2.003  1.00  0.00    -0.545 OA
ENDBRANCH   2  10
TORSDOF 2
ENDMDL
