MODEL 1
REMARK VINA RESULT:    -6.350      0.000      0.000
REMARK INTER + INTRA:          -6.350
REMARK INTER:                  -6.350
REMARK INTRA:                   0.000
REMARK UNBOUND:                 0.000
REMARK SMILES CC1=CC[C@H]2[C@@H](C1)C2(C)C
REMARK SMILES IDX 1 1 2 2 3 3 4 4 5 5 6 6 7 7 8 8 9 9 10 10
REMARK H PARENT
REMARK Flexibility Score: inf
ROOT
ATOM      1  C   UNL     1      -5.422 -15.738   6.019  1.00  0.00     0.039 C 
ATOM      2  C   UNL     1      -4.342 -15.883   7.056  1.00  0.00    -0.077 C 
ATOM      3  C   UNL     1      -4.079 -17.096   7.571  1.00  0.00    -0.028 C 
ATOM      4  C   UNL     1      -3.015 -17.295   8.614  1.00  0.00     0.031 C 
ATOM      5  C   UNL     1      -1.782 -16.403   8.355  1.00  0.00     0.003 C 
ATOM      6  C   UNL     1      -2.076 -15.003   7.767  1.00  0.00     0.003 C 
ATOM      7  C   UNL     1      -3.563 -14.673   7.515  1.00  0.00     0.034 C 
ATOM      8  C   UNL     1      -1.539 -15.143   9.200  1.00  0.00    -0.029 C 
ATOM      9  C   UNL     1      -2.447 -14.827  10.405  1.00  0.00     0.012 C 
ATOM     10  C   UNL     1      -0.063 -14.764   9.370  1.00  0.00     0.012 C 
ENDROOT
TORSDOF 0
ENDMDL
MODEL 2
REMARK VINA RESULT:    -6.345      1.340      3.918
REMARK INTER + INTRA:          -6.345
REMARK INTER:                  -6.345
REMARK INTRA:                   0.000
REMARK UNBOUND:                 0.000
REMARK SMILES CC1=CC[C@H]2[C@@H](C1)C2(C)C
REMARK SMILES IDX 1 1 2 2 3 3 4 4 5 5 6 6 7 7 8 8 9 9 10 10
REMARK H PARENT
REMARK Flexibility Score: inf
ROOT
ATOM      1  C   UNL     1      -2.911 -16.855  11.024  1.00  0.00     0.039 C 
ATOM      2  C   UNL     1      -3.129 -16.178   9.698  1.00  0.00    -0.077 C 
ATOM      3  C   UNL     1      -2.074 -15.688   9.026  1.00  0.00    -0.028 C 
ATOM      4  C   UNL     1      -2.236 -14.998   7.701  1.00  0.00     0.031 C 
ATOM      5  C   UNL     1      -3.323 -15.667   6.833  1.00  0.00     0.003 C 
ATOM      6  C   UNL     1      -4.544 -16.229   7.598  1.00  0.00     0.003 C 
ATOM      7  C   UNL     1      -4.523 -16.049   9.131  1.00  0.00     0.034 C 
ATOM      8  C   UNL     1      -4.705 -15.014   6.671  1.00  0.00    -0.029 C 
ATOM      9  C   UNL     1      -4.978 -13.616   7.261  1.00  0.00     0.012 C 
ATOM     10  C   UNL     1      -5.400 -15.314   5.338  1.00  0.00     0.012 C 
ENDROOT
TORSDOF 0
ENDMDL
MODEL 3
REMARK VINA RESULT:    -6.328      1.459      4.179
REMARK INTER + INTRA:          -6.328
REMARK INTER:                  -6.328
REMARK INTRA:                   0.000
REMARK UNBOUND:                 0.000
REMARK SMILES CC1=CC[C@H]2[C@@H](C1)C2(C)C
REMARK SMILES IDX 1 1 2 2 3 3 4 4 5 5 6 6 7 7 8 8 9 9 10 10
REMARK H PARENT
REMARK Flexibility Score: inf
ROOT
ATOM      1  C   UNL     1      -2.365 -14.178  12.553  1.00  0.00     0.039 C 
ATOM      2  C   UNL     1      -2.554 -14.846  11.217  1.00  0.00    -0.077 C 
ATOM      3  C   UNL     1      -1.997 -14.302  10.123  1.00  0.00    -0.028 C 
ATOM      4  C   UNL     1      -2.159 -14.924   8.764  1.00  0.00     0.031 C 
ATOM      5  C   UNL     1      -2.123 -16.466   8.830  1.00  0.00     0.003 C 
ATOM      6  C   UNL     1      -2.768 -17.101  10.084  1.00  0.00     0.003 C 
ATOM      7  C   UNL     1      -3.366 -16.115  11.111  1.00  0.00     0.034 C 
ATOM      8  C   UNL     1      -3.420 -17.283   8.704  1.00  0.00    -0.029 C 
ATOM      9  C   UNL     1      -4.752 -16.582   8.375  1.00  0.00     0.012 C 
ATOM     10  C   UNL     1      -3.238 -18.676   8.090  1.00  0.00     0.012 C 
ENDROOT
TORSDOF 0
ENDMDL
MODEL 4
REMARK VINA RESULT:    -6.164      1.475      3.135
REMARK INTER + INTRA:          -6.164
REMARK INTER:                  -6.164
REMARK INTRA:                   0.000
REMARK UNBOUND:                 0.000
REMARK SMILES CC1=CC[C@H]2[C@@H](C1)C2(C)C
REMARK SMILES IDX 1 1 2 2 3 3 4 4 5 5 6 6 7 7 8 8 9 9 10 10
REMARK H PARENT
REMARK Flexibility Score: inf
ROOT
ATOM      1  C   UNL     1      -5.057 -13.952   6.531  1.00  0.00     0.039 C 
ATOM      2  C   UNL     1      -4.328 -15.012   7.313  1.00  0.00    -0.077 C 
ATOM      3  C   UNL     1      -3.034 -14.828   7.626  1.00  0.00    -0.028 C 
ATOM      4  C   UNL     1      -2.258 -15.856   8.400  1.00  0.00     0.031 C 
ATOM      5  C   UNL     1      -3.118 -16.521   9.496  1.00  0.00     0.003 C 
ATOM      6  C   UNL     1      -4.607 -16.741   9.143  1.00  0.00     0.003 C 
ATOM      7  C   UNL     1      -5.046 -16.270   7.739  1.00  0.00     0.034 C 
ATOM      8  C   UNL     1      -3.665 -17.945   9.303  1.00  0.00    -0.029 C 
ATOM      9  C   UNL     1      -3.250 -18.777   8.075  1.00  0.00     0.012 C 
ATOM     10  C   UNL     1      -3.854 -18.736  10.602  1.00  0.00     0.012 C 
ENDROOT
TORSDOF 0
ENDMDL
MODEL 5
REMARK VINA RESULT:    -6.127      1.857      2.598
REMARK INTER + INTRA:          -6.127
REMARK INTER:                  -6.127
REMARK INTRA:                   0.000
REMARK UNBOUND:                 0.000
REMARK SMILES CC1=CC[C@H]2[C@@H](C1)C2(C)C
REMARK SMILES IDX 1 1 2 2 3 3 4 4 5 5 6 6 7 7 8 8 9 9 10 10
REMARK H PARENT
REMARK Flexibility Score: inf
ROOT
ATOM      1  C   UNL     1      -2.907 -19.048   7.979  1.00  0.00     0.039 C 
ATOM      2  C   UNL     1      -3.088 -17.696   8.616  1.00  0.00    -0.077 C 
ATOM      3  C   UNL     1      -4.105 -17.501   9.471  1.00  0.00    -0.028 C 
ATOM      4  C   UNL     1      -4.335 -16.169  10.130  1.00  0.00     0.031 C 
ATOM      5  C   UNL     1      -3.007 -15.479  10.509  1.00  0.00     0.003 C 
ATOM      6  C   UNL     1      -1.832 -15.694   9.527  1.00  0.00     0.003 C 
ATOM      7  C   UNL     1      -2.134 -16.571   8.292  1.00  0.00     0.034 C 
ATOM      8  C   UNL     1      -2.472 -14.304   9.674  1.00  0.00    -0.029 C 
ATOM      9  C   UNL     1      -3.320 -13.714   8.530  1.00  0.00     0.012 C 
ATOM     10  C   UNL     1      -1.631 -13.293  10.461  1.00  0.00     0.012 C 
ENDROOT
TORSDOF 0
ENDMDL
MODEL 6
REMARK VINA RESULT:    -6.022      1.782      4.116
REMARK INTER + INTRA:          -6.022
REMARK INTER:                  -6.022
REMARK INTRA:                   0.000
REMARK UNBOUND:                 0.000
REMARK SMILES CC1=CC[C@H]2[C@@H](C1)C2(C)C
REMARK SMILES IDX 1 1 2 2 3 3 4 4 5 5 6 6 7 7 8 8 9 9 10 10
REMARK H PARENT
REMARK Flexibility Score: inf
ROOT
ATOM      1  C   UNL     1      -2.728 -15.190  12.570  1.00  0.00     0.039 C 
ATOM      2  C   UNL     1      -3.357 -15.763  11.328  1.00  0.00    -0.077 C 
ATOM      3  C   UNL     1      -4.606 -16.255  11.388  1.00  0.00    -0.028 C 
ATOM      4  C   UNL     1      -5.279 -16.843  10.180  1.00  0.00     0.031 C 
ATOM      5  C   UNL     1      -4.934 -16.062   8.893  1.00  0.00     0.003 C 
ATOM      6  C   UNL     1      -3.498 -15.496   8.814  1.00  0.00     0.003 C 
ATOM      7  C   UNL     1      -2.589 -15.784  10.029  1.00  0.00     0.034 C 
ATOM      8  C   UNL     1      -3.933 -16.635   7.877  1.00  0.00    -0.029 C 
ATOM      9  C   UNL     1      -3.363 -18.055   8.063  1.00  0.00     0.012 C 
ATOM     10  C   UNL     1      -4.182 -16.209   6.426  1.00  0.00     0.012 C 
ENDROOT
TORSDOF 0
ENDMDL
MODEL 7
REMARK VINA RESULT:    -5.925      1.254      2.586
REMARK INTER + INTRA:          -5.925
REMARK INTER:                  -5.925
REMARK INTRA:                   0.000
REMARK UNBOUND:                 0.000
REMARK SMILES CC1=CC[C@H]2[C@@H](C1)C2(C)C
REMARK SMILES IDX 1 1 2 2 3 3 4 4 5 5 6 6 7 7 8 8 9 9 10 10
REMARK H PARENT
REMARK Flexibility Score: inf
ROOT
ATOM      1  C   UNL     1      -3.929 -18.392   8.728  1.00  0.00     0.039 C 
ATOM      2  C   UNL     1      -3.242 -17.054   8.667  1.00  0.00    -0.077 C 
ATOM      3  C   UNL     1      -3.301 -16.334   7.533  1.00  0.00    -0.028 C 
ATOM      4  C   UNL     1      -2.629 -14.995   7.416  1.00  0.00     0.031 C 
ATOM      5  C   UNL     1      -2.734 -14.182   8.725  1.00  0.00     0.003 C 
ATOM      6  C   UNL     1      -2.662 -15.003  10.034  1.00  0.00     0.003 C 
ATOM      7  C   UNL     1      -2.494 -16.529   9.868  1.00  0.00     0.034 C 
ATOM      8  C   UNL     1      -1.520 -14.046   9.658  1.00  0.00    -0.029 C 
ATOM      9  C   UNL     1      -0.147 -14.602   9.234  1.00  0.00     0.012 C 
ATOM     10  C   UNL     1      -1.482 -12.746  10.469  1.00  0.00     0.012 C 
ENDROOT
TORSDOF 0
ENDMDL
MODEL 8
REMARK VINA RESULT:    -5.863      1.691      2.157
REMARK INTER + INTRA:          -5.863
REMARK INTER:                  -5.863
REMARK INTRA:                   0.000
REMARK UNBOUND:                 0.000
REMARK SMILES CC1=CC[C@H]2[C@@H](C1)C2(C)C
REMARK SMILES IDX 1 1 2 2 3 3 4 4 5 5 6 6 7 7 8 8 9 9 10 10
REMARK H PARENT
REMARK Flexibility Score: inf
ROOT
ATOM      1  C   UNL     1      -4.566 -15.827   5.982  1.00  0.00     0.039 C 
ATOM      2  C   UNL     1      -4.276 -16.254   7.396  1.00  0.00    -0.077 C 
ATOM      3  C   UNL     1      -3.958 -17.535   7.647  1.00  0.00    -0.028 C 
ATOM      4  C   UNL     1      -3.665 -18.015   9.041  1.00  0.00     0.031 C 
ATOM      5  C   UNL     1      -2.883 -16.965   9.858  1.00  0.00     0.003 C 
ATOM      6  C   UNL     1      -3.246 -15.488   9.579  1.00  0.00     0.003 C 
ATOM      7  C   UNL     1      -4.346 -15.249   8.521  1.00  0.00     0.034 C 
ATOM      8  C   UNL     1      -3.592 -16.126  10.934  1.00  0.00    -0.029 C 
ATOM      9  C   UNL     1      -5.059 -16.418  11.305  1.00  0.00     0.012 C 
ATOM     10  C   UNL     1      -2.693 -15.688  12.095  1.00  0.00     0.012 C 
ENDROOT
TORSDOF 0
ENDMDL
MODEL 9
REMARK VINA RESULT:    -5.814      0.834      3.977
REMARK INTER + INTRA:          -5.814
REMARK INTER:                  -5.814
REMARK INTRA:                   0.000
REMARK UNBOUND:                 0.000
REMARK SMILES CC1=CC[C@H]2[C@@H](C1)C2(C)C
REMARK SMILES IDX 1 1 2 2 3 3 4 4 5 5 6 6 7 7 8 8 9 9 10 10
REMARK H PARENT
REMARK Flexibility Score: inf
ROOT
ATOM      1  C   UNL     1       0.372 -14.598   9.412  1.00  0.00     0.039 C 
ATOM      2  C   UNL     1      -1.038 -15.083   9.203  1.00  0.00    -0.077 C 
ATOM      3  C   UNL     1      -1.910 -15.036  10.225  1.00  0.00    -0.028 C 
ATOM      4  C   UNL     1      -3.327 -15.512  10.072  1.00  0.00     0.031 C 
ATOM      5  C   UNL     1      -3.908 -15.154   8.687  1.00  0.00     0.003 C 
ATOM      6  C   UNL     1      -2.913 -15.210   7.505  1.00  0.00     0.003 C 
ATOM      7  C   UNL     1      -1.465 -15.617   7.858  1.00  0.00     0.034 C 
ATOM      8  C   UNL     1      -4.057 -16.232   7.601  1.00  0.00    -0.029 C 
ATOM      9  C   UNL     1      -3.756 -17.708   7.924  1.00  0.00     0.012 C 
ATOM     10  C   UNL     1      -5.211 -15.993   6.621  1.00  0.00     0.012 C 
ENDROOT
TORSDOF 0
ENDMDL
