MODEL 1
REMARK VINA RESULT:    -1.872      0.000      0.000
REMARK INTER + INTRA:          -2.036
REMARK INTER:                  -2.036
REMARK INTRA:                   0.000
REMARK UNBOUND:                 0.000
REMARK SMILES [NH3+]CC(=O)[O-]
REMARK SMILES IDX 2 1 1 2 3 6 4 7 5 8
REMARK H PARENT 1 3 1 4 1 5
REMARK Flexibility Score: inf
ROOT
ATOM      1  C   UNL     1       6.764  -1.594  -0.551  1.00  0.00     0.312 C 
ENDROOT
BRANCH   1   2
ATOM      2  N   UNL     1       7.125  -1.193   0.807  1.00  0.00    -0.353 N 
ATOM      3  H   UNL     1       7.047  -2.011   1.456  1.00  0.00     0.344 HD
ATOM      4  H   UNL     1       8.102  -0.820   0.823  1.00  0.00     0.344 HD
ATOM      5  H   UNL     1       6.470  -0.443   1.128  1.00  0.00     0.344 HD
ENDBRANCH   1   2
BRANCH   1   6
ATOM      6  C   UNL     1       5.419  -2.255  -0.567  1.00  0.00     0.096 C 
ATOM      7  O   UNL     1       5.330  -3.510  -0.525  1.00  0.00    -0.544 OA
ATOM      8  O   UNL     1       4.268  -1.486  -0.680  1.00  0.00    -0.544 OA
ENDBRANCH   1   6
TORSDOF 2
ENDMDL
MODEL 2
REMARK VINA RESULT:    -1.834      1.753      2.054
REMARK INTER + INTRA:          -1.995
REMARK INTER:                  -1.995
REMARK INTRA:                   0.000
REMARK UNBOUND:                 0.000
REMARK SMILES [NH3+]CC(=O)[O-]
REMARK SMILES IDX 2 1 1 2 3 6 4 7 5 8
REMARK H PARENT 1 3 1 4 1 5
REMARK Flexibility Score: inf
ROOT
ATOM      1  C   UNL     1       6.343  -1.873  -0.208  1.00  0.00     0.312 C 
ENDROOT
BRANCH   1   2
ATOM      2  N   UNL     1       7.098  -1.165   0.825  1.00  0.00    -0.353 N 
ATOM      3  H   UNL     1       6.621  -1.267   1.751  1.00  0.00     0.344 HD
ATOM      4  H   UNL     1       8.071  -1.545   0.883  1.00  0.00     0.344 HD
ATOM      5  H   UNL     1       7.144  -0.150   0.579  1.00  0.00     0.344 HD
ENDBRANCH   1   2
BRANCH   1   6
ATOM      6  C   UNL     1       6.170  -1.011  -1.420  1.00  0.00     0.096 C 
ATOM      7  O   UNL     1       7.124  -0.299  -1.833  1.00  0.00    -0.544 OA
ATOM      8  O   UNL     1       4.940  -0.953  -2.063  1.00  0.00    -0.544 OA
ENDBRANCH   1   6
TORSDOF 2
ENDMDL
MODEL 3
REMARK VINA RESULT:    -1.828      2.224      2.310
REMARK INTER + INTRA:          -1.988
REMARK INTER:                  -1.988
REMARK INTRA:                   0.000
REMARK UNBOUND:                 0.000
REMARK SMILES [NH3+]CC(=O)[O-]
REMARK SMILES IDX 2 1 1 2 3 6 4 7 5 8
REMARK H PARENT 1 3 1 4 1 5
REMARK Flexibility Score: inf
ROOT
ATOM      1  C   UNL     1       6.963  -3.282  -0.394  1.00  0.00     0.312 C 
ENDROOT
BRANCH   1   2
ATOM      2  N   UNL     1       5.982  -4.308  -0.044  1.00  0.00    -0.353 N 
ATOM      3  H   UNL     1       6.225  -4.737   0.879  1.00  0.00     0.344 HD
ATOM      4  H   UNL     1       5.025  -3.890  -0.001  1.00  0.00     0.344 HD
ATOM      5  H   UNL     1       5.994  -5.055  -0.777  1.00  0.00     0.344 HD
ENDBRANCH   1   2
BRANCH   1   6
ATOM      6  C   UNL     1       6.379  -1.913  -0.221  1.00  0.00     0.096 C 
ATOM      7  O   UNL     1       7.118  -0.946   0.101  1.00  0.00    -0.544 OA
ATOM      8  O   UNL     1       5.011  -1.718  -0.365  1.00  0.00    -0.544 OA
ENDBRANCH   1   6
TORSDOF 2
ENDMDL
MODEL 4
REMARK VINA RESULT:    -1.786      2.291      2.407
REMARK INTER + INTRA:          -1.943
REMARK INTER:                  -1.943
REMARK INTRA:                   0.000
REMARK UNBOUND:                 0.000
REMARK SMILES [NH3+]CC(=O)[O-]
REMARK SMILES IDX 2 1 1 2 3 6 4 7 5 8
REMARK H PARENT 1 3 1 4 1 5
REMARK Flexibility Score: inf
ROOT
ATOM      1  C   UNL     1       6.760  -3.423  -0.467  1.00  0.00     0.312 C 
ENDROOT
BRANCH   1   2
ATOM      2  N   UNL     1       5.729  -4.407  -0.141  1.00  0.00    -0.353 N 
ATOM      3  H   UNL     1       4.825  -3.923   0.069  1.00  0.00     0.344 HD
ATOM      4  H   UNL     1       5.599  -5.070  -0.940  1.00  0.00     0.344 HD
ATOM      5  H   UNL     1       6.027  -4.948   0.703  1.00  0.00     0.344 HD
ENDBRANCH   1   2
BRANCH   1   6
ATOM      6  C   UNL     1       6.230  -2.031  -0.308  1.00  0.00     0.096 C 
ATOM      7  O   UNL     1       4.993  -1.811  -0.387  1.00  0.00    -0.544 OA
ATOM      8  O   UNL     1       7.108  -0.970  -0.126  1.00  0.00    -0.544 OA
ENDBRANCH   1   6
TORSDOF 2
ENDMDL
MODEL 5
REMARK VINA RESULT:    -1.770     13.161     13.711
REMARK INTER + INTRA:          -1.925
REMARK INTER:                  -1.925
REMARK INTRA:                   0.000
REMARK UNBOUND:                 0.000
REMARK SMILES [NH3+]CC(=O)[O-]
REMARK SMILES IDX 2 1 1 2 3 6 4 7 5 8
REMARK H PARENT 1 3 1 4 1 5
REMARK Flexibility Score: inf
ROOT
ATOM      1  C   UNL     1      -5.338   6.319   1.289  1.00  0.00     0.312 C 
ENDROOT
BRANCH   1   2
ATOM      2  N   UNL     1      -6.778   6.162   1.092  1.00  0.00    -0.353 N 
ATOM      3  H   UNL     1      -6.966   5.705   0.169  1.00  0.00     0.344 HD
ATOM      4  H   UNL     1      -7.185   5.584   1.863  1.00  0.00     0.344 HD
ATOM      5  H   UNL     1      -7.230   7.105   1.100  1.00  0.00     0.344 HD
ENDBRANCH   1   2
BRANCH   1   6
ATOM      6  C   UNL     1      -4.596   6.015   0.025  1.00  0.00     0.096 C 
ATOM      7  O   UNL     1      -5.140   6.214  -1.093  1.00  0.00    -0.544 OA
ATOM      8  O   UNL     1      -3.322   5.464   0.082  1.00  0.00    -0.544 OA
ENDBRANCH   1   6
TORSDOF 2
ENDMDL
MODEL 6
REMARK VINA RESULT:    -1.728      4.837      5.224
REMARK INTER + INTRA:          -1.879
REMARK INTER:                  -1.879
REMARK INTRA:                   0.000
REMARK UNBOUND:                 0.000
REMARK SMILES [NH3+]CC(=O)[O-]
REMARK SMILES IDX 2 1 1 2 3 6 4 7 5 8
REMARK H PARENT 1 3 1 4 1 5
REMARK Flexibility Score: inf
ROOT
ATOM      1  C   UNL     1       1.832   0.960  -3.392  1.00  0.00     0.312 C 
ENDROOT
BRANCH   1   2
ATOM      2  N   UNL     1       1.982   2.329  -2.902  1.00  0.00    -0.353 N 
ATOM      3  H   UNL     1       2.343   2.946  -3.667  1.00  0.00     0.344 HD
ATOM      4  H   UNL     1       1.062   2.690  -2.559  1.00  0.00     0.344 HD
ATOM      5  H   UNL     1       2.665   2.336  -2.111  1.00  0.00     0.344 HD
ENDBRANCH   1   2
BRANCH   1   6
ATOM      6  C   UNL     1       2.372  -0.019  -2.395  1.00  0.00     0.096 C 
ATOM      7  O   UNL     1       1.594  -0.805  -1.793  1.00  0.00    -0.544 OA
ATOM      8  O   UNL     1       3.728  -0.028  -2.094  1.00  0.00    -0.544 OA
ENDBRANCH   1   6
TORSDOF 2
ENDMDL
MODEL 7
REMARK VINA RESULT:    -1.720     13.954     14.320
REMARK INTER + INTRA:          -1.870
REMARK INTER:                  -1.870
REMARK INTRA:                   0.000
REMARK UNBOUND:                 0.000
REMARK SMILES [NH3+]CC(=O)[O-]
REMARK SMILES IDX 2 1 1 2 3 6 4 7 5 8
REMARK H PARENT 1 3 1 4 1 5
REMARK Flexibility Score: inf
ROOT
ATOM      1  C   UNL     1      -5.462   5.997  -0.514  1.00  0.00     0.312 C 
ENDROOT
BRANCH   1   2
ATOM      2  N   UNL     1      -4.100   6.512  -0.382  1.00  0.00    -0.353 N 
ATOM      3  H   UNL     1      -3.408   5.752  -0.581  1.00  0.00     0.344 HD
ATOM      4  H   UNL     1      -3.951   7.309  -1.043  1.00  0.00     0.344 HD
ATOM      5  H   UNL     1      -3.956   6.851   0.596  1.00  0.00     0.344 HD
ENDBRANCH   1   2
BRANCH   1   6
ATOM      6  C   UNL     1      -6.215   6.162   0.770  1.00  0.00     0.096 C 
ATOM      7  O   UNL     1      -7.463   5.995   0.798  1.00  0.00    -0.544 OA
ATOM      8  O   UNL     1      -5.546   6.550   1.923  1.00  0.00    -0.544 OA
ENDBRANCH   1   6
TORSDOF 2
ENDMDL
MODEL 8
REMARK VINA RESULT:    -1.686      6.090      6.378
REMARK INTER + INTRA:          -1.834
REMARK INTER:                  -1.834
REMARK INTRA:                   0.000
REMARK UNBOUND:                 0.000
REMARK SMILES [NH3+]CC(=O)[O-]
REMARK SMILES IDX 2 1 1 2 3 6 4 7 5 8
REMARK H PARENT 1 3 1 4 1 5
REMARK Flexibility Score: inf
ROOT
ATOM      1  C   UNL     1      -0.203  -1.517   0.210  1.00  0.00     0.312 C 
ENDROOT
BRANCH   1   2
ATOM      2  N   UNL     1       1.211  -1.759  -0.073  1.00  0.00    -0.353 N 
ATOM      3  H   UNL     1       1.767  -0.892   0.110  1.00  0.00     0.344 HD
ATOM      4  H   UNL     1       1.567  -2.541   0.523  1.00  0.00     0.344 HD
ATOM      5  H   UNL     1       1.317  -2.024  -1.079  1.00  0.00     0.344 HD
ENDBRANCH   1   2
BRANCH   1   6
ATOM      6  C   UNL     1      -0.408  -1.229   1.665  1.00  0.00     0.096 C 
ATOM      7  O   UNL     1       0.075  -1.998   2.537  1.00  0.00    -0.544 OA
ATOM      8  O   UNL     1      -1.178  -0.141   2.057  1.00  0.00    -0.544 OA
ENDBRANCH   1   6
TORSDOF 2
ENDMDL
MODEL 9
REMARK VINA RESULT:    -1.661      2.304      2.605
REMARK INTER + INTRA:          -1.807
REMARK INTER:                  -1.807
REMARK INTRA:                   0.000
REMARK UNBOUND:                 0.000
REMARK SMILES [NH3+]CC(=O)[O-]
REMARK SMILES IDX 2 1 1 2 3 6 4 7 5 8
REMARK H PARENT 1 3 1 4 1 5
REMARK Flexibility Score: inf
ROOT
ATOM      1  C   UNL     1       6.237  -3.823  -0.922  1.00  0.00     0.312 C 
ENDROOT
BRANCH   1   2
ATOM      2  N   UNL     1       6.829  -3.006   0.136  1.00  0.00    -0.353 N 
ATOM      3  H   UNL     1       7.593  -3.538   0.614  1.00  0.00     0.344 HD
ATOM      4  H   UNL     1       7.212  -2.120  -0.266  1.00  0.00     0.344 HD
ATOM      5  H   UNL     1       6.091  -2.769   0.838  1.00  0.00     0.344 HD
ENDBRANCH   1   2
BRANCH   1   6
ATOM      6  C   UNL     1       5.388  -4.910  -0.338  1.00  0.00     0.096 C 
ATOM      7  O   UNL     1       5.905  -6.010  -0.011  1.00  0.00    -0.544 OA
ATOM      8  O   UNL     1       4.018  -4.725  -0.203  1.00  0.00    -0.544 OA
ENDBRANCH   1   6
TORSDOF 2
ENDMDL
