MODEL 1
REMARK VINA RESULT:    -3.684      0.000      0.000
REMARK INTER + INTRA:          -8.069
REMARK INTER:                  -6.699
REMARK INTRA:                  -1.370
REMARK UNBOUND:                -1.370
REMARK SMILES CCCCCCCCCCCCCCCC(=O)[O-]
REMARK SMILES IDX 9 1 10 2 11 3 12 4 13 5 14 6 15 7 16 8 17 9 18 10 8 11 7 12
REMARK SMILES IDX 6 13 5 14 4 15 3 16 2 17 1 18
REMARK H PARENT
REMARK Flexibility Score: inf
ROOT
ATOM      1  C   UNL     1     -92.948 146.797 240.821  1.00  0.00     0.000 C 
ENDROOT
BRANCH   1   2
ATOM      2  C   UNL     1     -93.599 147.227 242.150  1.00  0.00     0.000 C 
BRANCH   2   3
ATOM      3  C   UNL     1     -94.776 146.327 242.562  1.00  0.00     0.000 C 
BRANCH   3   4
ATOM      4  C   UNL     1     -96.079 147.116 242.766  1.00  0.00     0.000 C 
BRANCH   4   5
ATOM      5  C   UNL     1     -95.872 148.636 242.674  1.00  0.00     0.000 C 
BRANCH   5   6
ATOM      6  C   UNL     1     -97.057 149.389 243.289  1.00  0.00     0.006 C 
BRANCH   6   7
ATOM      7  C   UNL     1     -97.446 148.787 244.644  1.00  0.00     0.053 C 
BRANCH   7   8
ATOM      8  C   UNL     1     -98.933 148.787 244.810  1.00  0.00     0.041 C 
ATOM      9  O   UNL     1     -99.462 148.178 245.776  1.00  0.00    -0.550 OA
ATOM     10  O   UNL     1     -99.736 149.420 243.872  1.00  0.00    -0.550 OA
ENDBRANCH   7   8
ENDBRANCH   6   7
ENDBRANCH   5   6
ENDBRANCH   4   5
ENDBRANCH   3   4
ENDBRANCH   2   3
ENDBRANCH   1   2
BRANCH   1  11
ATOM     11  C   UNL     1     -93.861 146.878 239.582  1.00  0.00     0.000 C 
BRANCH  11  12
ATOM     12  C   UNL     1     -94.440 148.284 239.353  1.00  0.00    -0.000 C 
BRANCH  12  13
ATOM     13  C   UNL     1     -95.925 148.257 238.955  1.00  0.00    -0.000 C 
BRANCH  13  14
ATOM     14  C   UNL     1     -96.289 149.271 237.850  1.00  0.00    -0.000 C 
BRANCH  14  15
ATOM     15  C   UNL     1     -95.044 149.964 237.266  1.00  0.00    -0.000 C 
BRANCH  15  16
ATOM     16  C   UNL     1     -95.401 151.235 236.467  1.00  0.00    -0.000 C 
BRANCH  16  17
ATOM     17  C   UNL     1     -96.671 151.943 236.968  1.00  0.00    -0.003 C 
ATOM     18  C   UNL     1     -96.418 153.383 237.410  1.00  0.00     0.004 C 
ENDBRANCH  16  17
ENDBRANCH  15  16
ENDBRANCH  14  15
ENDBRANCH  13  14
ENDBRANCH  12  13
ENDBRANCH  11  12
ENDBRANCH   1  11
TORSDOF 14
ENDMDL
MODEL 2
REMARK VINA RESULT:    -3.677      1.285      1.752
REMARK INTER + INTRA:          -8.057
REMARK INTER:                  -6.378
REMARK INTRA:                  -1.679
REMARK UNBOUND:                -1.370
REMARK SMILES CCCCCCCCCCCCCCCC(=O)[O-]
REMARK SMILES IDX 9 1 10 2 11 3 12 4 13 5 14 6 15 7 16 8 17 9 18 10 8 11 7 12
REMARK SMILES IDX 6 13 5 14 4 15 3 16 2 17 1 18
REMARK H PARENT
REMARK Flexibility Score: inf
ROOT
ATOM      1  C   UNL     1     -93.916 145.372 239.709  1.00  0.00     0.000 C 
ENDROOT
BRANCH   1   2
ATOM      2  C   UNL     1     -92.677 145.912 240.449  1.00  0.00     0.000 C 
BRANCH   2   3
ATOM      3  C   UNL     1     -92.991 147.126 241.339  1.00  0.00     0.000 C 
BRANCH   3   4
ATOM      4  C   UNL     1     -94.403 147.065 241.945  1.00  0.00     0.000 C 
BRANCH   4   5
ATOM      5  C   UNL     1     -95.073 148.445 242.026  1.00  0.00     0.000 C 
BRANCH   5   6
ATOM      6  C   UNL     1     -96.600 148.309 242.087  1.00  0.00     0.006 C 
BRANCH   6   7
ATOM      7  C   UNL     1     -97.178 149.132 243.244  1.00  0.00     0.053 C 
BRANCH   7   8
ATOM      8  C   UNL     1     -97.302 148.290 244.475  1.00  0.00     0.041 C 
ATOM      9  O   UNL     1     -97.458 148.833 245.600  1.00  0.00    -0.550 OA
ATOM     10  O   UNL     1     -97.199 146.909 244.384  1.00  0.00    -0.550 OA
ENDBRANCH   7   8
ENDBRANCH   6   7
ENDBRANCH   5   6
ENDBRANCH   4   5
ENDBRANCH   3   4
ENDBRANCH   2   3
ENDBRANCH   1   2
BRANCH   1  11
ATOM     11  C   UNL     1     -93.926 145.601 238.186  1.00  0.00     0.000 C 
BRANCH  11  12
ATOM     12  C   UNL     1     -94.306 147.038 237.796  1.00  0.00    -0.000 C 
BRANCH  12  13
ATOM     13  C   UNL     1     -95.674 147.463 238.356  1.00  0.00    -0.000 C 
BRANCH  13  14
ATOM     14  C   UNL     1     -95.927 148.985 238.285  1.00  0.00    -0.000 C 
BRANCH  14  15
ATOM     15  C   UNL     1     -94.704 149.751 237.750  1.00  0.00    -0.000 C 
BRANCH  15  16
ATOM     16  C   UNL     1     -95.089 150.801 236.686  1.00  0.00    -0.000 C 
BRANCH  16  17
ATOM     17  C   UNL     1     -96.430 151.500 236.967  1.00  0.00    -0.003 C 
ATOM     18  C   UNL     1     -96.275 152.983 237.299  1.00  0.00     0.004 C 
ENDBRANCH  16  17
ENDBRANCH  15  16
ENDBRANCH  14  15
ENDBRANCH  13  14
ENDBRANCH  12  13
ENDBRANCH  11  12
ENDBRANCH   1  11
TORSDOF 14
ENDMDL
MODEL 3
REMARK VINA RESULT:    -3.668      2.944      6.246
REMARK INTER + INTRA:          -8.039
REMARK INTER:                  -6.639
REMARK INTRA:                  -1.400
REMARK UNBOUND:                -1.370
REMARK SMILES CCCCCCCCCCCCCCCC(=O)[O-]
REMARK SMILES IDX 9 1 10 2 11 3 12 4 13 5 14 6 15 7 16 8 17 9 18 10 8 11 7 12
REMARK SMILES IDX 6 13 5 14 4 15 3 16 2 17 1 18
REMARK H PARENT
REMARK Flexibility Score: inf
ROOT
ATOM      1  C   UNL     1     -93.146 144.986 241.701  1.00  0.00     0.000 C 
ENDROOT
BRANCH   1   2
ATOM      2  C   UNL     1     -92.444 145.960 240.737  1.00  0.00     0.000 C 
BRANCH   2   3
ATOM      3  C   UNL     1     -93.216 147.277 240.546  1.00  0.00     0.000 C 
BRANCH   3   4
ATOM      4  C   UNL     1     -94.131 147.252 239.312  1.00  0.00     0.000 C 
BRANCH   4   5
ATOM      5  C   UNL     1     -94.828 148.598 239.063  1.00  0.00     0.000 C 
BRANCH   5   6
ATOM      6  C   UNL     1     -95.180 148.768 237.580  1.00  0.00     0.006 C 
BRANCH   6   7
ATOM      7  C   UNL     1     -94.803 150.168 237.083  1.00  0.00     0.053 C 
BRANCH   7   8
ATOM      8  C   UNL     1     -96.001 151.063 237.080  1.00  0.00     0.041 C 
ATOM      9  O   UNL     1     -95.857 152.314 237.080  1.00  0.00    -0.550 OA
ATOM     10  O   UNL     1     -97.277 150.516 237.125  1.00  0.00    -0.550 OA
ENDBRANCH   7   8
ENDBRANCH   6   7
ENDBRANCH   5   6
ENDBRANCH   4   5
ENDBRANCH   3   4
ENDBRANCH   2   3
ENDBRANCH   1   2
BRANCH   1  11
ATOM     11  C   UNL     1     -93.862 145.641 242.898  1.00  0.00     0.000 C 
BRANCH  11  12
ATOM     12  C   UNL     1     -95.270 145.074 243.141  1.00  0.00    -0.000 C 
BRANCH  12  13
ATOM     13  C   UNL     1     -96.300 146.166 243.477  1.00  0.00    -0.000 C 
BRANCH  13  14
ATOM     14  C   UNL     1     -96.424 147.256 242.391  1.00  0.00    -0.000 C 
BRANCH  14  15
ATOM     15  C   UNL     1     -96.047 148.650 242.924  1.00  0.00    -0.000 C 
BRANCH  15  16
ATOM     16  C   UNL     1     -97.275 149.570 243.083  1.00  0.00    -0.000 C 
BRANCH  16  17
ATOM     17  C   UNL     1     -98.311 149.048 244.093  1.00  0.00    -0.003 C 
ATOM     18  C   UNL     1     -97.758 148.932 245.512  1.00  0.00     0.004 C 
ENDBRANCH  16  17
ENDBRANCH  15  16
ENDBRANCH  14  15
ENDBRANCH  13  14
ENDBRANCH  12  13
ENDBRANCH  11  12
ENDBRANCH   1  11
TORSDOF 14
ENDMDL
MODEL 4
REMARK VINA RESULT:    -3.664      1.981      3.386
REMARK INTER + INTRA:          -8.033
REMARK INTER:                  -6.355
REMARK INTRA:                  -1.678
REMARK UNBOUND:                -1.370
REMARK SMILES CCCCCCCCCCCCCCCC(=O)[O-]
REMARK SMILES IDX 9 1 10 2 11 3 12 4 13 5 14 6 15 7 16 8 17 9 18 10 8 11 7 12
REMARK SMILES IDX 6 13 5 14 4 15 3 16 2 17 1 18
REMARK H PARENT
REMARK Flexibility Score: inf
ROOT
ATOM      1  C   UNL     1     -94.717 146.400 242.605  1.00  0.00     0.000 C 
ENDROOT
BRANCH   1   2
ATOM      2  C   UNL     1     -96.208 146.786 242.625  1.00  0.00     0.000 C 
BRANCH   2   3
ATOM      3  C   UNL     1     -96.458 148.239 242.184  1.00  0.00     0.000 C 
BRANCH   3   4
ATOM      4  C   UNL     1     -96.704 149.182 243.372  1.00  0.00     0.000 C 
BRANCH   4   5
ATOM      5  C   UNL     1     -97.293 148.456 244.592  1.00  0.00     0.000 C 
BRANCH   5   6
ATOM      6  C   UNL     1     -98.209 149.388 245.395  1.00  0.00     0.006 C 
BRANCH   6   7
ATOM      7  C   UNL     1     -98.133 149.076 246.893  1.00  0.00     0.053 C 
BRANCH   7   8
ATOM      8  C   UNL     1     -97.913 150.330 247.679  1.00  0.00     0.041 C 
ATOM      9  O   UNL     1     -96.851 150.487 248.336  1.00  0.00    -0.550 OA
ATOM     10  O   UNL     1     -98.901 151.304 247.723  1.00  0.00    -0.550 OA
ENDBRANCH   7   8
ENDBRANCH   6   7
ENDBRANCH   5   6
ENDBRANCH   4   5
ENDBRANCH   3   4
ENDBRANCH   2   3
ENDBRANCH   1   2
BRANCH   1  11
ATOM     11  C   UNL     1     -93.757 147.497 242.105  1.00  0.00     0.000 C 
BRANCH  11  12
ATOM     12  C   UNL     1     -92.735 146.980 241.079  1.00  0.00    -0.000 C 
BRANCH  12  13
ATOM     13  C   UNL     1     -93.267 145.794 240.257  1.00  0.00    -0.000 C 
BRANCH  13  14
ATOM     14  C   UNL     1     -93.798 146.194 238.864  1.00  0.00    -0.000 C 
BRANCH  14  15
ATOM     15  C   UNL     1     -95.336 146.187 238.807  1.00  0.00    -0.000 C 
BRANCH  15  16
ATOM     16  C   UNL     1     -95.925 147.605 238.651  1.00  0.00    -0.000 C 
BRANCH  16  17
ATOM     17  C   UNL     1     -94.869 148.721 238.721  1.00  0.00    -0.003 C 
ATOM     18  C   UNL     1     -94.832 149.589 237.464  1.00  0.00     0.004 C 
ENDBRANCH  16  17
ENDBRANCH  15  16
ENDBRANCH  14  15
ENDBRANCH  13  14
ENDBRANCH  12  13
ENDBRANCH  11  12
ENDBRANCH   1  11
TORSDOF 14
ENDMDL
MODEL 5
REMARK VINA RESULT:    -3.632      1.108      1.857
REMARK INTER + INTRA:          -7.975
REMARK INTER:                  -6.398
REMARK INTRA:                  -1.577
REMARK UNBOUND:                -1.370
REMARK SMILES CCCCCCCCCCCCCCCC(=O)[O-]
REMARK SMILES IDX 9 1 10 2 11 3 12 4 13 5 14 6 15 7 16 8 17 9 18 10 8 11 7 12
REMARK SMILES IDX 6 13 5 14 4 15 3 16 2 17 1 18
REMARK H PARENT
REMARK Flexibility Score: inf
ROOT
ATOM      1  C   UNL     1     -93.747 146.880 239.527  1.00  0.00     0.000 C 
ENDROOT
BRANCH   1   2
ATOM      2  C   UNL     1     -92.949 146.641 240.823  1.00  0.00     0.000 C 
BRANCH   2   3
ATOM      3  C   UNL     1     -93.604 147.281 242.059  1.00  0.00     0.000 C 
BRANCH   3   4
ATOM      4  C   UNL     1     -94.741 146.422 242.635  1.00  0.00     0.000 C 
BRANCH   4   5
ATOM      5  C   UNL     1     -96.095 147.147 242.622  1.00  0.00     0.000 C 
BRANCH   5   6
ATOM      6  C   UNL     1     -95.905 148.666 242.722  1.00  0.00     0.006 C 
BRANCH   6   7
ATOM      7  C   UNL     1     -97.135 149.333 243.348  1.00  0.00     0.053 C 
BRANCH   7   8
ATOM      8  C   UNL     1     -98.322 149.194 242.447  1.00  0.00     0.041 C 
ATOM      9  O   UNL     1     -99.343 148.570 242.838  1.00  0.00    -0.550 OA
ATOM     10  O   UNL     1     -98.282 149.712 241.160  1.00  0.00    -0.550 OA
ENDBRANCH   7   8
ENDBRANCH   6   7
ENDBRANCH   5   6
ENDBRANCH   4   5
ENDBRANCH   3   4
ENDBRANCH   2   3
ENDBRANCH   1   2
BRANCH   1  11
ATOM     11  C   UNL     1     -94.371 148.281 239.385  1.00  0.00     0.000 C 
BRANCH  11  12
ATOM     12  C   UNL     1     -95.854 148.241 238.982  1.00  0.00    -0.000 C 
BRANCH  12  13
ATOM     13  C   UNL     1     -96.188 149.226 237.849  1.00  0.00    -0.000 C 
BRANCH  13  14
ATOM     14  C   UNL     1     -95.023 149.452 236.861  1.00  0.00    -0.000 C 
BRANCH  14  15
ATOM     15  C   UNL     1     -95.123 150.813 236.149  1.00  0.00    -0.000 C 
BRANCH  15  16
ATOM     16  C   UNL     1     -95.783 151.891 237.034  1.00  0.00    -0.000 C 
BRANCH  16  17
ATOM     17  C   UNL     1     -96.886 152.688 236.317  1.00  0.00    -0.003 C 
ATOM     18  C   UNL     1     -97.170 152.179 234.905  1.00  0.00     0.004 C 
ENDBRANCH  16  17
ENDBRANCH  15  16
ENDBRANCH  14  15
ENDBRANCH  13  14
ENDBRANCH  12  13
ENDBRANCH  11  12
ENDBRANCH   1  11
TORSDOF 14
ENDMDL
MODEL 6
REMARK VINA RESULT:    -3.631      2.993      6.496
REMARK INTER + INTRA:          -7.972
REMARK INTER:                  -6.291
REMARK INTRA:                  -1.681
REMARK UNBOUND:                -1.370
REMARK SMILES CCCCCCCCCCCCCCCC(=O)[O-]
REMARK SMILES IDX 9 1 10 2 11 3 12 4 13 5 14 6 15 7 16 8 17 9 18 10 8 11 7 12
REMARK SMILES IDX 6 13 5 14 4 15 3 16 2 17 1 18
REMARK H PARENT
REMARK Flexibility Score: inf
ROOT
ATOM      1  C   UNL     1     -93.574 145.597 239.276  1.00  0.00     0.000 C 
ENDROOT
BRANCH   1   2
ATOM      2  C   UNL     1     -94.027 146.721 238.325  1.00  0.00     0.000 C 
BRANCH   2   3
ATOM      3  C   UNL     1     -94.398 148.019 239.063  1.00  0.00     0.000 C 
BRANCH   3   4
ATOM      4  C   UNL     1     -95.662 148.682 238.492  1.00  0.00     0.000 C 
BRANCH   4   5
ATOM      5  C   UNL     1     -95.628 148.799 236.960  1.00  0.00     0.000 C 
BRANCH   5   6
ATOM      6  C   UNL     1     -94.746 149.974 236.519  1.00  0.00     0.006 C 
BRANCH   6   7
ATOM      7  C   UNL     1     -95.264 151.296 237.097  1.00  0.00     0.053 C 
BRANCH   7   8
ATOM      8  C   UNL     1     -96.542 151.695 236.428  1.00  0.00     0.041 C 
ATOM      9  O   UNL     1     -96.545 152.020 235.212  1.00  0.00    -0.550 OA
ATOM     10  O   UNL     1     -97.720 151.753 237.160  1.00  0.00    -0.550 OA
ENDBRANCH   7   8
ENDBRANCH   6   7
ENDBRANCH   5   6
ENDBRANCH   4   5
ENDBRANCH   3   4
ENDBRANCH   2   3
ENDBRANCH   1   2
BRANCH   1  11
ATOM     11  C   UNL     1     -92.709 146.049 240.468  1.00  0.00     0.000 C 
BRANCH  11  12
ATOM     12  C   UNL     1     -92.979 145.241 241.748  1.00  0.00    -0.000 C 
BRANCH  12  13
ATOM     13  C   UNL     1     -93.876 145.991 242.746  1.00  0.00    -0.000 C 
BRANCH  13  14
ATOM     14  C   UNL     1     -95.377 145.660 242.601  1.00  0.00    -0.000 C 
BRANCH  14  15
ATOM     15  C   UNL     1     -96.188 146.862 242.083  1.00  0.00    -0.000 C 
BRANCH  15  16
ATOM     16  C   UNL     1     -95.556 148.212 242.482  1.00  0.00    -0.000 C 
BRANCH  16  17
ATOM     17  C   UNL     1     -96.541 149.177 243.161  1.00  0.00    -0.003 C 
ATOM     18  C   UNL     1     -97.233 148.568 244.380  1.00  0.00     0.004 C 
ENDBRANCH  16  17
ENDBRANCH  15  16
ENDBRANCH  14  15
ENDBRANCH  13  14
ENDBRANCH  12  13
ENDBRANCH  11  12
ENDBRANCH   1  11
TORSDOF 14
ENDMDL
MODEL 7
REMARK VINA RESULT:    -3.607      1.763      2.646
REMARK INTER + INTRA:          -7.928
REMARK INTER:                  -6.061
REMARK INTRA:                  -1.868
REMARK UNBOUND:                -1.370
REMARK SMILES CCCCCCCCCCCCCCCC(=O)[O-]
REMARK SMILES IDX 9 1 10 2 11 3 12 4 13 5 14 6 15 7 16 8 17 9 18 10 8 11 7 12
REMARK SMILES IDX 6 13 5 14 4 15 3 16 2 17 1 18
REMARK H PARENT
REMARK Flexibility Score: inf
ROOT
ATOM      1  C   UNL     1     -93.810 146.036 242.499  1.00  0.00     0.000 C 
ENDROOT
BRANCH   1   2
ATOM      2  C   UNL     1     -93.669 147.527 242.137  1.00  0.00     0.000 C 
BRANCH   2   3
ATOM      3  C   UNL     1     -95.012 148.278 242.148  1.00  0.00     0.000 C 
BRANCH   3   4
ATOM      4  C   UNL     1     -96.218 147.330 242.055  1.00  0.00     0.000 C 
BRANCH   4   5
ATOM      5  C   UNL     1     -97.479 147.910 242.714  1.00  0.00     0.000 C 
BRANCH   5   6
ATOM      6  C   UNL     1     -97.111 148.902 243.824  1.00  0.00     0.006 C 
BRANCH   6   7
ATOM      7  C   UNL     1     -97.452 148.332 245.205  1.00  0.00     0.053 C 
BRANCH   7   8
ATOM      8  C   UNL     1     -98.304 149.292 245.973  1.00  0.00     0.041 C 
ATOM      9  O   UNL     1     -97.840 149.884 246.982  1.00  0.00    -0.550 OA
ATOM     10  O   UNL     1     -99.626 149.497 245.601  1.00  0.00    -0.550 OA
ENDBRANCH   7   8
ENDBRANCH   6   7
ENDBRANCH   5   6
ENDBRANCH   4   5
ENDBRANCH   3   4
ENDBRANCH   2   3
ENDBRANCH   1   2
BRANCH   1  11
ATOM     11  C   UNL     1     -93.023 145.062 241.601  1.00  0.00     0.000 C 
BRANCH  11  12
ATOM     12  C   UNL     1     -92.496 145.720 240.316  1.00  0.00    -0.000 C 
BRANCH  12  13
ATOM     13  C   UNL     1     -93.295 145.310 239.068  1.00  0.00    -0.000 C 
BRANCH  13  14
ATOM     14  C   UNL     1     -94.588 146.128 238.863  1.00  0.00    -0.000 C 
BRANCH  14  15
ATOM     15  C   UNL     1     -94.359 147.359 237.969  1.00  0.00    -0.000 C 
BRANCH  15  16
ATOM     16  C   UNL     1     -94.946 148.648 238.583  1.00  0.00    -0.000 C 
BRANCH  16  17
ATOM     17  C   UNL     1     -96.312 149.044 237.997  1.00  0.00    -0.003 C 
ATOM     18  C   UNL     1     -97.454 148.916 239.003  1.00  0.00     0.004 C 
ENDBRANCH  16  17
ENDBRANCH  15  16
ENDBRANCH  14  15
ENDBRANCH  13  14
ENDBRANCH  12  13
ENDBRANCH  11  12
ENDBRANCH   1  11
TORSDOF 14
ENDMDL
MODEL 8
REMARK VINA RESULT:    -3.599      3.833      7.142
REMARK INTER + INTRA:          -7.914
REMARK INTER:                  -6.534
REMARK INTRA:                  -1.380
REMARK UNBOUND:                -1.370
REMARK SMILES CCCCCCCCCCCCCCCC(=O)[O-]
REMARK SMILES IDX 9 1 10 2 11 3 12 4 13 5 14 6 15 7 16 8 17 9 18 10 8 11 7 12
REMARK SMILES IDX 6 13 5 14 4 15 3 16 2 17 1 18
REMARK H PARENT
REMARK Flexibility Score: inf
ROOT
ATOM      1  C   UNL     1     -95.894 148.329 239.062  1.00  0.00     0.000 C 
ENDROOT
BRANCH   1   2
ATOM      2  C   UNL     1     -96.305 149.117 237.804  1.00  0.00     0.000 C 
BRANCH   2   3
ATOM      3  C   UNL     1     -95.126 149.390 236.854  1.00  0.00     0.000 C 
BRANCH   3   4
ATOM      4  C   UNL     1     -95.124 150.829 236.315  1.00  0.00     0.000 C 
BRANCH   4   5
ATOM      5  C   UNL     1     -96.450 151.561 236.576  1.00  0.00     0.000 C 
BRANCH   5   6
ATOM      6  C   UNL     1     -96.238 152.767 237.500  1.00  0.00     0.006 C 
BRANCH   6   7
ATOM      7  C   UNL     1     -97.424 153.734 237.422  1.00  0.00     0.053 C 
BRANCH   7   8
ATOM      8  C   UNL     1     -97.166 154.800 236.404  1.00  0.00     0.041 C 
ATOM      9  O   UNL     1     -96.645 155.892 236.750  1.00  0.00    -0.550 OA
ATOM     10  O   UNL     1     -97.543 154.604 235.083  1.00  0.00    -0.550 OA
ENDBRANCH   7   8
ENDBRANCH   6   7
ENDBRANCH   5   6
ENDBRANCH   4   5
ENDBRANCH   3   4
ENDBRANCH   2   3
ENDBRANCH   1   2
BRANCH   1  11
ATOM     11  C   UNL     1     -94.379 148.261 239.333  1.00  0.00     0.000 C 
BRANCH  11  12
ATOM     12  C   UNL     1     -93.878 146.832 239.595  1.00  0.00    -0.000 C 
BRANCH  12  13
ATOM     13  C   UNL     1     -92.965 146.739 240.829  1.00  0.00    -0.000 C 
BRANCH  13  14
ATOM     14  C   UNL     1     -93.670 147.115 242.151  1.00  0.00    -0.000 C 
BRANCH  14  15
ATOM     15  C   UNL     1     -94.947 146.287 242.382  1.00  0.00    -0.000 C 
BRANCH  15  16
ATOM     16  C   UNL     1     -96.083 147.123 243.008  1.00  0.00    -0.000 C 
BRANCH  16  17
ATOM     17  C   UNL     1     -95.930 148.637 242.783  1.00  0.00    -0.003 C 
ATOM     18  C   UNL     1     -97.267 149.376 242.753  1.00  0.00     0.004 C 
ENDBRANCH  16  17
ENDBRANCH  15  16
ENDBRANCH  14  15
ENDBRANCH  13  14
ENDBRANCH  12  13
ENDBRANCH  11  12
ENDBRANCH   1  11
TORSDOF 14
ENDMDL
MODEL 9
REMARK VINA RESULT:    -3.544      2.311      5.995
REMARK INTER + INTRA:          -7.815
REMARK INTER:                  -5.916
REMARK INTRA:                  -1.899
REMARK UNBOUND:                -1.370
REMARK SMILES CCCCCCCCCCCCCCCC(=O)[O-]
REMARK SMILES IDX 9 1 10 2 11 3 12 4 13 5 14 6 15 7 16 8 17 9 18 10 8 11 7 12
REMARK SMILES IDX 6 13 5 14 4 15 3 16 2 17 1 18
REMARK H PARENT
REMARK Flexibility Score: inf
ROOT
ATOM      1  C   UNL     1     -95.745 146.699 238.964  1.00  0.00     0.000 C 
ENDROOT
BRANCH   1   2
ATOM      2  C   UNL     1     -96.010 148.212 238.855  1.00  0.00     0.000 C 
BRANCH   2   3
ATOM      3  C   UNL     1     -94.788 149.002 238.356  1.00  0.00     0.000 C 
BRANCH   3   4
ATOM      4  C   UNL     1     -95.024 149.648 236.982  1.00  0.00     0.000 C 
BRANCH   4   5
ATOM      5  C   UNL     1     -95.180 151.174 237.063  1.00  0.00     0.000 C 
BRANCH   5   6
ATOM      6  C   UNL     1     -96.539 151.617 236.507  1.00  0.00     0.006 C 
BRANCH   6   7
ATOM      7  C   UNL     1     -97.334 152.399 237.558  1.00  0.00     0.053 C 
BRANCH   7   8
ATOM      8  C   UNL     1     -98.296 151.498 238.265  1.00  0.00     0.041 C 
ATOM      9  O   UNL     1     -98.773 151.832 239.381  1.00  0.00    -0.550 OA
ATOM     10  O   UNL     1     -98.631 150.269 237.712  1.00  0.00    -0.550 OA
ENDBRANCH   7   8
ENDBRANCH   6   7
ENDBRANCH   5   6
ENDBRANCH   4   5
ENDBRANCH   3   4
ENDBRANCH   2   3
ENDBRANCH   1   2
BRANCH   1  11
ATOM     11  C   UNL     1     -94.283 146.266 238.737  1.00  0.00     0.000 C 
BRANCH  11  12
ATOM     12  C   UNL     1     -93.618 145.705 240.004  1.00  0.00    -0.000 C 
BRANCH  12  13
ATOM     13  C   UNL     1     -92.820 146.769 240.776  1.00  0.00    -0.000 C 
BRANCH  13  14
ATOM     14  C   UNL     1     -93.603 147.405 241.945  1.00  0.00    -0.000 C 
BRANCH  14  15
ATOM     15  C   UNL     1     -94.569 146.406 242.607  1.00  0.00    -0.000 C 
BRANCH  15  16
ATOM     16  C   UNL     1     -96.022 146.925 242.634  1.00  0.00    -0.000 C 
BRANCH  16  17
ATOM     17  C   UNL     1     -96.129 148.459 242.621  1.00  0.00    -0.003 C 
ATOM     18  C   UNL     1     -97.002 149.008 243.748  1.00  0.00     0.004 C 
ENDBRANCH  16  17
ENDBRANCH  15  16
ENDBRANCH  14  15
ENDBRANCH  13  14
ENDBRANCH  12  13
ENDBRANCH  11  12
ENDBRANCH   1  11
TORSDOF 14
ENDMDL
