MODEL 1
REMARK VINA RESULT:    -1.261      0.000      0.000
REMARK INTER + INTRA:          -0.963
REMARK INTER:                  -1.924
REMARK INTRA:                   0.961
REMARK UNBOUND:                 0.961
REMARK SMILES OC[C@H]1O[C@@](CO)(O[C@@H]2O[C@H](CO)[C@@H](O)[C@@H](O)[C@@H]2O)[C@@H](O)[C@@H]1O
REMARK SMILES IDX 8 1 9 2 11 3 14 4 10 5 16 6 18 7 12 8 13 9 15 11 17 13 19 15
REMARK SMILES IDX 5 17 20 18 4 19 22 20 3 21 6 22 7 23 21 25 23 27 2 29 1 30
REMARK H PARENT 13 10 15 12 17 14 19 16 7 24 21 26 23 28 1 31
REMARK Flexibility Score: inf
ROOT
ATOM      1  O   UNL     1      32.498  36.320  -0.151  1.00  0.00    -0.313 OA
ENDROOT
BRANCH   1   2
ATOM      2  C   UNL     1      33.546  36.135  -1.099  1.00  0.00     0.285 C 
ATOM      3  C   UNL     1      33.682  38.432  -1.784  1.00  0.00     0.178 C 
ATOM      4  C   UNL     1      33.057  38.120  -3.163  1.00  0.00     0.177 C 
ATOM      5  O   UNL     1      34.342  37.312  -1.200  1.00  0.00    -0.341 OA
ATOM      6  C   UNL     1      32.177  36.864  -3.095  1.00  0.00     0.179 C 
ATOM      7  C   UNL     1      32.978  35.715  -2.473  1.00  0.00     0.202 C 
BRANCH   3   8
ATOM      8  C   UNL     1      32.711  39.125  -0.809  1.00  0.00     0.191 C 
BRANCH   8   9
ATOM      9  O   UNL     1      31.416  39.125  -1.346  1.00  0.00    -0.394 OA
ATOM     10  H   UNL     1      30.812  39.415  -0.613  1.00  0.00     0.210 HD
ENDBRANCH   8   9
ENDBRANCH   3   8
BRANCH   4  11
ATOM     11  O   UNL     1      34.092  37.936  -4.098  1.00  0.00    -0.387 OA
ATOM     12  H   UNL     1      33.891  37.104  -4.600  1.00  0.00     0.211 HD
ENDBRANCH   4  11
BRANCH   6  13
ATOM     13  O   UNL     1      31.752  36.516  -4.388  1.00  0.00    -0.387 OA
ATOM     14  H   UNL     1      30.973  37.092  -4.603  1.00  0.00     0.211 HD
ENDBRANCH   6  13
BRANCH   7  15
ATOM     15  O   UNL     1      32.153  34.588  -2.342  1.00  0.00    -0.385 OA
ATOM     16  H   UNL     1      31.305  34.798  -2.813  1.00  0.00     0.211 HD
ENDBRANCH   7  15
ENDBRANCH   1   2
BRANCH   1  17
ATOM     17  C   UNL     1      32.778  35.969   1.210  1.00  0.00     0.224 C 
ATOM     18  C   UNL     1      34.112  36.557   1.738  1.00  0.00     0.208 C 
ATOM     19  O   UNL     1      31.741  36.560   1.975  1.00  0.00    -0.337 OA
ATOM     20  C   UNL     1      33.699  37.905   2.250  1.00  0.00     0.180 C 
ATOM     21  C   UNL     1      32.274  37.636   2.717  1.00  0.00     0.179 C 
BRANCH  17  22
ATOM     22  C   UNL     1      32.688  34.441   1.469  1.00  0.00     0.225 C 
BRANCH  22  23
ATOM     23  O   UNL     1      33.878  33.979   2.051  1.00  0.00    -0.391 OA
ATOM     24  H   UNL     1      33.956  33.021   1.803  1.00  0.00     0.210 HD
ENDBRANCH  22  23
ENDBRANCH  17  22
BRANCH  18  25
ATOM     25  O   UNL     1      35.111  36.692   0.764  1.00  0.00    -0.385 OA
ATOM     26  H   UNL     1      35.785  37.323   1.132  1.00  0.00     0.211 HD
ENDBRANCH  18  25
BRANCH  20  27
ATOM     27  O   UNL     1      34.524  38.308   3.311  1.00  0.00    -0.387 OA
ATOM     28  H   UNL     1      34.975  39.141   3.015  1.00  0.00     0.211 HD
ENDBRANCH  20  27
BRANCH  21  29
ATOM     29  C   UNL     1      31.368  38.865   2.588  1.00  0.00     0.191 C 
BRANCH  29  30
ATOM     30  O   UNL     1      30.056  38.477   2.291  1.00  0.00    -0.394 OA
ATOM     31  H   UNL     1      29.858  37.701   2.876  1.00  0.00     0.210 HD
ENDBRANCH  29  30
ENDBRANCH  21  29
ENDBRANCH   1  17
TORSDOF 13
ENDMDL
MODEL 2
REMARK VINA RESULT:    -0.413      1.178      2.496
REMARK INTER + INTRA:           0.332
REMARK INTER:                   0.500
REMARK INTRA:                  -0.168
REMARK UNBOUND:                 0.961
REMARK SMILES OC[C@H]1O[C@@](CO)(O[C@@H]2O[C@H](CO)[C@@H](O)[C@@H](O)[C@@H]2O)[C@@H](O)[C@@H]1O
REMARK SMILES IDX 8 1 9 2 11 3 14 4 10 5 16 6 18 7 12 8 13 9 15 11 17 13 19 15
REMARK SMILES IDX 5 17 20 18 4 19 22 20 3 21 6 22 7 23 21 25 23 27 2 29 1 30
REMARK H PARENT 13 10 15 12 17 14 19 16 7 24 21 26 23 28 1 31
REMARK Flexibility Score: inf
ROOT
ATOM      1  O   UNL     1      33.419  36.893   0.249  1.00  0.00    -0.313 OA
ENDROOT
BRANCH   1   2
ATOM      2  C   UNL     1      32.853  38.110  -0.231  1.00  0.00     0.285 C 
ATOM      3  C   UNL     1      31.933  37.187  -2.249  1.00  0.00     0.178 C 
ATOM      4  C   UNL     1      32.979  37.910  -3.127  1.00  0.00     0.177 C 
ATOM      5  O   UNL     1      31.688  37.847  -1.008  1.00  0.00    -0.341 OA
ATOM      6  C   UNL     1      34.259  38.200  -2.330  1.00  0.00     0.179 C 
ATOM      7  C   UNL     1      33.895  38.924  -1.030  1.00  0.00     0.202 C 
BRANCH   3   8
ATOM      8  C   UNL     1      32.207  35.681  -2.076  1.00  0.00     0.191 C 
BRANCH   8   9
ATOM      9  O   UNL     1      31.853  34.994  -3.246  1.00  0.00    -0.394 OA
ATOM     10  H   UNL     1      32.574  34.332  -3.408  1.00  0.00     0.210 HD
ENDBRANCH   8   9
ENDBRANCH   3   8
BRANCH   4  11
ATOM     11  O   UNL     1      32.420  39.111  -3.601  1.00  0.00    -0.387 OA
ATOM     12  H   UNL     1      32.536  39.121  -4.586  1.00  0.00     0.211 HD
ENDBRANCH   4  11
BRANCH   6  13
ATOM     13  O   UNL     1      35.125  38.992  -3.103  1.00  0.00    -0.387 OA
ATOM     14  H   UNL     1      35.241  38.531  -3.974  1.00  0.00     0.211 HD
ENDBRANCH   6  13
BRANCH   7  15
ATOM     15  O   UNL     1      35.055  39.125  -0.267  1.00  0.00    -0.385 OA
ATOM     16  H   UNL     1      35.807  38.733  -0.782  1.00  0.00     0.211 HD
ENDBRANCH   7  15
ENDBRANCH   1   2
BRANCH   1  17
ATOM     17  C   UNL     1      33.051  36.479   1.571  1.00  0.00     0.224 C 
ATOM     18  C   UNL     1      33.819  37.230   2.690  1.00  0.00     0.208 C 
ATOM     19  O   UNL     1      31.684  36.827   1.711  1.00  0.00    -0.337 OA
ATOM     20  C   UNL     1      32.970  38.444   2.915  1.00  0.00     0.180 C 
ATOM     21  C   UNL     1      31.577  37.910   2.612  1.00  0.00     0.179 C 
BRANCH  17  22
ATOM     22  C   UNL     1      33.127  34.941   1.764  1.00  0.00     0.225 C 
BRANCH  22  23
ATOM     23  O   UNL     1      34.326  34.592   2.404  1.00  0.00    -0.391 OA
ATOM     24  H   UNL     1      35.033  35.162   2.001  1.00  0.00     0.210 HD
ENDBRANCH  22  23
ENDBRANCH  17  22
BRANCH  18  25
ATOM     25  O   UNL     1      35.125  37.607   2.344  1.00  0.00    -0.385 OA
ATOM     26  H   UNL     1      35.653  37.613   3.185  1.00  0.00     0.211 HD
ENDBRANCH  18  25
BRANCH  20  27
ATOM     27  O   UNL     1      33.076  38.886   4.244  1.00  0.00    -0.387 OA
ATOM     28  H   UNL     1      32.891  38.098   4.817  1.00  0.00     0.211 HD
ENDBRANCH  20  27
BRANCH  21  29
ATOM     29  C   UNL     1      30.644  38.982   2.037  1.00  0.00     0.191 C 
BRANCH  29  30
ATOM     30  O   UNL     1      29.317  38.723   2.400  1.00  0.00    -0.394 OA
ATOM     31  H   UNL     1      28.894  38.291   1.613  1.00  0.00     0.210 HD
ENDBRANCH  29  30
ENDBRANCH  21  29
ENDBRANCH   1  17
TORSDOF 13
ENDMDL
