MODEL 1
REMARK VINA RESULT:    -3.889      0.000      0.000
REMARK INTER + INTRA:          -9.223
REMARK INTER:                  -7.071
REMARK INTRA:                  -2.152
REMARK UNBOUND:                -2.152
REMARK SMILES CCCCCCCCCCCCCCCC(=O)[O-]
REMARK SMILES IDX 9 1 10 2 11 3 12 4 13 5 14 6 15 7 16 8 17 9 18 10 8 11 7 12
REMARK SMILES IDX 6 13 5 14 4 15 3 16 2 17 1 18
REMARK H PARENT
REMARK Flexibility Score: inf
ROOT
ATOM      1  C   UNL     1      48.892   0.568  73.850  1.00  0.00     0.000 C 
ENDROOT
BRANCH   1   2
ATOM      2  C   UNL     1      47.863   0.313  72.738  1.00  0.00     0.000 C 
BRANCH   2   3
ATOM      3  C   UNL     1      48.446  -0.499  71.568  1.00  0.00     0.000 C 
BRANCH   3   4
ATOM      4  C   UNL     1      49.785  -1.171  71.938  1.00  0.00     0.000 C 
BRANCH   4   5
ATOM      5  C   UNL     1      49.731  -2.709  71.905  1.00  0.00     0.000 C 
BRANCH   5   6
ATOM      6  C   UNL     1      50.989  -3.364  72.491  1.00  0.00     0.006 C 
BRANCH   6   7
ATOM      7  C   UNL     1      51.917  -2.314  73.109  1.00  0.00     0.053 C 
BRANCH   7   8
ATOM      8  C   UNL     1      53.204  -2.242  72.349  1.00  0.00     0.041 C 
ATOM      9  O   UNL     1      54.012  -3.207  72.379  1.00  0.00    -0.550 OA
ATOM     10  O   UNL     1      53.534  -1.089  71.648  1.00  0.00    -0.550 OA
ENDBRANCH   7   8
ENDBRANCH   6   7
ENDBRANCH   5   6
ENDBRANCH   4   5
ENDBRANCH   3   4
ENDBRANCH   2   3
ENDBRANCH   1   2
BRANCH   1  11
ATOM     11  C   UNL     1      48.339   0.241  75.249  1.00  0.00     0.000 C 
BRANCH  11  12
ATOM     12  C   UNL     1      47.857  -1.213  75.372  1.00  0.00    -0.000 C 
BRANCH  12  13
ATOM     13  C   UNL     1      49.021  -2.211  75.501  1.00  0.00    -0.000 C 
BRANCH  13  14
ATOM     14  C   UNL     1      48.548  -3.674  75.508  1.00  0.00    -0.000 C 
BRANCH  14  15
ATOM     15  C   UNL     1      47.031  -3.806  75.711  1.00  0.00    -0.000 C 
BRANCH  15  16
ATOM     16  C   UNL     1      46.412  -4.711  74.635  1.00  0.00    -0.000 C 
BRANCH  16  17
ATOM     17  C   UNL     1      47.471  -5.460  73.811  1.00  0.00    -0.003 C 
ATOM     18  C   UNL     1      47.217  -5.377  72.306  1.00  0.00     0.004 C 
ENDBRANCH  16  17
ENDBRANCH  15  16
ENDBRANCH  14  15
ENDBRANCH  13  14
ENDBRANCH  12  13
ENDBRANCH  11  12
ENDBRANCH   1  11
TORSDOF 14
ENDMDL
MODEL 2
REMARK VINA RESULT:    -3.848      3.628      5.618
REMARK INTER + INTRA:          -9.149
REMARK INTER:                  -6.753
REMARK INTRA:                  -2.396
REMARK UNBOUND:                -2.152
REMARK SMILES CCCCCCCCCCCCCCCC(=O)[O-]
REMARK SMILES IDX 9 1 10 2 11 3 12 4 13 5 14 6 15 7 16 8 17 9 18 10 8 11 7 12
REMARK SMILES IDX 6 13 5 14 4 15 3 16 2 17 1 18
REMARK H PARENT
REMARK Flexibility Score: inf
ROOT
ATOM      1  C   UNL     1      51.091  -1.590  72.344  1.00  0.00     0.000 C 
ENDROOT
BRANCH   1   2
ATOM      2  C   UNL     1      50.317  -2.802  71.804  1.00  0.00     0.000 C 
BRANCH   2   3
ATOM      3  C   UNL     1      50.556  -4.075  72.637  1.00  0.00     0.000 C 
BRANCH   3   4
ATOM      4  C   UNL     1      49.295  -4.961  72.717  1.00  0.00     0.000 C 
BRANCH   4   5
ATOM      5  C   UNL     1      47.980  -4.175  72.577  1.00  0.00     0.000 C 
BRANCH   5   6
ATOM      6  C   UNL     1      46.901  -4.632  73.569  1.00  0.00     0.006 C 
BRANCH   6   7
ATOM      7  C   UNL     1      46.514  -6.094  73.323  1.00  0.00     0.053 C 
BRANCH   7   8
ATOM      8  C   UNL     1      45.255  -6.431  74.056  1.00  0.00     0.041 C 
ATOM      9  O   UNL     1      44.284  -5.628  74.052  1.00  0.00    -0.550 OA
ATOM     10  O   UNL     1      45.169  -7.610  74.785  1.00  0.00    -0.550 OA
ENDBRANCH   7   8
ENDBRANCH   6   7
ENDBRANCH   5   6
ENDBRANCH   4   5
ENDBRANCH   3   4
ENDBRANCH   2   3
ENDBRANCH   1   2
BRANCH   1  11
ATOM     11  C   UNL     1      50.344  -0.264  72.109  1.00  0.00     0.000 C 
BRANCH  11  12
ATOM     12  C   UNL     1      48.877  -0.473  71.704  1.00  0.00    -0.000 C 
BRANCH  12  13
ATOM     13  C   UNL     1      47.893   0.115  72.729  1.00  0.00    -0.000 C 
BRANCH  13  14
ATOM     14  C   UNL     1      48.443   0.081  74.164  1.00  0.00    -0.000 C 
BRANCH  14  15
ATOM     15  C   UNL     1      48.103  -1.224  74.899  1.00  0.00    -0.000 C 
BRANCH  15  16
ATOM     16  C   UNL     1      49.353  -1.818  75.566  1.00  0.00    -0.000 C 
BRANCH  16  17
ATOM     17  C   UNL     1      49.128  -3.249  76.077  1.00  0.00    -0.003 C 
ATOM     18  C   UNL     1      50.428  -3.948  76.473  1.00  0.00     0.004 C 
ENDBRANCH  16  17
ENDBRANCH  15  16
ENDBRANCH  14  15
ENDBRANCH  13  14
ENDBRANCH  12  13
ENDBRANCH  11  12
ENDBRANCH   1  11
TORSDOF 14
ENDMDL
MODEL 3
REMARK VINA RESULT:    -3.840      3.154      5.708
REMARK INTER + INTRA:          -9.134
REMARK INTER:                  -7.160
REMARK INTRA:                  -1.974
REMARK UNBOUND:                -2.152
REMARK SMILES CCCCCCCCCCCCCCCC(=O)[O-]
REMARK SMILES IDX 9 1 10 2 11 3 12 4 13 5 14 6 15 7 16 8 17 9 18 10 8 11 7 12
REMARK SMILES IDX 6 13 5 14 4 15 3 16 2 17 1 18
REMARK H PARENT
REMARK Flexibility Score: inf
ROOT
ATOM      1  C   UNL     1      48.113  -0.863  75.592  1.00  0.00     0.000 C 
ENDROOT
BRANCH   1   2
ATOM      2  C   UNL     1      49.405  -1.695  75.596  1.00  0.00     0.000 C 
BRANCH   2   3
ATOM      3  C   UNL     1      49.214  -3.087  74.967  1.00  0.00     0.000 C 
BRANCH   3   4
ATOM      4  C   UNL     1      47.789  -3.281  74.408  1.00  0.00     0.000 C 
BRANCH   4   5
ATOM      5  C   UNL     1      47.736  -4.172  73.154  1.00  0.00     0.000 C 
BRANCH   5   6
ATOM      6  C   UNL     1      46.898  -5.442  73.358  1.00  0.00     0.006 C 
BRANCH   6   7
ATOM      7  C   UNL     1      46.652  -6.156  72.025  1.00  0.00     0.053 C 
BRANCH   7   8
ATOM      8  C   UNL     1      46.723  -7.640  72.207  1.00  0.00     0.041 C 
ATOM      9  O   UNL     1      47.471  -8.135  73.091  1.00  0.00    -0.550 OA
ATOM     10  O   UNL     1      46.000  -8.478  71.368  1.00  0.00    -0.550 OA
ENDBRANCH   7   8
ENDBRANCH   6   7
ENDBRANCH   5   6
ENDBRANCH   4   5
ENDBRANCH   3   4
ENDBRANCH   2   3
ENDBRANCH   1   2
BRANCH   1  11
ATOM     11  C   UNL     1      48.296   0.504  74.909  1.00  0.00     0.000 C 
BRANCH  11  12
ATOM     12  C   UNL     1      47.506   0.621  73.595  1.00  0.00    -0.000 C 
BRANCH  12  13
ATOM     13  C   UNL     1      48.419   0.623  72.357  1.00  0.00    -0.000 C 
BRANCH  13  14
ATOM     14  C   UNL     1      48.319  -0.679  71.546  1.00  0.00    -0.000 C 
BRANCH  14  15
ATOM     15  C   UNL     1      49.603  -1.520  71.613  1.00  0.00    -0.000 C 
BRANCH  15  16
ATOM     16  C   UNL     1      50.739  -0.731  72.281  1.00  0.00    -0.000 C 
BRANCH  16  17
ATOM     17  C   UNL     1      51.983  -1.594  72.543  1.00  0.00    -0.003 C 
ATOM     18  C   UNL     1      53.201  -1.134  71.742  1.00  0.00     0.004 C 
ENDBRANCH  16  17
ENDBRANCH  15  16
ENDBRANCH  14  15
ENDBRANCH  13  14
ENDBRANCH  12  13
ENDBRANCH  11  12
ENDBRANCH   1  11
TORSDOF 14
ENDMDL
MODEL 4
REMARK VINA RESULT:    -3.793      2.216      3.686
REMARK INTER + INTRA:          -9.048
REMARK INTER:                  -7.376
REMARK INTRA:                  -1.672
REMARK UNBOUND:                -2.152
REMARK SMILES CCCCCCCCCCCCCCCC(=O)[O-]
REMARK SMILES IDX 9 1 10 2 11 3 12 4 13 5 14 6 15 7 16 8 17 9 18 10 8 11 7 12
REMARK SMILES IDX 6 13 5 14 4 15 3 16 2 17 1 18
REMARK H PARENT
REMARK Flexibility Score: inf
ROOT
ATOM      1  C   UNL     1      48.177  -4.363  74.648  1.00  0.00     0.000 C 
ENDROOT
BRANCH   1   2
ATOM      2  C   UNL     1      47.967  -4.059  73.157  1.00  0.00     0.000 C 
BRANCH   2   3
ATOM      3  C   UNL     1      49.028  -4.726  72.263  1.00  0.00     0.000 C 
BRANCH   3   4
ATOM      4  C   UNL     1      50.068  -3.712  71.741  1.00  0.00     0.000 C 
BRANCH   4   5
ATOM      5  C   UNL     1      49.729  -2.251  72.085  1.00  0.00     0.000 C 
BRANCH   5   6
ATOM      6  C   UNL     1      50.830  -1.556  72.897  1.00  0.00     0.006 C 
BRANCH   6   7
ATOM      7  C   UNL     1      51.596  -0.549  72.034  1.00  0.00     0.053 C 
BRANCH   7   8
ATOM      8  C   UNL     1      53.024  -0.969  71.883  1.00  0.00     0.041 C 
ATOM      9  O   UNL     1      53.866  -0.181  71.377  1.00  0.00    -0.550 OA
ATOM     10  O   UNL     1      53.415  -2.249  72.254  1.00  0.00    -0.550 OA
ENDBRANCH   7   8
ENDBRANCH   6   7
ENDBRANCH   5   6
ENDBRANCH   4   5
ENDBRANCH   3   4
ENDBRANCH   2   3
ENDBRANCH   1   2
BRANCH   1  11
ATOM     11  C   UNL     1      49.605  -4.849  74.954  1.00  0.00     0.000 C 
BRANCH  11  12
ATOM     12  C   UNL     1      50.431  -3.813  75.733  1.00  0.00    -0.000 C 
BRANCH  12  13
ATOM     13  C   UNL     1      49.555  -2.893  76.601  1.00  0.00    -0.000 C 
BRANCH  13  14
ATOM     14  C   UNL     1      50.166  -2.631  77.987  1.00  0.00    -0.000 C 
BRANCH  14  15
ATOM     15  C   UNL     1      49.509  -3.470  79.093  1.00  0.00    -0.000 C 
BRANCH  15  16
ATOM     16  C   UNL     1      48.408  -4.372  78.515  1.00  0.00    -0.000 C 
BRANCH  16  17
ATOM     17  C   UNL     1      48.780  -5.862  78.560  1.00  0.00    -0.003 C 
ATOM     18  C   UNL     1      47.577  -6.779  78.339  1.00  0.00     0.004 C 
ENDBRANCH  16  17
ENDBRANCH  15  16
ENDBRANCH  14  15
ENDBRANCH  13  14
ENDBRANCH  12  13
ENDBRANCH  11  12
ENDBRANCH   1  11
TORSDOF 14
ENDMDL
MODEL 5
REMARK VINA RESULT:    -3.787      1.072      2.376
REMARK INTER + INTRA:          -9.038
REMARK INTER:                  -7.145
REMARK INTRA:                  -1.893
REMARK UNBOUND:                -2.152
REMARK SMILES CCCCCCCCCCCCCCCC(=O)[O-]
REMARK SMILES IDX 9 1 10 2 11 3 12 4 13 5 14 6 15 7 16 8 17 9 18 10 8 11 7 12
REMARK SMILES IDX 6 13 5 14 4 15 3 16 2 17 1 18
REMARK H PARENT
REMARK Flexibility Score: inf
ROOT
ATOM      1  C   UNL     1      47.976  -1.678  75.562  1.00  0.00     0.000 C 
ENDROOT
BRANCH   1   2
ATOM      2  C   UNL     1      47.631  -0.288  75.005  1.00  0.00     0.000 C 
BRANCH   2   3
ATOM      3  C   UNL     1      48.614   0.172  73.913  1.00  0.00     0.000 C 
BRANCH   3   4
ATOM      4  C   UNL     1      48.175  -0.286  72.507  1.00  0.00     0.000 C 
BRANCH   4   5
ATOM      5  C   UNL     1      49.334  -0.814  71.643  1.00  0.00     0.000 C 
BRANCH   5   6
ATOM      6  C   UNL     1      50.708  -0.606  72.294  1.00  0.00     0.006 C 
BRANCH   6   7
ATOM      7  C   UNL     1      51.467  -1.932  72.408  1.00  0.00     0.053 C 
BRANCH   7   8
ATOM      8  C   UNL     1      52.944  -1.696  72.351  1.00  0.00     0.041 C 
ATOM      9  O   UNL     1      53.406  -0.735  71.680  1.00  0.00    -0.550 OA
ATOM     10  O   UNL     1      53.812  -2.564  72.999  1.00  0.00    -0.550 OA
ENDBRANCH   7   8
ENDBRANCH   6   7
ENDBRANCH   5   6
ENDBRANCH   4   5
ENDBRANCH   3   4
ENDBRANCH   2   3
ENDBRANCH   1   2
BRANCH   1  11
ATOM     11  C   UNL     1      49.481  -1.988  75.476  1.00  0.00     0.000 C 
BRANCH  11  12
ATOM     12  C   UNL     1      49.782  -3.494  75.547  1.00  0.00    -0.000 C 
BRANCH  12  13
ATOM     13  C   UNL     1      48.754  -4.337  74.773  1.00  0.00    -0.000 C 
BRANCH  13  14
ATOM     14  C   UNL     1      48.816  -4.097  73.255  1.00  0.00    -0.000 C 
BRANCH  14  15
ATOM     15  C   UNL     1      47.498  -4.446  72.546  1.00  0.00    -0.000 C 
BRANCH  15  16
ATOM     16  C   UNL     1      47.219  -5.955  72.620  1.00  0.00    -0.000 C 
BRANCH  16  17
ATOM     17  C   UNL     1      45.804  -6.269  73.130  1.00  0.00    -0.003 C 
ATOM     18  C   UNL     1      45.358  -5.335  74.254  1.00  0.00     0.004 C 
ENDBRANCH  16  17
ENDBRANCH  15  16
ENDBRANCH  14  15
ENDBRANCH  13  14
ENDBRANCH  12  13
ENDBRANCH  11  12
ENDBRANCH   1  11
TORSDOF 14
ENDMDL
MODEL 6
REMARK VINA RESULT:    -3.756      4.010      6.578
REMARK INTER + INTRA:          -8.982
REMARK INTER:                  -7.224
REMARK INTRA:                  -1.758
REMARK UNBOUND:                -2.152
REMARK SMILES CCCCCCCCCCCCCCCC(=O)[O-]
REMARK SMILES IDX 9 1 10 2 11 3 12 4 13 5 14 6 15 7 16 8 17 9 18 10 8 11 7 12
REMARK SMILES IDX 6 13 5 14 4 15 3 16 2 17 1 18
REMARK H PARENT
REMARK Flexibility Score: inf
ROOT
ATOM      1  C   UNL     1      50.224  -3.710  71.824  1.00  0.00     0.000 C 
ENDROOT
BRANCH   1   2
ATOM      2  C   UNL     1      49.281  -4.392  72.828  1.00  0.00     0.000 C 
BRANCH   2   3
ATOM      3  C   UNL     1      47.796  -4.172  72.487  1.00  0.00     0.000 C 
BRANCH   3   4
ATOM      4  C   UNL     1      47.016  -5.502  72.404  1.00  0.00     0.000 C 
BRANCH   4   5
ATOM      5  C   UNL     1      47.787  -6.703  72.978  1.00  0.00     0.000 C 
BRANCH   5   6
ATOM      6  C   UNL     1      47.968  -7.839  71.961  1.00  0.00     0.006 C 
BRANCH   6   7
ATOM      7  C   UNL     1      47.633  -9.196  72.589  1.00  0.00     0.053 C 
BRANCH   7   8
ATOM      8  C   UNL     1      46.355  -9.731  72.026  1.00  0.00     0.041 C 
ATOM      9  O   UNL     1      46.338 -10.259  70.882  1.00  0.00    -0.550 OA
ATOM     10  O   UNL     1      45.172  -9.603  72.742  1.00  0.00    -0.550 OA
ENDBRANCH   7   8
ENDBRANCH   6   7
ENDBRANCH   5   6
ENDBRANCH   4   5
ENDBRANCH   3   4
ENDBRANCH   2   3
ENDBRANCH   1   2
BRANCH   1  11
ATOM     11  C   UNL     1      51.619  -3.442  72.417  1.00  0.00     0.000 C 
BRANCH  11  12
ATOM     12  C   UNL     1      51.735  -2.049  73.057  1.00  0.00    -0.000 C 
BRANCH  12  13
ATOM     13  C   UNL     1      51.715  -0.919  72.014  1.00  0.00    -0.000 C 
BRANCH  13  14
ATOM     14  C   UNL     1      50.581   0.091  72.257  1.00  0.00    -0.000 C 
BRANCH  14  15
ATOM     15  C   UNL     1      49.258  -0.334  71.601  1.00  0.00    -0.000 C 
BRANCH  15  16
ATOM     16  C   UNL     1      48.153  -0.497  72.656  1.00  0.00    -0.000 C 
BRANCH  16  17
ATOM     17  C   UNL     1      48.651  -0.223  74.083  1.00  0.00    -0.003 C 
ATOM     18  C   UNL     1      48.494  -1.430  75.007  1.00  0.00     0.004 C 
ENDBRANCH  16  17
ENDBRANCH  15  16
ENDBRANCH  14  15
ENDBRANCH  13  14
ENDBRANCH  12  13
ENDBRANCH  11  12
ENDBRANCH   1  11
TORSDOF 14
ENDMDL
MODEL 7
REMARK VINA RESULT:    -3.751      2.955      4.688
REMARK INTER + INTRA:          -8.972
REMARK INTER:                  -6.430
REMARK INTRA:                  -2.542
REMARK UNBOUND:                -2.152
REMARK SMILES CCCCCCCCCCCCCCCC(=O)[O-]
REMARK SMILES IDX 9 1 10 2 11 3 12 4 13 5 14 6 15 7 16 8 17 9 18 10 8 11 7 12
REMARK SMILES IDX 6 13 5 14 4 15 3 16 2 17 1 18
REMARK H PARENT
REMARK Flexibility Score: inf
ROOT
ATOM      1  C   UNL     1      47.927   0.028  72.806  1.00  0.00     0.000 C 
ENDROOT
BRANCH   1   2
ATOM      2  C   UNL     1      48.495  -0.157  74.222  1.00  0.00     0.000 C 
BRANCH   2   3
ATOM      3  C   UNL     1      47.702  -1.189  75.046  1.00  0.00     0.000 C 
BRANCH   3   4
ATOM      4  C   UNL     1      48.548  -1.793  76.187  1.00  0.00     0.000 C 
BRANCH   4   5
ATOM      5  C   UNL     1      49.975  -2.176  75.759  1.00  0.00     0.000 C 
BRANCH   5   6
ATOM      6  C   UNL     1      50.371  -3.592  76.196  1.00  0.00     0.006 C 
BRANCH   6   7
ATOM      7  C   UNL     1      49.863  -3.892  77.610  1.00  0.00     0.053 C 
BRANCH   7   8
ATOM      8  C   UNL     1      49.112  -5.186  77.632  1.00  0.00     0.041 C 
ATOM      9  O   UNL     1      48.796  -5.716  78.730  1.00  0.00    -0.550 OA
ATOM     10  O   UNL     1      48.804  -5.832  76.442  1.00  0.00    -0.550 OA
ENDBRANCH   7   8
ENDBRANCH   6   7
ENDBRANCH   5   6
ENDBRANCH   4   5
ENDBRANCH   3   4
ENDBRANCH   2   3
ENDBRANCH   1   2
BRANCH   1  11
ATOM     11  C   UNL     1      48.936  -0.367  71.712  1.00  0.00     0.000 C 
BRANCH  11  12
ATOM     12  C   UNL     1      50.396  -0.203  72.165  1.00  0.00    -0.000 C 
BRANCH  12  13
ATOM     13  C   UNL     1      51.115  -1.553  72.331  1.00  0.00    -0.000 C 
BRANCH  13  14
ATOM     14  C   UNL     1      50.279  -2.736  71.817  1.00  0.00    -0.000 C 
BRANCH  14  15
ATOM     15  C   UNL     1      50.702  -4.076  72.439  1.00  0.00    -0.000 C 
BRANCH  15  16
ATOM     16  C   UNL     1      49.477  -4.863  72.929  1.00  0.00    -0.000 C 
BRANCH  16  17
ATOM     17  C   UNL     1      48.161  -4.097  72.723  1.00  0.00    -0.003 C 
ATOM     18  C   UNL     1      47.054  -4.558  73.670  1.00  0.00     0.004 C 
ENDBRANCH  16  17
ENDBRANCH  15  16
ENDBRANCH  14  15
ENDBRANCH  13  14
ENDBRANCH  12  13
ENDBRANCH  11  12
ENDBRANCH   1  11
TORSDOF 14
ENDMDL
MODEL 8
REMARK VINA RESULT:    -3.702      1.539      2.298
REMARK INTER + INTRA:          -8.883
REMARK INTER:                  -7.129
REMARK INTRA:                  -1.754
REMARK UNBOUND:                -2.152
REMARK SMILES CCCCCCCCCCCCCCCC(=O)[O-]
REMARK SMILES IDX 9 1 10 2 11 3 12 4 13 5 14 6 15 7 16 8 17 9 18 10 8 11 7 12
REMARK SMILES IDX 6 13 5 14 4 15 3 16 2 17 1 18
REMARK H PARENT
REMARK Flexibility Score: inf
ROOT
ATOM      1  C   UNL     1      48.966   0.711  73.802  1.00  0.00     0.000 C 
ENDROOT
BRANCH   1   2
ATOM      2  C   UNL     1      47.875   0.376  72.774  1.00  0.00     0.000 C 
BRANCH   2   3
ATOM      3  C   UNL     1      48.388  -0.532  71.641  1.00  0.00     0.000 C 
BRANCH   3   4
ATOM      4  C   UNL     1      49.723  -1.215  72.005  1.00  0.00     0.000 C 
BRANCH   4   5
ATOM      5  C   UNL     1      49.619  -2.747  72.118  1.00  0.00     0.000 C 
BRANCH   5   6
ATOM      6  C   UNL     1      50.964  -3.415  72.435  1.00  0.00     0.006 C 
BRANCH   6   7
ATOM      7  C   UNL     1      51.909  -2.439  73.143  1.00  0.00     0.053 C 
BRANCH   7   8
ATOM      8  C   UNL     1      53.199  -2.325  72.394  1.00  0.00     0.041 C 
ATOM      9  O   UNL     1      54.050  -3.252  72.453  1.00  0.00    -0.550 OA
ATOM     10  O   UNL     1      53.485  -1.173  71.672  1.00  0.00    -0.550 OA
ENDBRANCH   7   8
ENDBRANCH   6   7
ENDBRANCH   5   6
ENDBRANCH   4   5
ENDBRANCH   3   4
ENDBRANCH   2   3
ENDBRANCH   1   2
BRANCH   1  11
ATOM     11  C   UNL     1      48.547   0.357  75.241  1.00  0.00     0.000 C 
BRANCH  11  12
ATOM     12  C   UNL     1      48.255  -1.141  75.422  1.00  0.00    -0.000 C 
BRANCH  12  13
ATOM     13  C   UNL     1      49.519  -1.951  75.758  1.00  0.00    -0.000 C 
BRANCH  13  14
ATOM     14  C   UNL     1      49.220  -3.438  76.009  1.00  0.00    -0.000 C 
BRANCH  14  15
ATOM     15  C   UNL     1      50.290  -4.121  76.873  1.00  0.00    -0.000 C 
BRANCH  15  16
ATOM     16  C   UNL     1      49.678  -4.668  78.172  1.00  0.00    -0.000 C 
BRANCH  16  17
ATOM     17  C   UNL     1      48.225  -5.133  77.990  1.00  0.00    -0.003 C 
ATOM     18  C   UNL     1      47.996  -6.563  78.480  1.00  0.00     0.004 C 
ENDBRANCH  16  17
ENDBRANCH  15  16
ENDBRANCH  14  15
ENDBRANCH  13  14
ENDBRANCH  12  13
ENDBRANCH  11  12
ENDBRANCH   1  11
TORSDOF 14
ENDMDL
MODEL 9
REMARK VINA RESULT:    -3.650      3.286      5.669
REMARK INTER + INTRA:          -8.789
REMARK INTER:                  -6.373
REMARK INTRA:                  -2.416
REMARK UNBOUND:                -2.152
REMARK SMILES CCCCCCCCCCCCCCCC(=O)[O-]
REMARK SMILES IDX 9 1 10 2 11 3 12 4 13 5 14 6 15 7 16 8 17 9 18 10 8 11 7 12
REMARK SMILES IDX 6 13 5 14 4 15 3 16 2 17 1 18
REMARK H PARENT
REMARK Flexibility Score: inf
ROOT
ATOM      1  C   UNL     1      47.419  -4.679  74.529  1.00  0.00     0.000 C 
ENDROOT
BRANCH   1   2
ATOM      2  C   UNL     1      47.124  -3.496  75.464  1.00  0.00     0.000 C 
BRANCH   2   3
ATOM      3  C   UNL     1      47.957  -2.248  75.119  1.00  0.00     0.000 C 
BRANCH   3   4
ATOM      4  C   UNL     1      48.960  -1.893  76.237  1.00  0.00     0.000 C 
BRANCH   4   5
ATOM      5  C   UNL     1      50.278  -2.682  76.153  1.00  0.00     0.000 C 
BRANCH   5   6
ATOM      6  C   UNL     1      50.404  -3.753  77.246  1.00  0.00     0.006 C 
BRANCH   6   7
ATOM      7  C   UNL     1      49.573  -3.381  78.477  1.00  0.00     0.053 C 
BRANCH   7   8
ATOM      8  C   UNL     1      50.464  -3.097  79.644  1.00  0.00     0.041 C 
ATOM      9  O   UNL     1      50.062  -2.362  80.585  1.00  0.00    -0.550 OA
ATOM     10  O   UNL     1      51.757  -3.603  79.671  1.00  0.00    -0.550 OA
ENDBRANCH   7   8
ENDBRANCH   6   7
ENDBRANCH   5   6
ENDBRANCH   4   5
ENDBRANCH   3   4
ENDBRANCH   2   3
ENDBRANCH   1   2
BRANCH   1  11
ATOM     11  C   UNL     1      47.465  -4.260  73.048  1.00  0.00     0.000 C 
BRANCH  11  12
ATOM     12  C   UNL     1      48.689  -4.824  72.309  1.00  0.00    -0.000 C 
BRANCH  12  13
ATOM     13  C   UNL     1      49.969  -4.764  73.160  1.00  0.00    -0.000 C 
BRANCH  13  14
ATOM     14  C   UNL     1      50.975  -3.723  72.642  1.00  0.00    -0.000 C 
BRANCH  14  15
ATOM     15  C   UNL     1      50.298  -2.570  71.885  1.00  0.00    -0.000 C 
BRANCH  15  16
ATOM     16  C   UNL     1      50.592  -1.223  72.563  1.00  0.00    -0.000 C 
BRANCH  16  17
ATOM     17  C   UNL     1      49.534  -0.157  72.241  1.00  0.00    -0.003 C 
ATOM     18  C   UNL     1      48.229  -0.757  71.718  1.00  0.00     0.004 C 
ENDBRANCH  16  17
ENDBRANCH  15  16
ENDBRANCH  14  15
ENDBRANCH  13  14
ENDBRANCH  12  13
ENDBRANCH  11  12
ENDBRANCH   1  11
TORSDOF 14
ENDMDL
