MODEL 1
REMARK VINA RESULT:    -4.104      0.000      0.000
REMARK INTER + INTRA:          -5.393
REMARK INTER:                  -5.063
REMARK INTRA:                  -0.330
REMARK UNBOUND:                -0.330
REMARK SMILES O=c1c(O)c(-c2cc(O)c(O)c(O)c2)oc2cc(O)cc(O)c12
REMARK SMILES IDX 5 1 3 2 2 3 1 4 23 5 21 6 20 7 18 8 17 9 16 10 15 11 6 12
REMARK SMILES IDX 7 13 8 14 14 15 10 16 12 17 9 18 11 20 13 22 4 24 22 26
REMARK SMILES IDX 19 28
REMARK H PARENT 9 19 11 21 13 23 4 25 22 27 19 29
REMARK Flexibility Score: inf
ROOT
ATOM      1  C   UNL     1     -12.496 -16.439  31.865  1.00  0.00     0.180 A 
ATOM      2  C   UNL     1     -13.120 -17.701  31.916  1.00  0.00     0.208 A 
ATOM      3  C   UNL     1     -13.170 -18.480  30.750  1.00  0.00     0.238 A 
ATOM      4  O   UNL     1     -13.715 -19.616  30.785  1.00  0.00    -0.285 OA
ATOM      5  C   UNL     1     -12.615 -17.980  29.552  1.00  0.00     0.111 A 
ATOM      6  C   UNL     1     -12.626 -18.701  28.334  1.00  0.00     0.134 A 
ATOM      7  C   UNL     1     -12.061 -18.130  27.183  1.00  0.00     0.093 A 
ATOM      8  C   UNL     1     -11.488 -16.857  27.228  1.00  0.00     0.123 A 
ATOM      9  C   UNL     1     -11.473 -16.141  28.429  1.00  0.00     0.094 A 
ATOM     10  C   UNL     1     -12.029 -16.693  29.587  1.00  0.00     0.146 A 
ATOM     11  O   UNL     1     -11.998 -15.994  30.716  1.00  0.00    -0.452 OA
ENDROOT
BRANCH   1  12
ATOM     12  C   UNL     1     -12.388 -15.566  33.057  1.00  0.00     0.029 A 
ATOM     13  C   UNL     1     -13.471 -14.781  33.487  1.00  0.00     0.062 A 
ATOM     14  C   UNL     1     -13.357 -13.978  34.631  1.00  0.00     0.162 A 
ATOM     15  C   UNL     1     -11.203 -15.565  33.806  1.00  0.00     0.062 A 
ATOM     16  C   UNL     1     -12.157 -13.966  35.363  1.00  0.00     0.200 A 
ATOM     17  C   UNL     1     -11.079 -14.767  34.947  1.00  0.00     0.162 A 
BRANCH  14  18
ATOM     18  O   UNL     1     -14.434 -13.197  35.046  1.00  0.00    -0.504 OA
ATOM     19  H   UNL     1     -14.300 -12.337  35.564  1.00  0.00     0.293 HD
ENDBRANCH  14  18
BRANCH  16  20
ATOM     20  O   UNL     1     -12.025 -13.169  36.501  1.00  0.00    -0.502 OA
ATOM     21  H   UNL     1     -11.480 -13.462  37.305  1.00  0.00     0.293 HD
ENDBRANCH  16  20
BRANCH  17  22
ATOM     22  O   UNL     1      -9.879 -14.783  35.656  1.00  0.00    -0.504 OA
ATOM     23  H   UNL     1      -9.191 -14.044  35.569  1.00  0.00     0.293 HD
ENDBRANCH  17  22
ENDBRANCH   1  12
BRANCH   2  24
ATOM     24  O   UNL     1     -13.706 -18.151  33.102  1.00  0.00    -0.502 OA
ATOM     25  H   UNL     1     -14.432 -17.631  33.579  1.00  0.00     0.293 HD
ENDBRANCH   2  24
BRANCH   6  26
ATOM     26  O   UNL     1     -13.193 -19.974  28.257  1.00  0.00    -0.507 OA
ATOM     27  H   UNL     1     -13.758 -20.259  27.465  1.00  0.00     0.293 HD
ENDBRANCH   6  26
BRANCH   8  28
ATOM     28  O   UNL     1     -10.934 -16.313  26.071  1.00  0.00    -0.508 OA
ATOM     29  H   UNL     1     -11.483 -15.744  25.438  1.00  0.00     0.293 HD
ENDBRANCH   8  28
TORSDOF 7
ENDMDL
MODEL 2
REMARK VINA RESULT:    -4.074      0.053      1.755
REMARK INTER + INTRA:          -5.357
REMARK INTER:                  -5.026
REMARK INTRA:                  -0.331
REMARK UNBOUND:                -0.330
REMARK SMILES O=c1c(O)c(-c2cc(O)c(O)c(O)c2)oc2cc(O)cc(O)c12
REMARK SMILES IDX 5 1 3 2 2 3 1 4 23 5 21 6 20 7 18 8 17 9 16 10 15 11 6 12
REMARK SMILES IDX 7 13 8 14 14 15 10 16 12 17 9 18 11 20 13 22 4 24 22 26
REMARK SMILES IDX 19 28
REMARK H PARENT 9 19 11 21 13 23 4 25 22 27 19 29
REMARK Flexibility Score: inf
ROOT
ATOM      1  C   UNL     1     -12.486 -16.481  31.900  1.00  0.00     0.180 A 
ATOM      2  C   UNL     1     -13.119 -17.739  31.928  1.00  0.00     0.208 A 
ATOM      3  C   UNL     1     -13.178 -18.494  30.747  1.00  0.00     0.238 A 
ATOM      4  O   UNL     1     -13.732 -19.627  30.761  1.00  0.00    -0.285 OA
ATOM      5  C   UNL     1     -12.624 -17.975  29.558  1.00  0.00     0.111 A 
ATOM      6  C   UNL     1     -12.644 -18.671  28.325  1.00  0.00     0.134 A 
ATOM      7  C   UNL     1     -12.079 -18.081  27.184  1.00  0.00     0.093 A 
ATOM      8  C   UNL     1     -11.496 -16.814  27.252  1.00  0.00     0.123 A 
ATOM      9  C   UNL     1     -11.472 -16.122  28.467  1.00  0.00     0.094 A 
ATOM     10  C   UNL     1     -12.029 -16.692  29.616  1.00  0.00     0.146 A 
ATOM     11  O   UNL     1     -11.989 -16.016  30.758  1.00  0.00    -0.452 OA
ENDROOT
BRANCH   1  12
ATOM     12  C   UNL     1     -12.368 -15.633  33.109  1.00  0.00     0.029 A 
ATOM     13  C   UNL     1     -11.171 -15.569  33.842  1.00  0.00     0.062 A 
ATOM     14  C   UNL     1     -11.070 -14.743  34.970  1.00  0.00     0.162 A 
ATOM     15  C   UNL     1     -13.451 -14.833  33.499  1.00  0.00     0.062 A 
ATOM     16  C   UNL     1     -12.169 -13.961  35.367  1.00  0.00     0.200 A 
ATOM     17  C   UNL     1     -13.360 -14.006  34.623  1.00  0.00     0.162 A 
BRANCH  14  18
ATOM     18  O   UNL     1      -9.880 -14.693  35.694  1.00  0.00    -0.504 OA
ATOM     19  H   UNL     1      -9.735 -15.262  36.519  1.00  0.00     0.293 HD
ENDBRANCH  14  18
BRANCH  16  20
ATOM     20  O   UNL     1     -12.087 -13.137  36.490  1.00  0.00    -0.502 OA
ATOM     21  H   UNL     1     -11.387 -12.409  36.576  1.00  0.00     0.293 HD
ENDBRANCH  16  20
BRANCH  17  22
ATOM     22  O   UNL     1     -14.465 -13.237  34.987  1.00  0.00    -0.504 OA
ATOM     23  H   UNL     1     -15.384 -13.642  35.121  1.00  0.00     0.293 HD
ENDBRANCH  17  22
ENDBRANCH   1  12
BRANCH   2  24
ATOM     24  O   UNL     1     -13.704 -18.209  33.106  1.00  0.00    -0.502 OA
ATOM     25  H   UNL     1     -14.122 -17.587  33.789  1.00  0.00     0.293 HD
ENDBRANCH   2  24
BRANCH   6  26
ATOM     26  O   UNL     1     -13.220 -19.938  28.225  1.00  0.00    -0.507 OA
ATOM     27  H   UNL     1     -13.844 -20.181  27.464  1.00  0.00     0.293 HD
ENDBRANCH   6  26
BRANCH   8  28
ATOM     28  O   UNL     1     -10.943 -16.251  26.104  1.00  0.00    -0.508 OA
ATOM     29  H   UNL     1     -11.092 -16.659  25.189  1.00  0.00     0.293 HD
ENDBRANCH   8  28
TORSDOF 7
ENDMDL
MODEL 3
REMARK VINA RESULT:    -3.751      1.532      2.353
REMARK INTER + INTRA:          -4.958
REMARK INTER:                  -5.019
REMARK INTRA:                   0.061
REMARK UNBOUND:                -0.330
REMARK SMILES O=c1c(O)c(-c2cc(O)c(O)c(O)c2)oc2cc(O)cc(O)c12
REMARK SMILES IDX 5 1 3 2 2 3 1 4 23 5 21 6 20 7 18 8 17 9 16 10 15 11 6 12
REMARK SMILES IDX 7 13 8 14 14 15 10 16 12 17 9 18 11 20 13 22 4 24 22 26
REMARK SMILES IDX 19 28
REMARK H PARENT 9 19 11 21 13 23 4 25 22 27 19 29
REMARK Flexibility Score: inf
ROOT
ATOM      1  C   UNL     1     -12.308 -15.913  32.031  1.00  0.00     0.180 A 
ATOM      2  C   UNL     1     -11.801 -17.213  31.837  1.00  0.00     0.208 A 
ATOM      3  C   UNL     1     -11.890 -17.793  30.563  1.00  0.00     0.238 A 
ATOM      4  O   UNL     1     -11.429 -18.952  30.374  1.00  0.00    -0.285 OA
ATOM      5  C   UNL     1     -12.499 -17.077  29.511  1.00  0.00     0.111 A 
ATOM      6  C   UNL     1     -12.632 -17.591  28.199  1.00  0.00     0.134 A 
ATOM      7  C   UNL     1     -13.259 -16.819  27.209  1.00  0.00     0.093 A 
ATOM      8  C   UNL     1     -13.756 -15.547  27.506  1.00  0.00     0.123 A 
ATOM      9  C   UNL     1     -13.626 -15.034  28.801  1.00  0.00     0.094 A 
ATOM     10  C   UNL     1     -13.003 -15.787  29.800  1.00  0.00     0.146 A 
ATOM     11  O   UNL     1     -12.890 -15.274  31.020  1.00  0.00    -0.452 OA
ENDROOT
BRANCH   1  12
ATOM     12  C   UNL     1     -12.235 -15.227  33.341  1.00  0.00     0.029 A 
ATOM     13  C   UNL     1     -11.081 -15.299  34.139  1.00  0.00     0.062 A 
ATOM     14  C   UNL     1     -11.022 -14.623  35.366  1.00  0.00     0.162 A 
ATOM     15  C   UNL     1     -13.315 -14.442  33.769  1.00  0.00     0.062 A 
ATOM     16  C   UNL     1     -12.118 -13.857  35.799  1.00  0.00     0.200 A 
ATOM     17  C   UNL     1     -13.265 -13.765  34.992  1.00  0.00     0.162 A 
BRANCH  14  18
ATOM     18  O   UNL     1      -9.875 -14.707  36.154  1.00  0.00    -0.504 OA
ATOM     19  H   UNL     1      -9.882 -15.167  37.056  1.00  0.00     0.293 HD
ENDBRANCH  14  18
BRANCH  16  20
ATOM     20  O   UNL     1     -12.078 -13.181  37.019  1.00  0.00    -0.502 OA
ATOM     21  H   UNL     1     -11.677 -13.596  37.853  1.00  0.00     0.293 HD
ENDBRANCH  16  20
BRANCH  17  22
ATOM     22  O   UNL     1     -14.366 -13.007  35.389  1.00  0.00    -0.504 OA
ATOM     23  H   UNL     1     -14.436 -12.601  36.315  1.00  0.00     0.293 HD
ENDBRANCH  17  22
ENDBRANCH   1  12
BRANCH   2  24
ATOM     24  O   UNL     1     -11.247 -17.920  32.907  1.00  0.00    -0.502 OA
ATOM     25  H   UNL     1     -11.707 -18.722  33.324  1.00  0.00     0.293 HD
ENDBRANCH   2  24
BRANCH   6  26
ATOM     26  O   UNL     1     -12.148 -18.858  27.871  1.00  0.00    -0.507 OA
ATOM     27  H   UNL     1     -12.770 -19.642  27.711  1.00  0.00     0.293 HD
ENDBRANCH   6  26
BRANCH   8  28
ATOM     28  O   UNL     1     -14.375 -14.802  26.506  1.00  0.00    -0.508 OA
ATOM     29  H   UNL     1     -14.460 -13.794  26.571  1.00  0.00     0.293 HD
ENDBRANCH   8  28
TORSDOF 7
ENDMDL
MODEL 4
REMARK VINA RESULT:    -3.567      1.529      1.560
REMARK INTER + INTRA:          -4.731
REMARK INTER:                  -4.852
REMARK INTRA:                   0.121
REMARK UNBOUND:                -0.330
REMARK SMILES O=c1c(O)c(-c2cc(O)c(O)c(O)c2)oc2cc(O)cc(O)c12
REMARK SMILES IDX 5 1 3 2 2 3 1 4 23 5 21 6 20 7 18 8 17 9 16 10 15 11 6 12
REMARK SMILES IDX 7 13 8 14 14 15 10 16 12 17 9 18 11 20 13 22 4 24 22 26
REMARK SMILES IDX 19 28
REMARK H PARENT 9 19 11 21 13 23 4 25 22 27 19 29
REMARK Flexibility Score: inf
ROOT
ATOM      1  C   UNL     1     -12.385 -15.865  31.975  1.00  0.00     0.180 A 
ATOM      2  C   UNL     1     -11.913 -17.180  31.795  1.00  0.00     0.208 A 
ATOM      3  C   UNL     1     -12.012 -17.768  30.524  1.00  0.00     0.238 A 
ATOM      4  O   UNL     1     -11.583 -18.940  30.348  1.00  0.00    -0.285 OA
ATOM      5  C   UNL     1     -12.595 -17.043  29.463  1.00  0.00     0.111 A 
ATOM      6  C   UNL     1     -12.735 -17.565  28.155  1.00  0.00     0.134 A 
ATOM      7  C   UNL     1     -13.336 -16.784  27.155  1.00  0.00     0.093 A 
ATOM      8  C   UNL     1     -13.798 -15.496  27.439  1.00  0.00     0.123 A 
ATOM      9  C   UNL     1     -13.661 -14.976  28.730  1.00  0.00     0.094 A 
ATOM     10  C   UNL     1     -13.065 -15.737  29.739  1.00  0.00     0.146 A 
ATOM     11  O   UNL     1     -12.943 -15.218  30.955  1.00  0.00    -0.452 OA
ENDROOT
BRANCH   1  12
ATOM     12  C   UNL     1     -12.300 -15.169  33.279  1.00  0.00     0.029 A 
ATOM     13  C   UNL     1     -13.376 -14.413  33.775  1.00  0.00     0.062 A 
ATOM     14  C   UNL     1     -13.285 -13.781  35.023  1.00  0.00     0.162 A 
ATOM     15  C   UNL     1     -11.146 -15.312  34.063  1.00  0.00     0.062 A 
ATOM     16  C   UNL     1     -12.116 -13.911  35.793  1.00  0.00     0.200 A 
ATOM     17  C   UNL     1     -11.046 -14.684  35.309  1.00  0.00     0.162 A 
BRANCH  14  18
ATOM     18  O   UNL     1     -14.355 -13.028  35.503  1.00  0.00    -0.504 OA
ATOM     19  H   UNL     1     -14.767 -12.281  34.957  1.00  0.00     0.293 HD
ENDBRANCH  14  18
BRANCH  16  20
ATOM     20  O   UNL     1     -12.007 -13.285  37.035  1.00  0.00    -0.502 OA
ATOM     21  H   UNL     1     -11.117 -12.972  37.406  1.00  0.00     0.293 HD
ENDBRANCH  16  20
BRANCH  17  22
ATOM     22  O   UNL     1      -9.877 -14.840  36.052  1.00  0.00    -0.504 OA
ATOM     23  H   UNL     1      -9.328 -15.691  36.023  1.00  0.00     0.293 HD
ENDBRANCH  17  22
ENDBRANCH   1  12
BRANCH   2  24
ATOM     24  O   UNL     1     -11.385 -17.893  32.873  1.00  0.00    -0.502 OA
ATOM     25  H   UNL     1     -11.111 -17.442  33.739  1.00  0.00     0.293 HD
ENDBRANCH   2  24
BRANCH   6  26
ATOM     26  O   UNL     1     -12.285 -18.847  27.840  1.00  0.00    -0.507 OA
ATOM     27  H   UNL     1     -11.485 -19.261  28.306  1.00  0.00     0.293 HD
ENDBRANCH   6  26
BRANCH   8  28
ATOM     28  O   UNL     1     -14.391 -14.742  26.429  1.00  0.00    -0.508 OA
ATOM     29  H   UNL     1     -15.035 -15.158  25.766  1.00  0.00     0.293 HD
ENDBRANCH   8  28
TORSDOF 7
ENDMDL
MODEL 5
REMARK VINA RESULT:    -3.289      1.667      7.201
REMARK INTER + INTRA:          -4.388
REMARK INTER:                  -4.277
REMARK INTRA:                  -0.112
REMARK UNBOUND:                -0.330
REMARK SMILES O=c1c(O)c(-c2cc(O)c(O)c(O)c2)oc2cc(O)cc(O)c12
REMARK SMILES IDX 5 1 3 2 2 3 1 4 23 5 21 6 20 7 18 8 17 9 16 10 15 11 6 12
REMARK SMILES IDX 7 13 8 14 14 15 10 16 12 17 9 18 11 20 13 22 4 24 22 26
REMARK SMILES IDX 19 28
REMARK H PARENT 9 19 11 21 13 23 4 25 22 27 19 29
REMARK Flexibility Score: inf
ROOT
ATOM      1  C   UNL     1     -12.960 -16.296  32.479  1.00  0.00     0.180 A 
ATOM      2  C   UNL     1     -14.075 -15.435  32.487  1.00  0.00     0.208 A 
ATOM      3  C   UNL     1     -14.127 -14.402  33.435  1.00  0.00     0.238 A 
ATOM      4  O   UNL     1     -15.114 -13.618  33.445  1.00  0.00    -0.285 OA
ATOM      5  C   UNL     1     -13.078 -14.257  34.368  1.00  0.00     0.111 A 
ATOM      6  C   UNL     1     -13.056 -13.245  35.357  1.00  0.00     0.134 A 
ATOM      7  C   UNL     1     -11.980 -13.173  36.255  1.00  0.00     0.093 A 
ATOM      8  C   UNL     1     -10.930 -14.092  36.183  1.00  0.00     0.123 A 
ATOM      9  C   UNL     1     -10.947 -15.094  35.208  1.00  0.00     0.094 A 
ATOM     10  C   UNL     1     -12.009 -15.181  34.303  1.00  0.00     0.146 A 
ATOM     11  O   UNL     1     -11.998 -16.139  33.383  1.00  0.00    -0.452 OA
ENDROOT
BRANCH   1  12
ATOM     12  C   UNL     1     -12.824 -17.398  31.499  1.00  0.00     0.029 A 
ATOM     13  C   UNL     1     -12.718 -18.736  31.915  1.00  0.00     0.062 A 
ATOM     14  C   UNL     1     -12.613 -19.768  30.971  1.00  0.00     0.162 A 
ATOM     15  C   UNL     1     -12.857 -17.110  30.127  1.00  0.00     0.062 A 
ATOM     16  C   UNL     1     -12.625 -19.468  29.598  1.00  0.00     0.200 A 
ATOM     17  C   UNL     1     -12.752 -18.132  29.179  1.00  0.00     0.162 A 
BRANCH  14  18
ATOM     18  O   UNL     1     -12.501 -21.091  31.395  1.00  0.00    -0.504 OA
ATOM     19  H   UNL     1     -12.600 -21.866  30.750  1.00  0.00     0.293 HD
ENDBRANCH  14  18
BRANCH  16  20
ATOM     20  O   UNL     1     -12.516 -20.482  28.646  1.00  0.00    -0.502 OA
ATOM     21  H   UNL     1     -12.053 -20.339  27.756  1.00  0.00     0.293 HD
ENDBRANCH  16  20
BRANCH  17  22
ATOM     22  O   UNL     1     -12.775 -17.802  27.824  1.00  0.00    -0.504 OA
ATOM     23  H   UNL     1     -11.987 -17.365  27.362  1.00  0.00     0.293 HD
ENDBRANCH  17  22
ENDBRANCH   1  12
BRANCH   2  24
ATOM     24  O   UNL     1     -15.123 -15.630  31.584  1.00  0.00    -0.502 OA
ATOM     25  H   UNL     1     -16.088 -15.715  31.883  1.00  0.00     0.293 HD
ENDBRANCH   2  24
BRANCH   6  26
ATOM     26  O   UNL     1     -14.090 -12.313  35.455  1.00  0.00    -0.507 OA
ATOM     27  H   UNL     1     -14.796 -12.374  36.180  1.00  0.00     0.293 HD
ENDBRANCH   6  26
BRANCH   8  28
ATOM     28  O   UNL     1      -9.875 -14.000  37.088  1.00  0.00    -0.508 OA
ATOM     29  H   UNL     1      -9.098 -14.649  37.063  1.00  0.00     0.293 HD
ENDBRANCH   8  28
TORSDOF 7
ENDMDL
MODEL 6
REMARK VINA RESULT:    -3.223      1.637      7.115
REMARK INTER + INTRA:          -4.307
REMARK INTER:                  -4.151
REMARK INTRA:                  -0.156
REMARK UNBOUND:                -0.330
REMARK SMILES O=c1c(O)c(-c2cc(O)c(O)c(O)c2)oc2cc(O)cc(O)c12
REMARK SMILES IDX 5 1 3 2 2 3 1 4 23 5 21 6 20 7 18 8 17 9 16 10 15 11 6 12
REMARK SMILES IDX 7 13 8 14 14 15 10 16 12 17 9 18 11 20 13 22 4 24 22 26
REMARK SMILES IDX 19 28
REMARK H PARENT 9 19 11 21 13 23 4 25 22 27 19 29
REMARK Flexibility Score: inf
ROOT
ATOM      1  C   UNL     1     -12.998 -16.355  32.380  1.00  0.00     0.180 A 
ATOM      2  C   UNL     1     -14.085 -15.459  32.392  1.00  0.00     0.208 A 
ATOM      3  C   UNL     1     -14.111 -14.437  33.354  1.00  0.00     0.238 A 
ATOM      4  O   UNL     1     -15.072 -13.622  33.368  1.00  0.00    -0.285 OA
ATOM      5  C   UNL     1     -13.065 -14.339  34.296  1.00  0.00     0.111 A 
ATOM      6  C   UNL     1     -13.018 -13.341  35.299  1.00  0.00     0.134 A 
ATOM      7  C   UNL     1     -11.947 -13.317  36.206  1.00  0.00     0.093 A 
ATOM      8  C   UNL     1     -10.927 -14.268  36.129  1.00  0.00     0.123 A 
ATOM      9  C   UNL     1     -10.968 -15.255  35.139  1.00  0.00     0.094 A 
ATOM     10  C   UNL     1     -12.026 -15.296  34.226  1.00  0.00     0.146 A 
ATOM     11  O   UNL     1     -12.038 -16.242  33.293  1.00  0.00    -0.452 OA
ENDROOT
BRANCH   1  12
ATOM     12  C   UNL     1     -12.890 -17.447  31.386  1.00  0.00     0.029 A 
ATOM     13  C   UNL     1     -12.868 -17.180  30.007  1.00  0.00     0.062 A 
ATOM     14  C   UNL     1     -12.741 -18.226  29.081  1.00  0.00     0.162 A 
ATOM     15  C   UNL     1     -12.749 -18.770  31.828  1.00  0.00     0.062 A 
ATOM     16  C   UNL     1     -12.623 -19.552  29.533  1.00  0.00     0.200 A 
ATOM     17  C   UNL     1     -12.623 -19.820  30.912  1.00  0.00     0.162 A 
BRANCH  14  18
ATOM     18  O   UNL     1     -12.727 -17.950  27.715  1.00  0.00    -0.504 OA
ATOM     19  H   UNL     1     -12.456 -17.042  27.358  1.00  0.00     0.293 HD
ENDBRANCH  14  18
BRANCH  16  20
ATOM     20  O   UNL     1     -12.501 -20.605  28.625  1.00  0.00    -0.502 OA
ATOM     21  H   UNL     1     -12.882 -21.525  28.812  1.00  0.00     0.293 HD
ENDBRANCH  16  20
BRANCH  17  22
ATOM     22  O   UNL     1     -12.499 -21.124  31.392  1.00  0.00    -0.504 OA
ATOM     23  H   UNL     1     -12.942 -21.911  30.933  1.00  0.00     0.293 HD
ENDBRANCH  17  22
ENDBRANCH   1  12
BRANCH   2  24
ATOM     24  O   UNL     1     -15.132 -15.608  31.479  1.00  0.00    -0.502 OA
ATOM     25  H   UNL     1     -15.413 -14.864  30.851  1.00  0.00     0.293 HD
ENDBRANCH   2  24
BRANCH   6  26
ATOM     26  O   UNL     1     -14.022 -12.378  35.403  1.00  0.00    -0.507 OA
ATOM     27  H   UNL     1     -14.999 -12.608  35.259  1.00  0.00     0.293 HD
ENDBRANCH   6  26
BRANCH   8  28
ATOM     28  O   UNL     1      -9.876 -14.221  37.042  1.00  0.00    -0.508 OA
ATOM     29  H   UNL     1     -10.042 -14.131  38.037  1.00  0.00     0.293 HD
ENDBRANCH   8  28
TORSDOF 7
ENDMDL
MODEL 7
REMARK VINA RESULT:    -3.047      1.652      2.888
REMARK INTER + INTRA:          -4.090
REMARK INTER:                  -3.954
REMARK INTRA:                  -0.135
REMARK UNBOUND:                -0.330
REMARK SMILES O=c1c(O)c(-c2cc(O)c(O)c(O)c2)oc2cc(O)cc(O)c12
REMARK SMILES IDX 5 1 3 2 2 3 1 4 23 5 21 6 20 7 18 8 17 9 16 10 15 11 6 12
REMARK SMILES IDX 7 13 8 14 14 15 10 16 12 17 9 18 11 20 13 22 4 24 22 26
REMARK SMILES IDX 19 28
REMARK H PARENT 9 19 11 21 13 23 4 25 22 27 19 29
REMARK Flexibility Score: inf
ROOT
ATOM      1  C   UNL     1     -12.687 -16.187  32.362  1.00  0.00     0.180 A 
ATOM      2  C   UNL     1     -13.052 -15.714  31.087  1.00  0.00     0.208 A 
ATOM      3  C   UNL     1     -13.231 -16.637  30.046  1.00  0.00     0.238 A 
ATOM      4  O   UNL     1     -13.569 -16.227  28.903  1.00  0.00    -0.285 OA
ATOM      5  C   UNL     1     -13.025 -18.012  30.289  1.00  0.00     0.111 A 
ATOM      6  C   UNL     1     -13.181 -19.006  29.294  1.00  0.00     0.134 A 
ATOM      7  C   UNL     1     -12.948 -20.353  29.614  1.00  0.00     0.093 A 
ATOM      8  C   UNL     1     -12.562 -20.722  30.905  1.00  0.00     0.123 A 
ATOM      9  C   UNL     1     -12.407 -19.744  31.892  1.00  0.00     0.094 A 
ATOM     10  C   UNL     1     -12.636 -18.397  31.594  1.00  0.00     0.146 A 
ATOM     11  O   UNL     1     -12.486 -17.488  32.551  1.00  0.00    -0.452 OA
ENDROOT
BRANCH   1  12
ATOM     12  C   UNL     1     -12.497 -15.278  33.515  1.00  0.00     0.029 A 
ATOM     13  C   UNL     1     -13.522 -14.416  33.942  1.00  0.00     0.062 A 
ATOM     14  C   UNL     1     -13.332 -13.579  35.051  1.00  0.00     0.162 A 
ATOM     15  C   UNL     1     -11.293 -15.315  34.232  1.00  0.00     0.062 A 
ATOM     16  C   UNL     1     -12.112 -13.607  35.750  1.00  0.00     0.200 A 
ATOM     17  C   UNL     1     -11.093 -14.483  35.338  1.00  0.00     0.162 A 
BRANCH  14  18
ATOM     18  O   UNL     1     -14.352 -12.723  35.462  1.00  0.00    -0.504 OA
ATOM     19  H   UNL     1     -14.259 -11.717  35.402  1.00  0.00     0.293 HD
ENDBRANCH  14  18
BRANCH  16  20
ATOM     20  O   UNL     1     -11.904 -12.777  36.852  1.00  0.00    -0.502 OA
ATOM     21  H   UNL     1     -11.880 -13.134  37.800  1.00  0.00     0.293 HD
ENDBRANCH  16  20
BRANCH  17  22
ATOM     22  O   UNL     1      -9.876 -14.540  36.016  1.00  0.00    -0.504 OA
ATOM     23  H   UNL     1      -9.038 -14.099  35.656  1.00  0.00     0.293 HD
ENDBRANCH  17  22
ENDBRANCH   1  12
BRANCH   2  24
ATOM     24  O   UNL     1     -13.202 -14.343  30.860  1.00  0.00    -0.502 OA
ATOM     25  H   UNL     1     -12.691 -13.855  30.133  1.00  0.00     0.293 HD
ENDBRANCH   2  24
BRANCH   6  26
ATOM     26  O   UNL     1     -13.564 -18.670  27.995  1.00  0.00    -0.507 OA
ATOM     27  H   UNL     1     -13.169 -19.134  27.186  1.00  0.00     0.293 HD
ENDBRANCH   6  26
BRANCH   8  28
ATOM     28  O   UNL     1     -12.336 -22.065  31.195  1.00  0.00    -0.508 OA
ATOM     29  H   UNL     1     -12.261 -22.396  32.150  1.00  0.00     0.293 HD
ENDBRANCH   8  28
TORSDOF 7
ENDMDL
MODEL 8
REMARK VINA RESULT:    -2.306      1.747      7.040
REMARK INTER + INTRA:          -3.175
REMARK INTER:                  -3.371
REMARK INTRA:                   0.196
REMARK UNBOUND:                -0.330
REMARK SMILES O=c1c(O)c(-c2cc(O)c(O)c(O)c2)oc2cc(O)cc(O)c12
REMARK SMILES IDX 5 1 3 2 2 3 1 4 23 5 21 6 20 7 18 8 17 9 16 10 15 11 6 12
REMARK SMILES IDX 7 13 8 14 14 15 10 16 12 17 9 18 11 20 13 22 4 24 22 26
REMARK SMILES IDX 19 28
REMARK H PARENT 9 19 11 21 13 23 4 25 22 27 19 29
REMARK Flexibility Score: inf
ROOT
ATOM      1  C   UNL     1     -12.411 -15.788  31.524  1.00  0.00     0.180 A 
ATOM      2  C   UNL     1     -11.256 -16.369  32.083  1.00  0.00     0.208 A 
ATOM      3  C   UNL     1     -10.901 -16.039  33.400  1.00  0.00     0.238 A 
ATOM      4  O   UNL     1      -9.876 -16.561  33.915  1.00  0.00    -0.285 OA
ATOM      5  C   UNL     1     -11.689 -15.123  34.127  1.00  0.00     0.111 A 
ATOM      6  C   UNL     1     -11.398 -14.734  35.457  1.00  0.00     0.134 A 
ATOM      7  C   UNL     1     -12.228 -13.810  36.109  1.00  0.00     0.093 A 
ATOM      8  C   UNL     1     -13.339 -13.267  35.459  1.00  0.00     0.123 A 
ATOM      9  C   UNL     1     -13.632 -13.648  34.145  1.00  0.00     0.094 A 
ATOM     10  C   UNL     1     -12.819 -14.569  33.479  1.00  0.00     0.146 A 
ATOM     11  O   UNL     1     -13.122 -14.917  32.234  1.00  0.00    -0.452 OA
ENDROOT
BRANCH   1  12
ATOM     12  C   UNL     1     -12.862 -16.100  30.148  1.00  0.00     0.029 A 
ATOM     13  C   UNL     1     -13.414 -15.110  29.319  1.00  0.00     0.062 A 
ATOM     14  C   UNL     1     -13.814 -15.419  28.011  1.00  0.00     0.162 A 
ATOM     15  C   UNL     1     -12.684 -17.395  29.641  1.00  0.00     0.062 A 
ATOM     16  C   UNL     1     -13.653 -16.725  27.518  1.00  0.00     0.200 A 
ATOM     17  C   UNL     1     -13.081 -17.713  28.338  1.00  0.00     0.162 A 
BRANCH  14  18
ATOM     18  O   UNL     1     -14.367 -14.430  27.198  1.00  0.00    -0.504 OA
ATOM     19  H   UNL     1     -15.218 -13.944  27.456  1.00  0.00     0.293 HD
ENDBRANCH  14  18
BRANCH  16  20
ATOM     20  O   UNL     1     -14.049 -17.051  26.221  1.00  0.00    -0.502 OA
ATOM     21  H   UNL     1     -13.524 -16.758  25.405  1.00  0.00     0.293 HD
ENDBRANCH  16  20
BRANCH  17  22
ATOM     22  O   UNL     1     -12.899 -19.016  27.876  1.00  0.00    -0.504 OA
ATOM     23  H   UNL     1     -12.673 -19.783  28.498  1.00  0.00     0.293 HD
ENDBRANCH  17  22
ENDBRANCH   1  12
BRANCH   2  24
ATOM     24  O   UNL     1     -10.465 -17.236  31.325  1.00  0.00    -0.502 OA
ATOM     25  H   UNL     1     -10.235 -17.051  30.355  1.00  0.00     0.293 HD
ENDBRANCH   2  24
BRANCH   6  26
ATOM     26  O   UNL     1     -10.295 -15.257  36.133  1.00  0.00    -0.507 OA
ATOM     27  H   UNL     1     -10.397 -15.954  36.862  1.00  0.00     0.293 HD
ENDBRANCH   6  26
BRANCH   8  28
ATOM     28  O   UNL     1     -14.145 -12.350  36.129  1.00  0.00    -0.508 OA
ATOM     29  H   UNL     1     -15.038 -12.055  35.752  1.00  0.00     0.293 HD
ENDBRANCH   8  28
TORSDOF 7
ENDMDL
