MODEL 1
REMARK VINA RESULT:    -3.463      0.000      0.000
REMARK INTER + INTRA:          -4.021
REMARK INTER:                  -3.969
REMARK INTRA:                  -0.052
REMARK UNBOUND:                -0.052
REMARK SMILES O=C([O-])c1cc(O)c(O)c(O)c1
REMARK SMILES IDX 4 1 5 2 12 3 6 4 10 5 8 6 2 7 1 8 3 9 7 10 11 12 9 14
REMARK H PARENT 7 11 11 13 9 15
REMARK Flexibility Score: inf
ROOT
ATOM      1  C   UNL     1      -8.584  -7.509   3.089  1.00  0.00     0.005 A 
ATOM      2  C   UNL     1      -8.275  -6.139   3.054  1.00  0.00     0.060 A 
ATOM      3  C   UNL     1      -8.942  -8.096   4.314  1.00  0.00     0.060 A 
ATOM      4  C   UNL     1      -8.322  -5.366   4.222  1.00  0.00     0.162 A 
ATOM      5  C   UNL     1      -8.993  -7.332   5.485  1.00  0.00     0.162 A 
ATOM      6  C   UNL     1      -8.683  -5.962   5.443  1.00  0.00     0.200 A 
ENDROOT
BRANCH   1   7
ATOM      7  C   UNL     1      -8.530  -8.319   1.851  1.00  0.00     0.072 C 
ATOM      8  O   UNL     1      -9.179  -9.395   1.761  1.00  0.00    -0.545 OA
ATOM      9  O   UNL     1      -7.764  -7.902   0.769  1.00  0.00    -0.545 OA
ENDBRANCH   1   7
BRANCH   4  10
ATOM     10  O   UNL     1      -8.014  -4.008   4.174  1.00  0.00    -0.504 OA
ATOM     11  H   UNL     1      -7.056  -3.680   4.166  1.00  0.00     0.293 HD
ENDBRANCH   4  10
BRANCH   5  12
ATOM     12  O   UNL     1      -9.353  -7.953   6.681  1.00  0.00    -0.504 OA
ATOM     13  H   UNL     1     -10.304  -7.942   7.029  1.00  0.00     0.293 HD
ENDBRANCH   5  12
BRANCH   6  14
ATOM     14  O   UNL     1      -8.736  -5.207   6.616  1.00  0.00    -0.502 OA
ATOM     15  H   UNL     1      -8.938  -5.623   7.516  1.00  0.00     0.293 HD
ENDBRANCH   6  14
TORSDOF 4
ENDMDL
MODEL 2
REMARK VINA RESULT:    -3.449      0.945      2.527
REMARK INTER + INTRA:          -4.005
REMARK INTER:                  -3.953
REMARK INTRA:                  -0.052
REMARK UNBOUND:                -0.052
REMARK SMILES O=C([O-])c1cc(O)c(O)c(O)c1
REMARK SMILES IDX 4 1 5 2 12 3 6 4 10 5 8 6 2 7 1 8 3 9 7 10 11 12 9 14
REMARK H PARENT 7 11 11 13 9 15
REMARK Flexibility Score: inf
ROOT
ATOM      1  C   UNL     1      -8.715  -7.791   2.719  1.00  0.00     0.005 A 
ATOM      2  C   UNL     1      -9.578  -8.424   3.629  1.00  0.00     0.060 A 
ATOM      3  C   UNL     1      -8.244  -6.500   3.012  1.00  0.00     0.060 A 
ATOM      4  C   UNL     1      -9.967  -7.780   4.812  1.00  0.00     0.162 A 
ATOM      5  C   UNL     1      -8.625  -5.850   4.190  1.00  0.00     0.162 A 
ATOM      6  C   UNL     1      -9.490  -6.488   5.097  1.00  0.00     0.200 A 
ENDROOT
BRANCH   1   7
ATOM      7  C   UNL     1      -8.311  -8.477   1.472  1.00  0.00     0.072 C 
ATOM      8  O   UNL     1      -8.508  -9.712   1.327  1.00  0.00    -0.545 OA
ATOM      9  O   UNL     1      -7.709  -7.766   0.440  1.00  0.00    -0.545 OA
ENDBRANCH   1   7
BRANCH   4  10
ATOM     10  O   UNL     1     -10.823  -8.419   5.706  1.00  0.00    -0.504 OA
ATOM     11  H   UNL     1     -10.570  -9.292   6.154  1.00  0.00     0.293 HD
ENDBRANCH   4  10
BRANCH   5  12
ATOM     12  O   UNL     1      -8.136  -4.568   4.444  1.00  0.00    -0.504 OA
ATOM     13  H   UNL     1      -7.156  -4.335   4.339  1.00  0.00     0.293 HD
ENDBRANCH   5  12
BRANCH   6  14
ATOM     14  O   UNL     1      -9.865  -5.833   6.270  1.00  0.00    -0.502 OA
ATOM     15  H   UNL     1      -9.452  -4.952   6.551  1.00  0.00     0.293 HD
ENDBRANCH   6  14
TORSDOF 4
ENDMDL
MODEL 3
REMARK VINA RESULT:    -3.371     11.213     12.702
REMARK INTER + INTRA:          -3.915
REMARK INTER:                  -3.863
REMARK INTRA:                  -0.052
REMARK UNBOUND:                -0.052
REMARK SMILES O=C([O-])c1cc(O)c(O)c(O)c1
REMARK SMILES IDX 4 1 5 2 12 3 6 4 10 5 8 6 2 7 1 8 3 9 7 10 11 12 9 14
REMARK H PARENT 7 11 11 13 9 15
REMARK Flexibility Score: inf
ROOT
ATOM      1  C   UNL     1       0.552  -0.404   8.384  1.00  0.00     0.005 A 
ATOM      2  C   UNL     1       1.798  -0.233   9.009  1.00  0.00     0.060 A 
ATOM      3  C   UNL     1       0.081  -1.707   8.148  1.00  0.00     0.060 A 
ATOM      4  C   UNL     1       2.564  -1.343   9.391  1.00  0.00     0.162 A 
ATOM      5  C   UNL     1       0.838  -2.820   8.527  1.00  0.00     0.162 A 
ATOM      6  C   UNL     1       2.085  -2.642   9.152  1.00  0.00     0.200 A 
ENDROOT
BRANCH   1   7
ATOM      7  C   UNL     1      -0.250   0.772   7.982  1.00  0.00     0.072 C 
ATOM      8  O   UNL     1      -1.483   0.659   7.750  1.00  0.00    -0.545 OA
ATOM      9  O   UNL     1       0.346   2.022   7.856  1.00  0.00    -0.545 OA
ENDBRANCH   1   7
BRANCH   4  10
ATOM     10  O   UNL     1       3.799  -1.159  10.011  1.00  0.00    -0.504 OA
ATOM     11  H   UNL     1       4.366  -1.944  10.309  1.00  0.00     0.293 HD
ENDBRANCH   4  10
BRANCH   5  12
ATOM     12  O   UNL     1       0.336  -4.097   8.275  1.00  0.00    -0.504 OA
ATOM     13  H   UNL     1      -0.618  -4.354   8.497  1.00  0.00     0.293 HD
ENDBRANCH   5  12
BRANCH   6  14
ATOM     14  O   UNL     1       2.834  -3.758   9.526  1.00  0.00    -0.502 OA
ATOM     15  H   UNL     1       3.804  -3.687   9.807  1.00  0.00     0.293 HD
ENDBRANCH   6  14
TORSDOF 4
ENDMDL
MODEL 4
REMARK VINA RESULT:    -3.370     11.223     12.828
REMARK INTER + INTRA:          -3.915
REMARK INTER:                  -3.863
REMARK INTRA:                  -0.052
REMARK UNBOUND:                -0.052
REMARK SMILES O=C([O-])c1cc(O)c(O)c(O)c1
REMARK SMILES IDX 4 1 5 2 12 3 6 4 10 5 8 6 2 7 1 8 3 9 7 10 11 12 9 14
REMARK H PARENT 7 11 11 13 9 15
REMARK Flexibility Score: inf
ROOT
ATOM      1  C   UNL     1       0.558  -0.399   8.386  1.00  0.00     0.005 A 
ATOM      2  C   UNL     1       0.086  -1.700   8.152  1.00  0.00     0.060 A 
ATOM      3  C   UNL     1       1.805  -0.227   9.009  1.00  0.00     0.060 A 
ATOM      4  C   UNL     1       0.845  -2.815   8.534  1.00  0.00     0.162 A 
ATOM      5  C   UNL     1       2.570  -1.334   9.393  1.00  0.00     0.162 A 
ATOM      6  C   UNL     1       2.092  -2.635   9.157  1.00  0.00     0.200 A 
ENDROOT
BRANCH   1   7
ATOM      7  C   UNL     1      -0.250   0.773   7.981  1.00  0.00     0.072 C 
ATOM      8  O   UNL     1      -1.482   0.652   7.747  1.00  0.00    -0.545 OA
ATOM      9  O   UNL     1       0.340   2.025   7.855  1.00  0.00    -0.545 OA
ENDBRANCH   1   7
BRANCH   4  10
ATOM     10  O   UNL     1       0.365  -4.102   8.296  1.00  0.00    -0.504 OA
ATOM     11  H   UNL     1      -0.572  -4.264   7.944  1.00  0.00     0.293 HD
ENDBRANCH   4  10
BRANCH   5  12
ATOM     12  O   UNL     1       3.803  -1.122  10.010  1.00  0.00    -0.504 OA
ATOM     13  H   UNL     1       4.679  -1.205   9.508  1.00  0.00     0.293 HD
ENDBRANCH   5  12
BRANCH   6  14
ATOM     14  O   UNL     1       2.861  -3.733   9.543  1.00  0.00    -0.502 OA
ATOM     15  H   UNL     1       2.966  -4.003  10.513  1.00  0.00     0.293 HD
ENDBRANCH   6  14
TORSDOF 4
ENDMDL
MODEL 5
REMARK VINA RESULT:    -3.349      2.004      4.868
REMARK INTER + INTRA:          -3.890
REMARK INTER:                  -3.845
REMARK INTRA:                  -0.045
REMARK UNBOUND:                -0.052
REMARK SMILES O=C([O-])c1cc(O)c(O)c(O)c1
REMARK SMILES IDX 4 1 5 2 12 3 6 4 10 5 8 6 2 7 1 8 3 9 7 10 11 12 9 14
REMARK H PARENT 7 11 11 13 9 15
REMARK Flexibility Score: inf
ROOT
ATOM      1  C   UNL     1      -9.836  -6.113   6.464  1.00  0.00     0.005 A 
ATOM      2  C   UNL     1     -10.511  -6.784   5.431  1.00  0.00     0.060 A 
ATOM      3  C   UNL     1      -8.559  -5.583   6.213  1.00  0.00     0.060 A 
ATOM      4  C   UNL     1      -9.921  -6.928   4.167  1.00  0.00     0.162 A 
ATOM      5  C   UNL     1      -7.963  -5.721   4.955  1.00  0.00     0.162 A 
ATOM      6  C   UNL     1      -8.642  -6.395   3.926  1.00  0.00     0.200 A 
ENDROOT
BRANCH   1   7
ATOM      7  C   UNL     1     -10.466  -5.966   7.795  1.00  0.00     0.072 C 
ATOM      8  O   UNL     1     -10.904  -4.849   8.178  1.00  0.00    -0.545 OA
ATOM      9  O   UNL     1     -10.583  -7.062   8.643  1.00  0.00    -0.545 OA
ENDBRANCH   1   7
BRANCH   4  10
ATOM     10  O   UNL     1     -10.600  -7.596   3.151  1.00  0.00    -0.504 OA
ATOM     11  H   UNL     1     -10.412  -7.409   2.173  1.00  0.00     0.293 HD
ENDBRANCH   4  10
BRANCH   5  12
ATOM     12  O   UNL     1      -6.693  -5.183   4.747  1.00  0.00    -0.504 OA
ATOM     13  H   UNL     1      -6.029  -5.601   4.107  1.00  0.00     0.293 HD
ENDBRANCH   5  12
BRANCH   6  14
ATOM     14  O   UNL     1      -8.041  -6.528   2.674  1.00  0.00    -0.502 OA
ATOM     15  H   UNL     1      -8.140  -5.827   1.951  1.00  0.00     0.293 HD
ENDBRANCH   6  14
TORSDOF 4
ENDMDL
MODEL 6
REMARK VINA RESULT:    -3.342      2.112      4.625
REMARK INTER + INTRA:          -3.882
REMARK INTER:                  -3.830
REMARK INTRA:                  -0.052
REMARK UNBOUND:                -0.052
REMARK SMILES O=C([O-])c1cc(O)c(O)c(O)c1
REMARK SMILES IDX 4 1 5 2 12 3 6 4 10 5 8 6 2 7 1 8 3 9 7 10 11 12 9 14
REMARK H PARENT 7 11 11 13 9 15
REMARK Flexibility Score: inf
ROOT
ATOM      1  C   UNL     1      -9.291  -5.686   6.539  1.00  0.00     0.005 A 
ATOM      2  C   UNL     1      -7.981  -5.367   6.145  1.00  0.00     0.060 A 
ATOM      3  C   UNL     1     -10.116  -6.394   5.649  1.00  0.00     0.060 A 
ATOM      4  C   UNL     1      -7.501  -5.745   4.884  1.00  0.00     0.162 A 
ATOM      5  C   UNL     1      -9.646  -6.777   4.389  1.00  0.00     0.162 A 
ATOM      6  C   UNL     1      -8.334  -6.454   4.000  1.00  0.00     0.200 A 
ENDROOT
BRANCH   1   7
ATOM      7  C   UNL     1      -9.790  -5.282   7.872  1.00  0.00     0.072 C 
ATOM      8  O   UNL     1     -11.025  -5.281   8.120  1.00  0.00    -0.545 OA
ATOM      9  O   UNL     1      -8.902  -4.899   8.870  1.00  0.00    -0.545 OA
ENDBRANCH   1   7
BRANCH   4  10
ATOM     10  O   UNL     1      -6.199  -5.422   4.506  1.00  0.00    -0.504 OA
ATOM     11  H   UNL     1      -5.413  -5.567   5.128  1.00  0.00     0.293 HD
ENDBRANCH   4  10
BRANCH   5  12
ATOM     12  O   UNL     1     -10.497  -7.478   3.534  1.00  0.00    -0.504 OA
ATOM     13  H   UNL     1     -10.685  -7.169   2.588  1.00  0.00     0.293 HD
ENDBRANCH   5  12
BRANCH   6  14
ATOM     14  O   UNL     1      -7.873  -6.839   2.741  1.00  0.00    -0.502 OA
ATOM     15  H   UNL     1      -6.896  -6.774   2.481  1.00  0.00     0.293 HD
ENDBRANCH   6  14
TORSDOF 4
ENDMDL
MODEL 7
REMARK VINA RESULT:    -3.326     11.668     13.167
REMARK INTER + INTRA:          -3.864
REMARK INTER:                  -3.811
REMARK INTRA:                  -0.053
REMARK UNBOUND:                -0.052
REMARK SMILES O=C([O-])c1cc(O)c(O)c(O)c1
REMARK SMILES IDX 4 1 5 2 12 3 6 4 10 5 8 6 2 7 1 8 3 9 7 10 11 12 9 14
REMARK H PARENT 7 11 11 13 9 15
REMARK Flexibility Score: inf
ROOT
ATOM      1  C   UNL     1       1.523  -1.247   8.840  1.00  0.00     0.005 A 
ATOM      2  C   UNL     1       0.310  -0.946   8.200  1.00  0.00     0.060 A 
ATOM      3  C   UNL     1       2.361  -0.194   9.242  1.00  0.00     0.060 A 
ATOM      4  C   UNL     1      -0.063   0.384   7.964  1.00  0.00     0.162 A 
ATOM      5  C   UNL     1       1.997   1.137   9.011  1.00  0.00     0.162 A 
ATOM      6  C   UNL     1       0.782   1.432   8.370  1.00  0.00     0.200 A 
ENDROOT
BRANCH   1   7
ATOM      7  C   UNL     1       1.910  -2.655   9.084  1.00  0.00     0.072 C 
ATOM      8  O   UNL     1       1.198  -3.599   8.652  1.00  0.00    -0.545 OA
ATOM      9  O   UNL     1       3.067  -2.954   9.794  1.00  0.00    -0.545 OA
ENDBRANCH   1   7
BRANCH   4  10
ATOM     10  O   UNL     1      -1.270   0.669   7.328  1.00  0.00    -0.504 OA
ATOM     11  H   UNL     1      -1.367   1.458   6.700  1.00  0.00     0.293 HD
ENDBRANCH   4  10
BRANCH   5  12
ATOM     12  O   UNL     1       2.858   2.154   9.426  1.00  0.00    -0.504 OA
ATOM     13  H   UNL     1       2.517   3.012   9.842  1.00  0.00     0.293 HD
ENDBRANCH   5  12
BRANCH   6  14
ATOM     14  O   UNL     1       0.426   2.762   8.144  1.00  0.00    -0.502 OA
ATOM     15  H   UNL     1       1.097   3.518   8.209  1.00  0.00     0.293 HD
ENDBRANCH   6  14
TORSDOF 4
ENDMDL
MODEL 8
REMARK VINA RESULT:    -3.323     11.355     12.736
REMARK INTER + INTRA:          -3.860
REMARK INTER:                  -3.807
REMARK INTRA:                  -0.053
REMARK UNBOUND:                -0.052
REMARK SMILES O=C([O-])c1cc(O)c(O)c(O)c1
REMARK SMILES IDX 4 1 5 2 12 3 6 4 10 5 8 6 2 7 1 8 3 9 7 10 11 12 9 14
REMARK H PARENT 7 11 11 13 9 15
REMARK Flexibility Score: inf
ROOT
ATOM      1  C   UNL     1       1.224  -1.890   8.706  1.00  0.00     0.005 A 
ATOM      2  C   UNL     1       2.252  -1.098   9.244  1.00  0.00     0.060 A 
ATOM      3  C   UNL     1       0.134  -1.260   8.082  1.00  0.00     0.060 A 
ATOM      4  C   UNL     1       2.194   0.300   9.162  1.00  0.00     0.162 A 
ATOM      5  C   UNL     1       0.068   0.134   7.995  1.00  0.00     0.162 A 
ATOM      6  C   UNL     1       1.100   0.922   8.536  1.00  0.00     0.200 A 
ENDROOT
BRANCH   1   7
ATOM      7  C   UNL     1       1.292  -3.365   8.797  1.00  0.00     0.072 C 
ATOM      8  O   UNL     1       2.251  -3.927   9.389  1.00  0.00    -0.545 OA
ATOM      9  O   UNL     1       0.295  -4.152   8.232  1.00  0.00    -0.545 OA
ENDBRANCH   1   7
BRANCH   4  10
ATOM     10  O   UNL     1       3.221   1.075   9.700  1.00  0.00    -0.504 OA
ATOM     11  H   UNL     1       3.940   1.483   9.115  1.00  0.00     0.293 HD
ENDBRANCH   4  10
BRANCH   5  12
ATOM     12  O   UNL     1      -1.031   0.721   7.368  1.00  0.00    -0.504 OA
ATOM     13  H   UNL     1      -1.969   0.649   7.745  1.00  0.00     0.293 HD
ENDBRANCH   5  12
BRANCH   6  14
ATOM     14  O   UNL     1       1.026   2.312   8.445  1.00  0.00    -0.502 OA
ATOM     15  H   UNL     1       1.455   2.826   7.685  1.00  0.00     0.293 HD
ENDBRANCH   6  14
TORSDOF 4
ENDMDL
MODEL 9
REMARK VINA RESULT:    -3.288     11.399     12.801
REMARK INTER + INTRA:          -3.820
REMARK INTER:                  -3.774
REMARK INTRA:                  -0.046
REMARK UNBOUND:                -0.052
REMARK SMILES O=C([O-])c1cc(O)c(O)c(O)c1
REMARK SMILES IDX 4 1 5 2 12 3 6 4 10 5 8 6 2 7 1 8 3 9 7 10 11 12 9 14
REMARK H PARENT 7 11 11 13 9 15
REMARK Flexibility Score: inf
ROOT
ATOM      1  C   UNL     1       0.556  -1.355   8.533  1.00  0.00     0.005 A 
ATOM      2  C   UNL     1      -0.018  -0.173   8.037  1.00  0.00     0.060 A 
ATOM      3  C   UNL     1       1.826  -1.297   9.132  1.00  0.00     0.060 A 
ATOM      4  C   UNL     1       0.663   1.048   8.135  1.00  0.00     0.162 A 
ATOM      5  C   UNL     1       2.512  -0.082   9.235  1.00  0.00     0.162 A 
ATOM      6  C   UNL     1       1.932   1.097   8.737  1.00  0.00     0.200 A 
ENDROOT
BRANCH   1   7
ATOM      7  C   UNL     1      -0.168  -2.641   8.424  1.00  0.00     0.072 C 
ATOM      8  O   UNL     1       0.253  -3.551   7.662  1.00  0.00    -0.545 OA
ATOM      9  O   UNL     1      -1.323  -2.863   9.164  1.00  0.00    -0.545 OA
ENDBRANCH   1   7
BRANCH   4  10
ATOM     10  O   UNL     1       0.081   2.214   7.639  1.00  0.00    -0.504 OA
ATOM     11  H   UNL     1       0.071   2.423   6.648  1.00  0.00     0.293 HD
ENDBRANCH   4  10
BRANCH   5  12
ATOM     12  O   UNL     1       3.771  -0.066   9.836  1.00  0.00    -0.504 OA
ATOM     13  H   UNL     1       4.496   0.582   9.553  1.00  0.00     0.293 HD
ENDBRANCH   5  12
BRANCH   6  14
ATOM     14  O   UNL     1       2.624   2.304   8.844  1.00  0.00    -0.502 OA
ATOM     15  H   UNL     1       2.686   2.960   8.074  1.00  0.00     0.293 HD
ENDBRANCH   6  14
TORSDOF 4
ENDMDL
