MODEL 1
REMARK VINA RESULT:    -4.478      0.000      0.000
REMARK INTER + INTRA:          -6.982
REMARK INTER:                  -6.572
REMARK INTRA:                  -0.410
REMARK UNBOUND:                -0.410
REMARK SMILES O=c1c(O[C@@H]2O[C@H](CO)[C@@H](O)[C@H](O)[C@H]2O)c(-c2ccc(O)c(O)c2)oc2cc(O)cc(O)c12
REMARK SMILES IDX 4 1 3 2 16 3 25 4 2 5 26 6 1 7 33 8 27 9 31 10 28 11 30 12
REMARK SMILES IDX 17 13 18 14 19 15 20 16 24 17 22 18 21 19 23 21 32 23 29 25
REMARK SMILES IDX 5 27 14 28 6 29 12 30 7 31 10 32 15 33 13 35 8 37 9 38 11 40
REMARK H PARENT 21 20 23 22 32 24 29 26 15 34 13 36 9 39 11 41
REMARK Flexibility Score: inf
ROOT
ATOM      1  O   UNL     1       3.715 -16.590   6.708  1.00  0.00    -0.454 OA
ENDROOT
BRANCH   1   2
ATOM      2  C   UNL     1       4.054 -15.224   6.780  1.00  0.00     0.214 A 
ATOM      3  C   UNL     1       4.422 -14.689   8.032  1.00  0.00     0.180 A 
ATOM      4  O   UNL     1       4.702 -13.396   8.153  1.00  0.00    -0.452 OA
ATOM      5  C   UNL     1       3.991 -14.348   5.675  1.00  0.00     0.239 A 
ATOM      6  C   UNL     1       4.678 -12.547   7.136  1.00  0.00     0.146 A 
ATOM      7  O   UNL     1       3.605 -14.772   4.554  1.00  0.00    -0.285 OA
ATOM      8  C   UNL     1       4.327 -12.988   5.839  1.00  0.00     0.111 A 
ATOM      9  C   UNL     1       5.004 -11.206   7.362  1.00  0.00     0.094 A 
ATOM     10  C   UNL     1       4.316 -12.052   4.775  1.00  0.00     0.134 A 
ATOM     11  C   UNL     1       4.991 -10.288   6.311  1.00  0.00     0.123 A 
ATOM     12  C   UNL     1       4.649 -10.712   5.022  1.00  0.00     0.093 A 
BRANCH   3  13
ATOM     13  C   UNL     1       4.504 -15.533   9.246  1.00  0.00     0.025 A 
ATOM     14  C   UNL     1       5.490 -15.268  10.207  1.00  0.00     0.016 A 
ATOM     15  C   UNL     1       5.594 -16.062  11.352  1.00  0.00     0.051 A 
ATOM     16  C   UNL     1       4.723 -17.143  11.544  1.00  0.00     0.157 A 
ATOM     17  C   UNL     1       3.647 -16.634   9.429  1.00  0.00     0.062 A 
ATOM     18  C   UNL     1       3.748 -17.432  10.575  1.00  0.00     0.158 A 
BRANCH  16  19
ATOM     19  O   UNL     1       4.826 -17.932  12.688  1.00  0.00    -0.504 OA
ATOM     20  H   UNL     1       4.087 -17.961  13.381  1.00  0.00     0.293 HD
ENDBRANCH  16  19
BRANCH  18  21
ATOM     21  O   UNL     1       2.876 -18.507  10.729  1.00  0.00    -0.504 OA
ATOM     22  H   UNL     1       3.183 -19.468  10.640  1.00  0.00     0.293 HD
ENDBRANCH  18  21
ENDBRANCH   3  13
BRANCH  10  23
ATOM     23  O   UNL     1       3.979 -12.444   3.478  1.00  0.00    -0.507 OA
ATOM     24  H   UNL     1       4.647 -12.405   2.719  1.00  0.00     0.293 HD
ENDBRANCH  10  23
BRANCH  11  25
ATOM     25  O   UNL     1       5.322  -8.957   6.556  1.00  0.00    -0.508 OA
ATOM     26  H   UNL     1       5.881  -8.422   5.903  1.00  0.00     0.293 HD
ENDBRANCH  11  25
ENDBRANCH   1   2
BRANCH   1  27
ATOM     27  C   UNL     1       4.344 -17.604   5.915  1.00  0.00     0.339 C 
ATOM     28  C   UNL     1       4.840 -18.750   6.817  1.00  0.00     0.214 C 
ATOM     29  O   UNL     1       3.463 -18.069   4.906  1.00  0.00    -0.332 OA
ATOM     30  C   UNL     1       5.522 -19.824   5.952  1.00  0.00     0.180 C 
ATOM     31  C   UNL     1       4.126 -18.956   4.021  1.00  0.00     0.179 C 
ATOM     32  C   UNL     1       4.601 -20.223   4.783  1.00  0.00     0.177 C 
BRANCH  28  33
ATOM     33  O   UNL     1       5.756 -18.235   7.750  1.00  0.00    -0.384 OA
ATOM     34  H   UNL     1       5.570 -17.263   7.832  1.00  0.00     0.211 HD
ENDBRANCH  28  33
BRANCH  30  35
ATOM     35  O   UNL     1       5.806 -20.963   6.724  1.00  0.00    -0.387 OA
ATOM     36  H   UNL     1       6.251 -20.649   7.552  1.00  0.00     0.211 HD
ENDBRANCH  30  35
BRANCH  31  37
ATOM     37  C   UNL     1       3.144 -19.317   2.898  1.00  0.00     0.191 C 
BRANCH  37  38
ATOM     38  O   UNL     1       2.875 -20.692   2.904  1.00  0.00    -0.394 OA
ATOM     39  H   UNL     1       2.313 -20.868   2.106  1.00  0.00     0.210 HD
ENDBRANCH  37  38
ENDBRANCH  31  37
BRANCH  32  40
ATOM     40  O   UNL     1       5.259 -21.125   3.929  1.00  0.00    -0.387 OA
ATOM     41  H   UNL     1       6.058 -21.466   4.410  1.00  0.00     0.211 HD
ENDBRANCH  32  40
ENDBRANCH   1  27
TORSDOF 12
ENDMDL
MODEL 2
REMARK VINA RESULT:    -2.720      5.791     12.254
REMARK INTER + INTRA:          -4.401
REMARK INTER:                  -5.306
REMARK INTRA:                   0.905
REMARK UNBOUND:                -0.410
REMARK SMILES O=c1c(O[C@@H]2O[C@H](CO)[C@@H](O)[C@H](O)[C@H]2O)c(-c2ccc(O)c(O)c2)oc2cc(O)cc(O)c12
REMARK SMILES IDX 4 1 3 2 16 3 25 4 2 5 26 6 1 7 33 8 27 9 31 10 28 11 30 12
REMARK SMILES IDX 17 13 18 14 19 15 20 16 24 17 22 18 21 19 23 21 32 23 29 25
REMARK SMILES IDX 5 27 14 28 6 29 12 30 7 31 10 32 15 33 13 35 8 37 9 38 11 40
REMARK H PARENT 21 20 23 22 32 24 29 26 15 34 13 36 9 39 11 41
REMARK Flexibility Score: inf
ROOT
ATOM      1  O   UNL     1       4.193  -5.908   3.522  1.00  0.00    -0.454 OA
ENDROOT
BRANCH   1   2
ATOM      2  C   UNL     1       4.319  -7.005   4.398  1.00  0.00     0.214 A 
ATOM      3  C   UNL     1       4.853  -6.780   5.683  1.00  0.00     0.180 A 
ATOM      4  O   UNL     1       5.034  -7.795   6.521  1.00  0.00    -0.452 OA
ATOM      5  C   UNL     1       3.991  -8.329   4.036  1.00  0.00     0.239 A 
ATOM      6  C   UNL     1       4.716  -9.048   6.229  1.00  0.00     0.146 A 
ATOM      7  O   UNL     1       3.572  -8.582   2.875  1.00  0.00    -0.285 OA
ATOM      8  C   UNL     1       4.168  -9.375   4.967  1.00  0.00     0.111 A 
ATOM      9  C   UNL     1       4.930 -10.045   7.186  1.00  0.00     0.094 A 
ATOM     10  C   UNL     1       3.836 -10.724   4.690  1.00  0.00     0.134 A 
ATOM     11  C   UNL     1       4.602 -11.373   6.908  1.00  0.00     0.123 A 
ATOM     12  C   UNL     1       4.056 -11.709   5.664  1.00  0.00     0.093 A 
BRANCH   3  13
ATOM     13  C   UNL     1       5.234  -5.425   6.142  1.00  0.00     0.025 A 
ATOM     14  C   UNL     1       6.552  -5.182   6.558  1.00  0.00     0.016 A 
ATOM     15  C   UNL     1       6.928  -3.914   7.009  1.00  0.00     0.051 A 
ATOM     16  C   UNL     1       5.989  -2.876   7.065  1.00  0.00     0.157 A 
ATOM     17  C   UNL     1       4.288  -4.388   6.222  1.00  0.00     0.062 A 
ATOM     18  C   UNL     1       4.661  -3.116   6.674  1.00  0.00     0.158 A 
BRANCH  16  19
ATOM     19  O   UNL     1       6.367  -1.611   7.511  1.00  0.00    -0.504 OA
ATOM     20  H   UNL     1       6.290  -1.348   8.487  1.00  0.00     0.293 HD
ENDBRANCH  16  19
BRANCH  18  21
ATOM     21  O   UNL     1       3.700  -2.109   6.729  1.00  0.00    -0.504 OA
ATOM     22  H   UNL     1       3.203  -1.886   7.583  1.00  0.00     0.293 HD
ENDBRANCH  18  21
ENDBRANCH   3  13
BRANCH  10  23
ATOM     23  O   UNL     1       3.291 -11.092   3.459  1.00  0.00    -0.507 OA
ATOM     24  H   UNL     1       2.922 -10.406   2.813  1.00  0.00     0.293 HD
ENDBRANCH  10  23
BRANCH  11  25
ATOM     25  O   UNL     1       4.820 -12.351   7.876  1.00  0.00    -0.508 OA
ATOM     26  H   UNL     1       4.051 -12.852   8.305  1.00  0.00     0.293 HD
ENDBRANCH  11  25
ENDBRANCH   1   2
BRANCH   1  27
ATOM     27  C   UNL     1       5.229  -5.026   3.074  1.00  0.00     0.339 C 
ATOM     28  C   UNL     1       4.913  -3.579   3.498  1.00  0.00     0.214 C 
ATOM     29  O   UNL     1       6.494  -5.453   3.554  1.00  0.00    -0.332 OA
ATOM     30  C   UNL     1       6.029  -2.643   3.000  1.00  0.00     0.180 C 
ATOM     31  C   UNL     1       7.539  -4.680   2.989  1.00  0.00     0.179 C 
ATOM     32  C   UNL     1       7.404  -3.195   3.419  1.00  0.00     0.177 C 
BRANCH  28  33
ATOM     33  O   UNL     1       3.682  -3.196   2.939  1.00  0.00    -0.384 OA
ATOM     34  H   UNL     1       3.676  -3.521   2.001  1.00  0.00     0.211 HD
ENDBRANCH  28  33
BRANCH  30  35
ATOM     35  O   UNL     1       5.863  -1.358   3.541  1.00  0.00    -0.387 OA
ATOM     36  H   UNL     1       4.893  -1.154   3.513  1.00  0.00     0.211 HD
ENDBRANCH  30  35
BRANCH  31  37
ATOM     37  C   UNL     1       8.871  -5.279   3.462  1.00  0.00     0.191 C 
BRANCH  37  38
ATOM     38  O   UNL     1       9.316  -4.630   4.621  1.00  0.00    -0.394 OA
ATOM     39  H   UNL     1       8.722  -4.934   5.355  1.00  0.00     0.210 HD
ENDBRANCH  37  38
ENDBRANCH  31  37
BRANCH  32  40
ATOM     40  O   UNL     1       8.433  -2.404   2.878  1.00  0.00    -0.387 OA
ATOM     41  H   UNL     1       8.131  -1.458   2.906  1.00  0.00     0.211 HD
ENDBRANCH  32  40
ENDBRANCH   1  27
TORSDOF 12
ENDMDL
MODEL 3
REMARK VINA RESULT:    -2.648      5.839     12.475
REMARK INTER + INTRA:          -4.295
REMARK INTER:                  -4.908
REMARK INTRA:                   0.613
REMARK UNBOUND:                -0.410
REMARK SMILES O=c1c(O[C@@H]2O[C@H](CO)[C@@H](O)[C@H](O)[C@H]2O)c(-c2ccc(O)c(O)c2)oc2cc(O)cc(O)c12
REMARK SMILES IDX 4 1 3 2 16 3 25 4 2 5 26 6 1 7 33 8 27 9 31 10 28 11 30 12
REMARK SMILES IDX 17 13 18 14 19 15 20 16 24 17 22 18 21 19 23 21 32 23 29 25
REMARK SMILES IDX 5 27 14 28 6 29 12 30 7 31 10 32 15 33 13 35 8 37 9 38 11 40
REMARK H PARENT 21 20 23 22 32 24 29 26 15 34 13 36 9 39 11 41
REMARK Flexibility Score: inf
ROOT
ATOM      1  O   UNL     1       4.895  -5.957   3.456  1.00  0.00    -0.454 OA
ENDROOT
BRANCH   1   2
ATOM      2  C   UNL     1       4.990  -7.063   4.326  1.00  0.00     0.214 A 
ATOM      3  C   UNL     1       5.866  -6.976   5.427  1.00  0.00     0.180 A 
ATOM      4  O   UNL     1       6.021  -8.014   6.243  1.00  0.00    -0.452 OA
ATOM      5  C   UNL     1       4.294  -8.274   4.121  1.00  0.00     0.239 A 
ATOM      6  C   UNL     1       5.369  -9.159   6.099  1.00  0.00     0.146 A 
ATOM      7  O   UNL     1       3.552  -8.414   3.113  1.00  0.00    -0.285 OA
ATOM      8  C   UNL     1       4.463  -9.340   5.029  1.00  0.00     0.111 A 
ATOM      9  C   UNL     1       5.589 -10.187   7.020  1.00  0.00     0.094 A 
ATOM     10  C   UNL     1       3.781 -10.576   4.908  1.00  0.00     0.134 A 
ATOM     11  C   UNL     1       4.915 -11.403   6.897  1.00  0.00     0.123 A 
ATOM     12  C   UNL     1       4.014 -11.595   5.844  1.00  0.00     0.093 A 
BRANCH   3  13
ATOM     13  C   UNL     1       6.642  -5.748   5.711  1.00  0.00     0.025 A 
ATOM     14  C   UNL     1       7.798  -5.474   4.965  1.00  0.00     0.016 A 
ATOM     15  C   UNL     1       8.553  -4.328   5.228  1.00  0.00     0.051 A 
ATOM     16  C   UNL     1       8.172  -3.449   6.250  1.00  0.00     0.157 A 
ATOM     17  C   UNL     1       6.276  -4.877   6.753  1.00  0.00     0.062 A 
ATOM     18  C   UNL     1       7.031  -3.728   7.019  1.00  0.00     0.158 A 
BRANCH  16  19
ATOM     19  O   UNL     1       8.925  -2.305   6.508  1.00  0.00    -0.504 OA
ATOM     20  H   UNL     1       9.636  -2.288   7.230  1.00  0.00     0.293 HD
ENDBRANCH  16  19
BRANCH  18  21
ATOM     21  O   UNL     1       6.632  -2.882   8.052  1.00  0.00    -0.504 OA
ATOM     22  H   UNL     1       5.790  -2.323   7.996  1.00  0.00     0.293 HD
ENDBRANCH  18  21
ENDBRANCH   3  13
BRANCH  10  23
ATOM     23  O   UNL     1       2.875 -10.799   3.869  1.00  0.00    -0.507 OA
ATOM     24  H   UNL     1       2.866 -10.222   3.037  1.00  0.00     0.293 HD
ENDBRANCH  10  23
BRANCH  11  25
ATOM     25  O   UNL     1       5.146 -12.414   7.827  1.00  0.00    -0.508 OA
ATOM     26  H   UNL     1       6.072 -12.800   7.969  1.00  0.00     0.293 HD
ENDBRANCH  11  25
ENDBRANCH   1   2
BRANCH   1  27
ATOM     27  C   UNL     1       4.301  -4.682   3.727  1.00  0.00     0.339 C 
ATOM     28  C   UNL     1       3.816  -4.623   5.188  1.00  0.00     0.214 C 
ATOM     29  O   UNL     1       5.207  -3.633   3.427  1.00  0.00    -0.332 OA
ATOM     30  C   UNL     1       3.171  -3.253   5.459  1.00  0.00     0.180 C 
ATOM     31  C   UNL     1       4.576  -2.369   3.542  1.00  0.00     0.179 C 
ATOM     32  C   UNL     1       4.118  -2.126   5.005  1.00  0.00     0.177 C 
BRANCH  28  33
ATOM     33  O   UNL     1       2.876  -5.645   5.400  1.00  0.00    -0.384 OA
ATOM     34  H   UNL     1       2.220  -5.595   4.657  1.00  0.00     0.211 HD
ENDBRANCH  28  33
BRANCH  30  35
ATOM     35  O   UNL     1       2.901  -3.105   6.829  1.00  0.00    -0.387 OA
ATOM     36  H   UNL     1       2.109  -3.665   7.031  1.00  0.00     0.211 HD
ENDBRANCH  30  35
BRANCH  31  37
ATOM     37  C   UNL     1       5.583  -1.302   3.089  1.00  0.00     0.191 C 
BRANCH  37  38
ATOM     38  O   UNL     1       6.474  -0.996   4.126  1.00  0.00    -0.394 OA
ATOM     39  H   UNL     1       6.482  -0.007   4.201  1.00  0.00     0.210 HD
ENDBRANCH  37  38
ENDBRANCH  31  37
BRANCH  32  40
ATOM     40  O   UNL     1       3.493  -0.875   5.151  1.00  0.00    -0.387 OA
ATOM     41  H   UNL     1       3.950  -0.395   5.891  1.00  0.00     0.211 HD
ENDBRANCH  32  40
ENDBRANCH   1  27
TORSDOF 12
ENDMDL
MODEL 4
REMARK VINA RESULT:    -2.380      6.279     12.780
REMARK INTER + INTRA:          -3.903
REMARK INTER:                  -3.522
REMARK INTRA:                  -0.381
REMARK UNBOUND:                -0.410
REMARK SMILES O=c1c(O[C@@H]2O[C@H](CO)[C@@H](O)[C@H](O)[C@H]2O)c(-c2ccc(O)c(O)c2)oc2cc(O)cc(O)c12
REMARK SMILES IDX 4 1 3 2 16 3 25 4 2 5 26 6 1 7 33 8 27 9 31 10 28 11 30 12
REMARK SMILES IDX 17 13 18 14 19 15 20 16 24 17 22 18 21 19 23 21 32 23 29 25
REMARK SMILES IDX 5 27 14 28 6 29 12 30 7 31 10 32 15 33 13 35 8 37 9 38 11 40
REMARK H PARENT 21 20 23 22 32 24 29 26 15 34 13 36 9 39 11 41
REMARK Flexibility Score: inf
ROOT
ATOM      1  O   UNL     1       6.200  -5.714   6.588  1.00  0.00    -0.454 OA
ENDROOT
BRANCH   1   2
ATOM      2  C   UNL     1       5.559  -6.814   5.983  1.00  0.00     0.214 A 
ATOM      3  C   UNL     1       4.496  -6.564   5.090  1.00  0.00     0.180 A 
ATOM      4  O   UNL     1       3.833  -7.574   4.537  1.00  0.00    -0.452 OA
ATOM      5  C   UNL     1       5.888  -8.157   6.266  1.00  0.00     0.239 A 
ATOM      6  C   UNL     1       4.127  -8.848   4.759  1.00  0.00     0.146 A 
ATOM      7  O   UNL     1       6.788  -8.423   7.106  1.00  0.00    -0.285 OA
ATOM      8  C   UNL     1       5.181  -9.201   5.633  1.00  0.00     0.111 A 
ATOM      9  C   UNL     1       3.380  -9.840   4.115  1.00  0.00     0.094 A 
ATOM     10  C   UNL     1       5.470 -10.572   5.843  1.00  0.00     0.134 A 
ATOM     11  C   UNL     1       3.668 -11.189   4.325  1.00  0.00     0.123 A 
ATOM     12  C   UNL     1       4.710 -11.552   5.186  1.00  0.00     0.093 A 
BRANCH   3  13
ATOM     13  C   UNL     1       4.076  -5.187   4.745  1.00  0.00     0.025 A 
ATOM     14  C   UNL     1       4.138  -4.761   3.410  1.00  0.00     0.016 A 
ATOM     15  C   UNL     1       3.762  -3.460   3.066  1.00  0.00     0.051 A 
ATOM     16  C   UNL     1       3.333  -2.563   4.053  1.00  0.00     0.157 A 
ATOM     17  C   UNL     1       3.669  -4.277   5.737  1.00  0.00     0.062 A 
ATOM     18  C   UNL     1       3.292  -2.973   5.395  1.00  0.00     0.158 A 
BRANCH  16  19
ATOM     19  O   UNL     1       2.955  -1.267   3.706  1.00  0.00    -0.504 OA
ATOM     20  H   UNL     1       3.450  -0.457   4.060  1.00  0.00     0.293 HD
ENDBRANCH  16  19
BRANCH  18  21
ATOM     21  O   UNL     1       2.883  -2.102   6.403  1.00  0.00    -0.504 OA
ATOM     22  H   UNL     1       2.242  -2.385   7.134  1.00  0.00     0.293 HD
ENDBRANCH  18  21
ENDBRANCH   3  13
BRANCH  10  23
ATOM     23  O   UNL     1       6.503 -10.967   6.694  1.00  0.00    -0.507 OA
ATOM     24  H   UNL     1       7.324 -10.393   6.838  1.00  0.00     0.293 HD
ENDBRANCH  10  23
BRANCH  11  25
ATOM     25  O   UNL     1       2.914 -12.162   3.673  1.00  0.00    -0.508 OA
ATOM     26  H   UNL     1       1.931 -12.023   3.474  1.00  0.00     0.293 HD
ENDBRANCH  11  25
ENDBRANCH   1   2
BRANCH   1  27
ATOM     27  C   UNL     1       7.205  -4.868   6.017  1.00  0.00     0.339 C 
ATOM     28  C   UNL     1       7.241  -3.516   6.753  1.00  0.00     0.214 C 
ATOM     29  O   UNL     1       8.469  -5.512   6.032  1.00  0.00    -0.332 OA
ATOM     30  C   UNL     1       8.317  -2.616   6.121  1.00  0.00     0.180 C 
ATOM     31  C   UNL     1       9.436  -4.750   5.329  1.00  0.00     0.179 C 
ATOM     32  C   UNL     1       9.652  -3.379   6.026  1.00  0.00     0.177 C 
BRANCH  28  33
ATOM     33  O   UNL     1       5.981  -2.903   6.646  1.00  0.00    -0.384 OA
ATOM     34  H   UNL     1       5.301  -3.620   6.735  1.00  0.00     0.211 HD
ENDBRANCH  28  33
BRANCH  30  35
ATOM     35  O   UNL     1       8.502  -1.460   6.897  1.00  0.00    -0.387 OA
ATOM     36  H   UNL     1       7.601  -1.091   7.087  1.00  0.00     0.211 HD
ENDBRANCH  30  35
BRANCH  31  37
ATOM     37  C   UNL     1      10.735  -5.566   5.290  1.00  0.00     0.191 C 
BRANCH  37  38
ATOM     38  O   UNL     1      11.738  -4.929   6.033  1.00  0.00    -0.394 OA
ATOM     39  H   UNL     1      11.948  -4.088   5.549  1.00  0.00     0.210 HD
ENDBRANCH  37  38
ENDBRANCH  31  37
BRANCH  32  40
ATOM     40  O   UNL     1      10.611  -2.602   5.354  1.00  0.00    -0.387 OA
ATOM     41  H   UNL     1      10.149  -1.803   4.989  1.00  0.00     0.211 HD
ENDBRANCH  32  40
ENDBRANCH   1  27
TORSDOF 12
ENDMDL
MODEL 5
REMARK VINA RESULT:    -2.101      1.446      7.285
REMARK INTER + INTRA:          -3.494
REMARK INTER:                  -4.215
REMARK INTRA:                   0.721
REMARK UNBOUND:                -0.410
REMARK SMILES O=c1c(O[C@@H]2O[C@H](CO)[C@@H](O)[C@H](O)[C@H]2O)c(-c2ccc(O)c(O)c2)oc2cc(O)cc(O)c12
REMARK SMILES IDX 4 1 3 2 16 3 25 4 2 5 26 6 1 7 33 8 27 9 31 10 28 11 30 12
REMARK SMILES IDX 17 13 18 14 19 15 20 16 24 17 22 18 21 19 23 21 32 23 29 25
REMARK SMILES IDX 5 27 14 28 6 29 12 30 7 31 10 32 15 33 13 35 8 37 9 38 11 40
REMARK H PARENT 21 20 23 22 32 24 29 26 15 34 13 36 9 39 11 41
REMARK Flexibility Score: inf
ROOT
ATOM      1  O   UNL     1       3.475 -15.884   6.549  1.00  0.00    -0.454 OA
ENDROOT
BRANCH   1   2
ATOM      2  C   UNL     1       3.886 -16.512   7.743  1.00  0.00     0.214 A 
ATOM      3  C   UNL     1       3.985 -17.919   7.761  1.00  0.00     0.180 A 
ATOM      4  O   UNL     1       4.320 -18.553   8.879  1.00  0.00    -0.452 OA
ATOM      5  C   UNL     1       4.149 -15.811   8.938  1.00  0.00     0.239 A 
ATOM      6  C   UNL     1       4.599 -17.929  10.016  1.00  0.00     0.146 A 
ATOM      7  O   UNL     1       4.009 -14.560   8.981  1.00  0.00    -0.285 OA
ATOM      8  C   UNL     1       4.534 -16.519  10.096  1.00  0.00     0.111 A 
ATOM      9  C   UNL     1       4.959 -18.686  11.136  1.00  0.00     0.094 A 
ATOM     10  C   UNL     1       4.843 -15.886  11.326  1.00  0.00     0.134 A 
ATOM     11  C   UNL     1       5.261 -18.058  12.344  1.00  0.00     0.123 A 
ATOM     12  C   UNL     1       5.204 -16.663  12.437  1.00  0.00     0.093 A 
BRANCH   3  13
ATOM     13  C   UNL     1       3.716 -18.735   6.555  1.00  0.00     0.025 A 
ATOM     14  C   UNL     1       3.212 -20.036   6.700  1.00  0.00     0.016 A 
ATOM     15  C   UNL     1       2.966 -20.828   5.574  1.00  0.00     0.051 A 
ATOM     16  C   UNL     1       3.235 -20.335   4.291  1.00  0.00     0.157 A 
ATOM     17  C   UNL     1       4.008 -18.252   5.267  1.00  0.00     0.062 A 
ATOM     18  C   UNL     1       3.763 -19.042   4.138  1.00  0.00     0.158 A 
BRANCH  16  19
ATOM     19  O   UNL     1       2.985 -21.125   3.170  1.00  0.00    -0.504 OA
ATOM     20  H   UNL     1       2.940 -22.135   3.233  1.00  0.00     0.293 HD
ENDBRANCH  16  19
BRANCH  18  21
ATOM     21  O   UNL     1       4.054 -18.528   2.876  1.00  0.00    -0.504 OA
ATOM     22  H   UNL     1       3.527 -17.764   2.471  1.00  0.00     0.293 HD
ENDBRANCH  18  21
ENDBRANCH   3  13
BRANCH  10  23
ATOM     23  O   UNL     1       4.795 -14.497  11.451  1.00  0.00    -0.507 OA
ATOM     24  H   UNL     1       4.229 -14.045  12.158  1.00  0.00     0.293 HD
ENDBRANCH  10  23
BRANCH  11  25
ATOM     25  O   UNL     1       5.619 -18.829  13.448  1.00  0.00    -0.508 OA
ATOM     26  H   UNL     1       5.807 -19.821  13.362  1.00  0.00     0.293 HD
ENDBRANCH  11  25
ENDBRANCH   1   2
BRANCH   1  27
ATOM     27  C   UNL     1       4.040 -14.719   5.938  1.00  0.00     0.339 C 
ATOM     28  C   UNL     1       3.308 -14.404   4.619  1.00  0.00     0.214 C 
ATOM     29  O   UNL     1       4.013 -13.619   6.833  1.00  0.00    -0.332 OA
ATOM     30  C   UNL     1       3.934 -13.157   3.970  1.00  0.00     0.180 C 
ATOM     31  C   UNL     1       4.709 -12.508   6.296  1.00  0.00     0.179 C 
ATOM     32  C   UNL     1       4.016 -12.013   4.998  1.00  0.00     0.177 C 
BRANCH  28  33
ATOM     33  O   UNL     1       3.429 -15.505   3.754  1.00  0.00    -0.384 OA
ATOM     34  H   UNL     1       3.771 -15.159   2.890  1.00  0.00     0.211 HD
ENDBRANCH  28  33
BRANCH  30  35
ATOM     35  O   UNL     1       3.161 -12.739   2.875  1.00  0.00    -0.387 OA
ATOM     36  H   UNL     1       3.475 -13.250   2.086  1.00  0.00     0.211 HD
ENDBRANCH  30  35
BRANCH  31  37
ATOM     37  C   UNL     1       4.735 -11.410   7.368  1.00  0.00     0.191 C 
BRANCH  37  38
ATOM     38  O   UNL     1       5.523 -10.331   6.946  1.00  0.00    -0.394 OA
ATOM     39  H   UNL     1       6.385 -10.719   6.645  1.00  0.00     0.210 HD
ENDBRANCH  37  38
ENDBRANCH  31  37
BRANCH  32  40
ATOM     40  O   UNL     1       4.682 -10.906   4.445  1.00  0.00    -0.387 OA
ATOM     41  H   UNL     1       5.603 -11.196   4.211  1.00  0.00     0.211 HD
ENDBRANCH  32  40
ENDBRANCH   1  27
TORSDOF 12
ENDMDL
MODEL 6
REMARK VINA RESULT:    -1.764      1.450      5.915
REMARK INTER + INTRA:          -2.999
REMARK INTER:                  -4.985
REMARK INTRA:                   1.986
REMARK UNBOUND:                -0.410
REMARK SMILES O=c1c(O[C@@H]2O[C@H](CO)[C@@H](O)[C@H](O)[C@H]2O)c(-c2ccc(O)c(O)c2)oc2cc(O)cc(O)c12
REMARK SMILES IDX 4 1 3 2 16 3 25 4 2 5 26 6 1 7 33 8 27 9 31 10 28 11 30 12
REMARK SMILES IDX 17 13 18 14 19 15 20 16 24 17 22 18 21 19 23 21 32 23 29 25
REMARK SMILES IDX 5 27 14 28 6 29 12 30 7 31 10 32 15 33 13 35 8 37 9 38 11 40
REMARK H PARENT 21 20 23 22 32 24 29 26 15 34 13 36 9 39 11 41
REMARK Flexibility Score: inf
ROOT
ATOM      1  O   UNL     1       2.945 -16.428   6.903  1.00  0.00    -0.454 OA
ENDROOT
BRANCH   1   2
ATOM      2  C   UNL     1       3.565 -16.420   8.169  1.00  0.00     0.214 A 
ATOM      3  C   UNL     1       4.338 -15.296   8.530  1.00  0.00     0.180 A 
ATOM      4  O   UNL     1       4.979 -15.270   9.693  1.00  0.00    -0.452 OA
ATOM      5  C   UNL     1       3.501 -17.502   9.073  1.00  0.00     0.239 A 
ATOM      6  C   UNL     1       4.924 -16.255  10.579  1.00  0.00     0.146 A 
ATOM      7  O   UNL     1       2.875 -18.549   8.761  1.00  0.00    -0.285 OA
ATOM      8  C   UNL     1       4.170 -17.421  10.312  1.00  0.00     0.111 A 
ATOM      9  C   UNL     1       5.623 -16.125  11.784  1.00  0.00     0.094 A 
ATOM     10  C   UNL     1       4.131 -18.451  11.284  1.00  0.00     0.134 A 
ATOM     11  C   UNL     1       5.581 -17.143  12.737  1.00  0.00     0.123 A 
ATOM     12  C   UNL     1       4.837 -18.301  12.487  1.00  0.00     0.093 A 
BRANCH   3  13
ATOM     13  C   UNL     1       4.469 -14.122   7.638  1.00  0.00     0.025 A 
ATOM     14  C   UNL     1       4.819 -12.877   8.183  1.00  0.00     0.016 A 
ATOM     15  C   UNL     1       4.933 -11.753   7.360  1.00  0.00     0.051 A 
ATOM     16  C   UNL     1       4.683 -11.855   5.985  1.00  0.00     0.157 A 
ATOM     17  C   UNL     1       4.195 -14.216   6.262  1.00  0.00     0.062 A 
ATOM     18  C   UNL     1       4.308 -13.092   5.435  1.00  0.00     0.158 A 
BRANCH  16  19
ATOM     19  O   UNL     1       4.801 -10.733   5.166  1.00  0.00    -0.504 OA
ATOM     20  H   UNL     1       3.998 -10.162   4.931  1.00  0.00     0.293 HD
ENDBRANCH  16  19
BRANCH  18  21
ATOM     21  O   UNL     1       4.040 -13.224   4.074  1.00  0.00    -0.504 OA
ATOM     22  H   UNL     1       4.600 -13.812   3.469  1.00  0.00     0.293 HD
ENDBRANCH  18  21
ENDBRANCH   3  13
BRANCH  10  23
ATOM     23  O   UNL     1       3.398 -19.618  11.064  1.00  0.00    -0.507 OA
ATOM     24  H   UNL     1       3.782 -20.400  10.548  1.00  0.00     0.293 HD
ENDBRANCH  10  23
BRANCH  11  25
ATOM     25  O   UNL     1       6.282 -16.994  13.932  1.00  0.00    -0.508 OA
ATOM     26  H   UNL     1       5.823 -16.677  14.778  1.00  0.00     0.293 HD
ENDBRANCH  11  25
ENDBRANCH   1   2
BRANCH   1  27
ATOM     27  C   UNL     1       2.919 -17.498   5.951  1.00  0.00     0.339 C 
ATOM     28  C   UNL     1       3.932 -17.227   4.823  1.00  0.00     0.214 C 
ATOM     29  O   UNL     1       3.156 -18.742   6.589  1.00  0.00    -0.332 OA
ATOM     30  C   UNL     1       3.884 -18.379   3.804  1.00  0.00     0.180 C 
ATOM     31  C   UNL     1       2.977 -19.819   5.684  1.00  0.00     0.179 C 
ATOM     32  C   UNL     1       4.012 -19.731   4.530  1.00  0.00     0.177 C 
BRANCH  28  33
ATOM     33  O   UNL     1       3.604 -16.015   4.192  1.00  0.00    -0.384 OA
ATOM     34  H   UNL     1       3.967 -15.286   4.759  1.00  0.00     0.211 HD
ENDBRANCH  28  33
BRANCH  30  35
ATOM     35  O   UNL     1       4.932 -18.252   2.877  1.00  0.00    -0.387 OA
ATOM     36  H   UNL     1       5.664 -17.764   3.332  1.00  0.00     0.211 HD
ENDBRANCH  30  35
BRANCH  31  37
ATOM     37  C   UNL     1       3.134 -21.124   6.476  1.00  0.00     0.191 C 
BRANCH  37  38
ATOM     38  O   UNL     1       4.157 -21.003   7.425  1.00  0.00    -0.394 OA
ATOM     39  H   UNL     1       3.795 -20.430   8.150  1.00  0.00     0.210 HD
ENDBRANCH  37  38
ENDBRANCH  31  37
BRANCH  32  40
ATOM     40  O   UNL     1       3.862 -20.791   3.619  1.00  0.00    -0.387 OA
ATOM     41  H   UNL     1       4.242 -20.496   2.750  1.00  0.00     0.211 HD
ENDBRANCH  32  40
ENDBRANCH   1  27
TORSDOF 12
ENDMDL
