MODEL 1
REMARK VINA RESULT:    -4.866      0.000      0.000
REMARK INTER + INTRA:          -6.190
REMARK INTER:                  -6.004
REMARK INTRA:                  -0.187
REMARK UNBOUND:                -0.187
REMARK SMILES CCCCC=CC(C)=O
REMARK SMILES IDX 4 1 3 2 2 3 1 4 5 5 6 6 7 7 9 8 8 9
REMARK H PARENT
REMARK Flexibility Score: inf
ROOT
ATOM      1  C   UNL     1     -23.613  20.764 -31.521  1.00  0.00     0.027 C 
ENDROOT
BRANCH   1   2
ATOM      2  C   UNL     1     -23.263  22.090 -30.830  1.00  0.00     0.004 C 
BRANCH   2   3
ATOM      3  C   UNL     1     -23.755  23.306 -31.627  1.00  0.00    -0.003 C 
ATOM      4  C   UNL     1     -22.915  24.542 -31.321  1.00  0.00     0.004 C 
ENDBRANCH   2   3
ENDBRANCH   1   2
BRANCH   1   5
ATOM      5  C   UNL     1     -24.456  20.963 -32.749  1.00  0.00    -0.023 C 
ATOM      6  C   UNL     1     -25.422  20.101 -33.081  1.00  0.00     0.042 C 
BRANCH   6   7
ATOM      7  C   UNL     1     -26.256  20.275 -34.285  1.00  0.00     0.152 C 
ATOM      8  O   UNL     1     -25.769  20.110 -35.436  1.00  0.00    -0.295 OA
ATOM      9  C   UNL     1     -27.694  20.657 -34.141  1.00  0.00     0.093 C 
ENDBRANCH   6   7
ENDBRANCH   1   5
TORSDOF 4
ENDMDL
MODEL 2
REMARK VINA RESULT:    -4.823      1.448      2.032
REMARK INTER + INTRA:          -6.138
REMARK INTER:                  -5.921
REMARK INTRA:                  -0.216
REMARK UNBOUND:                -0.187
REMARK SMILES CCCCC=CC(C)=O
REMARK SMILES IDX 4 1 3 2 2 3 1 4 5 5 6 6 7 7 9 8 8 9
REMARK H PARENT
REMARK Flexibility Score: inf
ROOT
ATOM      1  C   UNL     1     -24.254  20.652 -33.096  1.00  0.00     0.027 C 
ENDROOT
BRANCH   1   2
ATOM      2  C   UNL     1     -23.332  20.463 -31.882  1.00  0.00     0.004 C 
BRANCH   2   3
ATOM      3  C   UNL     1     -23.425  21.637 -30.896  1.00  0.00    -0.003 C 
ATOM      4  C   UNL     1     -23.740  22.942 -31.623  1.00  0.00     0.004 C 
ENDBRANCH   2   3
ENDBRANCH   1   2
BRANCH   1   5
ATOM      5  C   UNL     1     -25.554  19.913 -32.947  1.00  0.00    -0.023 C 
ATOM      6  C   UNL     1     -26.684  20.368 -33.498  1.00  0.00     0.042 C 
BRANCH   6   7
ATOM      7  C   UNL     1     -27.971  19.661 -33.358  1.00  0.00     0.152 C 
ATOM      8  O   UNL     1     -28.032  18.406 -33.462  1.00  0.00    -0.295 OA
ATOM      9  C   UNL     1     -29.219  20.441 -33.098  1.00  0.00     0.093 C 
ENDBRANCH   6   7
ENDBRANCH   1   5
TORSDOF 4
ENDMDL
MODEL 3
REMARK VINA RESULT:    -4.758      2.371      4.765
REMARK INTER + INTRA:          -6.058
REMARK INTER:                  -5.824
REMARK INTRA:                  -0.233
REMARK UNBOUND:                -0.187
REMARK SMILES CCCCC=CC(C)=O
REMARK SMILES IDX 4 1 3 2 2 3 1 4 5 5 6 6 7 7 9 8 8 9
REMARK H PARENT
REMARK Flexibility Score: inf
ROOT
ATOM      1  C   UNL     1     -25.626  20.188 -33.899  1.00  0.00     0.027 C 
ENDROOT
BRANCH   1   2
ATOM      2  C   UNL     1     -27.090  19.985 -33.484  1.00  0.00     0.004 C 
BRANCH   2   3
ATOM      3  C   UNL     1     -28.030  20.994 -34.160  1.00  0.00    -0.003 C 
ATOM      4  C   UNL     1     -28.578  21.998 -33.150  1.00  0.00     0.004 C 
ENDBRANCH   2   3
ENDBRANCH   1   2
BRANCH   1   5
ATOM      5  C   UNL     1     -24.710  20.336 -32.717  1.00  0.00    -0.023 C 
ATOM      6  C   UNL     1     -24.313  21.538 -32.286  1.00  0.00     0.042 C 
BRANCH   6   7
ATOM      7  C   UNL     1     -23.409  21.704 -31.132  1.00  0.00     0.152 C 
ATOM      8  O   UNL     1     -22.757  22.771 -30.973  1.00  0.00    -0.295 OA
ATOM      9  C   UNL     1     -23.259  20.594 -30.143  1.00  0.00     0.093 C 
ENDBRANCH   6   7
ENDBRANCH   1   5
TORSDOF 4
ENDMDL
MODEL 4
REMARK VINA RESULT:    -4.755      2.332      4.722
REMARK INTER + INTRA:          -6.053
REMARK INTER:                  -5.846
REMARK INTRA:                  -0.207
REMARK UNBOUND:                -0.187
REMARK SMILES CCCCC=CC(C)=O
REMARK SMILES IDX 4 1 3 2 2 3 1 4 5 5 6 6 7 7 9 8 8 9
REMARK H PARENT
REMARK Flexibility Score: inf
ROOT
ATOM      1  C   UNL     1     -26.536  20.290 -33.851  1.00  0.00     0.027 C 
ENDROOT
BRANCH   1   2
ATOM      2  C   UNL     1     -27.836  19.659 -33.331  1.00  0.00     0.004 C 
BRANCH   2   3
ATOM      3  C   UNL     1     -29.013  20.645 -33.367  1.00  0.00    -0.003 C 
ATOM      4  C   UNL     1     -28.538  22.078 -33.147  1.00  0.00     0.004 C 
ENDBRANCH   2   3
ENDBRANCH   1   2
BRANCH   1   5
ATOM      5  C   UNL     1     -25.345  19.919 -33.014  1.00  0.00    -0.023 C 
ATOM      6  C   UNL     1     -24.447  20.833 -32.630  1.00  0.00     0.042 C 
BRANCH   6   7
ATOM      7  C   UNL     1     -23.268  20.488 -31.814  1.00  0.00     0.152 C 
ATOM      8  O   UNL     1     -22.257  19.945 -32.339  1.00  0.00    -0.295 OA
ATOM      9  C   UNL     1     -23.271  20.778 -30.348  1.00  0.00     0.093 C 
ENDBRANCH   6   7
ENDBRANCH   1   5
TORSDOF 4
ENDMDL
MODEL 5
REMARK VINA RESULT:    -4.695      3.058      3.333
REMARK INTER + INTRA:          -5.980
REMARK INTER:                  -5.883
REMARK INTRA:                  -0.097
REMARK UNBOUND:                -0.187
REMARK SMILES CCCCC=CC(C)=O
REMARK SMILES IDX 4 1 3 2 2 3 1 4 5 5 6 6 7 7 9 8 8 9
REMARK H PARENT
REMARK Flexibility Score: inf
ROOT
ATOM      1  C   UNL     1     -23.298  20.742 -31.667  1.00  0.00     0.027 C 
ENDROOT
BRANCH   1   2
ATOM      2  C   UNL     1     -23.317  22.035 -30.838  1.00  0.00     0.004 C 
BRANCH   2   3
ATOM      3  C   UNL     1     -23.804  23.240 -31.655  1.00  0.00    -0.003 C 
ATOM      4  C   UNL     1     -23.013  24.497 -31.307  1.00  0.00     0.004 C 
ENDBRANCH   2   3
ENDBRANCH   1   2
BRANCH   1   5
ATOM      5  C   UNL     1     -23.855  19.569 -30.910  1.00  0.00    -0.023 C 
ATOM      6  C   UNL     1     -24.426  18.538 -31.541  1.00  0.00     0.042 C 
BRANCH   6   7
ATOM      7  C   UNL     1     -24.985  17.380 -30.817  1.00  0.00     0.152 C 
ATOM      8  O   UNL     1     -24.276  16.364 -30.581  1.00  0.00    -0.295 OA
ATOM      9  C   UNL     1     -26.409  17.407 -30.363  1.00  0.00     0.093 C 
ENDBRANCH   6   7
ENDBRANCH   1   5
TORSDOF 4
ENDMDL
MODEL 6
REMARK VINA RESULT:    -4.351      2.861      3.568
REMARK INTER + INTRA:          -5.555
REMARK INTER:                  -5.474
REMARK INTRA:                  -0.081
REMARK UNBOUND:                -0.187
REMARK SMILES CCCCC=CC(C)=O
REMARK SMILES IDX 4 1 3 2 2 3 1 4 5 5 6 6 7 7 9 8 8 9
REMARK H PARENT
REMARK Flexibility Score: inf
ROOT
ATOM      1  C   UNL     1     -23.994  20.102 -32.517  1.00  0.00     0.027 C 
ENDROOT
BRANCH   1   2
ATOM      2  C   UNL     1     -24.239  21.571 -32.139  1.00  0.00     0.004 C 
BRANCH   2   3
ATOM      3  C   UNL     1     -23.363  22.020 -30.961  1.00  0.00    -0.003 C 
ATOM      4  C   UNL     1     -22.990  20.838 -30.071  1.00  0.00     0.004 C 
ENDBRANCH   2   3
ENDBRANCH   1   2
BRANCH   1   5
ATOM      5  C   UNL     1     -25.184  19.230 -32.231  1.00  0.00    -0.023 C 
ATOM      6  C   UNL     1     -25.160  18.310 -31.261  1.00  0.00     0.042 C 
BRANCH   6   7
ATOM      7  C   UNL     1     -26.315  17.440 -30.969  1.00  0.00     0.152 C 
ATOM      8  O   UNL     1     -27.468  17.740 -31.381  1.00  0.00    -0.295 OA
ATOM      9  C   UNL     1     -26.119  16.193 -30.171  1.00  0.00     0.093 C 
ENDBRANCH   6   7
ENDBRANCH   1   5
TORSDOF 4
ENDMDL
MODEL 7
REMARK VINA RESULT:    -4.326      4.005      5.988
REMARK INTER + INTRA:          -5.525
REMARK INTER:                  -5.340
REMARK INTRA:                  -0.184
REMARK UNBOUND:                -0.187
REMARK SMILES CCCCC=CC(C)=O
REMARK SMILES IDX 4 1 3 2 2 3 1 4 5 5 6 6 7 7 9 8 8 9
REMARK H PARENT
REMARK Flexibility Score: inf
ROOT
ATOM      1  C   UNL     1     -26.414  17.616 -30.611  1.00  0.00     0.027 C 
ENDROOT
BRANCH   1   2
ATOM      2  C   UNL     1     -26.260  16.157 -30.157  1.00  0.00     0.004 C 
BRANCH   2   3
ATOM      3  C   UNL     1     -24.897  15.569 -30.551  1.00  0.00    -0.003 C 
ATOM      4  C   UNL     1     -24.809  14.091 -30.183  1.00  0.00     0.004 C 
ENDBRANCH   2   3
ENDBRANCH   1   2
BRANCH   1   5
ATOM      5  C   UNL     1     -25.111  18.365 -30.583  1.00  0.00    -0.023 C 
ATOM      6  C   UNL     1     -24.727  19.139 -31.603  1.00  0.00     0.042 C 
BRANCH   6   7
ATOM      7  C   UNL     1     -23.449  19.876 -31.599  1.00  0.00     0.152 C 
ATOM      8  O   UNL     1     -22.532  19.582 -32.412  1.00  0.00    -0.295 OA
ATOM      9  C   UNL     1     -23.235  20.980 -30.614  1.00  0.00     0.093 C 
ENDBRANCH   6   7
ENDBRANCH   1   5
TORSDOF 4
ENDMDL
MODEL 8
REMARK VINA RESULT:    -4.206      3.691      4.401
REMARK INTER + INTRA:          -5.377
REMARK INTER:                  -5.152
REMARK INTRA:                  -0.225
REMARK UNBOUND:                -0.187
REMARK SMILES CCCCC=CC(C)=O
REMARK SMILES IDX 4 1 3 2 2 3 1 4 5 5 6 6 7 7 9 8 8 9
REMARK H PARENT
REMARK Flexibility Score: inf
ROOT
ATOM      1  C   UNL     1     -24.684  19.602 -31.150  1.00  0.00     0.027 C 
ENDROOT
BRANCH   1   2
ATOM      2  C   UNL     1     -23.454  20.176 -30.431  1.00  0.00     0.004 C 
BRANCH   2   3
ATOM      3  C   UNL     1     -23.209  21.649 -30.790  1.00  0.00    -0.003 C 
ATOM      4  C   UNL     1     -24.041  22.066 -31.999  1.00  0.00     0.004 C 
ENDBRANCH   2   3
ENDBRANCH   1   2
BRANCH   1   5
ATOM      5  C   UNL     1     -24.652  18.102 -31.230  1.00  0.00    -0.023 C 
ATOM      6  C   UNL     1     -23.501  17.431 -31.337  1.00  0.00     0.042 C 
BRANCH   6   7
ATOM      7  C   UNL     1     -23.448  15.960 -31.425  1.00  0.00     0.152 C 
ATOM      8  O   UNL     1     -22.742  15.391 -32.301  1.00  0.00    -0.295 OA
ATOM      9  C   UNL     1     -24.246  15.132 -30.469  1.00  0.00     0.093 C 
ENDBRANCH   6   7
ENDBRANCH   1   5
TORSDOF 4
ENDMDL
MODEL 9
REMARK VINA RESULT:    -4.151      2.702      3.448
REMARK INTER + INTRA:          -5.308
REMARK INTER:                  -5.104
REMARK INTRA:                  -0.204
REMARK UNBOUND:                -0.187
REMARK SMILES CCCCC=CC(C)=O
REMARK SMILES IDX 4 1 3 2 2 3 1 4 5 5 6 6 7 7 9 8 8 9
REMARK H PARENT
REMARK Flexibility Score: inf
ROOT
ATOM      1  C   UNL     1     -24.264  20.131 -33.379  1.00  0.00     0.027 C 
ENDROOT
BRANCH   1   2
ATOM      2  C   UNL     1     -23.690  19.163 -32.334  1.00  0.00     0.004 C 
BRANCH   2   3
ATOM      3  C   UNL     1     -24.519  19.149 -31.041  1.00  0.00    -0.003 C 
ATOM      4  C   UNL     1     -25.135  17.774 -30.798  1.00  0.00     0.004 C 
ENDBRANCH   2   3
ENDBRANCH   1   2
BRANCH   1   5
ATOM      5  C   UNL     1     -25.716  20.435 -33.141  1.00  0.00    -0.023 C 
ATOM      6  C   UNL     1     -26.627  20.300 -34.111  1.00  0.00     0.042 C 
BRANCH   6   7
ATOM      7  C   UNL     1     -28.056  20.599 -33.900  1.00  0.00     0.152 C 
ATOM      8  O   UNL     1     -28.946  19.782 -34.262  1.00  0.00    -0.295 OA
ATOM      9  C   UNL     1     -28.455  21.888 -33.257  1.00  0.00     0.093 C 
ENDBRANCH   6   7
ENDBRANCH   1   5
TORSDOF 4
ENDMDL
