MODEL 1
REMARK VINA RESULT:     3.593      0.000      0.000
REMARK INTER + INTRA:           3.774
REMARK INTER:                   4.118
REMARK INTRA:                  -0.344
REMARK UNBOUND:                -0.344
REMARK SMILES C=C(C)[C@H]1CC[C@]2(C(=O)[O-])CC[C@@]3(C)[C@H](CC[C@H]4[C@]5(C)CC[C@@H](O)C(C)(C)[C@H]5CC[C@@]43C)[C@H]12
REMARK SMILES IDX 7 1 6 2 33 3 11 4 5 5 15 6 4 7 12 8 16 9 13 10 17 11 31 12
REMARK SMILES IDX 14 13 18 14 30 15 32 16 19 17 29 18 21 19 20 20 28 21 22 22
REMARK SMILES IDX 25 23 23 24 26 25 27 26 8 27 9 28 10 29 2 30 3 31 1 32 24 33
REMARK H PARENT 24 34
REMARK Flexibility Score: inf
ROOT
ATOM      1  C   UNL     1     -43.711  29.188   6.589  1.00  0.00     0.014 C 
ATOM      2  C   UNL     1     -44.450  30.042   7.644  1.00  0.00     0.014 C 
ATOM      3  C   UNL     1     -44.822  28.302   5.915  1.00  0.00     0.012 C 
ATOM      4  C   UNL     1     -43.039  30.125   5.549  1.00  0.00     0.014 C 
ATOM      5  C   UNL     1     -45.904  30.082   7.221  1.00  0.00     0.009 C 
ATOM      6  C   UNL     1     -44.822  28.327   4.326  1.00  0.00     0.000 C 
ATOM      7  C   UNL     1     -46.187  28.733   6.555  1.00  0.00     0.018 C 
ATOM      8  C   UNL     1     -42.526  29.426   4.265  1.00  0.00     0.008 C 
ATOM      9  C   UNL     1     -45.639  29.527   3.708  1.00  0.00     0.005 C 
ATOM     10  C   UNL     1     -43.373  28.203   3.698  1.00  0.00    -0.024 C 
ATOM     11  C   UNL     1     -45.242  29.892   2.269  1.00  0.00     0.005 C 
ATOM     12  C   UNL     1     -43.415  28.131   2.040  1.00  0.00    -0.024 C 
ATOM     13  C   UNL     1     -42.699  26.902   4.241  1.00  0.00     0.012 C 
ATOM     14  C   UNL     1     -44.831  28.614   1.518  1.00  0.00     0.002 C 
ATOM     15  C   UNL     1     -43.246  26.679   1.467  1.00  0.00     0.008 C 
ATOM     16  C   UNL     1     -42.218  28.955   1.449  1.00  0.00     0.012 C 
ATOM     17  C   UNL     1     -45.102  28.563  -0.044  1.00  0.00    -0.026 C 
ATOM     18  C   UNL     1     -43.449  26.548  -0.061  1.00  0.00     0.005 C 
ATOM     19  C   UNL     1     -46.618  28.850  -0.321  1.00  0.00     0.010 C 
ATOM     20  C   UNL     1     -44.249  29.634  -0.785  1.00  0.00     0.012 C 
ATOM     21  C   UNL     1     -44.835  27.070  -0.503  1.00  0.00     0.003 C 
ATOM     22  C   UNL     1     -47.068  28.541  -1.758  1.00  0.00     0.033 C 
ATOM     23  C   UNL     1     -45.246  26.723  -1.992  1.00  0.00    -0.006 C 
ATOM     24  C   UNL     1     -46.746  27.104  -2.191  1.00  0.00     0.120 C 
ATOM     25  C   UNL     1     -44.349  27.415  -3.049  1.00  0.00     0.014 C 
ATOM     26  C   UNL     1     -45.125  25.193  -2.230  1.00  0.00     0.014 C 
ENDROOT
BRANCH   1  27
ATOM     27  C   UNL     1     -42.644  28.372   7.326  1.00  0.00     0.048 C 
ATOM     28  O   UNL     1     -42.645  27.113   7.288  1.00  0.00    -0.550 OA
ATOM     29  O   UNL     1     -41.616  29.006   8.004  1.00  0.00    -0.550 OA
ENDBRANCH   1  27
BRANCH   7  30
ATOM     30  C   UNL     1     -46.865  27.767   7.538  1.00  0.00    -0.077 C 
ATOM     31  C   UNL     1     -47.123  28.075   8.992  1.00  0.00     0.039 C 
ATOM     32  C   UNL     1     -47.086  26.509   7.128  1.00  0.00     0.008 C 
ENDBRANCH   7  30
BRANCH  24  33
ATOM     33  O   UNL     1     -47.125  26.956  -3.538  1.00  0.00    -0.393 OA
ATOM     34  H   UNL     1     -46.771  27.739  -4.033  1.00  0.00     0.210 HD
ENDBRANCH  24  33
TORSDOF 3
ENDMDL
