MODEL 1
REMARK VINA RESULT:    -6.738      0.000      0.000
REMARK INTER + INTRA:          -7.328
REMARK INTER:                  -7.328
REMARK INTRA:                   0.000
REMARK UNBOUND:                 0.000
REMARK SMILES Cc1cc(O)c2c(c1)C(=O)c1cc(O)cc(O)c1C2=O
REMARK SMILES IDX 1 1 2 2 8 3 7 4 6 5 4 6 3 7 19 8 20 9 18 10 11 11 9 12 10 13
REMARK SMILES IDX 12 14 13 15 15 16 16 17 5 18 17 20 14 22
REMARK H PARENT 5 19 17 21 14 23
REMARK Flexibility Score: inf
ROOT
ATOM      1  C   UNL     1     -33.296   4.944  79.465  1.00  0.00     0.044 C 
ATOM      2  C   UNL     1     -34.385   4.636  80.450  1.00  0.00    -0.047 A 
ATOM      3  C   UNL     1     -35.728   4.748  80.073  1.00  0.00     0.016 A 
ATOM      4  C   UNL     1     -36.756   4.425  80.976  1.00  0.00     0.038 A 
ATOM      5  C   UNL     1     -36.434   3.978  82.275  1.00  0.00     0.076 A 
ATOM      6  C   UNL     1     -35.076   3.840  82.643  1.00  0.00     0.127 A 
ATOM      7  C   UNL     1     -34.066   4.164  81.729  1.00  0.00     0.050 A 
ATOM      8  C   UNL     1     -37.533   3.681  83.231  1.00  0.00     0.201 C 
ATOM      9  O   UNL     1     -37.285   3.638  84.466  1.00  0.00    -0.288 OA
ATOM     10  C   UNL     1     -38.935   3.550  82.745  1.00  0.00     0.076 A 
ATOM     11  C   UNL     1     -39.251   4.059  81.462  1.00  0.00     0.041 A 
ATOM     12  C   UNL     1     -38.175   4.554  80.572  1.00  0.00     0.194 C 
ATOM     13  O   UNL     1     -38.466   5.071  79.457  1.00  0.00    -0.289 OA
ATOM     14  C   UNL     1     -40.588   4.086  81.030  1.00  0.00     0.059 A 
ATOM     15  C   UNL     1     -41.608   3.600  81.846  1.00  0.00     0.120 A 
ATOM     16  C   UNL     1     -41.298   3.054  83.092  1.00  0.00     0.093 A 
ATOM     17  C   UNL     1     -39.973   2.990  83.537  1.00  0.00     0.131 A 
ENDROOT
BRANCH   6  18
ATOM     18  O   UNL     1     -34.726   3.370  83.910  1.00  0.00    -0.507 OA
ATOM     19  H   UNL     1     -34.254   3.959  84.585  1.00  0.00     0.293 HD
ENDBRANCH   6  18
BRANCH  17  20
ATOM     20  O   UNL     1     -39.738   2.331  84.746  1.00  0.00    -0.507 OA
ATOM     21  H   UNL     1     -38.850   2.342  85.228  1.00  0.00     0.293 HD
ENDBRANCH  17  20
BRANCH  15  22
ATOM     22  O   UNL     1     -42.927   3.654  81.402  1.00  0.00    -0.508 OA
ATOM     23  H   UNL     1     -43.167   4.043  80.497  1.00  0.00     0.293 HD
ENDBRANCH  15  22
TORSDOF 3
ENDMDL
MODEL 2
REMARK VINA RESULT:    -6.572      2.317      5.170
REMARK INTER + INTRA:          -7.148
REMARK INTER:                  -7.148
REMARK INTRA:                   0.000
REMARK UNBOUND:                 0.000
REMARK SMILES Cc1cc(O)c2c(c1)C(=O)c1cc(O)cc(O)c1C2=O
REMARK SMILES IDX 1 1 2 2 8 3 7 4 6 5 4 6 3 7 19 8 20 9 18 10 11 11 9 12 10 13
REMARK SMILES IDX 12 14 13 15 15 16 16 17 5 18 17 20 14 22
REMARK H PARENT 5 19 17 21 14 23
REMARK Flexibility Score: inf
ROOT
ATOM      1  C   UNL     1     -38.428   7.522  76.131  1.00  0.00     0.044 C 
ATOM      2  C   UNL     1     -38.387   6.691  77.380  1.00  0.00    -0.047 A 
ATOM      3  C   UNL     1     -37.160   6.282  77.915  1.00  0.00     0.016 A 
ATOM      4  C   UNL     1     -37.110   5.535  79.104  1.00  0.00     0.038 A 
ATOM      5  C   UNL     1     -38.305   5.198  79.772  1.00  0.00     0.076 A 
ATOM      6  C   UNL     1     -39.541   5.636  79.244  1.00  0.00     0.127 A 
ATOM      7  C   UNL     1     -39.572   6.381  78.058  1.00  0.00     0.050 A 
ATOM      8  C   UNL     1     -38.237   4.372  81.007  1.00  0.00     0.201 C 
ATOM      9  O   UNL     1     -39.267   3.765  81.404  1.00  0.00    -0.288 OA
ATOM     10  C   UNL     1     -36.935   4.171  81.702  1.00  0.00     0.076 A 
ATOM     11  C   UNL     1     -35.743   4.459  80.994  1.00  0.00     0.041 A 
ATOM     12  C   UNL     1     -35.808   5.100  79.660  1.00  0.00     0.194 C 
ATOM     13  O   UNL     1     -34.748   5.292  79.001  1.00  0.00    -0.289 OA
ATOM     14  C   UNL     1     -34.498   4.144  81.564  1.00  0.00     0.059 A 
ATOM     15  C   UNL     1     -34.420   3.565  82.828  1.00  0.00     0.120 A 
ATOM     16  C   UNL     1     -35.589   3.321  83.551  1.00  0.00     0.093 A 
ATOM     17  C   UNL     1     -36.842   3.648  83.021  1.00  0.00     0.131 A 
ENDROOT
BRANCH   6  18
ATOM     18  O   UNL     1     -40.739   5.344  79.898  1.00  0.00    -0.507 OA
ATOM     19  H   UNL     1     -40.755   4.987  80.846  1.00  0.00     0.293 HD
ENDBRANCH   6  18
BRANCH  17  20
ATOM     20  O   UNL     1     -37.951   3.474  83.851  1.00  0.00    -0.507 OA
ATOM     21  H   UNL     1     -38.388   2.580  84.023  1.00  0.00     0.293 HD
ENDBRANCH  17  20
BRANCH  15  22
ATOM     22  O   UNL     1     -33.175   3.246  83.363  1.00  0.00    -0.508 OA
ATOM     23  H   UNL     1     -32.524   3.965  83.655  1.00  0.00     0.293 HD
ENDBRANCH  15  22
TORSDOF 3
ENDMDL
MODEL 3
REMARK VINA RESULT:    -6.548      2.238      5.702
REMARK INTER + INTRA:          -7.123
REMARK INTER:                  -7.123
REMARK INTRA:                   0.000
REMARK UNBOUND:                 0.000
REMARK SMILES Cc1cc(O)c2c(c1)C(=O)c1cc(O)cc(O)c1C2=O
REMARK SMILES IDX 1 1 2 2 8 3 7 4 6 5 4 6 3 7 19 8 20 9 18 10 11 11 9 12 10 13
REMARK SMILES IDX 12 14 13 15 15 16 16 17 5 18 17 20 14 22
REMARK H PARENT 5 19 17 21 14 23
REMARK Flexibility Score: inf
ROOT
ATOM      1  C   UNL     1     -42.502   2.249  76.882  1.00  0.00     0.044 C 
ATOM      2  C   UNL     1     -41.774   2.657  78.129  1.00  0.00    -0.047 A 
ATOM      3  C   UNL     1     -40.378   2.768  78.126  1.00  0.00     0.016 A 
ATOM      4  C   UNL     1     -39.689   3.185  79.278  1.00  0.00     0.038 A 
ATOM      5  C   UNL     1     -40.408   3.502  80.449  1.00  0.00     0.076 A 
ATOM      6  C   UNL     1     -41.819   3.415  80.440  1.00  0.00     0.127 A 
ATOM      7  C   UNL     1     -42.489   2.999  79.283  1.00  0.00     0.050 A 
ATOM      8  C   UNL     1     -39.662   3.902  81.671  1.00  0.00     0.201 C 
ATOM      9  O   UNL     1     -40.230   3.834  82.795  1.00  0.00    -0.288 OA
ATOM     10  C   UNL     1     -38.221   4.268  81.583  1.00  0.00     0.076 A 
ATOM     11  C   UNL     1     -37.501   3.888  80.424  1.00  0.00     0.041 A 
ATOM     12  C   UNL     1     -38.213   3.293  79.268  1.00  0.00     0.194 C 
ATOM     13  O   UNL     1     -37.560   2.892  78.265  1.00  0.00    -0.289 OA
ATOM     14  C   UNL     1     -36.111   4.086  80.368  1.00  0.00     0.059 A 
ATOM     15  C   UNL     1     -35.432   4.669  81.436  1.00  0.00     0.120 A 
ATOM     16  C   UNL     1     -36.142   5.088  82.562  1.00  0.00     0.093 A 
ATOM     17  C   UNL     1     -37.530   4.928  82.635  1.00  0.00     0.131 A 
ENDROOT
BRANCH   6  18
ATOM     18  O   UNL     1     -42.561   3.752  81.574  1.00  0.00    -0.507 OA
ATOM     19  H   UNL     1     -42.914   3.046  82.209  1.00  0.00     0.293 HD
ENDBRANCH   6  18
BRANCH  17  20
ATOM     20  O   UNL     1     -38.177   5.472  83.747  1.00  0.00    -0.507 OA
ATOM     21  H   UNL     1     -38.478   4.928  84.543  1.00  0.00     0.293 HD
ENDBRANCH  17  20
BRANCH  15  22
ATOM     22  O   UNL     1     -34.052   4.838  81.363  1.00  0.00    -0.508 OA
ATOM     23  H   UNL     1     -33.586   5.603  81.837  1.00  0.00     0.293 HD
ENDBRANCH  15  22
TORSDOF 3
ENDMDL
MODEL 4
REMARK VINA RESULT:    -6.417      3.519      4.266
REMARK INTER + INTRA:          -6.979
REMARK INTER:                  -6.979
REMARK INTRA:                   0.000
REMARK UNBOUND:                 0.000
REMARK SMILES Cc1cc(O)c2c(c1)C(=O)c1cc(O)cc(O)c1C2=O
REMARK SMILES IDX 1 1 2 2 8 3 7 4 6 5 4 6 3 7 19 8 20 9 18 10 11 11 9 12 10 13
REMARK SMILES IDX 12 14 13 15 15 16 16 17 5 18 17 20 14 22
REMARK H PARENT 5 19 17 21 14 23
REMARK Flexibility Score: inf
ROOT
ATOM      1  C   UNL     1     -34.198   9.513  77.165  1.00  0.00     0.044 C 
ATOM      2  C   UNL     1     -34.836   8.252  77.670  1.00  0.00    -0.047 A 
ATOM      3  C   UNL     1     -36.230   8.136  77.713  1.00  0.00     0.016 A 
ATOM      4  C   UNL     1     -36.838   6.946  78.149  1.00  0.00     0.038 A 
ATOM      5  C   UNL     1     -36.038   5.853  78.542  1.00  0.00     0.076 A 
ATOM      6  C   UNL     1     -34.631   5.964  78.471  1.00  0.00     0.127 A 
ATOM      7  C   UNL     1     -34.043   7.157  78.032  1.00  0.00     0.050 A 
ATOM      8  C   UNL     1     -36.696   4.616  79.040  1.00  0.00     0.201 C 
ATOM      9  O   UNL     1     -36.030   3.791  79.722  1.00  0.00    -0.288 OA
ATOM     10  C   UNL     1     -38.157   4.410  78.835  1.00  0.00     0.076 A 
ATOM     11  C   UNL     1     -38.953   5.532  78.499  1.00  0.00     0.041 A 
ATOM     12  C   UNL     1     -38.314   6.834  78.198  1.00  0.00     0.194 C 
ATOM     13  O   UNL     1     -39.029   7.849  77.967  1.00  0.00    -0.289 OA
ATOM     14  C   UNL     1     -40.351   5.405  78.441  1.00  0.00     0.059 A 
ATOM     15  C   UNL     1     -40.965   4.180  78.695  1.00  0.00     0.120 A 
ATOM     16  C   UNL     1     -40.183   3.059  78.981  1.00  0.00     0.093 A 
ATOM     17  C   UNL     1     -38.788   3.150  79.019  1.00  0.00     0.131 A 
ENDROOT
BRANCH   6  18
ATOM     18  O   UNL     1     -33.813   4.889  78.824  1.00  0.00    -0.507 OA
ATOM     19  H   UNL     1     -34.057   4.259  79.578  1.00  0.00     0.293 HD
ENDBRANCH   6  18
BRANCH  17  20
ATOM     20  O   UNL     1     -38.077   1.962  79.204  1.00  0.00    -0.507 OA
ATOM     21  H   UNL     1     -37.068   1.908  79.217  1.00  0.00     0.293 HD
ENDBRANCH  17  20
BRANCH  15  22
ATOM     22  O   UNL     1     -42.353   4.084  78.648  1.00  0.00    -0.508 OA
ATOM     23  H   UNL     1     -42.930   4.358  79.435  1.00  0.00     0.293 HD
ENDBRANCH  15  22
TORSDOF 3
ENDMDL
MODEL 5
REMARK VINA RESULT:    -6.346      1.981      2.994
REMARK INTER + INTRA:          -6.902
REMARK INTER:                  -6.902
REMARK INTRA:                   0.000
REMARK UNBOUND:                 0.000
REMARK SMILES Cc1cc(O)c2c(c1)C(=O)c1cc(O)cc(O)c1C2=O
REMARK SMILES IDX 1 1 2 2 8 3 7 4 6 5 4 6 3 7 19 8 20 9 18 10 11 11 9 12 10 13
REMARK SMILES IDX 12 14 13 15 15 16 16 17 5 18 17 20 14 22
REMARK H PARENT 5 19 17 21 14 23
REMARK Flexibility Score: inf
ROOT
ATOM      1  C   UNL     1     -33.888   4.395  82.567  1.00  0.00     0.044 C 
ATOM      2  C   UNL     1     -35.379   4.394  82.400  1.00  0.00    -0.047 A 
ATOM      3  C   UNL     1     -35.948   4.111  81.153  1.00  0.00     0.016 A 
ATOM      4  C   UNL     1     -37.344   4.072  80.994  1.00  0.00     0.038 A 
ATOM      5  C   UNL     1     -38.183   4.313  82.101  1.00  0.00     0.076 A 
ATOM      6  C   UNL     1     -37.605   4.571  83.365  1.00  0.00     0.127 A 
ATOM      7  C   UNL     1     -36.212   4.605  83.505  1.00  0.00     0.050 A 
ATOM      8  C   UNL     1     -39.657   4.308  81.907  1.00  0.00     0.201 C 
ATOM      9  O   UNL     1     -40.397   4.865  82.763  1.00  0.00    -0.288 OA
ATOM     10  C   UNL     1     -40.247   3.753  80.657  1.00  0.00     0.076 A 
ATOM     11  C   UNL     1     -39.400   3.575  79.537  1.00  0.00     0.041 A 
ATOM     12  C   UNL     1     -37.938   3.779  79.669  1.00  0.00     0.194 C 
ATOM     13  O   UNL     1     -37.194   3.687  78.653  1.00  0.00    -0.289 OA
ATOM     14  C   UNL     1     -39.947   3.193  78.300  1.00  0.00     0.059 A 
ATOM     15  C   UNL     1     -41.316   2.971  78.166  1.00  0.00     0.120 A 
ATOM     16  C   UNL     1     -42.150   3.100  79.278  1.00  0.00     0.093 A 
ATOM     17  C   UNL     1     -41.630   3.453  80.528  1.00  0.00     0.131 A 
ENDROOT
BRANCH   6  18
ATOM     18  O   UNL     1     -38.409   4.782  84.487  1.00  0.00    -0.507 OA
ATOM     19  H   UNL     1     -38.296   4.239  85.334  1.00  0.00     0.293 HD
ENDBRANCH   6  18
BRANCH  17  20
ATOM     20  O   UNL     1     -42.514   3.453  81.609  1.00  0.00    -0.507 OA
ATOM     21  H   UNL     1     -43.130   4.223  81.830  1.00  0.00     0.293 HD
ENDBRANCH  17  20
BRANCH  15  22
ATOM     22  O   UNL     1     -41.836   2.611  76.926  1.00  0.00    -0.508 OA
ATOM     23  H   UNL     1     -41.581   3.107  76.080  1.00  0.00     0.293 HD
ENDBRANCH  15  22
TORSDOF 3
ENDMDL
MODEL 6
REMARK VINA RESULT:    -6.209      1.618      2.035
REMARK INTER + INTRA:          -6.754
REMARK INTER:                  -6.754
REMARK INTRA:                   0.000
REMARK UNBOUND:                 0.000
REMARK SMILES Cc1cc(O)c2c(c1)C(=O)c1cc(O)cc(O)c1C2=O
REMARK SMILES IDX 1 1 2 2 8 3 7 4 6 5 4 6 3 7 19 8 20 9 18 10 11 11 9 12 10 13
REMARK SMILES IDX 12 14 13 15 15 16 16 17 5 18 17 20 14 22
REMARK H PARENT 5 19 17 21 14 23
REMARK Flexibility Score: inf
ROOT
ATOM      1  C   UNL     1     -33.938   7.452  77.660  1.00  0.00     0.044 C 
ATOM      2  C   UNL     1     -34.617   6.591  78.685  1.00  0.00    -0.047 A 
ATOM      3  C   UNL     1     -36.014   6.565  78.769  1.00  0.00     0.016 A 
ATOM      4  C   UNL     1     -36.661   5.734  79.700  1.00  0.00     0.038 A 
ATOM      5  C   UNL     1     -35.898   4.912  80.556  1.00  0.00     0.076 A 
ATOM      6  C   UNL     1     -34.488   4.922  80.449  1.00  0.00     0.127 A 
ATOM      7  C   UNL     1     -33.861   5.755  79.514  1.00  0.00     0.050 A 
ATOM      8  C   UNL     1     -36.595   4.071  81.563  1.00  0.00     0.201 C 
ATOM      9  O   UNL     1     -35.952   3.625  82.552  1.00  0.00    -0.288 OA
ATOM     10  C   UNL     1     -38.066   3.852  81.468  1.00  0.00     0.076 A 
ATOM     11  C   UNL     1     -38.823   4.725  80.650  1.00  0.00     0.041 A 
ATOM     12  C   UNL     1     -38.139   5.717  79.788  1.00  0.00     0.194 C 
ATOM     13  O   UNL     1     -38.818   6.540  79.113  1.00  0.00    -0.289 OA
ATOM     14  C   UNL     1     -40.226   4.642  80.650  1.00  0.00     0.059 A 
ATOM     15  C   UNL     1     -40.882   3.697  81.436  1.00  0.00     0.120 A 
ATOM     16  C   UNL     1     -40.140   2.803  82.209  1.00  0.00     0.093 A 
ATOM     17  C   UNL     1     -38.742   2.844  82.208  1.00  0.00     0.131 A 
ENDROOT
BRANCH   6  18
ATOM     18  O   UNL     1     -33.707   4.097  81.261  1.00  0.00    -0.507 OA
ATOM     19  H   UNL     1     -33.647   3.098  81.105  1.00  0.00     0.293 HD
ENDBRANCH   6  18
BRANCH  17  20
ATOM     20  O   UNL     1     -38.074   1.846  82.922  1.00  0.00    -0.507 OA
ATOM     21  H   UNL     1     -38.010   1.825  83.930  1.00  0.00     0.293 HD
ENDBRANCH  17  20
BRANCH  15  22
ATOM     22  O   UNL     1     -42.274   3.647  81.431  1.00  0.00    -0.508 OA
ATOM     23  H   UNL     1     -42.777   2.938  80.910  1.00  0.00     0.293 HD
ENDBRANCH  15  22
TORSDOF 3
ENDMDL
MODEL 7
REMARK VINA RESULT:    -6.195      2.013      4.184
REMARK INTER + INTRA:          -6.738
REMARK INTER:                  -6.738
REMARK INTRA:                   0.000
REMARK UNBOUND:                 0.000
REMARK SMILES Cc1cc(O)c2c(c1)C(=O)c1cc(O)cc(O)c1C2=O
REMARK SMILES IDX 1 1 2 2 8 3 7 4 6 5 4 6 3 7 19 8 20 9 18 10 11 11 9 12 10 13
REMARK SMILES IDX 12 14 13 15 15 16 16 17 5 18 17 20 14 22
REMARK H PARENT 5 19 17 21 14 23
REMARK Flexibility Score: inf
ROOT
ATOM      1  C   UNL     1     -34.189   7.239  77.647  1.00  0.00     0.044 C 
ATOM      2  C   UNL     1     -35.470   6.548  78.013  1.00  0.00    -0.047 A 
ATOM      3  C   UNL     1     -35.541   5.760  79.167  1.00  0.00     0.016 A 
ATOM      4  C   UNL     1     -36.746   5.139  79.539  1.00  0.00     0.038 A 
ATOM      5  C   UNL     1     -37.899   5.315  78.746  1.00  0.00     0.076 A 
ATOM      6  C   UNL     1     -37.831   6.134  77.596  1.00  0.00     0.127 A 
ATOM      7  C   UNL     1     -36.622   6.746  77.242  1.00  0.00     0.050 A 
ATOM      8  C   UNL     1     -39.155   4.618  79.130  1.00  0.00     0.201 C 
ATOM      9  O   UNL     1     -40.065   4.462  78.272  1.00  0.00    -0.288 OA
ATOM     10  C   UNL     1     -39.289   4.007  80.482  1.00  0.00     0.076 A 
ATOM     11  C   UNL     1     -38.113   3.784  81.238  1.00  0.00     0.041 A 
ATOM     12  C   UNL     1     -36.811   4.301  80.758  1.00  0.00     0.194 C 
ATOM     13  O   UNL     1     -35.754   4.041  81.398  1.00  0.00    -0.289 OA
ATOM     14  C   UNL     1     -38.186   3.079  82.452  1.00  0.00     0.059 A 
ATOM     15  C   UNL     1     -39.407   2.609  82.930  1.00  0.00     0.120 A 
ATOM     16  C   UNL     1     -40.577   2.866  82.212  1.00  0.00     0.093 A 
ATOM     17  C   UNL     1     -40.539   3.588  81.015  1.00  0.00     0.131 A 
ENDROOT
BRANCH   6  18
ATOM     18  O   UNL     1     -38.963   6.352  76.808  1.00  0.00    -0.507 OA
ATOM     19  H   UNL     1     -39.056   7.176  76.226  1.00  0.00     0.293 HD
ENDBRANCH   6  18
BRANCH  17  20
ATOM     20  O   UNL     1     -41.763   3.896  80.417  1.00  0.00    -0.507 OA
ATOM     21  H   UNL     1     -42.560   4.256  80.923  1.00  0.00     0.293 HD
ENDBRANCH  17  20
BRANCH  15  22
ATOM     22  O   UNL     1     -39.450   1.898  84.126  1.00  0.00    -0.508 OA
ATOM     23  H   UNL     1     -39.019   0.985  84.216  1.00  0.00     0.293 HD
ENDBRANCH  15  22
TORSDOF 3
ENDMDL
MODEL 8
REMARK VINA RESULT:    -6.194      8.370      9.960
REMARK INTER + INTRA:          -6.738
REMARK INTER:                  -6.738
REMARK INTRA:                   0.000
REMARK UNBOUND:                 0.000
REMARK SMILES Cc1cc(O)c2c(c1)C(=O)c1cc(O)cc(O)c1C2=O
REMARK SMILES IDX 1 1 2 2 8 3 7 4 6 5 4 6 3 7 19 8 20 9 18 10 11 11 9 12 10 13
REMARK SMILES IDX 12 14 13 15 15 16 16 17 5 18 17 20 14 22
REMARK H PARENT 5 19 17 21 14 23
REMARK Flexibility Score: inf
ROOT
ATOM      1  C   UNL     1     -39.123  -1.121  85.124  1.00  0.00     0.044 C 
ATOM      2  C   UNL     1     -39.440  -2.292  84.241  1.00  0.00    -0.047 A 
ATOM      3  C   UNL     1     -40.771  -2.647  83.991  1.00  0.00     0.016 A 
ATOM      4  C   UNL     1     -41.079  -3.718  83.136  1.00  0.00     0.038 A 
ATOM      5  C   UNL     1     -40.039  -4.443  82.516  1.00  0.00     0.076 A 
ATOM      6  C   UNL     1     -38.697  -4.065  82.750  1.00  0.00     0.127 A 
ATOM      7  C   UNL     1     -38.409  -2.993  83.604  1.00  0.00     0.050 A 
ATOM      8  C   UNL     1     -40.381  -5.600  81.647  1.00  0.00     0.201 C 
ATOM      9  O   UNL     1     -39.499  -6.462  81.388  1.00  0.00    -0.288 OA
ATOM     10  C   UNL     1     -41.782  -5.800  81.183  1.00  0.00     0.076 A 
ATOM     11  C   UNL     1     -42.818  -5.109  81.856  1.00  0.00     0.041 A 
ATOM     12  C   UNL     1     -42.489  -4.091  82.882  1.00  0.00     0.194 C 
ATOM     13  O   UNL     1     -43.415  -3.527  83.530  1.00  0.00    -0.289 OA
ATOM     14  C   UNL     1     -44.160  -5.384  81.543  1.00  0.00     0.059 A 
ATOM     15  C   UNL     1     -44.485  -6.319  80.563  1.00  0.00     0.120 A 
ATOM     16  C   UNL     1     -43.468  -6.970  79.863  1.00  0.00     0.093 A 
ATOM     17  C   UNL     1     -42.123  -6.698  80.134  1.00  0.00     0.131 A 
ENDROOT
BRANCH   6  18
ATOM     18  O   UNL     1     -37.648  -4.743  82.127  1.00  0.00    -0.507 OA
ATOM     19  H   UNL     1     -37.768  -5.672  81.740  1.00  0.00     0.293 HD
ENDBRANCH   6  18
BRANCH  17  20
ATOM     20  O   UNL     1     -41.171  -7.309  79.315  1.00  0.00    -0.507 OA
ATOM     21  H   UNL     1     -40.872  -6.934  78.426  1.00  0.00     0.293 HD
ENDBRANCH  17  20
BRANCH  15  22
ATOM     22  O   UNL     1     -45.823  -6.586  80.284  1.00  0.00    -0.508 OA
ATOM     23  H   UNL     1     -46.106  -7.437  79.812  1.00  0.00     0.293 HD
ENDBRANCH  15  22
TORSDOF 3
ENDMDL
MODEL 9
REMARK VINA RESULT:    -6.193      3.925      6.012
REMARK INTER + INTRA:          -6.736
REMARK INTER:                  -6.736
REMARK INTRA:                   0.000
REMARK UNBOUND:                 0.000
REMARK SMILES Cc1cc(O)c2c(c1)C(=O)c1cc(O)cc(O)c1C2=O
REMARK SMILES IDX 1 1 2 2 8 3 7 4 6 5 4 6 3 7 19 8 20 9 18 10 11 11 9 12 10 13
REMARK SMILES IDX 12 14 13 15 15 16 16 17 5 18 17 20 14 22
REMARK H PARENT 5 19 17 21 14 23
REMARK Flexibility Score: inf
ROOT
ATOM      1  C   UNL     1     -33.519  10.122  76.752  1.00  0.00     0.044 C 
ATOM      2  C   UNL     1     -34.816   9.399  76.967  1.00  0.00    -0.047 A 
ATOM      3  C   UNL     1     -34.819   8.092  77.470  1.00  0.00     0.016 A 
ATOM      4  C   UNL     1     -36.030   7.420  77.710  1.00  0.00     0.038 A 
ATOM      5  C   UNL     1     -37.256   8.066  77.449  1.00  0.00     0.076 A 
ATOM      6  C   UNL     1     -37.249   9.395  76.967  1.00  0.00     0.127 A 
ATOM      7  C   UNL     1     -36.033  10.050  76.735  1.00  0.00     0.050 A 
ATOM      8  C   UNL     1     -38.526   7.326  77.669  1.00  0.00     0.201 C 
ATOM      9  O   UNL     1     -39.583   7.731  77.115  1.00  0.00    -0.288 OA
ATOM     10  C   UNL     1     -38.527   6.053  78.443  1.00  0.00     0.076 A 
ATOM     11  C   UNL     1     -37.294   5.388  78.644  1.00  0.00     0.041 A 
ATOM     12  C   UNL     1     -36.025   6.035  78.236  1.00  0.00     0.194 C 
ATOM     13  O   UNL     1     -34.933   5.411  78.352  1.00  0.00    -0.289 OA
ATOM     14  C   UNL     1     -37.274   4.116  79.240  1.00  0.00     0.059 A 
ATOM     15  C   UNL     1     -38.457   3.506  79.653  1.00  0.00     0.120 A 
ATOM     16  C   UNL     1     -39.672   4.176  79.501  1.00  0.00     0.093 A 
ATOM     17  C   UNL     1     -39.719   5.455  78.935  1.00  0.00     0.131 A 
ENDROOT
BRANCH   6  18
ATOM     18  O   UNL     1     -38.446  10.073  76.728  1.00  0.00    -0.507 OA
ATOM     19  H   UNL     1     -39.175  10.130  77.429  1.00  0.00     0.293 HD
ENDBRANCH   6  18
BRANCH  17  20
ATOM     20  O   UNL     1     -40.958   6.099  78.919  1.00  0.00    -0.507 OA
ATOM     21  H   UNL     1     -41.719   5.838  78.308  1.00  0.00     0.293 HD
ENDBRANCH  17  20
BRANCH  15  22
ATOM     22  O   UNL     1     -38.412   2.237  80.225  1.00  0.00    -0.508 OA
ATOM     23  H   UNL     1     -39.126   1.922  80.872  1.00  0.00     0.293 HD
ENDBRANCH  15  22
TORSDOF 3
ENDMDL
