MODEL 1
REMARK VINA RESULT:    -7.280      0.000      0.000
REMARK INTER + INTRA:          -8.845
REMARK INTER:                  -8.770
REMARK INTRA:                  -0.075
REMARK UNBOUND:                -0.075
REMARK SMILES O=c1c(O)c(-c2ccc(O)c(O)c2)oc2cc(O)cc(O)c12
REMARK SMILES IDX 5 1 3 2 2 3 1 4 22 5 20 6 19 7 17 8 16 9 15 10 14 11 6 12
REMARK SMILES IDX 7 13 8 14 9 15 13 16 11 17 10 18 12 20 4 22 21 24 18 26
REMARK H PARENT 10 19 12 21 4 23 21 25 18 27
REMARK Flexibility Score: inf
ROOT
ATOM      1  C   UNL     1     -38.556   4.013  79.532  1.00  0.00     0.180 A 
ATOM      2  C   UNL     1     -38.021   3.445  80.702  1.00  0.00     0.208 A 
ATOM      3  C   UNL     1     -36.696   3.743  81.058  1.00  0.00     0.238 A 
ATOM      4  O   UNL     1     -36.248   3.291  82.145  1.00  0.00    -0.285 OA
ATOM      5  C   UNL     1     -35.904   4.558  80.213  1.00  0.00     0.111 A 
ATOM      6  C   UNL     1     -34.535   4.889  80.453  1.00  0.00     0.134 A 
ATOM      7  C   UNL     1     -33.884   5.790  79.603  1.00  0.00     0.093 A 
ATOM      8  C   UNL     1     -34.529   6.325  78.488  1.00  0.00     0.123 A 
ATOM      9  C   UNL     1     -35.849   5.966  78.214  1.00  0.00     0.094 A 
ATOM     10  C   UNL     1     -36.538   5.098  79.064  1.00  0.00     0.146 A 
ATOM     11  O   UNL     1     -37.800   4.801  78.778  1.00  0.00    -0.452 OA
ENDROOT
BRANCH   1  12
ATOM     12  C   UNL     1     -39.948   3.758  79.099  1.00  0.00     0.025 A 
ATOM     13  C   UNL     1     -40.193   3.314  77.790  1.00  0.00     0.016 A 
ATOM     14  C   UNL     1     -41.501   3.087  77.351  1.00  0.00     0.051 A 
ATOM     15  C   UNL     1     -42.582   3.317  78.211  1.00  0.00     0.157 A 
ATOM     16  C   UNL     1     -41.040   4.008  79.951  1.00  0.00     0.062 A 
ATOM     17  C   UNL     1     -42.351   3.783  79.511  1.00  0.00     0.158 A 
BRANCH  15  18
ATOM     18  O   UNL     1     -43.888   3.090  77.779  1.00  0.00    -0.504 OA
ATOM     19  H   UNL     1     -44.550   3.849  77.675  1.00  0.00     0.293 HD
ENDBRANCH  15  18
BRANCH  17  20
ATOM     20  O   UNL     1     -43.431   4.024  80.360  1.00  0.00    -0.504 OA
ATOM     21  H   UNL     1     -43.930   3.266  80.812  1.00  0.00     0.293 HD
ENDBRANCH  17  20
ENDBRANCH   1  12
BRANCH   2  22
ATOM     22  O   UNL     1     -38.794   2.581  81.482  1.00  0.00    -0.502 OA
ATOM     23  H   UNL     1     -39.201   1.731  81.111  1.00  0.00     0.293 HD
ENDBRANCH   2  22
BRANCH   6  24
ATOM     24  O   UNL     1     -33.768   4.344  81.487  1.00  0.00    -0.507 OA
ATOM     25  H   UNL     1     -33.902   4.533  82.469  1.00  0.00     0.293 HD
ENDBRANCH   6  24
BRANCH   8  26
ATOM     26  O   UNL     1     -33.843   7.206  77.655  1.00  0.00    -0.508 OA
ATOM     27  H   UNL     1     -33.514   8.104  77.992  1.00  0.00     0.293 HD
ENDBRANCH   8  26
TORSDOF 6
ENDMDL
MODEL 2
REMARK VINA RESULT:    -7.188      1.552      6.811
REMARK INTER + INTRA:          -8.734
REMARK INTER:                  -8.449
REMARK INTRA:                  -0.284
REMARK UNBOUND:                -0.075
REMARK SMILES O=c1c(O)c(-c2ccc(O)c(O)c2)oc2cc(O)cc(O)c12
REMARK SMILES IDX 5 1 3 2 2 3 1 4 22 5 20 6 19 7 17 8 16 9 15 10 14 11 6 12
REMARK SMILES IDX 7 13 8 14 9 15 13 16 11 17 10 18 12 20 4 22 21 24 18 26
REMARK H PARENT 10 19 12 21 4 23 21 25 18 27
REMARK Flexibility Score: inf
ROOT
ATOM      1  C   UNL     1     -38.186   4.894  79.376  1.00  0.00     0.180 A 
ATOM      2  C   UNL     1     -38.755   4.978  80.659  1.00  0.00     0.208 A 
ATOM      3  C   UNL     1     -40.072   4.529  80.849  1.00  0.00     0.238 A 
ATOM      4  O   UNL     1     -40.549   4.539  82.014  1.00  0.00    -0.285 OA
ATOM      5  C   UNL     1     -40.822   4.054  79.746  1.00  0.00     0.111 A 
ATOM      6  C   UNL     1     -42.180   3.616  79.814  1.00  0.00     0.134 A 
ATOM      7  C   UNL     1     -42.786   3.067  78.679  1.00  0.00     0.093 A 
ATOM      8  C   UNL     1     -42.109   2.997  77.462  1.00  0.00     0.123 A 
ATOM      9  C   UNL     1     -40.800   3.472  77.370  1.00  0.00     0.094 A 
ATOM     10  C   UNL     1     -40.155   3.991  78.495  1.00  0.00     0.146 A 
ATOM     11  O   UNL     1     -38.902   4.412  78.368  1.00  0.00    -0.452 OA
ENDROOT
BRANCH   1  12
ATOM     12  C   UNL     1     -36.799   5.332  79.100  1.00  0.00     0.025 A 
ATOM     13  C   UNL     1     -35.727   4.503  79.469  1.00  0.00     0.016 A 
ATOM     14  C   UNL     1     -34.409   4.906  79.237  1.00  0.00     0.051 A 
ATOM     15  C   UNL     1     -34.144   6.148  78.647  1.00  0.00     0.157 A 
ATOM     16  C   UNL     1     -36.527   6.588  78.527  1.00  0.00     0.062 A 
ATOM     17  C   UNL     1     -35.204   6.993  78.296  1.00  0.00     0.158 A 
BRANCH  15  18
ATOM     18  O   UNL     1     -32.831   6.553  78.412  1.00  0.00    -0.504 OA
ATOM     19  H   UNL     1     -32.582   7.093  77.592  1.00  0.00     0.293 HD
ENDBRANCH  15  18
BRANCH  17  20
ATOM     20  O   UNL     1     -34.937   8.234  77.722  1.00  0.00    -0.504 OA
ATOM     21  H   UNL     1     -34.039   8.690  77.837  1.00  0.00     0.293 HD
ENDBRANCH  17  20
ENDBRANCH   1  12
BRANCH   2  22
ATOM     22  O   UNL     1     -38.025   5.522  81.719  1.00  0.00    -0.502 OA
ATOM     23  H   UNL     1     -37.286   5.013  82.188  1.00  0.00     0.293 HD
ENDBRANCH   2  22
BRANCH   6  24
ATOM     24  O   UNL     1     -42.980   3.721  80.957  1.00  0.00    -0.507 OA
ATOM     25  H   UNL     1     -42.643   3.669  81.905  1.00  0.00     0.293 HD
ENDBRANCH   6  24
BRANCH   8  26
ATOM     26  O   UNL     1     -42.750   2.459  76.348  1.00  0.00    -0.508 OA
ATOM     27  H   UNL     1     -43.760   2.378  76.307  1.00  0.00     0.293 HD
ENDBRANCH   8  26
TORSDOF 6
ENDMDL
MODEL 3
REMARK VINA RESULT:    -7.101      1.087      1.254
REMARK INTER + INTRA:          -8.629
REMARK INTER:                  -8.801
REMARK INTRA:                   0.171
REMARK UNBOUND:                -0.075
REMARK SMILES O=c1c(O)c(-c2ccc(O)c(O)c2)oc2cc(O)cc(O)c12
REMARK SMILES IDX 5 1 3 2 2 3 1 4 22 5 20 6 19 7 17 8 16 9 15 10 14 11 6 12
REMARK SMILES IDX 7 13 8 14 9 15 13 16 11 17 10 18 12 20 4 22 21 24 18 26
REMARK H PARENT 10 19 12 21 4 23 21 25 18 27
REMARK Flexibility Score: inf
ROOT
ATOM      1  C   UNL     1     -38.914   3.576  80.123  1.00  0.00     0.180 A 
ATOM      2  C   UNL     1     -38.760   3.205  81.470  1.00  0.00     0.208 A 
ATOM      3  C   UNL     1     -37.509   3.378  82.084  1.00  0.00     0.238 A 
ATOM      4  O   UNL     1     -37.398   3.113  83.310  1.00  0.00    -0.285 OA
ATOM      5  C   UNL     1     -36.414   3.866  81.330  1.00  0.00     0.111 A 
ATOM      6  C   UNL     1     -35.090   4.039  81.838  1.00  0.00     0.134 A 
ATOM      7  C   UNL     1     -34.113   4.630  81.029  1.00  0.00     0.093 A 
ATOM      8  C   UNL     1     -34.391   4.997  79.713  1.00  0.00     0.123 A 
ATOM      9  C   UNL     1     -35.666   4.783  79.189  1.00  0.00     0.094 A 
ATOM     10  C   UNL     1     -36.673   4.230  79.983  1.00  0.00     0.146 A 
ATOM     11  O   UNL     1     -37.879   4.063  79.451  1.00  0.00    -0.452 OA
ENDROOT
BRANCH   1  12
ATOM     12  C   UNL     1     -40.205   3.438  79.411  1.00  0.00     0.025 A 
ATOM     13  C   UNL     1     -40.208   3.132  78.041  1.00  0.00     0.016 A 
ATOM     14  C   UNL     1     -41.413   3.017  77.343  1.00  0.00     0.051 A 
ATOM     15  C   UNL     1     -42.632   3.223  78.002  1.00  0.00     0.157 A 
ATOM     16  C   UNL     1     -41.431   3.665  80.063  1.00  0.00     0.062 A 
ATOM     17  C   UNL     1     -42.640   3.552  79.363  1.00  0.00     0.158 A 
BRANCH  15  18
ATOM     18  O   UNL     1     -43.837   3.108  77.311  1.00  0.00    -0.504 OA
ATOM     19  H   UNL     1     -44.519   2.399  77.550  1.00  0.00     0.293 HD
ENDBRANCH  15  18
BRANCH  17  20
ATOM     20  O   UNL     1     -43.854   3.770  80.013  1.00  0.00    -0.504 OA
ATOM     21  H   UNL     1     -44.033   4.622  80.532  1.00  0.00     0.293 HD
ENDBRANCH  17  20
ENDBRANCH   1  12
BRANCH   2  22
ATOM     22  O   UNL     1     -39.832   2.652  82.175  1.00  0.00    -0.502 OA
ATOM     23  H   UNL     1     -40.262   1.774  81.912  1.00  0.00     0.293 HD
ENDBRANCH   2  22
BRANCH   6  24
ATOM     24  O   UNL     1     -34.680   3.627  83.109  1.00  0.00    -0.507 OA
ATOM     25  H   UNL     1     -35.259   3.633  83.935  1.00  0.00     0.293 HD
ENDBRANCH   6  24
BRANCH   8  26
ATOM     26  O   UNL     1     -33.388   5.568  78.933  1.00  0.00    -0.508 OA
ATOM     27  H   UNL     1     -33.377   5.462  77.924  1.00  0.00     0.293 HD
ENDBRANCH   8  26
TORSDOF 6
ENDMDL
MODEL 4
REMARK VINA RESULT:    -7.014      1.215      2.819
REMARK INTER + INTRA:          -8.524
REMARK INTER:                  -8.377
REMARK INTRA:                  -0.147
REMARK UNBOUND:                -0.075
REMARK SMILES O=c1c(O)c(-c2ccc(O)c(O)c2)oc2cc(O)cc(O)c12
REMARK SMILES IDX 5 1 3 2 2 3 1 4 22 5 20 6 19 7 17 8 16 9 15 10 14 11 6 12
REMARK SMILES IDX 7 13 8 14 9 15 13 16 11 17 10 18 12 20 4 22 21 24 18 26
REMARK H PARENT 10 19 12 21 4 23 21 25 18 27
REMARK Flexibility Score: inf
ROOT
ATOM      1  C   UNL     1     -38.699   4.547  79.284  1.00  0.00     0.180 A 
ATOM      2  C   UNL     1     -38.169   5.495  78.393  1.00  0.00     0.208 A 
ATOM      3  C   UNL     1     -36.828   5.887  78.535  1.00  0.00     0.238 A 
ATOM      4  O   UNL     1     -36.339   6.680  77.688  1.00  0.00    -0.285 OA
ATOM      5  C   UNL     1     -36.051   5.369  79.599  1.00  0.00     0.111 A 
ATOM      6  C   UNL     1     -34.694   5.729  79.865  1.00  0.00     0.134 A 
ATOM      7  C   UNL     1     -33.993   5.072  80.882  1.00  0.00     0.093 A 
ATOM      8  C   UNL     1     -34.612   4.113  81.683  1.00  0.00     0.123 A 
ATOM      9  C   UNL     1     -35.952   3.793  81.467  1.00  0.00     0.094 A 
ATOM     10  C   UNL     1     -36.669   4.404  80.435  1.00  0.00     0.146 A 
ATOM     11  O   UNL     1     -37.937   4.052  80.251  1.00  0.00    -0.452 OA
ENDROOT
BRANCH   1  12
ATOM     12  C   UNL     1     -40.099   4.073  79.189  1.00  0.00     0.025 A 
ATOM     13  C   UNL     1     -40.515   3.378  78.042  1.00  0.00     0.016 A 
ATOM     14  C   UNL     1     -41.837   2.939  77.921  1.00  0.00     0.051 A 
ATOM     15  C   UNL     1     -42.764   3.202  78.937  1.00  0.00     0.157 A 
ATOM     16  C   UNL     1     -41.039   4.352  80.198  1.00  0.00     0.062 A 
ATOM     17  C   UNL     1     -42.365   3.914  80.076  1.00  0.00     0.158 A 
BRANCH  15  18
ATOM     18  O   UNL     1     -44.082   2.765  78.822  1.00  0.00    -0.504 OA
ATOM     19  H   UNL     1     -44.656   3.017  78.026  1.00  0.00     0.293 HD
ENDBRANCH  15  18
BRANCH  17  20
ATOM     20  O   UNL     1     -43.293   4.187  81.080  1.00  0.00    -0.504 OA
ATOM     21  H   UNL     1     -43.389   3.586  81.890  1.00  0.00     0.293 HD
ENDBRANCH  17  20
ENDBRANCH   1  12
BRANCH   2  22
ATOM     22  O   UNL     1     -38.975   6.054  77.397  1.00  0.00    -0.502 OA
ATOM     23  H   UNL     1     -39.826   5.610  77.073  1.00  0.00     0.293 HD
ENDBRANCH   2  22
BRANCH   6  24
ATOM     24  O   UNL     1     -34.004   6.737  79.184  1.00  0.00    -0.507 OA
ATOM     25  H   UNL     1     -33.188   6.593  78.610  1.00  0.00     0.293 HD
ENDBRANCH   6  24
BRANCH   8  26
ATOM     26  O   UNL     1     -33.886   3.492  82.696  1.00  0.00    -0.508 OA
ATOM     27  H   UNL     1     -34.092   3.661  83.675  1.00  0.00     0.293 HD
ENDBRANCH   8  26
TORSDOF 6
ENDMDL
MODEL 5
REMARK VINA RESULT:    -6.887      1.537      1.956
REMARK INTER + INTRA:          -8.372
REMARK INTER:                  -8.040
REMARK INTRA:                  -0.332
REMARK UNBOUND:                -0.075
REMARK SMILES O=c1c(O)c(-c2ccc(O)c(O)c2)oc2cc(O)cc(O)c12
REMARK SMILES IDX 5 1 3 2 2 3 1 4 22 5 20 6 19 7 17 8 16 9 15 10 14 11 6 12
REMARK SMILES IDX 7 13 8 14 9 15 13 16 11 17 10 18 12 20 4 22 21 24 18 26
REMARK H PARENT 10 19 12 21 4 23 21 25 18 27
REMARK Flexibility Score: inf
ROOT
ATOM      1  C   UNL     1     -38.825   4.782  78.787  1.00  0.00     0.180 A 
ATOM      2  C   UNL     1     -37.731   4.100  79.347  1.00  0.00     0.208 A 
ATOM      3  C   UNL     1     -36.459   4.694  79.293  1.00  0.00     0.238 A 
ATOM      4  O   UNL     1     -35.498   4.112  79.861  1.00  0.00    -0.285 OA
ATOM      5  C   UNL     1     -36.288   5.934  78.631  1.00  0.00     0.111 A 
ATOM      6  C   UNL     1     -35.037   6.606  78.477  1.00  0.00     0.134 A 
ATOM      7  C   UNL     1     -35.005   7.879  77.897  1.00  0.00     0.093 A 
ATOM      8  C   UNL     1     -36.165   8.480  77.409  1.00  0.00     0.123 A 
ATOM      9  C   UNL     1     -37.384   7.809  77.506  1.00  0.00     0.094 A 
ATOM     10  C   UNL     1     -37.455   6.553  78.114  1.00  0.00     0.146 A 
ATOM     11  O   UNL     1     -38.639   5.959  78.204  1.00  0.00    -0.452 OA
ENDROOT
BRANCH   1  12
ATOM     12  C   UNL     1     -40.198   4.228  78.819  1.00  0.00     0.025 A 
ATOM     13  C   UNL     1     -40.680   3.515  77.709  1.00  0.00     0.016 A 
ATOM     14  C   UNL     1     -41.980   3.001  77.707  1.00  0.00     0.051 A 
ATOM     15  C   UNL     1     -42.820   3.206  78.808  1.00  0.00     0.157 A 
ATOM     16  C   UNL     1     -41.054   4.449  79.913  1.00  0.00     0.062 A 
ATOM     17  C   UNL     1     -42.358   3.936  79.911  1.00  0.00     0.158 A 
BRANCH  15  18
ATOM     18  O   UNL     1     -44.117   2.694  78.812  1.00  0.00    -0.504 OA
ATOM     19  H   UNL     1     -44.924   3.296  78.920  1.00  0.00     0.293 HD
ENDBRANCH  15  18
BRANCH  17  20
ATOM     20  O   UNL     1     -43.202   4.150  81.000  1.00  0.00    -0.504 OA
ATOM     21  H   UNL     1     -44.143   4.506  80.880  1.00  0.00     0.293 HD
ENDBRANCH  17  20
ENDBRANCH   1  12
BRANCH   2  22
ATOM     22  O   UNL     1     -37.907   2.841  79.926  1.00  0.00    -0.502 OA
ATOM     23  H   UNL     1     -37.210   2.415  80.525  1.00  0.00     0.293 HD
ENDBRANCH   2  22
BRANCH   6  24
ATOM     24  O   UNL     1     -33.804   6.061  78.848  1.00  0.00    -0.507 OA
ATOM     25  H   UNL     1     -33.590   5.679  79.757  1.00  0.00     0.293 HD
ENDBRANCH   6  24
BRANCH   8  26
ATOM     26  O   UNL     1     -36.092   9.742  76.824  1.00  0.00    -0.508 OA
ATOM     27  H   UNL     1     -35.483   9.924  76.033  1.00  0.00     0.293 HD
ENDBRANCH   8  26
TORSDOF 6
ENDMDL
MODEL 6
REMARK VINA RESULT:    -6.770      9.261     12.396
REMARK INTER + INTRA:          -8.230
REMARK INTER:                  -8.038
REMARK INTRA:                  -0.192
REMARK UNBOUND:                -0.075
REMARK SMILES O=c1c(O)c(-c2ccc(O)c(O)c2)oc2cc(O)cc(O)c12
REMARK SMILES IDX 5 1 3 2 2 3 1 4 22 5 20 6 19 7 17 8 16 9 15 10 14 11 6 12
REMARK SMILES IDX 7 13 8 14 9 15 13 16 11 17 10 18 12 20 4 22 21 24 18 26
REMARK H PARENT 10 19 12 21 4 23 21 25 18 27
REMARK Flexibility Score: inf
ROOT
ATOM      1  C   UNL     1     -46.613   4.582  72.015  1.00  0.00     0.180 A 
ATOM      2  C   UNL     1     -47.810   3.880  71.788  1.00  0.00     0.208 A 
ATOM      3  C   UNL     1     -47.931   2.567  72.271  1.00  0.00     0.238 A 
ATOM      4  O   UNL     1     -49.032   1.973  72.128  1.00  0.00    -0.285 OA
ATOM      5  C   UNL     1     -46.837   1.953  72.925  1.00  0.00     0.111 A 
ATOM      6  C   UNL     1     -46.833   0.611  73.417  1.00  0.00     0.134 A 
ATOM      7  C   UNL     1     -45.731   0.146  74.143  1.00  0.00     0.093 A 
ATOM      8  C   UNL     1     -44.607   0.947  74.342  1.00  0.00     0.123 A 
ATOM      9  C   UNL     1     -44.578   2.240  73.820  1.00  0.00     0.094 A 
ATOM     10  C   UNL     1     -45.678   2.747  73.124  1.00  0.00     0.146 A 
ATOM     11  O   UNL     1     -45.616   3.991  72.662  1.00  0.00    -0.452 OA
ENDROOT
BRANCH   1  12
ATOM     12  C   UNL     1     -46.415   5.973  71.550  1.00  0.00     0.025 A 
ATOM     13  C   UNL     1     -46.350   7.013  72.492  1.00  0.00     0.016 A 
ATOM     14  C   UNL     1     -46.184   8.337  72.076  1.00  0.00     0.051 A 
ATOM     15  C   UNL     1     -46.097   8.641  70.712  1.00  0.00     0.157 A 
ATOM     16  C   UNL     1     -46.348   6.287  70.180  1.00  0.00     0.062 A 
ATOM     17  C   UNL     1     -46.184   7.615  69.762  1.00  0.00     0.158 A 
BRANCH  15  18
ATOM     18  O   UNL     1     -45.930   9.960  70.291  1.00  0.00    -0.504 OA
ATOM     19  H   UNL     1     -46.645  10.440  69.759  1.00  0.00     0.293 HD
ENDBRANCH  15  18
BRANCH  17  20
ATOM     20  O   UNL     1     -46.110   7.923  68.405  1.00  0.00    -0.504 OA
ATOM     21  H   UNL     1     -45.664   8.771  68.076  1.00  0.00     0.293 HD
ENDBRANCH  17  20
ENDBRANCH   1  12
BRANCH   2  22
ATOM     22  O   UNL     1     -48.850   4.477  71.071  1.00  0.00    -0.502 OA
ATOM     23  H   UNL     1     -49.680   4.844  71.521  1.00  0.00     0.293 HD
ENDBRANCH   2  22
BRANCH   6  24
ATOM     24  O   UNL     1     -47.866  -0.305  73.199  1.00  0.00    -0.507 OA
ATOM     25  H   UNL     1     -48.592  -0.205  72.506  1.00  0.00     0.293 HD
ENDBRANCH   6  24
BRANCH   8  26
ATOM     26  O   UNL     1     -43.522   0.443  75.056  1.00  0.00    -0.508 OA
ATOM     27  H   UNL     1     -43.410   0.624  76.047  1.00  0.00     0.293 HD
ENDBRANCH   8  26
TORSDOF 6
ENDMDL
MODEL 7
REMARK VINA RESULT:    -6.608      1.751      6.904
REMARK INTER + INTRA:          -8.035
REMARK INTER:                  -8.227
REMARK INTRA:                   0.192
REMARK UNBOUND:                -0.075
REMARK SMILES O=c1c(O)c(-c2ccc(O)c(O)c2)oc2cc(O)cc(O)c12
REMARK SMILES IDX 5 1 3 2 2 3 1 4 22 5 20 6 19 7 17 8 16 9 15 10 14 11 6 12
REMARK SMILES IDX 7 13 8 14 9 15 13 16 11 17 10 18 12 20 4 22 21 24 18 26
REMARK H PARENT 10 19 12 21 4 23 21 25 18 27
REMARK Flexibility Score: inf
ROOT
ATOM      1  C   UNL     1     -39.140   3.861  80.500  1.00  0.00     0.180 A 
ATOM      2  C   UNL     1     -40.109   4.036  81.504  1.00  0.00     0.208 A 
ATOM      3  C   UNL     1     -41.465   3.884  81.174  1.00  0.00     0.238 A 
ATOM      4  O   UNL     1     -42.321   3.969  82.093  1.00  0.00    -0.285 OA
ATOM      5  C   UNL     1     -41.840   3.616  79.836  1.00  0.00     0.111 A 
ATOM      6  C   UNL     1     -43.188   3.487  79.380  1.00  0.00     0.134 A 
ATOM      7  C   UNL     1     -43.435   3.115  78.054  1.00  0.00     0.093 A 
ATOM      8  C   UNL     1     -42.390   2.928  77.150  1.00  0.00     0.123 A 
ATOM      9  C   UNL     1     -41.071   3.105  77.570  1.00  0.00     0.094 A 
ATOM     10  C   UNL     1     -40.791   3.439  78.897  1.00  0.00     0.146 A 
ATOM     11  O   UNL     1     -39.520   3.576  79.260  1.00  0.00    -0.452 OA
ENDROOT
BRANCH   1  12
ATOM     12  C   UNL     1     -37.691   3.989  80.772  1.00  0.00     0.025 A 
ATOM     13  C   UNL     1     -36.839   4.465  79.763  1.00  0.00     0.016 A 
ATOM     14  C   UNL     1     -35.464   4.575  79.990  1.00  0.00     0.051 A 
ATOM     15  C   UNL     1     -34.920   4.195  81.224  1.00  0.00     0.157 A 
ATOM     16  C   UNL     1     -37.137   3.590  82.002  1.00  0.00     0.062 A 
ATOM     17  C   UNL     1     -35.758   3.697  82.230  1.00  0.00     0.158 A 
BRANCH  15  18
ATOM     18  O   UNL     1     -33.550   4.305  81.456  1.00  0.00    -0.504 OA
ATOM     19  H   UNL     1     -33.031   5.129  81.179  1.00  0.00     0.293 HD
ENDBRANCH  15  18
BRANCH  17  20
ATOM     20  O   UNL     1     -35.212   3.307  83.452  1.00  0.00    -0.504 OA
ATOM     21  H   UNL     1     -34.518   3.872  83.928  1.00  0.00     0.293 HD
ENDBRANCH  17  20
ENDBRANCH   1  12
BRANCH   2  22
ATOM     22  O   UNL     1     -39.722   4.377  82.802  1.00  0.00    -0.502 OA
ATOM     23  H   UNL     1     -40.392   4.537  83.545  1.00  0.00     0.293 HD
ENDBRANCH   2  22
BRANCH   6  24
ATOM     24  O   UNL     1     -44.311   3.737  80.175  1.00  0.00    -0.507 OA
ATOM     25  H   UNL     1     -44.658   3.122  80.895  1.00  0.00     0.293 HD
ENDBRANCH   6  24
BRANCH   8  26
ATOM     26  O   UNL     1     -42.675   2.574  75.833  1.00  0.00    -0.508 OA
ATOM     27  H   UNL     1     -42.954   3.267  75.147  1.00  0.00     0.293 HD
ENDBRANCH   8  26
TORSDOF 6
ENDMDL
MODEL 8
REMARK VINA RESULT:    -6.429     10.574     11.846
REMARK INTER + INTRA:          -7.819
REMARK INTER:                  -7.489
REMARK INTRA:                  -0.330
REMARK UNBOUND:                -0.075
REMARK SMILES O=c1c(O)c(-c2ccc(O)c(O)c2)oc2cc(O)cc(O)c12
REMARK SMILES IDX 5 1 3 2 2 3 1 4 22 5 20 6 19 7 17 8 16 9 15 10 14 11 6 12
REMARK SMILES IDX 7 13 8 14 9 15 13 16 11 17 10 18 12 20 4 22 21 24 18 26
REMARK H PARENT 10 19 12 21 4 23 21 25 18 27
REMARK Flexibility Score: inf
ROOT
ATOM      1  C   UNL     1     -46.843   2.709  73.310  1.00  0.00     0.180 A 
ATOM      2  C   UNL     1     -47.284   3.628  74.278  1.00  0.00     0.208 A 
ATOM      3  C   UNL     1     -47.373   4.987  73.937  1.00  0.00     0.238 A 
ATOM      4  O   UNL     1     -47.839   5.792  74.785  1.00  0.00    -0.285 OA
ATOM      5  C   UNL     1     -46.966   5.419  72.651  1.00  0.00     0.111 A 
ATOM      6  C   UNL     1     -46.971   6.778  72.211  1.00  0.00     0.134 A 
ATOM      7  C   UNL     1     -46.648   7.074  70.882  1.00  0.00     0.093 A 
ATOM      8  C   UNL     1     -46.260   6.072  69.993  1.00  0.00     0.123 A 
ATOM      9  C   UNL     1     -46.199   4.748  70.427  1.00  0.00     0.094 A 
ATOM     10  C   UNL     1     -46.552   4.416  71.737  1.00  0.00     0.146 A 
ATOM     11  O   UNL     1     -46.501   3.139  72.102  1.00  0.00    -0.452 OA
ENDROOT
BRANCH   1  12
ATOM     12  C   UNL     1     -46.738   1.259  73.590  1.00  0.00     0.025 A 
ATOM     13  C   UNL     1     -45.528   0.737  74.076  1.00  0.00     0.016 A 
ATOM     14  C   UNL     1     -45.399  -0.632  74.327  1.00  0.00     0.051 A 
ATOM     15  C   UNL     1     -46.471  -1.499  74.081  1.00  0.00     0.157 A 
ATOM     16  C   UNL     1     -47.804   0.381  73.325  1.00  0.00     0.062 A 
ATOM     17  C   UNL     1     -47.674  -0.992  73.574  1.00  0.00     0.158 A 
BRANCH  15  18
ATOM     18  O   UNL     1     -46.347  -2.864  74.332  1.00  0.00    -0.504 OA
ATOM     19  H   UNL     1     -45.607  -3.230  74.919  1.00  0.00     0.293 HD
ENDBRANCH  15  18
BRANCH  17  20
ATOM     20  O   UNL     1     -48.735  -1.859  73.318  1.00  0.00    -0.504 OA
ATOM     21  H   UNL     1     -48.749  -2.453  72.496  1.00  0.00     0.293 HD
ENDBRANCH  17  20
ENDBRANCH   1  12
BRANCH   2  22
ATOM     22  O   UNL     1     -47.607   3.192  75.566  1.00  0.00    -0.502 OA
ATOM     23  H   UNL     1     -47.503   2.228  75.856  1.00  0.00     0.293 HD
ENDBRANCH   2  22
BRANCH   6  24
ATOM     24  O   UNL     1     -47.257   7.868  73.039  1.00  0.00    -0.507 OA
ATOM     25  H   UNL     1     -47.010   7.934  74.014  1.00  0.00     0.293 HD
ENDBRANCH   6  24
BRANCH   8  26
ATOM     26  O   UNL     1     -45.930   6.407  68.682  1.00  0.00    -0.508 OA
ATOM     27  H   UNL     1     -46.640   6.670  68.008  1.00  0.00     0.293 HD
ENDBRANCH   8  26
TORSDOF 6
ENDMDL
MODEL 9
REMARK VINA RESULT:    -6.196      3.175      5.303
REMARK INTER + INTRA:          -7.539
REMARK INTER:                  -7.280
REMARK INTRA:                  -0.259
REMARK UNBOUND:                -0.075
REMARK SMILES O=c1c(O)c(-c2ccc(O)c(O)c2)oc2cc(O)cc(O)c12
REMARK SMILES IDX 5 1 3 2 2 3 1 4 22 5 20 6 19 7 17 8 16 9 15 10 14 11 6 12
REMARK SMILES IDX 7 13 8 14 9 15 13 16 11 17 10 18 12 20 4 22 21 24 18 26
REMARK H PARENT 10 19 12 21 4 23 21 25 18 27
REMARK Flexibility Score: inf
ROOT
ATOM      1  C   UNL     1     -39.680   5.591  79.604  1.00  0.00     0.180 A 
ATOM      2  C   UNL     1     -40.865   4.891  79.893  1.00  0.00     0.208 A 
ATOM      3  C   UNL     1     -40.862   3.946  80.931  1.00  0.00     0.238 A 
ATOM      4  O   UNL     1     -41.944   3.378  81.232  1.00  0.00    -0.285 OA
ATOM      5  C   UNL     1     -39.662   3.670  81.630  1.00  0.00     0.111 A 
ATOM      6  C   UNL     1     -39.532   2.700  82.670  1.00  0.00     0.134 A 
ATOM      7  C   UNL     1     -38.321   2.589  83.363  1.00  0.00     0.093 A 
ATOM      8  C   UNL     1     -37.216   3.366  83.014  1.00  0.00     0.123 A 
ATOM      9  C   UNL     1     -37.316   4.279  81.964  1.00  0.00     0.094 A 
ATOM     10  C   UNL     1     -38.522   4.440  81.278  1.00  0.00     0.146 A 
ATOM     11  O   UNL     1     -38.579   5.335  80.299  1.00  0.00    -0.452 OA
ENDROOT
BRANCH   1  12
ATOM     12  C   UNL     1     -39.609   6.613  78.535  1.00  0.00     0.025 A 
ATOM     13  C   UNL     1     -38.873   6.342  77.370  1.00  0.00     0.016 A 
ATOM     14  C   UNL     1     -38.774   7.300  76.357  1.00  0.00     0.051 A 
ATOM     15  C   UNL     1     -39.396   8.546  76.501  1.00  0.00     0.157 A 
ATOM     16  C   UNL     1     -40.215   7.874  78.684  1.00  0.00     0.062 A 
ATOM     17  C   UNL     1     -40.114   8.835  77.669  1.00  0.00     0.158 A 
BRANCH  15  18
ATOM     18  O   UNL     1     -39.302   9.504  75.492  1.00  0.00    -0.504 OA
ATOM     19  H   UNL     1     -40.095  10.078  75.233  1.00  0.00     0.293 HD
ENDBRANCH  15  18
BRANCH  17  20
ATOM     20  O   UNL     1     -40.722  10.081  77.815  1.00  0.00    -0.504 OA
ATOM     21  H   UNL     1     -41.718  10.171  77.979  1.00  0.00     0.293 HD
ENDBRANCH  17  20
ENDBRANCH   1  12
BRANCH   2  22
ATOM     22  O   UNL     1     -42.020   5.122  79.140  1.00  0.00    -0.502 OA
ATOM     23  H   UNL     1     -42.481   4.390  78.613  1.00  0.00     0.293 HD
ENDBRANCH   2  22
BRANCH   6  24
ATOM     24  O   UNL     1     -40.544   1.810  83.041  1.00  0.00    -0.507 OA
ATOM     25  H   UNL     1     -41.210   1.395  82.408  1.00  0.00     0.293 HD
ENDBRANCH   6  24
BRANCH   8  26
ATOM     26  O   UNL     1     -36.022   3.216  83.716  1.00  0.00    -0.508 OA
ATOM     27  H   UNL     1     -35.898   2.477  84.398  1.00  0.00     0.293 HD
ENDBRANCH   8  26
TORSDOF 6
ENDMDL
