MODEL 1
REMARK VINA RESULT:    -3.277      0.000      0.000
REMARK INTER + INTRA:          -8.822
REMARK INTER:                  -6.342
REMARK INTRA:                  -2.480
REMARK UNBOUND:                -2.480
REMARK SMILES CCCCCCCCCCCCCCCCCC(=O)[O-]
REMARK SMILES IDX 10 1 11 2 12 3 13 4 14 5 15 6 16 7 17 8 18 9 19 10 20 11
REMARK SMILES IDX 9 12 8 13 7 14 6 15 5 16 4 17 3 18 2 19 1 20
REMARK H PARENT
REMARK Flexibility Score: inf
ROOT
ATOM      1  C   UNL     1      63.043  33.045  59.779  1.00  0.00     0.000 C 
ENDROOT
BRANCH   1   2
ATOM      2  C   UNL     1      64.333  33.296  60.585  1.00  0.00     0.000 C 
BRANCH   2   3
ATOM      3  C   UNL     1      64.249  34.425  61.630  1.00  0.00     0.000 C 
BRANCH   3   4
ATOM      4  C   UNL     1      64.904  35.752  61.183  1.00  0.00     0.000 C 
BRANCH   4   5
ATOM      5  C   UNL     1      63.911  36.858  60.785  1.00  0.00     0.000 C 
BRANCH   5   6
ATOM      6  C   UNL     1      62.523  36.680  61.432  1.00  0.00     0.000 C 
BRANCH   6   7
ATOM      7  C   UNL     1      61.381  36.733  60.407  1.00  0.00     0.006 C 
BRANCH   7   8
ATOM      8  C   UNL     1      61.857  36.460  58.973  1.00  0.00     0.053 C 
BRANCH   8   9
ATOM      9  C   UNL     1      60.761  35.848  58.156  1.00  0.00     0.041 C 
ATOM     10  O   UNL     1      60.981  35.490  56.967  1.00  0.00    -0.550 OA
ATOM     11  O   UNL     1      59.490  35.688  58.701  1.00  0.00    -0.550 OA
ENDBRANCH   8   9
ENDBRANCH   7   8
ENDBRANCH   6   7
ENDBRANCH   5   6
ENDBRANCH   4   5
ENDBRANCH   3   4
ENDBRANCH   2   3
ENDBRANCH   1   2
BRANCH   1  12
ATOM     12  C   UNL     1      61.738  33.059  60.597  1.00  0.00     0.000 C 
BRANCH  12  13
ATOM     13  C   UNL     1      60.993  31.717  60.571  1.00  0.00    -0.000 C 
BRANCH  13  14
ATOM     14  C   UNL     1      61.141  30.984  61.915  1.00  0.00    -0.000 C 
BRANCH  14  15
ATOM     15  C   UNL     1      62.346  30.029  61.933  1.00  0.00    -0.000 C 
BRANCH  15  16
ATOM     16  C   UNL     1      62.410  29.148  60.670  1.00  0.00    -0.000 C 
BRANCH  16  17
ATOM     17  C   UNL     1      63.782  29.217  59.977  1.00  0.00    -0.000 C 
BRANCH  17  18
ATOM     18  C   UNL     1      64.902  29.765  60.889  1.00  0.00    -0.000 C 
BRANCH  18  19
ATOM     19  C   UNL     1      65.959  28.712  61.268  1.00  0.00    -0.003 C 
ATOM     20  C   UNL     1      65.710  27.354  60.615  1.00  0.00     0.004 C 
ENDBRANCH  18  19
ENDBRANCH  17  18
ENDBRANCH  16  17
ENDBRANCH  15  16
ENDBRANCH  14  15
ENDBRANCH  13  14
ENDBRANCH  12  13
ENDBRANCH   1  12
TORSDOF 16
ENDMDL
MODEL 2
REMARK VINA RESULT:    -3.275      4.659      7.733
REMARK INTER + INTRA:          -8.819
REMARK INTER:                  -7.384
REMARK INTRA:                  -1.435
REMARK UNBOUND:                -2.480
REMARK SMILES CCCCCCCCCCCCCCCCCC(=O)[O-]
REMARK SMILES IDX 10 1 11 2 12 3 13 4 14 5 15 6 16 7 17 8 18 9 19 10 20 11
REMARK SMILES IDX 9 12 8 13 7 14 6 15 5 16 4 17 3 18 2 19 1 20
REMARK H PARENT
REMARK Flexibility Score: inf
ROOT
ATOM      1  C   UNL     1      64.306  28.376  60.688  1.00  0.00     0.000 C 
ENDROOT
BRANCH   1   2
ATOM      2  C   UNL     1      65.732  27.924  61.058  1.00  0.00     0.000 C 
BRANCH   2   3
ATOM      3  C   UNL     1      66.792  29.042  61.087  1.00  0.00     0.000 C 
BRANCH   3   4
ATOM      4  C   UNL     1      68.121  28.637  61.765  1.00  0.00     0.000 C 
BRANCH   4   5
ATOM      5  C   UNL     1      69.386  28.980  60.958  1.00  0.00     0.000 C 
BRANCH   5   6
ATOM      6  C   UNL     1      70.259  30.051  61.639  1.00  0.00     0.000 C 
BRANCH   6   7
ATOM      7  C   UNL     1      71.730  29.982  61.203  1.00  0.00     0.006 C 
BRANCH   7   8
ATOM      8  C   UNL     1      72.427  31.349  61.247  1.00  0.00     0.053 C 
BRANCH   8   9
ATOM      9  C   UNL     1      71.751  32.320  60.327  1.00  0.00     0.041 C 
ATOM     10  O   UNL     1      71.618  32.046  59.104  1.00  0.00    -0.550 OA
ATOM     11  O   UNL     1      71.282  33.535  60.818  1.00  0.00    -0.550 OA
ENDBRANCH   8   9
ENDBRANCH   7   8
ENDBRANCH   6   7
ENDBRANCH   5   6
ENDBRANCH   4   5
ENDBRANCH   3   4
ENDBRANCH   2   3
ENDBRANCH   1   2
BRANCH   1  12
ATOM     12  C   UNL     1      63.727  29.514  61.551  1.00  0.00     0.000 C 
BRANCH  12  13
ATOM     13  C   UNL     1      62.268  29.279  61.964  1.00  0.00    -0.000 C 
BRANCH  13  14
ATOM     14  C   UNL     1      61.407  30.516  61.658  1.00  0.00    -0.000 C 
BRANCH  14  15
ATOM     15  C   UNL     1      61.102  30.662  60.157  1.00  0.00    -0.000 C 
BRANCH  15  16
ATOM     16  C   UNL     1      61.142  32.132  59.696  1.00  0.00    -0.000 C 
BRANCH  16  17
ATOM     17  C   UNL     1      61.582  33.086  60.820  1.00  0.00    -0.000 C 
BRANCH  17  18
ATOM     18  C   UNL     1      62.873  33.868  60.490  1.00  0.00    -0.000 C 
BRANCH  18  19
ATOM     19  C   UNL     1      64.162  33.093  60.814  1.00  0.00    -0.003 C 
ATOM     20  C   UNL     1      64.785  32.428  59.587  1.00  0.00     0.004 C 
ENDBRANCH  18  19
ENDBRANCH  17  18
ENDBRANCH  16  17
ENDBRANCH  15  16
ENDBRANCH  14  15
ENDBRANCH  13  14
ENDBRANCH  12  13
ENDBRANCH   1  12
TORSDOF 16
ENDMDL
MODEL 3
REMARK VINA RESULT:    -3.273     11.166     13.120
REMARK INTER + INTRA:          -8.813
REMARK INTER:                  -6.673
REMARK INTRA:                  -2.140
REMARK UNBOUND:                -2.480
REMARK SMILES CCCCCCCCCCCCCCCCCC(=O)[O-]
REMARK SMILES IDX 10 1 11 2 12 3 13 4 14 5 15 6 16 7 17 8 18 9 19 10 20 11
REMARK SMILES IDX 9 12 8 13 7 14 6 15 5 16 4 17 3 18 2 19 1 20
REMARK H PARENT
REMARK Flexibility Score: inf
ROOT
ATOM      1  C   UNL     1      58.646  29.064  49.684  1.00  0.00     0.000 C 
ENDROOT
BRANCH   1   2
ATOM      2  C   UNL     1      59.575  28.106  48.913  1.00  0.00     0.000 C 
BRANCH   2   3
ATOM      3  C   UNL     1      59.881  26.772  49.620  1.00  0.00     0.000 C 
BRANCH   3   4
ATOM      4  C   UNL     1      61.389  26.467  49.771  1.00  0.00     0.000 C 
BRANCH   4   5
ATOM      5  C   UNL     1      62.322  27.634  49.403  1.00  0.00     0.000 C 
BRANCH   5   6
ATOM      6  C   UNL     1      63.264  28.036  50.555  1.00  0.00     0.000 C 
BRANCH   6   7
ATOM      7  C   UNL     1      63.055  29.487  51.013  1.00  0.00     0.006 C 
BRANCH   7   8
ATOM      8  C   UNL     1      62.174  30.292  50.046  1.00  0.00     0.053 C 
BRANCH   8   9
ATOM      9  C   UNL     1      62.986  31.320  49.319  1.00  0.00     0.041 C 
ATOM     10  O   UNL     1      62.528  32.483  49.147  1.00  0.00    -0.550 OA
ATOM     11  O   UNL     1      64.240  30.991  48.816  1.00  0.00    -0.550 OA
ENDBRANCH   8   9
ENDBRANCH   7   8
ENDBRANCH   6   7
ENDBRANCH   5   6
ENDBRANCH   4   5
ENDBRANCH   3   4
ENDBRANCH   2   3
ENDBRANCH   1   2
BRANCH   1  12
ATOM     12  C   UNL     1      57.298  28.464  50.128  1.00  0.00     0.000 C 
BRANCH  12  13
ATOM     13  C   UNL     1      57.108  28.463  51.651  1.00  0.00    -0.000 C 
BRANCH  13  14
ATOM     14  C   UNL     1      57.132  27.029  52.204  1.00  0.00    -0.000 C 
BRANCH  14  15
ATOM     15  C   UNL     1      56.593  26.001  51.194  1.00  0.00    -0.000 C 
BRANCH  15  16
ATOM     16  C   UNL     1      55.056  25.903  51.228  1.00  0.00    -0.000 C 
BRANCH  16  17
ATOM     17  C   UNL     1      54.434  25.975  49.822  1.00  0.00    -0.000 C 
BRANCH  17  18
ATOM     18  C   UNL     1      53.769  27.336  49.515  1.00  0.00    -0.000 C 
BRANCH  18  19
ATOM     19  C   UNL     1      53.470  28.172  50.772  1.00  0.00    -0.003 C 
ATOM     20  C   UNL     1      53.669  29.671  50.553  1.00  0.00     0.004 C 
ENDBRANCH  18  19
ENDBRANCH  17  18
ENDBRANCH  16  17
ENDBRANCH  15  16
ENDBRANCH  14  15
ENDBRANCH  13  14
ENDBRANCH  12  13
ENDBRANCH   1  12
TORSDOF 16
ENDMDL
MODEL 4
REMARK VINA RESULT:    -3.269     10.780     12.769
REMARK INTER + INTRA:          -8.806
REMARK INTER:                  -6.181
REMARK INTRA:                  -2.625
REMARK UNBOUND:                -2.480
REMARK SMILES CCCCCCCCCCCCCCCCCC(=O)[O-]
REMARK SMILES IDX 10 1 11 2 12 3 13 4 14 5 15 6 16 7 17 8 18 9 19 10 20 11
REMARK SMILES IDX 9 12 8 13 7 14 6 15 5 16 4 17 3 18 2 19 1 20
REMARK H PARENT
REMARK Flexibility Score: inf
ROOT
ATOM      1  C   UNL     1      56.362  25.802  51.344  1.00  0.00     0.000 C 
ENDROOT
BRANCH   1   2
ATOM      2  C   UNL     1      55.911  26.264  49.945  1.00  0.00     0.000 C 
BRANCH   2   3
ATOM      3  C   UNL     1      54.404  26.122  49.656  1.00  0.00     0.000 C 
BRANCH   3   4
ATOM      4  C   UNL     1      53.637  27.463  49.622  1.00  0.00     0.000 C 
BRANCH   4   5
ATOM      5  C   UNL     1      54.397  28.656  50.231  1.00  0.00     0.000 C 
BRANCH   5   6
ATOM      6  C   UNL     1      53.534  29.484  51.204  1.00  0.00     0.000 C 
BRANCH   6   7
ATOM      7  C   UNL     1      54.341  30.037  52.387  1.00  0.00     0.006 C 
BRANCH   7   8
ATOM      8  C   UNL     1      53.993  31.498  52.711  1.00  0.00     0.053 C 
BRANCH   8   9
ATOM      9  C   UNL     1      55.126  32.169  53.424  1.00  0.00     0.041 C 
ATOM     10  O   UNL     1      55.441  33.356  53.136  1.00  0.00    -0.550 OA
ATOM     11  O   UNL     1      55.846  31.480  54.395  1.00  0.00    -0.550 OA
ENDBRANCH   8   9
ENDBRANCH   7   8
ENDBRANCH   6   7
ENDBRANCH   5   6
ENDBRANCH   4   5
ENDBRANCH   3   4
ENDBRANCH   2   3
ENDBRANCH   1   2
BRANCH   1  12
ATOM     12  C   UNL     1      57.828  25.339  51.447  1.00  0.00     0.000 C 
BRANCH  12  13
ATOM     13  C   UNL     1      58.595  25.460  50.123  1.00  0.00    -0.000 C 
BRANCH  13  14
ATOM     14  C   UNL     1      59.735  26.485  50.244  1.00  0.00    -0.000 C 
BRANCH  14  15
ATOM     15  C   UNL     1      59.658  27.579  49.165  1.00  0.00    -0.000 C 
BRANCH  15  16
ATOM     16  C   UNL     1      59.428  28.977  49.770  1.00  0.00    -0.000 C 
BRANCH  16  17
ATOM     17  C   UNL     1      58.020  29.131  50.373  1.00  0.00    -0.000 C 
BRANCH  17  18
ATOM     18  C   UNL     1      58.021  29.781  51.774  1.00  0.00    -0.000 C 
BRANCH  18  19
ATOM     19  C   UNL     1      57.795  28.777  52.919  1.00  0.00    -0.003 C 
ATOM     20  C   UNL     1      59.095  28.191  53.466  1.00  0.00     0.004 C 
ENDBRANCH  18  19
ENDBRANCH  17  18
ENDBRANCH  16  17
ENDBRANCH  15  16
ENDBRANCH  14  15
ENDBRANCH  13  14
ENDBRANCH  12  13
ENDBRANCH   1  12
TORSDOF 16
ENDMDL
MODEL 5
REMARK VINA RESULT:    -3.232     11.919     13.938
REMARK INTER + INTRA:          -8.735
REMARK INTER:                  -6.545
REMARK INTRA:                  -2.190
REMARK UNBOUND:                -2.480
REMARK SMILES CCCCCCCCCCCCCCCCCC(=O)[O-]
REMARK SMILES IDX 10 1 11 2 12 3 13 4 14 5 15 6 16 7 17 8 18 9 19 10 20 11
REMARK SMILES IDX 9 12 8 13 7 14 6 15 5 16 4 17 3 18 2 19 1 20
REMARK H PARENT
REMARK Flexibility Score: inf
ROOT
ATOM      1  C   UNL     1      58.640  29.106  49.816  1.00  0.00     0.000 C 
ENDROOT
BRANCH   1   2
ATOM      2  C   UNL     1      59.611  28.213  49.019  1.00  0.00     0.000 C 
BRANCH   2   3
ATOM      3  C   UNL     1      59.531  26.707  49.333  1.00  0.00     0.000 C 
BRANCH   3   4
ATOM      4  C   UNL     1      60.604  26.210  50.328  1.00  0.00     0.000 C 
BRANCH   4   5
ATOM      5  C   UNL     1      62.051  26.285  49.806  1.00  0.00     0.000 C 
BRANCH   5   6
ATOM      6  C   UNL     1      62.909  27.317  50.564  1.00  0.00     0.000 C 
BRANCH   6   7
ATOM      7  C   UNL     1      63.531  28.368  49.633  1.00  0.00     0.006 C 
BRANCH   7   8
ATOM      8  C   UNL     1      63.663  27.874  48.185  1.00  0.00     0.053 C 
BRANCH   8   9
ATOM      9  C   UNL     1      65.101  27.652  47.828  1.00  0.00     0.041 C 
ATOM     10  O   UNL     1      65.474  27.725  46.626  1.00  0.00    -0.550 OA
ATOM     11  O   UNL     1      66.027  27.346  48.821  1.00  0.00    -0.550 OA
ENDBRANCH   8   9
ENDBRANCH   7   8
ENDBRANCH   6   7
ENDBRANCH   5   6
ENDBRANCH   4   5
ENDBRANCH   3   4
ENDBRANCH   2   3
ENDBRANCH   1   2
BRANCH   1  12
ATOM     12  C   UNL     1      57.279  28.468  50.153  1.00  0.00     0.000 C 
BRANCH  12  13
ATOM     13  C   UNL     1      57.015  28.368  51.662  1.00  0.00    -0.000 C 
BRANCH  13  14
ATOM     14  C   UNL     1      57.066  26.905  52.131  1.00  0.00    -0.000 C 
BRANCH  14  15
ATOM     15  C   UNL     1      56.443  25.939  51.109  1.00  0.00    -0.000 C 
BRANCH  15  16
ATOM     16  C   UNL     1      54.912  25.841  51.260  1.00  0.00    -0.000 C 
BRANCH  16  17
ATOM     17  C   UNL     1      54.184  25.920  49.907  1.00  0.00    -0.000 C 
BRANCH  17  18
ATOM     18  C   UNL     1      53.740  27.352  49.533  1.00  0.00    -0.000 C 
BRANCH  18  19
ATOM     19  C   UNL     1      53.404  28.231  50.751  1.00  0.00    -0.003 C 
ATOM     20  C   UNL     1      53.721  29.708  50.528  1.00  0.00     0.004 C 
ENDBRANCH  18  19
ENDBRANCH  17  18
ENDBRANCH  16  17
ENDBRANCH  15  16
ENDBRANCH  14  15
ENDBRANCH  13  14
ENDBRANCH  12  13
ENDBRANCH   1  12
TORSDOF 16
ENDMDL
MODEL 6
REMARK VINA RESULT:    -3.220      3.134      6.756
REMARK INTER + INTRA:          -8.711
REMARK INTER:                  -6.320
REMARK INTRA:                  -2.391
REMARK UNBOUND:                -2.480
REMARK SMILES CCCCCCCCCCCCCCCCCC(=O)[O-]
REMARK SMILES IDX 10 1 11 2 12 3 13 4 14 5 15 6 16 7 17 8 18 9 19 10 20 11
REMARK SMILES IDX 9 12 8 13 7 14 6 15 5 16 4 17 3 18 2 19 1 20
REMARK H PARENT
REMARK Flexibility Score: inf
ROOT
ATOM      1  C   UNL     1      65.144  30.826  59.758  1.00  0.00     0.000 C 
ENDROOT
BRANCH   1   2
ATOM      2  C   UNL     1      64.941  30.072  61.087  1.00  0.00     0.000 C 
BRANCH   2   3
ATOM      3  C   UNL     1      64.555  28.587  60.952  1.00  0.00     0.000 C 
BRANCH   3   4
ATOM      4  C   UNL     1      63.039  28.312  61.079  1.00  0.00     0.000 C 
BRANCH   4   5
ATOM      5  C   UNL     1      62.280  29.299  61.984  1.00  0.00     0.000 C 
BRANCH   5   6
ATOM      6  C   UNL     1      61.083  29.962  61.276  1.00  0.00     0.000 C 
BRANCH   6   7
ATOM      7  C   UNL     1      60.856  29.417  59.858  1.00  0.00     0.006 C 
BRANCH   7   8
ATOM      8  C   UNL     1      59.464  28.793  59.678  1.00  0.00     0.053 C 
BRANCH   8   9
ATOM      9  C   UNL     1      59.175  27.813  60.774  1.00  0.00     0.041 C 
ATOM     10  O   UNL     1      58.279  28.061  61.626  1.00  0.00    -0.550 OA
ATOM     11  O   UNL     1      59.907  26.633  60.866  1.00  0.00    -0.550 OA
ENDBRANCH   8   9
ENDBRANCH   7   8
ENDBRANCH   6   7
ENDBRANCH   5   6
ENDBRANCH   4   5
ENDBRANCH   3   4
ENDBRANCH   2   3
ENDBRANCH   1   2
BRANCH   1  12
ATOM     12  C   UNL     1      64.521  32.234  59.696  1.00  0.00     0.000 C 
BRANCH  12  13
ATOM     13  C   UNL     1      63.856  32.661  61.011  1.00  0.00    -0.000 C 
BRANCH  13  14
ATOM     14  C   UNL     1      62.398  33.086  60.773  1.00  0.00    -0.000 C 
BRANCH  14  15
ATOM     15  C   UNL     1      62.172  33.644  59.358  1.00  0.00    -0.000 C 
BRANCH  15  16
ATOM     16  C   UNL     1      61.960  35.170  59.361  1.00  0.00    -0.000 C 
BRANCH  16  17
ATOM     17  C   UNL     1      61.618  35.711  60.761  1.00  0.00    -0.000 C 
BRANCH  17  18
ATOM     18  C   UNL     1      62.610  36.784  61.262  1.00  0.00    -0.000 C 
BRANCH  18  19
ATOM     19  C   UNL     1      64.080  36.464  60.939  1.00  0.00    -0.003 C 
ATOM     20  C   UNL     1      64.857  35.942  62.146  1.00  0.00     0.004 C 
ENDBRANCH  18  19
ENDBRANCH  17  18
ENDBRANCH  16  17
ENDBRANCH  15  16
ENDBRANCH  14  15
ENDBRANCH  13  14
ENDBRANCH  12  13
ENDBRANCH   1  12
TORSDOF 16
ENDMDL
MODEL 7
REMARK VINA RESULT:    -3.159      4.040      7.361
REMARK INTER + INTRA:          -8.593
REMARK INTER:                  -6.477
REMARK INTRA:                  -2.117
REMARK UNBOUND:                -2.480
REMARK SMILES CCCCCCCCCCCCCCCCCC(=O)[O-]
REMARK SMILES IDX 10 1 11 2 12 3 13 4 14 5 15 6 16 7 17 8 18 9 19 10 20 11
REMARK SMILES IDX 9 12 8 13 7 14 6 15 5 16 4 17 3 18 2 19 1 20
REMARK H PARENT
REMARK Flexibility Score: inf
ROOT
ATOM      1  C   UNL     1      61.063  30.638  61.711  1.00  0.00     0.000 C 
ENDROOT
BRANCH   1   2
ATOM      2  C   UNL     1      62.440  29.993  61.965  1.00  0.00     0.000 C 
BRANCH   2   3
ATOM      3  C   UNL     1      62.680  28.647  61.255  1.00  0.00     0.000 C 
BRANCH   3   4
ATOM      4  C   UNL     1      61.395  27.976  60.718  1.00  0.00     0.000 C 
BRANCH   4   5
ATOM      5  C   UNL     1      61.052  26.625  61.373  1.00  0.00     0.000 C 
BRANCH   5   6
ATOM      6  C   UNL     1      59.580  26.531  61.818  1.00  0.00     0.000 C 
BRANCH   6   7
ATOM      7  C   UNL     1      58.738  27.723  61.339  1.00  0.00     0.006 C 
BRANCH   7   8
ATOM      8  C   UNL     1      57.321  27.314  60.911  1.00  0.00     0.053 C 
BRANCH   8   9
ATOM      9  C   UNL     1      56.399  27.280  62.091  1.00  0.00     0.041 C 
ATOM     10  O   UNL     1      56.159  28.335  62.739  1.00  0.00    -0.550 OA
ATOM     11  O   UNL     1      55.817  26.079  62.487  1.00  0.00    -0.550 OA
ENDBRANCH   8   9
ENDBRANCH   7   8
ENDBRANCH   6   7
ENDBRANCH   5   6
ENDBRANCH   4   5
ENDBRANCH   3   4
ENDBRANCH   2   3
ENDBRANCH   1   2
BRANCH   1  12
ATOM     12  C   UNL     1      61.099  32.085  61.182  1.00  0.00     0.000 C 
BRANCH  12  13
ATOM     13  C   UNL     1      60.994  32.173  59.653  1.00  0.00    -0.000 C 
BRANCH  13  14
ATOM     14  C   UNL     1      60.902  33.639  59.196  1.00  0.00    -0.000 C 
BRANCH  14  15
ATOM     15  C   UNL     1      61.173  34.629  60.341  1.00  0.00    -0.000 C 
BRANCH  15  16
ATOM     16  C   UNL     1      62.474  35.426  60.125  1.00  0.00    -0.000 C 
BRANCH  16  17
ATOM     17  C   UNL     1      63.468  35.249  61.287  1.00  0.00    -0.000 C 
BRANCH  17  18
ATOM     18  C   UNL     1      64.223  33.902  61.248  1.00  0.00    -0.000 C 
BRANCH  18  19
ATOM     19  C   UNL     1      64.560  33.426  59.824  1.00  0.00    -0.003 C 
ATOM     20  C   UNL     1      64.662  31.906  59.710  1.00  0.00     0.004 C 
ENDBRANCH  18  19
ENDBRANCH  17  18
ENDBRANCH  16  17
ENDBRANCH  15  16
ENDBRANCH  14  15
ENDBRANCH  13  14
ENDBRANCH  12  13
ENDBRANCH   1  12
TORSDOF 16
ENDMDL
MODEL 8
REMARK VINA RESULT:    -3.152     11.436     13.601
REMARK INTER + INTRA:          -8.580
REMARK INTER:                  -5.920
REMARK INTRA:                  -2.660
REMARK UNBOUND:                -2.480
REMARK SMILES CCCCCCCCCCCCCCCCCC(=O)[O-]
REMARK SMILES IDX 10 1 11 2 12 3 13 4 14 5 15 6 16 7 17 8 18 9 19 10 20 11
REMARK SMILES IDX 9 12 8 13 7 14 6 15 5 16 4 17 3 18 2 19 1 20
REMARK H PARENT
REMARK Flexibility Score: inf
ROOT
ATOM      1  C   UNL     1      56.685  26.683  50.052  1.00  0.00     0.000 C 
ENDROOT
BRANCH   1   2
ATOM      2  C   UNL     1      57.006  27.959  50.854  1.00  0.00     0.000 C 
BRANCH   2   3
ATOM      3  C   UNL     1      57.854  29.010  50.113  1.00  0.00     0.000 C 
BRANCH   3   4
ATOM      4  C   UNL     1      59.175  29.376  50.827  1.00  0.00     0.000 C 
BRANCH   4   5
ATOM      5  C   UNL     1      60.435  28.732  50.220  1.00  0.00     0.000 C 
BRANCH   5   6
ATOM      6  C   UNL     1      60.111  27.677  49.145  1.00  0.00     0.000 C 
BRANCH   6   7
ATOM      7  C   UNL     1      60.337  26.240  49.637  1.00  0.00     0.006 C 
BRANCH   7   8
ATOM      8  C   UNL     1      60.830  26.182  51.091  1.00  0.00     0.053 C 
BRANCH   8   9
ATOM      9  C   UNL     1      59.735  25.726  52.006  1.00  0.00     0.041 C 
ATOM     10  O   UNL     1      59.078  24.684  51.737  1.00  0.00    -0.550 OA
ATOM     11  O   UNL     1      59.427  26.461  53.146  1.00  0.00    -0.550 OA
ENDBRANCH   8   9
ENDBRANCH   7   8
ENDBRANCH   6   7
ENDBRANCH   5   6
ENDBRANCH   4   5
ENDBRANCH   3   4
ENDBRANCH   2   3
ENDBRANCH   1   2
BRANCH   1  12
ATOM     12  C   UNL     1      55.450  25.895  50.529  1.00  0.00     0.000 C 
BRANCH  12  13
ATOM     13  C   UNL     1      54.302  25.894  49.510  1.00  0.00    -0.000 C 
BRANCH  13  14
ATOM     14  C   UNL     1      53.100  26.694  50.039  1.00  0.00    -0.000 C 
BRANCH  14  15
ATOM     15  C   UNL     1      53.107  28.154  49.553  1.00  0.00    -0.000 C 
BRANCH  15  16
ATOM     16  C   UNL     1      53.462  29.141  50.682  1.00  0.00    -0.000 C 
BRANCH  16  17
ATOM     17  C   UNL     1      53.315  28.511  52.079  1.00  0.00    -0.000 C 
BRANCH  17  18
ATOM     18  C   UNL     1      54.322  29.066  53.110  1.00  0.00    -0.000 C 
BRANCH  18  19
ATOM     19  C   UNL     1      54.922  30.427  52.715  1.00  0.00    -0.003 C 
ATOM     20  C   UNL     1      56.295  30.679  53.336  1.00  0.00     0.004 C 
ENDBRANCH  18  19
ENDBRANCH  17  18
ENDBRANCH  16  17
ENDBRANCH  15  16
ENDBRANCH  14  15
ENDBRANCH  13  14
ENDBRANCH  12  13
ENDBRANCH   1  12
TORSDOF 16
ENDMDL
MODEL 9
REMARK VINA RESULT:    -3.111      4.260      8.179
REMARK INTER + INTRA:          -8.501
REMARK INTER:                  -6.896
REMARK INTRA:                  -1.605
REMARK UNBOUND:                -2.480
REMARK SMILES CCCCCCCCCCCCCCCCCC(=O)[O-]
REMARK SMILES IDX 10 1 11 2 12 3 13 4 14 5 15 6 16 7 17 8 18 9 19 10 20 11
REMARK SMILES IDX 9 12 8 13 7 14 6 15 5 16 4 17 3 18 2 19 1 20
REMARK H PARENT
REMARK Flexibility Score: inf
ROOT
ATOM      1  C   UNL     1      62.141  30.457  60.541  1.00  0.00     0.000 C 
ENDROOT
BRANCH   1   2
ATOM      2  C   UNL     1      63.172  30.069  61.618  1.00  0.00     0.000 C 
BRANCH   2   3
ATOM      3  C   UNL     1      64.579  29.724  61.092  1.00  0.00     0.000 C 
BRANCH   3   4
ATOM      4  C   UNL     1      64.773  28.234  60.731  1.00  0.00     0.000 C 
BRANCH   4   5
ATOM      5  C   UNL     1      66.224  27.730  60.838  1.00  0.00     0.000 C 
BRANCH   5   6
ATOM      6  C   UNL     1      67.138  28.694  61.619  1.00  0.00     0.000 C 
BRANCH   6   7
ATOM      7  C   UNL     1      68.625  28.332  61.494  1.00  0.00     0.006 C 
BRANCH   7   8
ATOM      8  C   UNL     1      69.517  29.560  61.256  1.00  0.00     0.053 C 
BRANCH   8   9
ATOM      9  C   UNL     1      70.632  29.232  60.311  1.00  0.00     0.041 C 
ATOM     10  O   UNL     1      70.382  28.974  59.102  1.00  0.00    -0.550 OA
ATOM     11  O   UNL     1      71.945  29.194  60.768  1.00  0.00    -0.550 OA
ENDBRANCH   8   9
ENDBRANCH   7   8
ENDBRANCH   6   7
ENDBRANCH   5   6
ENDBRANCH   4   5
ENDBRANCH   3   4
ENDBRANCH   2   3
ENDBRANCH   1   2
BRANCH   1  12
ATOM     12  C   UNL     1      61.142  31.558  60.948  1.00  0.00     0.000 C 
BRANCH  12  13
ATOM     13  C   UNL     1      61.731  32.972  60.859  1.00  0.00    -0.000 C 
BRANCH  13  14
ATOM     14  C   UNL     1      62.610  33.120  59.606  1.00  0.00    -0.000 C 
BRANCH  14  15
ATOM     15  C   UNL     1      64.063  33.492  59.949  1.00  0.00    -0.000 C 
BRANCH  15  16
ATOM     16  C   UNL     1      64.183  34.151  61.336  1.00  0.00    -0.000 C 
BRANCH  16  17
ATOM     17  C   UNL     1      64.386  35.674  61.245  1.00  0.00    -0.000 C 
BRANCH  17  18
ATOM     18  C   UNL     1      63.141  36.484  61.669  1.00  0.00    -0.000 C 
BRANCH  18  19
ATOM     19  C   UNL     1      62.283  36.961  60.483  1.00  0.00    -0.003 C 
ATOM     20  C   UNL     1      60.849  36.437  60.534  1.00  0.00     0.004 C 
ENDBRANCH  18  19
ENDBRANCH  17  18
ENDBRANCH  16  17
ENDBRANCH  15  16
ENDBRANCH  14  15
ENDBRANCH  13  14
ENDBRANCH  12  13
ENDBRANCH   1  12
TORSDOF 16
ENDMDL
