MODEL 1
REMARK VINA RESULT:    -4.803      0.000      0.000
REMARK INTER + INTRA:          -5.266
REMARK INTER:                  -5.225
REMARK INTRA:                  -0.042
REMARK UNBOUND:                -0.042
REMARK SMILES CC1(C)[C@H]2CC=C(CO)[C@@H]1C2
REMARK SMILES IDX 8 1 7 2 1 3 2 4 4 5 3 6 10 7 5 8 11 9 6 10 9 11
REMARK H PARENT 9 12
REMARK Flexibility Score: inf
ROOT
ATOM      1  C   UNL     1     -22.898 -13.424  46.252  1.00  0.00     0.187 C 
ENDROOT
BRANCH   1   2
ATOM      2  C   UNL     1     -23.793 -14.460  46.873  1.00  0.00    -0.045 C 
ATOM      3  C   UNL     1     -26.032 -17.215  45.258  1.00  0.00     0.012 C 
ATOM      4  C   UNL     1     -25.025 -16.562  46.239  1.00  0.00    -0.026 C 
ATOM      5  C   UNL     1     -25.636 -16.348  47.651  1.00  0.00    -0.000 C 
ATOM      6  C   UNL     1     -23.670 -17.315  46.120  1.00  0.00     0.012 C 
ATOM      7  C   UNL     1     -25.019 -15.014  46.133  1.00  0.00     0.023 C 
ATOM      8  C   UNL     1     -24.508 -16.027  48.691  1.00  0.00     0.031 C 
ATOM      9  C   UNL     1     -26.161 -14.980  47.168  1.00  0.00     0.013 C 
ATOM     10  C   UNL     1     -23.567 -14.941  48.130  1.00  0.00    -0.025 C 
ENDBRANCH   1   2
BRANCH   1  11
ATOM     11  O   UNL     1     -23.666 -12.426  45.637  1.00  0.00    -0.392 OA
ATOM     12  H   UNL     1     -23.619 -12.594  44.660  1.00  0.00     0.211 HD
ENDBRANCH   1  11
TORSDOF 2
ENDMDL
MODEL 2
REMARK VINA RESULT:    -4.769     12.560     15.327
REMARK INTER + INTRA:          -5.229
REMARK INTER:                  -5.186
REMARK INTRA:                  -0.043
REMARK UNBOUND:                -0.042
REMARK SMILES CC1(C)[C@H]2CC=C(CO)[C@@H]1C2
REMARK SMILES IDX 8 1 7 2 1 3 2 4 4 5 3 6 10 7 5 8 11 9 6 10 9 11
REMARK H PARENT 9 12
REMARK Flexibility Score: inf
ROOT
ATOM      1  C   UNL     1     -17.385  -5.252  46.349  1.00  0.00     0.187 C 
ENDROOT
BRANCH   1   2
ATOM      2  C   UNL     1     -16.596  -4.134  46.973  1.00  0.00    -0.045 C 
ATOM      3  C   UNL     1     -14.573  -1.216  45.362  1.00  0.00     0.012 C 
ATOM      4  C   UNL     1     -15.539  -1.941  46.333  1.00  0.00    -0.026 C 
ATOM      5  C   UNL     1     -14.941  -2.084  47.760  1.00  0.00    -0.000 C 
ATOM      6  C   UNL     1     -16.952  -1.311  46.177  1.00  0.00     0.012 C 
ATOM      7  C   UNL     1     -15.408  -3.485  46.249  1.00  0.00     0.023 C 
ATOM      8  C   UNL     1     -16.057  -2.489  48.782  1.00  0.00     0.031 C 
ATOM      9  C   UNL     1     -14.289  -3.406  47.305  1.00  0.00     0.013 C 
ATOM     10  C   UNL     1     -16.889  -3.660  48.219  1.00  0.00    -0.025 C 
ENDBRANCH   1   2
BRANCH   1  11
ATOM     11  O   UNL     1     -16.556  -6.034  45.534  1.00  0.00    -0.392 OA
ATOM     12  H   UNL     1     -17.041  -6.160  44.676  1.00  0.00     0.211 HD
ENDBRANCH   1  11
TORSDOF 2
ENDMDL
MODEL 3
REMARK VINA RESULT:    -4.764     13.568     14.946
REMARK INTER + INTRA:          -5.224
REMARK INTER:                  -5.201
REMARK INTRA:                  -0.023
REMARK UNBOUND:                -0.042
REMARK SMILES CC1(C)[C@H]2CC=C(CO)[C@@H]1C2
REMARK SMILES IDX 8 1 7 2 1 3 2 4 4 5 3 6 10 7 5 8 11 9 6 10 9 11
REMARK H PARENT 9 12
REMARK Flexibility Score: inf
ROOT
ATOM      1  C   UNL     1     -21.439   0.370  52.343  1.00  0.00     0.187 C 
ENDROOT
BRANCH   1   2
ATOM      2  C   UNL     1     -22.178  -0.452  51.323  1.00  0.00    -0.045 C 
ATOM      3  C   UNL     1     -20.884  -2.934  48.608  1.00  0.00     0.012 C 
ATOM      4  C   UNL     1     -21.772  -2.372  49.747  1.00  0.00    -0.026 C 
ATOM      5  C   UNL     1     -23.176  -1.944  49.240  1.00  0.00    -0.000 C 
ATOM      6  C   UNL     1     -21.682  -3.342  50.959  1.00  0.00     0.012 C 
ATOM      7  C   UNL     1     -21.526  -0.860  49.994  1.00  0.00     0.023 C 
ATOM      8  C   UNL     1     -24.150  -1.722  50.448  1.00  0.00     0.031 C 
ATOM      9  C   UNL     1     -22.586  -0.555  48.918  1.00  0.00     0.013 C 
ATOM     10  C   UNL     1     -23.466  -0.855  51.524  1.00  0.00    -0.025 C 
ENDBRANCH   1   2
BRANCH   1  11
ATOM     11  O   UNL     1     -22.304   0.749  53.378  1.00  0.00    -0.392 OA
ATOM     12  H   UNL     1     -22.890  -0.032  53.559  1.00  0.00     0.211 HD
ENDBRANCH   1  11
TORSDOF 2
ENDMDL
MODEL 4
REMARK VINA RESULT:    -4.738      7.133      8.528
REMARK INTER + INTRA:          -5.195
REMARK INTER:                  -5.173
REMARK INTRA:                  -0.023
REMARK UNBOUND:                -0.042
REMARK SMILES CC1(C)[C@H]2CC=C(CO)[C@@H]1C2
REMARK SMILES IDX 8 1 7 2 1 3 2 4 4 5 3 6 10 7 5 8 11 9 6 10 9 11
REMARK H PARENT 9 12
REMARK Flexibility Score: inf
ROOT
ATOM      1  C   UNL     1     -19.210 -18.759  52.328  1.00  0.00     0.187 C 
ENDROOT
BRANCH   1   2
ATOM      2  C   UNL     1     -18.346 -18.011  51.351  1.00  0.00    -0.045 C 
ATOM      3  C   UNL     1     -19.238 -15.300  48.693  1.00  0.00     0.012 C 
ATOM      4  C   UNL     1     -18.459 -16.008  49.831  1.00  0.00    -0.026 C 
ATOM      5  C   UNL     1     -17.110 -16.601  49.339  1.00  0.00    -0.000 C 
ATOM      6  C   UNL     1     -18.451 -15.071  51.072  1.00  0.00     0.012 C 
ATOM      7  C   UNL     1     -18.905 -17.481  50.023  1.00  0.00     0.023 C 
ATOM      8  C   UNL     1     -16.204 -16.984  50.559  1.00  0.00     0.031 C 
ATOM      9  C   UNL     1     -17.868 -17.890  48.959  1.00  0.00     0.013 C 
ATOM     10  C   UNL     1     -17.021 -17.787  51.592  1.00  0.00    -0.025 C 
ENDBRANCH   1   2
BRANCH   1  11
ATOM     11  O   UNL     1     -18.463 -19.125  53.455  1.00  0.00    -0.392 OA
ATOM     12  H   UNL     1     -18.999 -18.861  54.248  1.00  0.00     0.211 HD
ENDBRANCH   1  11
TORSDOF 2
ENDMDL
MODEL 5
REMARK VINA RESULT:    -4.711     13.170     14.677
REMARK INTER + INTRA:          -5.166
REMARK INTER:                  -5.102
REMARK INTRA:                  -0.065
REMARK UNBOUND:                -0.042
REMARK SMILES CC1(C)[C@H]2CC=C(CO)[C@@H]1C2
REMARK SMILES IDX 8 1 7 2 1 3 2 4 4 5 3 6 10 7 5 8 11 9 6 10 9 11
REMARK H PARENT 9 12
REMARK Flexibility Score: inf
ROOT
ATOM      1  C   UNL     1     -23.787  -1.602  50.080  1.00  0.00     0.187 C 
ENDROOT
BRANCH   1   2
ATOM      2  C   UNL     1     -22.723  -1.865  49.051  1.00  0.00    -0.045 C 
ATOM      3  C   UNL     1     -20.644   0.578  46.833  1.00  0.00     0.012 C 
ATOM      4  C   UNL     1     -20.953  -0.625  47.761  1.00  0.00    -0.026 C 
ATOM      5  C   UNL     1     -20.888  -1.981  47.006  1.00  0.00    -0.000 C 
ATOM      6  C   UNL     1     -20.125  -0.458  49.066  1.00  0.00     0.012 C 
ATOM      7  C   UNL     1     -22.475  -0.898  47.884  1.00  0.00     0.023 C 
ATOM      8  C   UNL     1     -20.850  -3.171  48.025  1.00  0.00     0.031 C 
ATOM      9  C   UNL     1     -22.374  -1.795  46.635  1.00  0.00     0.013 C 
ATOM     10  C   UNL     1     -21.943  -2.984  49.097  1.00  0.00    -0.025 C 
ENDBRANCH   1   2
BRANCH   1  11
ATOM     11  O   UNL     1     -23.557  -0.372  50.712  1.00  0.00    -0.392 OA
ATOM     12  H   UNL     1     -23.220   0.247  50.012  1.00  0.00     0.211 HD
ENDBRANCH   1  11
TORSDOF 2
ENDMDL
MODEL 6
REMARK VINA RESULT:    -4.669      2.790      4.175
REMARK INTER + INTRA:          -5.121
REMARK INTER:                  -5.070
REMARK INTRA:                  -0.051
REMARK UNBOUND:                -0.042
REMARK SMILES CC1(C)[C@H]2CC=C(CO)[C@@H]1C2
REMARK SMILES IDX 8 1 7 2 1 3 2 4 4 5 3 6 10 7 5 8 11 9 6 10 9 11
REMARK H PARENT 9 12
REMARK Flexibility Score: inf
ROOT
ATOM      1  C   UNL     1     -25.254 -15.698  47.732  1.00  0.00     0.187 C 
ENDROOT
BRANCH   1   2
ATOM      2  C   UNL     1     -24.146 -15.810  48.742  1.00  0.00    -0.045 C 
ATOM      3  C   UNL     1     -22.979 -18.810  50.944  1.00  0.00     0.012 C 
ATOM      4  C   UNL     1     -22.878 -17.575  50.012  1.00  0.00    -0.026 C 
ATOM      5  C   UNL     1     -22.343 -16.321  50.755  1.00  0.00    -0.000 C 
ATOM      6  C   UNL     1     -22.179 -18.015  48.694  1.00  0.00     0.012 C 
ATOM      7  C   UNL     1     -24.220 -16.803  49.911  1.00  0.00     0.023 C 
ATOM      8  C   UNL     1     -21.923 -15.215  49.728  1.00  0.00     0.031 C 
ATOM      9  C   UNL     1     -23.798 -15.992  51.152  1.00  0.00     0.013 C 
ATOM     10  C   UNL     1     -23.034 -15.022  48.676  1.00  0.00    -0.025 C 
ENDBRANCH   1   2
BRANCH   1  11
ATOM     11  O   UNL     1     -26.092 -16.819  47.805  1.00  0.00    -0.392 OA
ATOM     12  H   UNL     1     -27.017 -16.475  47.912  1.00  0.00     0.211 HD
ENDBRANCH   1  11
TORSDOF 2
ENDMDL
MODEL 7
REMARK VINA RESULT:    -4.659     12.182     14.290
REMARK INTER + INTRA:          -5.110
REMARK INTER:                  -5.066
REMARK INTRA:                  -0.044
REMARK UNBOUND:                -0.042
REMARK SMILES CC1(C)[C@H]2CC=C(CO)[C@@H]1C2
REMARK SMILES IDX 8 1 7 2 1 3 2 4 4 5 3 6 10 7 5 8 11 9 6 10 9 11
REMARK H PARENT 9 12
REMARK Flexibility Score: inf
ROOT
ATOM      1  C   UNL     1     -21.889  -4.675  51.073  1.00  0.00     0.187 C 
ENDROOT
BRANCH   1   2
ATOM      2  C   UNL     1     -22.323  -3.355  50.499  1.00  0.00    -0.045 C 
ATOM      3  C   UNL     1     -23.421  -0.041  52.237  1.00  0.00     0.012 C 
ATOM      4  C   UNL     1     -22.704  -0.976  51.230  1.00  0.00    -0.026 C 
ATOM      5  C   UNL     1     -23.318  -0.886  49.806  1.00  0.00    -0.000 C 
ATOM      6  C   UNL     1     -21.170  -0.785  51.394  1.00  0.00     0.012 C 
ATOM      7  C   UNL     1     -23.274  -2.420  51.260  1.00  0.00     0.023 C 
ATOM      8  C   UNL     1     -22.366  -1.557  48.758  1.00  0.00     0.031 C 
ATOM      9  C   UNL     1     -24.323  -1.982  50.219  1.00  0.00     0.013 C 
ATOM     10  C   UNL     1     -21.905  -2.937  49.268  1.00  0.00    -0.025 C 
ENDBRANCH   1   2
BRANCH   1  11
ATOM     11  O   UNL     1     -22.813  -5.115  52.030  1.00  0.00    -0.392 OA
ATOM     12  H   UNL     1     -22.511  -4.751  52.904  1.00  0.00     0.211 HD
ENDBRANCH   1  11
TORSDOF 2
ENDMDL
MODEL 8
REMARK VINA RESULT:    -4.582     14.163     15.982
REMARK INTER + INTRA:          -5.026
REMARK INTER:                  -5.003
REMARK INTRA:                  -0.023
REMARK UNBOUND:                -0.042
REMARK SMILES CC1(C)[C@H]2CC=C(CO)[C@@H]1C2
REMARK SMILES IDX 8 1 7 2 1 3 2 4 4 5 3 6 10 7 5 8 11 9 6 10 9 11
REMARK H PARENT 9 12
REMARK Flexibility Score: inf
ROOT
ATOM      1  C   UNL     1     -16.506  -0.130  45.217  1.00  0.00     0.187 C 
ENDROOT
BRANCH   1   2
ATOM      2  C   UNL     1     -15.888  -1.188  46.089  1.00  0.00    -0.045 C 
ATOM      3  C   UNL     1     -17.447  -3.483  48.828  1.00  0.00     0.012 C 
ATOM      4  C   UNL     1     -16.584  -3.069  47.610  1.00  0.00    -0.026 C 
ATOM      5  C   UNL     1     -15.068  -3.042  47.947  1.00  0.00    -0.000 C 
ATOM      6  C   UNL     1     -17.058  -3.886  46.375  1.00  0.00     0.012 C 
ATOM      7  C   UNL     1     -16.463  -1.528  47.471  1.00  0.00     0.023 C 
ATOM      8  C   UNL     1     -14.217  -2.971  46.633  1.00  0.00     0.031 C 
ATOM      9  C   UNL     1     -15.242  -1.581  48.411  1.00  0.00     0.013 C 
ATOM     10  C   UNL     1     -14.777  -1.879  45.699  1.00  0.00    -0.025 C 
ENDBRANCH   1   2
BRANCH   1  11
ATOM     11  O   UNL     1     -15.830  -0.057  43.991  1.00  0.00    -0.392 OA
ATOM     12  H   UNL     1     -16.084   0.811  43.580  1.00  0.00     0.211 HD
ENDBRANCH   1  11
TORSDOF 2
ENDMDL
MODEL 9
REMARK VINA RESULT:    -4.569     13.945     15.614
REMARK INTER + INTRA:          -5.012
REMARK INTER:                  -4.967
REMARK INTRA:                  -0.045
REMARK UNBOUND:                -0.042
REMARK SMILES CC1(C)[C@H]2CC=C(CO)[C@@H]1C2
REMARK SMILES IDX 8 1 7 2 1 3 2 4 4 5 3 6 10 7 5 8 11 9 6 10 9 11
REMARK H PARENT 9 12
REMARK Flexibility Score: inf
ROOT
ATOM      1  C   UNL     1     -14.409  -1.468  45.476  1.00  0.00     0.187 C 
ENDROOT
BRANCH   1   2
ATOM      2  C   UNL     1     -15.420  -1.699  46.564  1.00  0.00    -0.045 C 
ATOM      3  C   UNL     1     -19.194  -2.666  46.392  1.00  0.00     0.012 C 
ATOM      4  C   UNL     1     -17.720  -2.675  46.871  1.00  0.00    -0.026 C 
ATOM      5  C   UNL     1     -17.552  -2.022  48.270  1.00  0.00    -0.000 C 
ATOM      6  C   UNL     1     -17.141  -4.100  46.640  1.00  0.00     0.012 C 
ATOM      7  C   UNL     1     -16.919  -1.459  46.334  1.00  0.00     0.023 C 
ATOM      8  C   UNL     1     -16.144  -2.362  48.867  1.00  0.00     0.031 C 
ATOM      9  C   UNL     1     -17.390  -0.659  47.565  1.00  0.00     0.013 C 
ATOM     10  C   UNL     1     -15.049  -2.115  47.810  1.00  0.00    -0.025 C 
ENDBRANCH   1   2
BRANCH   1  11
ATOM     11  O   UNL     1     -14.992  -0.765  44.413  1.00  0.00    -0.392 OA
ATOM     12  H   UNL     1     -15.970  -0.930  44.468  1.00  0.00     0.211 HD
ENDBRANCH   1  11
TORSDOF 2
ENDMDL
