MODEL 1
REMARK VINA RESULT:     3.186      0.000      0.000
REMARK INTER + INTRA:           3.833
REMARK INTER:                   4.117
REMARK INTRA:                  -0.285
REMARK UNBOUND:                -0.285
REMARK SMILES CCCCCCC(=O)[O-]
REMARK SMILES IDX 5 1 6 2 7 3 8 4 9 5 4 6 3 7 2 8 1 9
REMARK H PARENT
REMARK Flexibility Score: inf
ROOT
ATOM      1  C   UNL     1     -18.036  58.138  -1.633  1.00  0.00     0.006 C 
ENDROOT
BRANCH   1   2
ATOM      2  C   UNL     1     -18.386  58.706  -3.015  1.00  0.00     0.053 C 
BRANCH   2   3
ATOM      3  C   UNL     1     -17.827  60.084  -3.170  1.00  0.00     0.041 C 
ATOM      4  O   UNL     1     -18.585  61.046  -3.466  1.00  0.00    -0.550 OA
ATOM      5  O   UNL     1     -16.477  60.317  -2.939  1.00  0.00    -0.550 OA
ENDBRANCH   2   3
ENDBRANCH   1   2
BRANCH   1   6
ATOM      6  C   UNL     1     -17.309  56.783  -1.708  1.00  0.00     0.000 C 
BRANCH   6   7
ATOM      7  C   UNL     1     -16.508  56.546  -3.001  1.00  0.00    -0.000 C 
BRANCH   7   8
ATOM      8  C   UNL     1     -16.850  55.212  -3.679  1.00  0.00    -0.003 C 
ATOM      9  C   UNL     1     -17.139  55.409  -5.165  1.00  0.00     0.004 C 
ENDBRANCH   7   8
ENDBRANCH   6   7
ENDBRANCH   1   6
TORSDOF 5
ENDMDL
MODEL 2
REMARK VINA RESULT:     3.343      2.740      5.152
REMARK INTER + INTRA:           4.035
REMARK INTER:                   4.171
REMARK INTRA:                  -0.136
REMARK UNBOUND:                -0.285
REMARK SMILES CCCCCCC(=O)[O-]
REMARK SMILES IDX 5 1 6 2 7 3 8 4 9 5 4 6 3 7 2 8 1 9
REMARK H PARENT
REMARK Flexibility Score: inf
ROOT
ATOM      1  C   UNL     1     -17.038  59.646  -2.837  1.00  0.00     0.006 C 
ENDROOT
BRANCH   1   2
ATOM      2  C   UNL     1     -18.114  58.577  -2.609  1.00  0.00     0.053 C 
BRANCH   2   3
ATOM      3  C   UNL     1     -17.536  57.398  -1.893  1.00  0.00     0.041 C 
ATOM      4  O   UNL     1     -17.012  56.456  -2.544  1.00  0.00    -0.550 OA
ATOM      5  O   UNL     1     -17.533  57.361  -0.505  1.00  0.00    -0.550 OA
ENDBRANCH   2   3
ENDBRANCH   1   2
BRANCH   1   6
ATOM      6  C   UNL     1     -17.546  60.846  -3.657  1.00  0.00     0.000 C 
BRANCH   6   7
ATOM      7  C   UNL     1     -19.004  61.252  -3.378  1.00  0.00    -0.000 C 
BRANCH   7   8
ATOM      8  C   UNL     1     -19.125  62.636  -2.725  1.00  0.00    -0.003 C 
ATOM      9  C   UNL     1     -18.915  63.747  -3.750  1.00  0.00     0.004 C 
ENDBRANCH   7   8
ENDBRANCH   6   7
ENDBRANCH   1   6
TORSDOF 5
ENDMDL
MODEL 3
REMARK VINA RESULT:     3.757      2.604      4.922
REMARK INTER + INTRA:           4.570
REMARK INTER:                   4.660
REMARK INTRA:                  -0.089
REMARK UNBOUND:                -0.285
REMARK SMILES CCCCCCC(=O)[O-]
REMARK SMILES IDX 5 1 6 2 7 3 8 4 9 5 4 6 3 7 2 8 1 9
REMARK H PARENT
REMARK Flexibility Score: inf
ROOT
ATOM      1  C   UNL     1     -17.344  58.583  -2.331  1.00  0.00     0.006 C 
ENDROOT
BRANCH   1   2
ATOM      2  C   UNL     1     -17.698  57.103  -2.139  1.00  0.00     0.053 C 
BRANCH   2   3
ATOM      3  C   UNL     1     -16.816  56.241  -2.984  1.00  0.00     0.041 C 
ATOM      4  O   UNL     1     -17.224  55.815  -4.097  1.00  0.00    -0.550 OA
ATOM      5  O   UNL     1     -15.524  55.946  -2.566  1.00  0.00    -0.550 OA
ENDBRANCH   2   3
ENDBRANCH   1   2
BRANCH   1   6
ATOM      6  C   UNL     1     -18.462  59.383  -3.026  1.00  0.00     0.000 C 
BRANCH   6   7
ATOM      7  C   UNL     1     -18.076  60.815  -3.436  1.00  0.00    -0.000 C 
BRANCH   7   8
ATOM      8  C   UNL     1     -19.125  61.858  -3.024  1.00  0.00    -0.003 C 
ATOM      9  C   UNL     1     -18.708  63.259  -3.462  1.00  0.00     0.004 C 
ENDBRANCH   7   8
ENDBRANCH   6   7
ENDBRANCH   1   6
TORSDOF 5
ENDMDL
MODEL 4
REMARK VINA RESULT:     4.200      2.756      4.675
REMARK INTER + INTRA:           5.143
REMARK INTER:                   5.286
REMARK INTRA:                  -0.143
REMARK UNBOUND:                -0.285
REMARK SMILES CCCCCCC(=O)[O-]
REMARK SMILES IDX 5 1 6 2 7 3 8 4 9 5 4 6 3 7 2 8 1 9
REMARK H PARENT
REMARK Flexibility Score: inf
ROOT
ATOM      1  C   UNL     1     -17.442  57.345  -1.907  1.00  0.00     0.006 C 
ENDROOT
BRANCH   1   2
ATOM      2  C   UNL     1     -16.532  56.951  -3.077  1.00  0.00     0.053 C 
BRANCH   2   3
ATOM      3  C   UNL     1     -16.972  55.648  -3.665  1.00  0.00     0.041 C 
ATOM      4  O   UNL     1     -17.321  54.699  -2.914  1.00  0.00    -0.550 OA
ATOM      5  O   UNL     1     -17.044  55.497  -5.044  1.00  0.00    -0.550 OA
ENDBRANCH   2   3
ENDBRANCH   1   2
BRANCH   1   6
ATOM      6  C   UNL     1     -18.480  58.416  -2.288  1.00  0.00     0.000 C 
BRANCH   6   7
ATOM      7  C   UNL     1     -17.900  59.673  -2.960  1.00  0.00    -0.000 C 
BRANCH   7   8
ATOM      8  C   UNL     1     -18.959  60.494  -3.709  1.00  0.00    -0.003 C 
ATOM      9  C   UNL     1     -18.974  61.942  -3.226  1.00  0.00     0.004 C 
ENDBRANCH   7   8
ENDBRANCH   6   7
ENDBRANCH   1   6
TORSDOF 5
ENDMDL
MODEL 5
REMARK VINA RESULT:     4.316      2.014      3.151
REMARK INTER + INTRA:           5.293
REMARK INTER:                   5.382
REMARK INTRA:                  -0.089
REMARK UNBOUND:                -0.285
REMARK SMILES CCCCCCC(=O)[O-]
REMARK SMILES IDX 5 1 6 2 7 3 8 4 9 5 4 6 3 7 2 8 1 9
REMARK H PARENT
REMARK Flexibility Score: inf
ROOT
ATOM      1  C   UNL     1     -18.020  60.861  -3.415  1.00  0.00     0.006 C 
ENDROOT
BRANCH   1   2
ATOM      2  C   UNL     1     -19.125  61.831  -2.979  1.00  0.00     0.053 C 
BRANCH   2   3
ATOM      3  C   UNL     1     -18.786  63.228  -3.390  1.00  0.00     0.041 C 
ATOM      4  O   UNL     1     -18.419  64.071  -2.529  1.00  0.00    -0.550 OA
ATOM      5  O   UNL     1     -18.828  63.589  -4.731  1.00  0.00    -0.550 OA
ENDBRANCH   2   3
ENDBRANCH   1   2
BRANCH   1   6
ATOM      6  C   UNL     1     -18.393  59.384  -3.191  1.00  0.00     0.000 C 
BRANCH   6   7
ATOM      7  C   UNL     1     -17.504  58.635  -2.183  1.00  0.00    -0.000 C 
BRANCH   7   8
ATOM      8  C   UNL     1     -17.763  57.122  -2.166  1.00  0.00    -0.003 C 
ATOM      9  C   UNL     1     -16.834  56.394  -3.134  1.00  0.00     0.004 C 
ENDBRANCH   7   8
ENDBRANCH   6   7
ENDBRANCH   1   6
TORSDOF 5
ENDMDL
MODEL 6
REMARK VINA RESULT:     4.924      2.833      4.339
REMARK INTER + INTRA:           6.079
REMARK INTER:                   6.155
REMARK INTRA:                  -0.075
REMARK UNBOUND:                -0.285
REMARK SMILES CCCCCCC(=O)[O-]
REMARK SMILES IDX 5 1 6 2 7 3 8 4 9 5 4 6 3 7 2 8 1 9
REMARK H PARENT
REMARK Flexibility Score: inf
ROOT
ATOM      1  C   UNL     1     -17.670  57.343  -1.813  1.00  0.00     0.006 C 
ENDROOT
BRANCH   1   2
ATOM      2  C   UNL     1     -16.733  57.243  -3.024  1.00  0.00     0.053 C 
BRANCH   2   3
ATOM      3  C   UNL     1     -16.426  55.812  -3.330  1.00  0.00     0.041 C 
ATOM      4  O   UNL     1     -17.021  55.224  -4.273  1.00  0.00    -0.550 OA
ATOM      5  O   UNL     1     -15.449  55.139  -2.607  1.00  0.00    -0.550 OA
ENDBRANCH   2   3
ENDBRANCH   1   2
BRANCH   1   6
ATOM      6  C   UNL     1     -18.702  58.478  -1.944  1.00  0.00     0.000 C 
BRANCH   6   7
ATOM      7  C   UNL     1     -18.809  59.100  -3.348  1.00  0.00    -0.000 C 
BRANCH   7   8
ATOM      8  C   UNL     1     -18.306  60.549  -3.400  1.00  0.00    -0.003 C 
ATOM      9  C   UNL     1     -16.795  60.615  -3.197  1.00  0.00     0.004 C 
ENDBRANCH   7   8
ENDBRANCH   6   7
ENDBRANCH   1   6
TORSDOF 5
ENDMDL
MODEL 7
REMARK VINA RESULT:     5.278      1.511      2.522
REMARK INTER + INTRA:           6.537
REMARK INTER:                   6.406
REMARK INTRA:                   0.130
REMARK UNBOUND:                -0.285
REMARK SMILES CCCCCCC(=O)[O-]
REMARK SMILES IDX 5 1 6 2 7 3 8 4 9 5 4 6 3 7 2 8 1 9
REMARK H PARENT
REMARK Flexibility Score: inf
ROOT
ATOM      1  C   UNL     1     -18.668  58.535  -2.500  1.00  0.00     0.006 C 
ENDROOT
BRANCH   1   2
ATOM      2  C   UNL     1     -19.106  59.547  -3.566  1.00  0.00     0.053 C 
BRANCH   2   3
ATOM      3  C   UNL     1     -18.396  60.850  -3.372  1.00  0.00     0.041 C 
ATOM      4  O   UNL     1     -19.046  61.928  -3.349  1.00  0.00    -0.550 OA
ATOM      5  O   UNL     1     -17.023  60.870  -3.167  1.00  0.00    -0.550 OA
ENDBRANCH   2   3
ENDBRANCH   1   2
BRANCH   1   6
ATOM      6  C   UNL     1     -17.549  57.596  -2.987  1.00  0.00     0.000 C 
BRANCH   6   7
ATOM      7  C   UNL     1     -17.041  56.592  -1.937  1.00  0.00    -0.000 C 
BRANCH   7   8
ATOM      8  C   UNL     1     -17.756  56.728  -0.586  1.00  0.00    -0.003 C 
ATOM      9  C   UNL     1     -17.110  57.814   0.271  1.00  0.00     0.004 C 
ENDBRANCH   7   8
ENDBRANCH   6   7
ENDBRANCH   1   6
TORSDOF 5
ENDMDL
MODEL 8
REMARK VINA RESULT:     5.792      3.037      4.578
REMARK INTER + INTRA:           7.200
REMARK INTER:                   7.477
REMARK INTRA:                  -0.277
REMARK UNBOUND:                -0.285
REMARK SMILES CCCCCCC(=O)[O-]
REMARK SMILES IDX 5 1 6 2 7 3 8 4 9 5 4 6 3 7 2 8 1 9
REMARK H PARENT
REMARK Flexibility Score: inf
ROOT
ATOM      1  C   UNL     1     -16.461  57.365  -3.402  1.00  0.00     0.006 C 
ENDROOT
BRANCH   1   2
ATOM      2  C   UNL     1     -16.369  55.883  -3.020  1.00  0.00     0.053 C 
BRANCH   2   3
ATOM      3  C   UNL     1     -17.132  55.043  -3.995  1.00  0.00     0.041 C 
ATOM      4  O   UNL     1     -17.839  54.084  -3.588  1.00  0.00    -0.550 OA
ATOM      5  O   UNL     1     -17.100  55.349  -5.350  1.00  0.00    -0.550 OA
ENDBRANCH   2   3
ENDBRANCH   1   2
BRANCH   1   6
ATOM      6  C   UNL     1     -17.207  58.211  -2.353  1.00  0.00     0.000 C 
BRANCH   6   7
ATOM      7  C   UNL     1     -18.429  57.525  -1.716  1.00  0.00    -0.000 C 
BRANCH   7   8
ATOM      8  C   UNL     1     -18.343  57.452  -0.185  1.00  0.00    -0.003 C 
ATOM      9  C   UNL     1     -16.937  57.793   0.303  1.00  0.00     0.004 C 
ENDBRANCH   7   8
ENDBRANCH   6   7
ENDBRANCH   1   6
TORSDOF 5
ENDMDL
MODEL 9
REMARK VINA RESULT:     5.880      2.228      2.855
REMARK INTER + INTRA:           7.314
REMARK INTER:                   7.425
REMARK INTRA:                  -0.111
REMARK UNBOUND:                -0.285
REMARK SMILES CCCCCCC(=O)[O-]
REMARK SMILES IDX 5 1 6 2 7 3 8 4 9 5 4 6 3 7 2 8 1 9
REMARK H PARENT
REMARK Flexibility Score: inf
ROOT
ATOM      1  C   UNL     1     -17.373  58.260  -2.703  1.00  0.00     0.006 C 
ENDROOT
BRANCH   1   2
ATOM      2  C   UNL     1     -18.240  57.663  -1.588  1.00  0.00     0.053 C 
BRANCH   2   3
ATOM      3  C   UNL     1     -17.498  57.670  -0.289  1.00  0.00     0.041 C 
ATOM      4  O   UNL     1     -16.564  58.494  -0.097  1.00  0.00    -0.550 OA
ATOM      5  O   UNL     1     -17.867  56.800   0.728  1.00  0.00    -0.550 OA
ENDBRANCH   2   3
ENDBRANCH   1   2
BRANCH   1   6
ATOM      6  C   UNL     1     -16.448  57.222  -3.365  1.00  0.00     0.000 C 
BRANCH   6   7
ATOM      7  C   UNL     1     -16.659  55.771  -2.896  1.00  0.00    -0.000 C 
BRANCH   7   8
ATOM      8  C   UNL     1     -16.984  54.812  -4.050  1.00  0.00    -0.003 C 
ATOM      9  C   UNL     1     -17.172  55.572  -5.360  1.00  0.00     0.004 C 
ENDBRANCH   7   8
ENDBRANCH   6   7
ENDBRANCH   1   6
TORSDOF 5
ENDMDL
