MODEL 1
REMARK VINA RESULT:    -5.055      0.000      0.000
REMARK INTER + INTRA:          -7.643
REMARK INTER:                  -6.828
REMARK INTRA:                  -0.815
REMARK UNBOUND:                -0.815
REMARK SMILES CC(=O)OCC=C(C)CCC=C(C)C
REMARK SMILES IDX 7 1 6 2 8 3 9 4 10 5 11 6 13 7 12 8 14 9 5 10 4 11 2 12 3 13
REMARK SMILES IDX 1 14
REMARK H PARENT
REMARK Flexibility Score: inf
ROOT
ATOM      1  C   UNL     1     -33.972  -2.575  -9.987  1.00  0.00    -0.074 C 
ATOM      2  C   UNL     1     -34.506  -3.516 -10.798  1.00  0.00     0.013 C 
ATOM      3  C   UNL     1     -32.582  -2.030 -10.215  1.00  0.00     0.039 C 
ENDROOT
BRANCH   1   4
ATOM      4  C   UNL     1     -34.785  -2.058  -8.820  1.00  0.00     0.034 C 
BRANCH   4   5
ATOM      5  C   UNL     1     -36.285  -2.208  -9.093  1.00  0.00     0.032 C 
BRANCH   5   6
ATOM      6  C   UNL     1     -36.932  -3.090  -8.055  1.00  0.00    -0.028 C 
ATOM      7  C   UNL     1     -37.895  -4.658  -9.753  1.00  0.00     0.039 C 
ATOM      8  C   UNL     1     -37.637  -4.208  -8.334  1.00  0.00    -0.080 C 
ATOM      9  C   UNL     1     -38.193  -5.013  -7.188  1.00  0.00     0.039 C 
ENDBRANCH   5   6
ENDBRANCH   4   5
ENDBRANCH   1   4
BRANCH   2  10
ATOM     10  C   UNL     1     -33.792  -4.101 -11.984  1.00  0.00     0.260 C 
BRANCH  10  11
ATOM     11  O   UNL     1     -34.560  -3.885 -13.163  1.00  0.00    -0.462 OA
BRANCH  11  12
ATOM     12  C   UNL     1     -34.857  -2.607 -13.645  1.00  0.00     0.302 C 
ATOM     13  O   UNL     1     -36.052  -2.214 -13.734  1.00  0.00    -0.253 OA
ATOM     14  C   UNL     1     -33.745  -1.684 -14.012  1.00  0.00     0.139 C 
ENDBRANCH  11  12
ENDBRANCH  10  11
ENDBRANCH   2  10
TORSDOF 6
ENDMDL
MODEL 2
REMARK VINA RESULT:    -5.043      1.833      4.394
REMARK INTER + INTRA:          -7.627
REMARK INTER:                  -6.843
REMARK INTRA:                  -0.784
REMARK UNBOUND:                -0.815
REMARK SMILES CC(=O)OCC=C(C)CCC=C(C)C
REMARK SMILES IDX 7 1 6 2 8 3 9 4 10 5 11 6 13 7 12 8 14 9 5 10 4 11 2 12 3 13
REMARK SMILES IDX 1 14
REMARK H PARENT
REMARK Flexibility Score: inf
ROOT
ATOM      1  C   UNL     1     -37.323  -2.716  -8.709  1.00  0.00    -0.074 C 
ATOM      2  C   UNL     1     -37.900  -1.745  -9.452  1.00  0.00     0.013 C 
ATOM      3  C   UNL     1     -37.849  -4.131  -8.712  1.00  0.00     0.039 C 
ENDROOT
BRANCH   1   4
ATOM      4  C   UNL     1     -36.124  -2.375  -7.850  1.00  0.00     0.034 C 
BRANCH   4   5
ATOM      5  C   UNL     1     -34.926  -1.980  -8.720  1.00  0.00     0.032 C 
BRANCH   5   6
ATOM      6  C   UNL     1     -34.785  -2.919  -9.892  1.00  0.00    -0.028 C 
ATOM      7  C   UNL     1     -32.470  -2.138 -10.445  1.00  0.00     0.039 C 
ATOM      8  C   UNL     1     -33.678  -3.019 -10.661  1.00  0.00    -0.080 C 
ATOM      9  C   UNL     1     -33.667  -4.032 -11.777  1.00  0.00     0.039 C 
ENDBRANCH   5   6
ENDBRANCH   4   5
ENDBRANCH   1   4
BRANCH   2  10
ATOM     10  C   UNL     1     -39.092  -1.966 -10.340  1.00  0.00     0.260 C 
BRANCH  10  11
ATOM     11  O   UNL     1     -38.738  -1.713 -11.695  1.00  0.00    -0.462 OA
BRANCH  11  12
ATOM     12  C   UNL     1     -37.621  -2.293 -12.303  1.00  0.00     0.302 C 
ATOM     13  O   UNL     1     -36.653  -1.581 -12.684  1.00  0.00    -0.253 OA
ATOM     14  C   UNL     1     -37.557  -3.775 -12.458  1.00  0.00     0.139 C 
ENDBRANCH  11  12
ENDBRANCH  10  11
ENDBRANCH   2  10
TORSDOF 6
ENDMDL
MODEL 3
REMARK VINA RESULT:    -4.975      1.415      2.615
REMARK INTER + INTRA:          -7.535
REMARK INTER:                  -6.475
REMARK INTRA:                  -1.060
REMARK UNBOUND:                -0.815
REMARK SMILES CC(=O)OCC=C(C)CCC=C(C)C
REMARK SMILES IDX 7 1 6 2 8 3 9 4 10 5 11 6 13 7 12 8 14 9 5 10 4 11 2 12 3 13
REMARK SMILES IDX 1 14
REMARK H PARENT
REMARK Flexibility Score: inf
ROOT
ATOM      1  C   UNL     1     -33.510  -2.668 -11.388  1.00  0.00    -0.074 C 
ATOM      2  C   UNL     1     -33.864  -1.678 -12.237  1.00  0.00     0.013 C 
ATOM      3  C   UNL     1     -33.569  -4.121 -11.798  1.00  0.00     0.039 C 
ENDROOT
BRANCH   1   4
ATOM      4  C   UNL     1     -33.048  -2.315  -9.990  1.00  0.00     0.034 C 
BRANCH   4   5
ATOM      5  C   UNL     1     -34.207  -1.751  -9.161  1.00  0.00     0.032 C 
BRANCH   5   6
ATOM      6  C   UNL     1     -35.370  -2.711  -9.146  1.00  0.00    -0.028 C 
ATOM      7  C   UNL     1     -37.054  -0.918  -8.678  1.00  0.00     0.039 C 
ATOM      8  C   UNL     1     -36.658  -2.349  -8.955  1.00  0.00    -0.080 C 
ATOM      9  C   UNL     1     -37.720  -3.418  -9.004  1.00  0.00     0.039 C 
ENDBRANCH   5   6
ENDBRANCH   4   5
ENDBRANCH   1   4
BRANCH   2  10
ATOM     10  C   UNL     1     -34.337  -1.911 -13.644  1.00  0.00     0.260 C 
BRANCH  10  11
ATOM     11  O   UNL     1     -35.689  -1.486 -13.774  1.00  0.00    -0.462 OA
BRANCH  11  12
ATOM     12  C   UNL     1     -36.688  -1.864 -12.872  1.00  0.00     0.302 C 
ATOM     13  O   UNL     1     -37.304  -0.998 -12.193  1.00  0.00    -0.253 OA
ATOM     14  C   UNL     1     -37.059  -3.303 -12.749  1.00  0.00     0.139 C 
ENDBRANCH  11  12
ENDBRANCH  10  11
ENDBRANCH   2  10
TORSDOF 6
ENDMDL
MODEL 4
REMARK VINA RESULT:    -4.954      2.748      5.346
REMARK INTER + INTRA:          -7.507
REMARK INTER:                  -6.634
REMARK INTRA:                  -0.873
REMARK UNBOUND:                -0.815
REMARK SMILES CC(=O)OCC=C(C)CCC=C(C)C
REMARK SMILES IDX 7 1 6 2 8 3 9 4 10 5 11 6 13 7 12 8 14 9 5 10 4 11 2 12 3 13
REMARK SMILES IDX 1 14
REMARK H PARENT
REMARK Flexibility Score: inf
ROOT
ATOM      1  C   UNL     1     -33.923  -2.970 -10.831  1.00  0.00    -0.074 C 
ATOM      2  C   UNL     1     -35.166  -2.547 -10.510  1.00  0.00     0.013 C 
ATOM      3  C   UNL     1     -32.691  -2.257 -10.328  1.00  0.00     0.039 C 
ENDROOT
BRANCH   1   4
ATOM      4  C   UNL     1     -33.762  -4.184 -11.720  1.00  0.00     0.034 C 
BRANCH   4   5
ATOM      5  C   UNL     1     -33.783  -3.783 -13.198  1.00  0.00     0.032 C 
BRANCH   5   6
ATOM      6  C   UNL     1     -35.099  -4.156 -13.834  1.00  0.00    -0.028 C 
ATOM      7  C   UNL     1     -35.847  -1.777 -14.064  1.00  0.00     0.039 C 
ATOM      8  C   UNL     1     -36.025  -3.265 -14.251  1.00  0.00    -0.080 C 
ATOM      9  C   UNL     1     -37.279  -3.785 -14.906  1.00  0.00     0.039 C 
ENDBRANCH   5   6
ENDBRANCH   4   5
ENDBRANCH   1   4
BRANCH   2  10
ATOM     10  C   UNL     1     -35.447  -1.356  -9.638  1.00  0.00     0.260 C 
BRANCH  10  11
ATOM     11  O   UNL     1     -36.262  -1.745  -8.538  1.00  0.00    -0.462 OA
BRANCH  11  12
ATOM     12  C   UNL     1     -35.730  -2.165  -7.316  1.00  0.00     0.302 C 
ATOM     13  O   UNL     1     -36.324  -3.032  -6.619  1.00  0.00    -0.253 OA
ATOM     14  C   UNL     1     -34.423  -1.614  -6.857  1.00  0.00     0.139 C 
ENDBRANCH  11  12
ENDBRANCH  10  11
ENDBRANCH   2  10
TORSDOF 6
ENDMDL
MODEL 5
REMARK VINA RESULT:    -4.950      2.188      3.372
REMARK INTER + INTRA:          -7.502
REMARK INTER:                  -6.498
REMARK INTRA:                  -1.004
REMARK UNBOUND:                -0.815
REMARK SMILES CC(=O)OCC=C(C)CCC=C(C)C
REMARK SMILES IDX 7 1 6 2 8 3 9 4 10 5 11 6 13 7 12 8 14 9 5 10 4 11 2 12 3 13
REMARK SMILES IDX 1 14
REMARK H PARENT
REMARK Flexibility Score: inf
ROOT
ATOM      1  C   UNL     1     -34.426  -3.954 -11.877  1.00  0.00    -0.074 C 
ATOM      2  C   UNL     1     -34.390  -3.899 -13.227  1.00  0.00     0.013 C 
ATOM      3  C   UNL     1     -35.651  -4.439 -11.137  1.00  0.00     0.039 C 
ENDROOT
BRANCH   1   4
ATOM      4  C   UNL     1     -33.212  -3.515 -11.086  1.00  0.00     0.034 C 
BRANCH   4   5
ATOM      5  C   UNL     1     -33.345  -2.051 -10.655  1.00  0.00     0.032 C 
BRANCH   5   6
ATOM      6  C   UNL     1     -33.430  -1.943  -9.153  1.00  0.00    -0.028 C 
ATOM      7  C   UNL     1     -35.841  -1.267  -9.177  1.00  0.00     0.039 C 
ATOM      8  C   UNL     1     -34.551  -1.616  -8.473  1.00  0.00    -0.080 C 
ATOM      9  C   UNL     1     -34.495  -1.585  -6.967  1.00  0.00     0.039 C 
ENDBRANCH   5   6
ENDBRANCH   4   5
ENDBRANCH   1   4
BRANCH   2  10
ATOM     10  C   UNL     1     -35.534  -4.307 -14.112  1.00  0.00     0.260 C 
BRANCH  10  11
ATOM     11  O   UNL     1     -36.252  -3.153 -14.534  1.00  0.00    -0.462 OA
BRANCH  11  12
ATOM     12  C   UNL     1     -37.314  -2.616 -13.801  1.00  0.00     0.302 C 
ATOM     13  O   UNL     1     -38.437  -3.191 -13.778  1.00  0.00    -0.253 OA
ATOM     14  C   UNL     1     -37.101  -1.376 -13.000  1.00  0.00     0.139 C 
ENDBRANCH  11  12
ENDBRANCH  10  11
ENDBRANCH   2  10
TORSDOF 6
ENDMDL
MODEL 6
REMARK VINA RESULT:    -4.831      2.208      4.638
REMARK INTER + INTRA:          -7.340
REMARK INTER:                  -6.393
REMARK INTRA:                  -0.947
REMARK UNBOUND:                -0.815
REMARK SMILES CC(=O)OCC=C(C)CCC=C(C)C
REMARK SMILES IDX 7 1 6 2 8 3 9 4 10 5 11 6 13 7 12 8 14 9 5 10 4 11 2 12 3 13
REMARK SMILES IDX 1 14
REMARK H PARENT
REMARK Flexibility Score: inf
ROOT
ATOM      1  C   UNL     1     -35.449  -3.654 -13.521  1.00  0.00    -0.074 C 
ATOM      2  C   UNL     1     -36.163  -2.507 -13.556  1.00  0.00     0.013 C 
ATOM      3  C   UNL     1     -36.078  -4.988 -13.846  1.00  0.00     0.039 C 
ENDROOT
BRANCH   1   4
ATOM      4  C   UNL     1     -33.985  -3.602 -13.141  1.00  0.00     0.034 C 
BRANCH   4   5
ATOM      5  C   UNL     1     -33.743  -4.313 -11.806  1.00  0.00     0.032 C 
BRANCH   5   6
ATOM      6  C   UNL     1     -34.449  -3.595 -10.683  1.00  0.00    -0.028 C 
ATOM      7  C   UNL     1     -32.519  -2.063 -10.234  1.00  0.00     0.039 C 
ATOM      8  C   UNL     1     -33.922  -2.566  -9.984  1.00  0.00    -0.080 C 
ATOM      9  C   UNL     1     -34.762  -1.919  -8.913  1.00  0.00     0.039 C 
ENDBRANCH   5   6
ENDBRANCH   4   5
ENDBRANCH   1   4
BRANCH   2  10
ATOM     10  C   UNL     1     -37.621  -2.439 -13.917  1.00  0.00     0.260 C 
BRANCH  10  11
ATOM     11  O   UNL     1     -38.384  -2.073 -12.773  1.00  0.00    -0.462 OA
BRANCH  11  12
ATOM     12  C   UNL     1     -38.583  -2.936 -11.692  1.00  0.00     0.302 C 
ATOM     13  O   UNL     1     -39.040  -4.098 -11.871  1.00  0.00    -0.253 OA
ATOM     14  C   UNL     1     -38.207  -2.492 -10.319  1.00  0.00     0.139 C 
ENDBRANCH  11  12
ENDBRANCH  10  11
ENDBRANCH   2  10
TORSDOF 6
ENDMDL
MODEL 7
REMARK VINA RESULT:    -4.733     13.068     15.177
REMARK INTER + INTRA:          -7.208
REMARK INTER:                  -6.510
REMARK INTRA:                  -0.698
REMARK UNBOUND:                -0.815
REMARK SMILES CC(=O)OCC=C(C)CCC=C(C)C
REMARK SMILES IDX 7 1 6 2 8 3 9 4 10 5 11 6 13 7 12 8 14 9 5 10 4 11 2 12 3 13
REMARK SMILES IDX 1 14
REMARK H PARENT
REMARK Flexibility Score: inf
ROOT
ATOM      1  C   UNL     1     -21.572  -6.013  -9.415  1.00  0.00    -0.074 C 
ATOM      2  C   UNL     1     -22.165  -5.645  -8.257  1.00  0.00     0.013 C 
ATOM      3  C   UNL     1     -20.751  -7.276  -9.518  1.00  0.00     0.039 C 
ENDROOT
BRANCH   1   4
ATOM      4  C   UNL     1     -21.730  -5.134 -10.637  1.00  0.00     0.034 C 
BRANCH   4   5
ATOM      5  C   UNL     1     -22.156  -3.717 -10.237  1.00  0.00     0.032 C 
BRANCH   5   6
ATOM      6  C   UNL     1     -21.135  -2.705 -10.693  1.00  0.00    -0.028 C 
ATOM      7  C   UNL     1     -19.897  -2.733  -8.516  1.00  0.00     0.039 C 
ATOM      8  C   UNL     1     -20.100  -2.271  -9.940  1.00  0.00    -0.080 C 
ATOM      9  C   UNL     1     -19.135  -1.283 -10.545  1.00  0.00     0.039 C 
ENDBRANCH   5   6
ENDBRANCH   4   5
ENDBRANCH   1   4
BRANCH   2  10
ATOM     10  C   UNL     1     -22.075  -6.438  -6.982  1.00  0.00     0.260 C 
BRANCH  10  11
ATOM     11  O   UNL     1     -22.348  -5.593  -5.870  1.00  0.00    -0.462 OA
BRANCH  11  12
ATOM     12  C   UNL     1     -23.329  -5.890  -4.920  1.00  0.00     0.302 C 
ATOM     13  O   UNL     1     -23.266  -5.408  -3.756  1.00  0.00    -0.253 OA
ATOM     14  C   UNL     1     -24.486  -6.748  -5.303  1.00  0.00     0.139 C 
ENDBRANCH  11  12
ENDBRANCH  10  11
ENDBRANCH   2  10
TORSDOF 6
ENDMDL
MODEL 8
REMARK VINA RESULT:    -4.716     13.002     15.028
REMARK INTER + INTRA:          -7.185
REMARK INTER:                  -6.192
REMARK INTRA:                  -0.994
REMARK UNBOUND:                -0.815
REMARK SMILES CC(=O)OCC=C(C)CCC=C(C)C
REMARK SMILES IDX 7 1 6 2 8 3 9 4 10 5 11 6 13 7 12 8 14 9 5 10 4 11 2 12 3 13
REMARK SMILES IDX 1 14
REMARK H PARENT
REMARK Flexibility Score: inf
ROOT
ATOM      1  C   UNL     1     -22.476  -4.568  -8.443  1.00  0.00    -0.074 C 
ATOM      2  C   UNL     1     -21.870  -5.726  -8.098  1.00  0.00     0.013 C 
ATOM      3  C   UNL     1     -22.989  -3.602  -7.401  1.00  0.00     0.039 C 
ENDROOT
BRANCH   1   4
ATOM      4  C   UNL     1     -22.650  -4.233  -9.908  1.00  0.00     0.034 C 
BRANCH   4   5
ATOM      5  C   UNL     1     -21.289  -4.100 -10.601  1.00  0.00     0.032 C 
BRANCH   5   6
ATOM      6  C   UNL     1     -20.766  -2.691 -10.484  1.00  0.00    -0.028 C 
ATOM      7  C   UNL     1     -18.986  -3.316  -8.837  1.00  0.00     0.039 C 
ATOM      8  C   UNL     1     -19.716  -2.327  -9.715  1.00  0.00    -0.080 C 
ATOM      9  C   UNL     1     -19.280  -0.884  -9.728  1.00  0.00     0.039 C 
ENDBRANCH   5   6
ENDBRANCH   4   5
ENDBRANCH   1   4
BRANCH   2  10
ATOM     10  C   UNL     1     -21.644  -6.162  -6.677  1.00  0.00     0.260 C 
BRANCH  10  11
ATOM     11  O   UNL     1     -22.731  -6.972  -6.243  1.00  0.00    -0.462 OA
BRANCH  11  12
ATOM     12  C   UNL     1     -23.660  -6.541  -5.292  1.00  0.00     0.302 C 
ATOM     13  O   UNL     1     -24.873  -6.873  -5.379  1.00  0.00    -0.253 OA
ATOM     14  C   UNL     1     -23.199  -5.720  -4.135  1.00  0.00     0.139 C 
ENDBRANCH  11  12
ENDBRANCH  10  11
ENDBRANCH   2  10
TORSDOF 6
ENDMDL
MODEL 9
REMARK VINA RESULT:    -4.706      1.580      3.748
REMARK INTER + INTRA:          -7.171
REMARK INTER:                  -6.034
REMARK INTRA:                  -1.138
REMARK UNBOUND:                -0.815
REMARK SMILES CC(=O)OCC=C(C)CCC=C(C)C
REMARK SMILES IDX 7 1 6 2 8 3 9 4 10 5 11 6 13 7 12 8 14 9 5 10 4 11 2 12 3 13
REMARK SMILES IDX 1 14
REMARK H PARENT
REMARK Flexibility Score: inf
ROOT
ATOM      1  C   UNL     1     -37.690  -1.653 -10.443  1.00  0.00    -0.074 C 
ATOM      2  C   UNL     1     -37.308  -0.906 -11.502  1.00  0.00     0.013 C 
ATOM      3  C   UNL     1     -38.626  -2.828 -10.600  1.00  0.00     0.039 C 
ENDROOT
BRANCH   1   4
ATOM      4  C   UNL     1     -37.173  -1.302  -9.065  1.00  0.00     0.034 C 
BRANCH   4   5
ATOM      5  C   UNL     1     -36.211  -2.380  -8.554  1.00  0.00     0.032 C 
BRANCH   5   6
ATOM      6  C   UNL     1     -34.796  -2.080  -8.982  1.00  0.00    -0.028 C 
ATOM      7  C   UNL     1     -34.806  -3.809 -10.794  1.00  0.00     0.039 C 
ATOM      8  C   UNL     1     -34.160  -2.696 -10.003  1.00  0.00    -0.080 C 
ATOM      9  C   UNL     1     -32.757  -2.263 -10.342  1.00  0.00     0.039 C 
ENDBRANCH   5   6
ENDBRANCH   4   5
ENDBRANCH   1   4
BRANCH   2  10
ATOM     10  C   UNL     1     -37.759  -1.160 -12.913  1.00  0.00     0.260 C 
BRANCH  10  11
ATOM     11  O   UNL     1     -36.645  -1.081 -13.796  1.00  0.00    -0.462 OA
BRANCH  11  12
ATOM     12  C   UNL     1     -35.727  -2.124 -13.946  1.00  0.00     0.302 C 
ATOM     13  O   UNL     1     -36.121  -3.307 -14.134  1.00  0.00    -0.253 OA
ATOM     14  C   UNL     1     -34.267  -1.824 -13.931  1.00  0.00     0.139 C 
ENDBRANCH  11  12
ENDBRANCH  10  11
ENDBRANCH   2  10
TORSDOF 6
ENDMDL
