MODEL 1
REMARK VINA RESULT:    -2.989      0.000      0.000
REMARK INTER + INTRA:          -3.252
REMARK INTER:                  -3.163
REMARK INTRA:                  -0.089
REMARK UNBOUND:                -0.089
REMARK SMILES CC(C)[C@@H]1CC[C@@H](C)CC1=O
REMARK SMILES IDX 8 1 7 2 6 3 5 4 4 5 10 6 11 7 9 8 2 9 1 10 3 11
REMARK H PARENT
REMARK Flexibility Score: inf
ROOT
ATOM      1  C   UNL     1     -26.235  55.237  45.846  1.00  0.00     0.008 C 
ATOM      2  C   UNL     1     -26.374  54.497  44.511  1.00  0.00    -0.007 C 
ATOM      3  C   UNL     1     -26.596  52.988  44.747  1.00  0.00     0.004 C 
ATOM      4  C   UNL     1     -26.722  52.219  43.419  1.00  0.00     0.012 C 
ATOM      5  C   UNL     1     -25.479  52.419  42.519  1.00  0.00     0.058 C 
ATOM      6  C   UNL     1     -25.253  53.915  42.379  1.00  0.00     0.136 C 
ATOM      7  O   UNL     1     -25.252  54.471  41.289  1.00  0.00    -0.299 OA
ATOM      8  C   UNL     1     -25.134  54.733  43.631  1.00  0.00     0.079 C 
ENDROOT
BRANCH   5   9
ATOM      9  C   UNL     1     -25.590  51.689  41.139  1.00  0.00    -0.007 C 
ATOM     10  C   UNL     1     -24.193  51.372  40.571  1.00  0.00     0.008 C 
ATOM     11  C   UNL     1     -26.391  50.377  41.223  1.00  0.00     0.008 C 
ENDBRANCH   5   9
TORSDOF 1
ENDMDL
MODEL 2
REMARK VINA RESULT:    -2.984      1.626      2.451
REMARK INTER + INTRA:          -3.248
REMARK INTER:                  -3.099
REMARK INTRA:                  -0.149
REMARK UNBOUND:                -0.089
REMARK SMILES CC(C)[C@@H]1CC[C@@H](C)CC1=O
REMARK SMILES IDX 8 1 7 2 6 3 5 4 4 5 10 6 11 7 9 8 2 9 1 10 3 11
REMARK H PARENT
REMARK Flexibility Score: inf
ROOT
ATOM      1  C   UNL     1     -26.376  55.184  45.249  1.00  0.00     0.008 C 
ATOM      2  C   UNL     1     -25.849  53.983  44.454  1.00  0.00    -0.007 C 
ATOM      3  C   UNL     1     -25.574  54.382  42.989  1.00  0.00     0.004 C 
ATOM      4  C   UNL     1     -25.059  53.188  42.164  1.00  0.00     0.012 C 
ATOM      5  C   UNL     1     -26.049  51.998  42.193  1.00  0.00     0.058 C 
ATOM      6  C   UNL     1     -26.351  51.693  43.652  1.00  0.00     0.136 C 
ATOM      7  O   UNL     1     -26.125  50.597  44.144  1.00  0.00    -0.299 OA
ATOM      8  C   UNL     1     -26.845  52.812  44.521  1.00  0.00     0.079 C 
ENDROOT
BRANCH   5   9
ATOM      9  C   UNL     1     -25.539  50.748  41.404  1.00  0.00    -0.007 C 
ATOM     10  C   UNL     1     -26.709  50.014  40.721  1.00  0.00     0.008 C 
ATOM     11  C   UNL     1     -24.497  51.107  40.330  1.00  0.00     0.008 C 
ENDBRANCH   5   9
TORSDOF 1
ENDMDL
MODEL 3
REMARK VINA RESULT:    -2.925      8.533      9.363
REMARK INTER + INTRA:          -3.185
REMARK INTER:                  -3.044
REMARK INTRA:                  -0.141
REMARK UNBOUND:                -0.089
REMARK SMILES CC(C)[C@@H]1CC[C@@H](C)CC1=O
REMARK SMILES IDX 8 1 7 2 6 3 5 4 4 5 10 6 11 7 9 8 2 9 1 10 3 11
REMARK H PARENT
REMARK Flexibility Score: inf
ROOT
ATOM      1  C   UNL     1     -27.822  58.952  38.146  1.00  0.00     0.008 C 
ATOM      2  C   UNL     1     -27.349  58.382  36.804  1.00  0.00    -0.007 C 
ATOM      3  C   UNL     1     -28.166  58.984  35.641  1.00  0.00     0.004 C 
ATOM      4  C   UNL     1     -27.720  58.414  34.281  1.00  0.00     0.012 C 
ATOM      5  C   UNL     1     -27.833  56.871  34.240  1.00  0.00     0.058 C 
ATOM      6  C   UNL     1     -27.082  56.327  35.444  1.00  0.00     0.136 C 
ATOM      7  O   UNL     1     -26.143  55.553  35.327  1.00  0.00    -0.299 OA
ATOM      8  C   UNL     1     -27.453  56.847  36.802  1.00  0.00     0.079 C 
ENDROOT
BRANCH   5   9
ATOM      9  C   UNL     1     -27.345  56.251  32.889  1.00  0.00    -0.007 C 
ATOM     10  C   UNL     1     -28.156  54.987  32.540  1.00  0.00     0.008 C 
ATOM     11  C   UNL     1     -27.447  57.236  31.711  1.00  0.00     0.008 C 
ENDBRANCH   5   9
TORSDOF 1
ENDMDL
MODEL 4
REMARK VINA RESULT:    -2.904      8.338      9.832
REMARK INTER + INTRA:          -3.163
REMARK INTER:                  -3.009
REMARK INTRA:                  -0.153
REMARK UNBOUND:                -0.089
REMARK SMILES CC(C)[C@@H]1CC[C@@H](C)CC1=O
REMARK SMILES IDX 8 1 7 2 6 3 5 4 4 5 10 6 11 7 9 8 2 9 1 10 3 11
REMARK H PARENT
REMARK Flexibility Score: inf
ROOT
ATOM      1  C   UNL     1     -27.833  56.398  31.803  1.00  0.00     0.008 C 
ATOM      2  C   UNL     1     -27.279  56.848  33.160  1.00  0.00    -0.007 C 
ATOM      3  C   UNL     1     -27.604  55.806  34.251  1.00  0.00     0.004 C 
ATOM      4  C   UNL     1     -27.072  56.243  35.628  1.00  0.00     0.012 C 
ATOM      5  C   UNL     1     -27.637  57.621  36.052  1.00  0.00     0.058 C 
ATOM      6  C   UNL     1     -27.364  58.594  34.916  1.00  0.00     0.136 C 
ATOM      7  O   UNL     1     -26.702  59.609  35.079  1.00  0.00    -0.299 OA
ATOM      8  C   UNL     1     -27.842  58.228  33.542  1.00  0.00     0.079 C 
ENDROOT
BRANCH   5   9
ATOM      9  C   UNL     1     -27.082  58.121  37.427  1.00  0.00    -0.007 C 
ATOM     10  C   UNL     1     -28.173  58.867  38.220  1.00  0.00     0.008 C 
ATOM     11  C   UNL     1     -26.541  56.976  38.302  1.00  0.00     0.008 C 
ENDBRANCH   5   9
TORSDOF 1
ENDMDL
MODEL 5
REMARK VINA RESULT:    -2.852      1.650      4.728
REMARK INTER + INTRA:          -3.107
REMARK INTER:                  -2.946
REMARK INTRA:                  -0.161
REMARK UNBOUND:                -0.089
REMARK SMILES CC(C)[C@@H]1CC[C@@H](C)CC1=O
REMARK SMILES IDX 8 1 7 2 6 3 5 4 4 5 10 6 11 7 9 8 2 9 1 10 3 11
REMARK H PARENT
REMARK Flexibility Score: inf
ROOT
ATOM      1  C   UNL     1     -25.357  51.262  40.735  1.00  0.00     0.008 C 
ATOM      2  C   UNL     1     -25.828  52.274  41.785  1.00  0.00    -0.007 C 
ATOM      3  C   UNL     1     -24.682  53.237  42.163  1.00  0.00     0.004 C 
ATOM      4  C   UNL     1     -25.125  54.254  43.230  1.00  0.00     0.012 C 
ATOM      5  C   UNL     1     -25.649  53.556  44.509  1.00  0.00     0.058 C 
ATOM      6  C   UNL     1     -26.717  52.563  44.080  1.00  0.00     0.136 C 
ATOM      7  O   UNL     1     -27.864  52.625  44.500  1.00  0.00    -0.299 OA
ATOM      8  C   UNL     1     -26.361  51.549  43.033  1.00  0.00     0.079 C 
ENDROOT
BRANCH   5   9
ATOM      9  C   UNL     1     -26.152  54.558  45.599  1.00  0.00    -0.007 C 
ATOM     10  C   UNL     1     -25.681  54.126  47.002  1.00  0.00     0.008 C 
ATOM     11  C   UNL     1     -25.675  56.000  45.348  1.00  0.00     0.008 C 
ENDBRANCH   5   9
TORSDOF 1
ENDMDL
MODEL 6
REMARK VINA RESULT:    -2.841      9.369     10.906
REMARK INTER + INTRA:          -3.096
REMARK INTER:                  -2.927
REMARK INTRA:                  -0.168
REMARK UNBOUND:                -0.089
REMARK SMILES CC(C)[C@@H]1CC[C@@H](C)CC1=O
REMARK SMILES IDX 8 1 7 2 6 3 5 4 4 5 10 6 11 7 9 8 2 9 1 10 3 11
REMARK H PARENT
REMARK Flexibility Score: inf
ROOT
ATOM      1  C   UNL     1     -27.374  52.983  33.666  1.00  0.00     0.008 C 
ATOM      2  C   UNL     1     -27.154  54.491  33.499  1.00  0.00    -0.007 C 
ATOM      3  C   UNL     1     -27.138  55.191  34.874  1.00  0.00     0.004 C 
ATOM      4  C   UNL     1     -26.934  56.711  34.734  1.00  0.00     0.012 C 
ATOM      5  C   UNL     1     -28.022  57.358  33.842  1.00  0.00     0.058 C 
ATOM      6  C   UNL     1     -28.055  56.587  32.533  1.00  0.00     0.136 C 
ATOM      7  O   UNL     1     -27.855  57.131  31.456  1.00  0.00    -0.299 OA
ATOM      8  C   UNL     1     -28.238  55.099  32.592  1.00  0.00     0.079 C 
ENDROOT
BRANCH   5   9
ATOM      9  C   UNL     1     -27.822  58.896  33.638  1.00  0.00    -0.007 C 
ATOM     10  C   UNL     1     -28.651  59.698  34.659  1.00  0.00     0.008 C 
ATOM     11  C   UNL     1     -26.349  59.325  33.761  1.00  0.00     0.008 C 
ENDBRANCH   5   9
TORSDOF 1
ENDMDL
MODEL 7
REMARK VINA RESULT:    -2.812      8.780      9.530
REMARK INTER + INTRA:          -3.065
REMARK INTER:                  -2.909
REMARK INTRA:                  -0.157
REMARK UNBOUND:                -0.089
REMARK SMILES CC(C)[C@@H]1CC[C@@H](C)CC1=O
REMARK SMILES IDX 8 1 7 2 6 3 5 4 4 5 10 6 11 7 9 8 2 9 1 10 3 11
REMARK H PARENT
REMARK Flexibility Score: inf
ROOT
ATOM      1  C   UNL     1     -26.465  57.562  38.399  1.00  0.00     0.008 C 
ATOM      2  C   UNL     1     -27.199  57.445  37.058  1.00  0.00    -0.007 C 
ATOM      3  C   UNL     1     -26.613  56.291  36.218  1.00  0.00     0.004 C 
ATOM      4  C   UNL     1     -27.324  56.163  34.857  1.00  0.00     0.012 C 
ATOM      5  C   UNL     1     -27.248  57.478  34.043  1.00  0.00     0.058 C 
ATOM      6  C   UNL     1     -27.760  58.596  34.937  1.00  0.00     0.136 C 
ATOM      7  O   UNL     1     -28.718  59.289  34.623  1.00  0.00    -0.299 OA
ATOM      8  C   UNL     1     -27.124  58.773  36.284  1.00  0.00     0.079 C 
ENDROOT
BRANCH   5   9
ATOM      9  C   UNL     1     -27.999  57.402  32.673  1.00  0.00    -0.007 C 
ATOM     10  C   UNL     1     -27.226  58.165  31.580  1.00  0.00     0.008 C 
ATOM     11  C   UNL     1     -28.221  55.956  32.195  1.00  0.00     0.008 C 
ENDBRANCH   5   9
TORSDOF 1
ENDMDL
MODEL 8
REMARK VINA RESULT:    -2.777      9.124     10.637
REMARK INTER + INTRA:          -3.029
REMARK INTER:                  -2.865
REMARK INTRA:                  -0.164
REMARK UNBOUND:                -0.089
REMARK SMILES CC(C)[C@@H]1CC[C@@H](C)CC1=O
REMARK SMILES IDX 8 1 7 2 6 3 5 4 4 5 10 6 11 7 9 8 2 9 1 10 3 11
REMARK H PARENT
REMARK Flexibility Score: inf
ROOT
ATOM      1  C   UNL     1     -27.532  57.159  31.000  1.00  0.00     0.008 C 
ATOM      2  C   UNL     1     -27.900  57.339  32.477  1.00  0.00    -0.007 C 
ATOM      3  C   UNL     1     -27.907  58.835  32.855  1.00  0.00     0.004 C 
ATOM      4  C   UNL     1     -28.259  59.043  34.340  1.00  0.00     0.012 C 
ATOM      5  C   UNL     1     -27.285  58.283  35.273  1.00  0.00     0.058 C 
ATOM      6  C   UNL     1     -27.251  56.835  34.814  1.00  0.00     0.136 C 
ATOM      7  O   UNL     1     -27.558  55.913  35.557  1.00  0.00    -0.299 OA
ATOM      8  C   UNL     1     -26.928  56.556  33.375  1.00  0.00     0.079 C 
ENDROOT
BRANCH   5   9
ATOM      9  C   UNL     1     -27.638  58.432  36.790  1.00  0.00    -0.007 C 
ATOM     10  C   UNL     1     -26.380  58.760  37.617  1.00  0.00     0.008 C 
ATOM     11  C   UNL     1     -28.691  59.524  37.051  1.00  0.00     0.008 C 
ENDBRANCH   5   9
TORSDOF 1
ENDMDL
MODEL 9
REMARK VINA RESULT:    -2.759      2.162      5.113
REMARK INTER + INTRA:          -3.009
REMARK INTER:                  -2.834
REMARK INTRA:                  -0.175
REMARK UNBOUND:                -0.089
REMARK SMILES CC(C)[C@@H]1CC[C@@H](C)CC1=O
REMARK SMILES IDX 8 1 7 2 6 3 5 4 4 5 10 6 11 7 9 8 2 9 1 10 3 11
REMARK H PARENT
REMARK Flexibility Score: inf
ROOT
ATOM      1  C   UNL     1     -25.730  53.512  41.880  1.00  0.00     0.008 C 
ATOM      2  C   UNL     1     -25.478  53.784  43.367  1.00  0.00    -0.007 C 
ATOM      3  C   UNL     1     -26.647  53.250  44.221  1.00  0.00     0.004 C 
ATOM      4  C   UNL     1     -26.426  53.526  45.720  1.00  0.00     0.012 C 
ATOM      5  C   UNL     1     -26.231  55.035  46.005  1.00  0.00     0.058 C 
ATOM      6  C   UNL     1     -25.127  55.533  45.087  1.00  0.00     0.136 C 
ATOM      7  O   UNL     1     -24.104  56.044  45.522  1.00  0.00    -0.299 OA
ATOM      8  C   UNL     1     -25.268  55.288  43.613  1.00  0.00     0.079 C 
ENDROOT
BRANCH   5   9
ATOM      9  C   UNL     1     -25.957  55.350  47.512  1.00  0.00    -0.007 C 
ATOM     10  C   UNL     1     -27.223  55.901  48.197  1.00  0.00     0.008 C 
ATOM     11  C   UNL     1     -25.474  54.119  48.299  1.00  0.00     0.008 C 
ENDBRANCH   5   9
TORSDOF 1
ENDMDL
