MODEL 1
REMARK VINA RESULT:     5.438      0.000      0.000
REMARK INTER + INTRA:           7.179
REMARK INTER:                   7.346
REMARK INTRA:                  -0.167
REMARK UNBOUND:                -0.167
REMARK SMILES CCCCCCCC(=O)[O-]
REMARK SMILES IDX 5 1 6 2 7 3 8 4 9 5 10 6 4 7 3 8 2 9 1 10
REMARK H PARENT
REMARK Flexibility Score: inf
ROOT
ATOM      1  C   UNL     1      -2.775  -8.283  23.982  1.00  0.00     0.000 C 
ENDROOT
BRANCH   1   2
ATOM      2  C   UNL     1      -1.258  -8.483  24.089  1.00  0.00     0.006 C 
BRANCH   2   3
ATOM      3  C   UNL     1      -0.883  -9.142  25.420  1.00  0.00     0.053 C 
BRANCH   3   4
ATOM      4  C   UNL     1       0.236  -8.398  26.077  1.00  0.00     0.041 C 
ATOM      5  O   UNL     1       0.886  -8.928  27.015  1.00  0.00    -0.550 OA
ATOM      6  O   UNL     1       0.593  -7.135  25.619  1.00  0.00    -0.550 OA
ENDBRANCH   3   4
ENDBRANCH   2   3
ENDBRANCH   1   2
BRANCH   1   7
ATOM      7  C   UNL     1      -3.109  -7.095  23.068  1.00  0.00     0.000 C 
BRANCH   7   8
ATOM      8  C   UNL     1      -2.504  -7.235  21.659  1.00  0.00    -0.000 C 
BRANCH   8   9
ATOM      9  C   UNL     1      -3.459  -6.875  20.507  1.00  0.00    -0.003 C 
ATOM     10  C   UNL     1      -3.124  -7.600  19.203  1.00  0.00     0.004 C 
ENDBRANCH   8   9
ENDBRANCH   7   8
ENDBRANCH   1   7
TORSDOF 6
ENDMDL
MODEL 2
REMARK VINA RESULT:     7.043      2.813      5.545
REMARK INTER + INTRA:           9.346
REMARK INTER:                   9.573
REMARK INTRA:                  -0.227
REMARK UNBOUND:                -0.167
REMARK SMILES CCCCCCCC(=O)[O-]
REMARK SMILES IDX 5 1 6 2 7 3 8 4 9 5 10 6 4 7 3 8 2 9 1 10
REMARK H PARENT
REMARK Flexibility Score: inf
ROOT
ATOM      1  C   UNL     1      -2.402  -8.792  24.118  1.00  0.00     0.000 C 
ENDROOT
BRANCH   1   2
ATOM      2  C   UNL     1      -2.395  -7.333  23.644  1.00  0.00     0.006 C 
BRANCH   2   3
ATOM      3  C   UNL     1      -3.404  -7.117  22.514  1.00  0.00     0.053 C 
BRANCH   3   4
ATOM      4  C   UNL     1      -2.741  -7.270  21.182  1.00  0.00     0.041 C 
ATOM      5  O   UNL     1      -1.524  -7.585  21.112  1.00  0.00    -0.550 OA
ATOM      6  O   UNL     1      -3.479  -7.112  20.016  1.00  0.00    -0.550 OA
ENDBRANCH   3   4
ENDBRANCH   2   3
ENDBRANCH   1   2
BRANCH   1   7
ATOM      7  C   UNL     1      -1.165  -9.098  24.976  1.00  0.00     0.000 C 
BRANCH   7   8
ATOM      8  C   UNL     1      -0.221  -7.889  25.119  1.00  0.00    -0.000 C 
BRANCH   8   9
ATOM      9  C   UNL     1       0.622  -7.877  26.405  1.00  0.00    -0.003 C 
ATOM     10  C   UNL     1       0.732  -9.254  27.062  1.00  0.00     0.004 C 
ENDBRANCH   8   9
ENDBRANCH   7   8
ENDBRANCH   1   7
TORSDOF 6
ENDMDL
