MODEL 1
REMARK VINA RESULT:    -3.986      0.000      0.000
REMARK INTER + INTRA:          -6.131
REMARK INTER:                  -5.384
REMARK INTRA:                  -0.746
REMARK UNBOUND:                -0.746
REMARK SMILES CC[C@@H](CC[C@H](C)[C@H]1CC[C@H]2[C@@H]3CC(=O)C4=CC(=O)CC[C@]4(C)[C@H]3CC[C@@]12C)C(C)C
REMARK SMILES IDX 4 1 3 2 2 3 1 4 29 5 30 6 31 7 5 8 6 9 7 10 8 11 9 12 27 13
REMARK SMILES IDX 10 14 11 15 26 16 28 17 12 18 25 19 24 20 13 21 22 22 14 23
REMARK SMILES IDX 16 24 21 25 23 26 15 27 17 28 20 29 18 30 19 31
REMARK H PARENT
REMARK Flexibility Score: inf
ROOT
ATOM      1  C   UNL     1     -23.616  10.150 -28.049  1.00  0.00     0.004 C 
ENDROOT
BRANCH   1   2
ATOM      2  C   UNL     1     -24.978  10.837 -28.400  1.00  0.00    -0.009 C 
BRANCH   2   3
ATOM      3  C   UNL     1     -26.206   9.912 -28.198  1.00  0.00     0.000 C 
ATOM      4  C   UNL     1     -27.322  10.445 -27.291  1.00  0.00     0.004 C 
ENDBRANCH   2   3
BRANCH   2   5
ATOM      5  C   UNL     1     -24.990  11.614 -29.750  1.00  0.00    -0.014 C 
ATOM      6  C   UNL     1     -25.044  13.143 -29.602  1.00  0.00     0.007 C 
ATOM      7  C   UNL     1     -26.100  11.114 -30.686  1.00  0.00     0.007 C 
ENDBRANCH   2   5
ENDBRANCH   1   2
BRANCH   1   8
ATOM      8  C   UNL     1     -22.682   9.875 -29.265  1.00  0.00     0.004 C 
BRANCH   8   9
ATOM      9  C   UNL     1     -21.157  10.026 -28.949  1.00  0.00    -0.011 C 
ATOM     10  C   UNL     1     -20.952  10.236 -27.432  1.00  0.00     0.008 C 
BRANCH   9  11
ATOM     11  C   UNL     1     -20.455  11.082 -29.885  1.00  0.00    -0.002 C 
ATOM     12  C   UNL     1     -20.910  12.544 -29.773  1.00  0.00     0.005 C 
ATOM     13  C   UNL     1     -18.894  11.084 -29.942  1.00  0.00    -0.026 C 
ATOM     14  C   UNL     1     -19.668  13.392 -30.031  1.00  0.00     0.005 C 
ATOM     15  C   UNL     1     -18.617  12.444 -30.644  1.00  0.00    -0.001 C 
ATOM     16  C   UNL     1     -18.216  11.037 -28.520  1.00  0.00     0.007 C 
ATOM     17  C   UNL     1     -18.405   9.875 -30.803  1.00  0.00     0.012 C 
ATOM     18  C   UNL     1     -17.163  13.013 -30.554  1.00  0.00     0.004 C 
ATOM     19  C   UNL     1     -16.888  11.824 -28.349  1.00  0.00     0.005 C 
ATOM     20  C   UNL     1     -16.211  12.134 -29.688  1.00  0.00     0.003 C 
ATOM     21  C   UNL     1     -16.563  13.407 -31.951  1.00  0.00     0.085 C 
ATOM     22  C   UNL     1     -14.755  12.762 -29.639  1.00  0.00    -0.000 C 
ATOM     23  C   UNL     1     -15.163  12.906 -32.207  1.00  0.00     0.159 C 
ATOM     24  C   UNL     1     -14.229  12.576 -31.077  1.00  0.00     0.005 C 
ATOM     25  C   UNL     1     -13.811  12.086 -28.571  1.00  0.00     0.020 C 
ATOM     26  C   UNL     1     -14.791  14.294 -29.304  1.00  0.00     0.017 C 
ATOM     27  O   UNL     1     -14.831  12.660 -33.403  1.00  0.00    -0.295 OA
ATOM     28  C   UNL     1     -13.136  11.831 -31.341  1.00  0.00     0.055 C 
ATOM     29  C   UNL     1     -13.251  10.747 -29.040  1.00  0.00     0.081 C 
ATOM     30  C   UNL     1     -12.499  11.003 -30.303  1.00  0.00     0.156 C 
ATOM     31  O   UNL     1     -11.349  10.514 -30.487  1.00  0.00    -0.295 OA
ENDBRANCH   9  11
ENDBRANCH   8   9
ENDBRANCH   1   8
TORSDOF 6
ENDMDL
MODEL 2
REMARK VINA RESULT:    -3.471      0.522      1.481
REMARK INTER + INTRA:          -5.435
REMARK INTER:                  -4.784
REMARK INTRA:                  -0.652
REMARK UNBOUND:                -0.746
REMARK SMILES CC[C@@H](CC[C@H](C)[C@H]1CC[C@H]2[C@@H]3CC(=O)C4=CC(=O)CC[C@]4(C)[C@H]3CC[C@@]12C)C(C)C
REMARK SMILES IDX 4 1 3 2 2 3 1 4 29 5 30 6 31 7 5 8 6 9 7 10 8 11 9 12 27 13
REMARK SMILES IDX 10 14 11 15 26 16 28 17 12 18 25 19 24 20 13 21 22 22 14 23
REMARK SMILES IDX 16 24 21 25 23 26 15 27 17 28 20 29 18 30 19 31
REMARK H PARENT
REMARK Flexibility Score: inf
ROOT
ATOM      1  C   UNL     1     -23.590  10.821 -28.781  1.00  0.00     0.004 C 
ENDROOT
BRANCH   1   2
ATOM      2  C   UNL     1     -24.793  11.385 -29.607  1.00  0.00    -0.009 C 
BRANCH   2   3
ATOM      3  C   UNL     1     -24.928  12.928 -29.529  1.00  0.00     0.000 C 
ATOM      4  C   UNL     1     -24.282  13.730 -30.664  1.00  0.00     0.004 C 
ENDBRANCH   2   3
BRANCH   2   5
ATOM      5  C   UNL     1     -26.138  10.625 -29.407  1.00  0.00    -0.014 C 
ATOM      6  C   UNL     1     -27.242  11.015 -30.404  1.00  0.00     0.007 C 
ATOM      7  C   UNL     1     -26.643  10.730 -27.961  1.00  0.00     0.007 C 
ENDBRANCH   2   5
ENDBRANCH   1   2
BRANCH   1   8
ATOM      8  C   UNL     1     -22.631   9.880 -29.569  1.00  0.00     0.004 C 
BRANCH   8   9
ATOM      9  C   UNL     1     -21.126  10.014 -29.163  1.00  0.00    -0.011 C 
ATOM     10  C   UNL     1     -21.006  10.180 -27.632  1.00  0.00     0.008 C 
BRANCH   9  11
ATOM     11  C   UNL     1     -20.368  11.093 -30.028  1.00  0.00    -0.002 C 
ATOM     12  C   UNL     1     -20.790  12.559 -29.862  1.00  0.00     0.005 C 
ATOM     13  C   UNL     1     -18.806  11.056 -30.036  1.00  0.00    -0.026 C 
ATOM     14  C   UNL     1     -19.520  13.385 -30.042  1.00  0.00     0.005 C 
ATOM     15  C   UNL     1     -18.474  12.439 -30.666  1.00  0.00    -0.001 C 
ATOM     16  C   UNL     1     -18.176  10.927 -28.598  1.00  0.00     0.007 C 
ATOM     17  C   UNL     1     -18.320   9.875 -30.937  1.00  0.00     0.012 C 
ATOM     18  C   UNL     1     -17.009  12.964 -30.505  1.00  0.00     0.004 C 
ATOM     19  C   UNL     1     -16.835  11.670 -28.349  1.00  0.00     0.005 C 
ATOM     20  C   UNL     1     -16.108  12.023 -29.652  1.00  0.00     0.003 C 
ATOM     21  C   UNL     1     -16.355  13.406 -31.863  1.00  0.00     0.085 C 
ATOM     22  C   UNL     1     -14.639  12.609 -29.528  1.00  0.00    -0.000 C 
ATOM     23  C   UNL     1     -14.961  12.881 -32.099  1.00  0.00     0.159 C 
ATOM     24  C   UNL     1     -14.071  12.476 -30.957  1.00  0.00     0.005 C 
ATOM     25  C   UNL     1     -13.746  11.861 -28.464  1.00  0.00     0.020 C 
ATOM     26  C   UNL     1     -14.647  14.125 -29.124  1.00  0.00     0.017 C 
ATOM     27  O   UNL     1     -14.597  12.681 -33.293  1.00  0.00    -0.295 OA
ATOM     28  C   UNL     1     -12.990  11.714 -31.221  1.00  0.00     0.055 C 
ATOM     29  C   UNL     1     -13.205  10.530 -28.978  1.00  0.00     0.081 C 
ATOM     30  C   UNL     1     -12.407  10.824 -30.203  1.00  0.00     0.156 C 
ATOM     31  O   UNL     1     -11.265  10.314 -30.374  1.00  0.00    -0.295 OA
ENDBRANCH   9  11
ENDBRANCH   8   9
ENDBRANCH   1   8
TORSDOF 6
ENDMDL
