MODEL 1
REMARK VINA RESULT:    -3.489      0.000      0.000
REMARK INTER + INTRA:          -4.076
REMARK INTER:                  -3.999
REMARK INTRA:                  -0.077
REMARK UNBOUND:                -0.077
REMARK SMILES COc1cc(C(=O)[O-])ccc1O
REMARK SMILES IDX 5 1 9 2 4 3 10 4 3 5 11 6 6 7 7 8 8 9 2 10 1 11 12 12
REMARK H PARENT 12 13
REMARK Flexibility Score: inf
ROOT
ATOM      1  C   UNL     1      13.449   3.394  -2.206  1.00  0.00     0.001 A 
ATOM      2  C   UNL     1      12.580   2.681  -3.046  1.00  0.00     0.014 A 
ATOM      3  C   UNL     1      12.938   4.460  -1.441  1.00  0.00     0.060 A 
ATOM      4  C   UNL     1      11.230   3.025  -3.124  1.00  0.00     0.051 A 
ATOM      5  C   UNL     1      11.576   4.812  -1.515  1.00  0.00     0.161 A 
ATOM      6  C   UNL     1      10.723   4.083  -2.365  1.00  0.00     0.157 A 
ENDROOT
BRANCH   1   7
ATOM      7  C   UNL     1      14.880   3.025  -2.127  1.00  0.00     0.072 C 
ATOM      8  O   UNL     1      15.471   2.527  -3.122  1.00  0.00    -0.545 OA
ATOM      9  O   UNL     1      15.594   3.221  -0.949  1.00  0.00    -0.545 OA
ENDBRANCH   1   7
BRANCH   5  10
ATOM     10  O   UNL     1      11.038   5.870  -0.765  1.00  0.00    -0.493 OA
ATOM     11  C   UNL     1      10.914   7.210  -1.232  1.00  0.00     0.278 C 
ENDBRANCH   5  10
BRANCH   6  12
ATOM     12  O   UNL     1       9.368   4.397  -2.469  1.00  0.00    -0.504 OA
ATOM     13  H   UNL     1       8.946   4.681  -3.346  1.00  0.00     0.293 HD
ENDBRANCH   6  12
TORSDOF 3
ENDMDL
MODEL 2
REMARK VINA RESULT:    -3.075      1.538      4.329
REMARK INTER + INTRA:          -3.601
REMARK INTER:                  -3.501
REMARK INTRA:                  -0.100
REMARK UNBOUND:                -0.077
REMARK SMILES COc1cc(C(=O)[O-])ccc1O
REMARK SMILES IDX 5 1 9 2 4 3 10 4 3 5 11 6 6 7 7 8 8 9 2 10 1 11 12 12
REMARK H PARENT 12 13
REMARK Flexibility Score: inf
ROOT
ATOM      1  C   UNL     1      11.397   5.621  -2.181  1.00  0.00     0.001 A 
ATOM      2  C   UNL     1      10.411   4.689  -2.538  1.00  0.00     0.014 A 
ATOM      3  C   UNL     1      12.742   5.211  -2.141  1.00  0.00     0.060 A 
ATOM      4  C   UNL     1      10.759   3.374  -2.849  1.00  0.00     0.051 A 
ATOM      5  C   UNL     1      13.101   3.885  -2.454  1.00  0.00     0.161 A 
ATOM      6  C   UNL     1      12.096   2.967  -2.809  1.00  0.00     0.157 A 
ENDROOT
BRANCH   1   7
ATOM      7  C   UNL     1      11.022   7.015  -1.854  1.00  0.00     0.072 C 
ATOM      8  O   UNL     1      11.793   7.971  -2.135  1.00  0.00    -0.545 OA
ATOM      9  O   UNL     1       9.810   7.290  -1.229  1.00  0.00    -0.545 OA
ENDBRANCH   1   7
BRANCH   5  10
ATOM     10  O   UNL     1      14.435   3.446  -2.422  1.00  0.00    -0.493 OA
ATOM     11  C   UNL     1      15.114   3.008  -1.249  1.00  0.00     0.278 C 
ENDBRANCH   5  10
BRANCH   6  12
ATOM     12  O   UNL     1      12.406   1.644  -3.125  1.00  0.00    -0.504 OA
ATOM     13  H   UNL     1      12.953   1.056  -2.507  1.00  0.00     0.293 HD
ENDBRANCH   6  12
TORSDOF 3
ENDMDL
MODEL 3
REMARK VINA RESULT:    -2.979      2.024      3.183
REMARK INTER + INTRA:          -3.491
REMARK INTER:                  -3.391
REMARK INTRA:                  -0.100
REMARK UNBOUND:                -0.077
REMARK SMILES COc1cc(C(=O)[O-])ccc1O
REMARK SMILES IDX 5 1 9 2 4 3 10 4 3 5 11 6 6 7 7 8 8 9 2 10 1 11 12 12
REMARK H PARENT 12 13
REMARK Flexibility Score: inf
ROOT
ATOM      1  C   UNL     1      11.669   4.557  -1.998  1.00  0.00     0.001 A 
ATOM      2  C   UNL     1      11.909   5.355  -0.869  1.00  0.00     0.014 A 
ATOM      3  C   UNL     1      10.503   4.777  -2.755  1.00  0.00     0.060 A 
ATOM      4  C   UNL     1      11.005   6.352  -0.502  1.00  0.00     0.051 A 
ATOM      5  C   UNL     1       9.586   5.783  -2.389  1.00  0.00     0.161 A 
ATOM      6  C   UNL     1       9.847   6.571  -1.254  1.00  0.00     0.157 A 
ENDROOT
BRANCH   1   7
ATOM      7  C   UNL     1      12.632   3.501  -2.383  1.00  0.00     0.072 C 
ATOM      8  O   UNL     1      12.272   2.539  -3.113  1.00  0.00    -0.545 OA
ATOM      9  O   UNL     1      13.950   3.555  -1.943  1.00  0.00    -0.545 OA
ENDBRANCH   1   7
BRANCH   5  10
ATOM     10  O   UNL     1       8.414   6.025  -3.125  1.00  0.00    -0.493 OA
ATOM     11  C   UNL     1       7.187   5.326  -2.943  1.00  0.00     0.278 C 
ENDBRANCH   5  10
BRANCH   6  12
ATOM     12  O   UNL     1       8.967   7.577  -0.856  1.00  0.00    -0.504 OA
ATOM     13  H   UNL     1       9.230   8.555  -0.855  1.00  0.00     0.293 HD
ENDBRANCH   6  12
TORSDOF 3
ENDMDL
MODEL 4
REMARK VINA RESULT:    -2.974      2.059      3.071
REMARK INTER + INTRA:          -3.486
REMARK INTER:                  -3.390
REMARK INTRA:                  -0.096
REMARK UNBOUND:                -0.077
REMARK SMILES COc1cc(C(=O)[O-])ccc1O
REMARK SMILES IDX 5 1 9 2 4 3 10 4 3 5 11 6 6 7 7 8 8 9 2 10 1 11 12 12
REMARK H PARENT 12 13
REMARK Flexibility Score: inf
ROOT
ATOM      1  C   UNL     1      12.690   5.005  -1.610  1.00  0.00     0.001 A 
ATOM      2  C   UNL     1      11.637   4.996  -0.682  1.00  0.00     0.014 A 
ATOM      3  C   UNL     1      12.870   6.136  -2.428  1.00  0.00     0.060 A 
ATOM      4  C   UNL     1      10.781   6.093  -0.572  1.00  0.00     0.051 A 
ATOM      5  C   UNL     1      12.009   7.246  -2.322  1.00  0.00     0.161 A 
ATOM      6  C   UNL     1      10.960   7.215  -1.385  1.00  0.00     0.157 A 
ENDROOT
BRANCH   1   7
ATOM      7  C   UNL     1      13.596   3.840  -1.721  1.00  0.00     0.072 C 
ATOM      8  O   UNL     1      14.516   3.659  -0.880  1.00  0.00    -0.545 OA
ATOM      9  O   UNL     1      13.444   2.927  -2.759  1.00  0.00    -0.545 OA
ENDBRANCH   1   7
BRANCH   5  10
ATOM     10  O   UNL     1      12.164   8.389  -3.125  1.00  0.00    -0.493 OA
ATOM     11  C   UNL     1      13.074   9.450  -2.853  1.00  0.00     0.278 C 
ENDBRANCH   5  10
BRANCH   6  12
ATOM     12  O   UNL     1      10.084   8.292  -1.247  1.00  0.00    -0.504 OA
ATOM     13  H   UNL     1       9.139   8.269  -1.613  1.00  0.00     0.293 HD
ENDBRANCH   6  12
TORSDOF 3
ENDMDL
MODEL 5
REMARK VINA RESULT:    -2.844      9.521     10.721
REMARK INTER + INTRA:          -3.337
REMARK INTER:                  -3.250
REMARK INTRA:                  -0.087
REMARK UNBOUND:                -0.077
REMARK SMILES COc1cc(C(=O)[O-])ccc1O
REMARK SMILES IDX 5 1 9 2 4 3 10 4 3 5 11 6 6 7 7 8 8 9 2 10 1 11 12 12
REMARK H PARENT 12 13
REMARK Flexibility Score: inf
ROOT
ATOM      1  C   UNL     1      11.677  14.291  -1.305  1.00  0.00     0.001 A 
ATOM      2  C   UNL     1      11.511  12.952  -0.920  1.00  0.00     0.014 A 
ATOM      3  C   UNL     1      10.564  15.151  -1.286  1.00  0.00     0.060 A 
ATOM      4  C   UNL     1      10.259  12.480  -0.523  1.00  0.00     0.051 A 
ATOM      5  C   UNL     1       9.297  14.681  -0.886  1.00  0.00     0.161 A 
ATOM      6  C   UNL     1       9.154  13.335  -0.504  1.00  0.00     0.157 A 
ENDROOT
BRANCH   1   7
ATOM      7  C   UNL     1      13.007  14.787  -1.724  1.00  0.00     0.072 C 
ATOM      8  O   UNL     1      13.866  15.127  -0.867  1.00  0.00    -0.545 OA
ATOM      9  O   UNL     1      13.329  14.886  -3.074  1.00  0.00    -0.545 OA
ENDBRANCH   1   7
BRANCH   5  10
ATOM     10  O   UNL     1       8.168  15.515  -0.856  1.00  0.00    -0.493 OA
ATOM     11  C   UNL     1       8.064  16.707  -0.084  1.00  0.00     0.278 C 
ENDBRANCH   5  10
BRANCH   6  12
ATOM     12  O   UNL     1       7.918  12.826  -0.102  1.00  0.00    -0.504 OA
ATOM     13  H   UNL     1       7.828  11.927   0.357  1.00  0.00     0.293 HD
ENDBRANCH   6  12
TORSDOF 3
ENDMDL
MODEL 6
REMARK VINA RESULT:    -2.795     11.274     12.670
REMARK INTER + INTRA:          -3.281
REMARK INTER:                  -3.203
REMARK INTRA:                  -0.078
REMARK UNBOUND:                -0.077
REMARK SMILES COc1cc(C(=O)[O-])ccc1O
REMARK SMILES IDX 5 1 9 2 4 3 10 4 3 5 11 6 6 7 7 8 8 9 2 10 1 11 12 12
REMARK H PARENT 12 13
REMARK Flexibility Score: inf
ROOT
ATOM      1  C   UNL     1      13.581  16.060  -0.860  1.00  0.00     0.001 A 
ATOM      2  C   UNL     1      14.108  16.785   0.220  1.00  0.00     0.014 A 
ATOM      3  C   UNL     1      12.187  16.028  -1.046  1.00  0.00     0.060 A 
ATOM      4  C   UNL     1      13.260  17.464   1.097  1.00  0.00     0.051 A 
ATOM      5  C   UNL     1      11.326  16.711  -0.165  1.00  0.00     0.161 A 
ATOM      6  C   UNL     1      11.875  17.431   0.911  1.00  0.00     0.157 A 
ENDROOT
BRANCH   1   7
ATOM      7  C   UNL     1      14.485  15.343  -1.787  1.00  0.00     0.072 C 
ATOM      8  O   UNL     1      15.452  15.939  -2.331  1.00  0.00    -0.545 OA
ATOM      9  O   UNL     1      14.277  13.998  -2.074  1.00  0.00    -0.545 OA
ENDBRANCH   1   7
BRANCH   5  10
ATOM     10  O   UNL     1       9.930  16.696  -0.325  1.00  0.00    -0.493 OA
ATOM     11  C   UNL     1       9.194  15.617  -0.892  1.00  0.00     0.278 C 
ENDBRANCH   5  10
BRANCH   6  12
ATOM     12  O   UNL     1      11.060  18.122   1.809  1.00  0.00    -0.504 OA
ATOM     13  H   UNL     1      11.408  18.469   2.695  1.00  0.00     0.293 HD
ENDBRANCH   6  12
TORSDOF 3
ENDMDL
MODEL 7
REMARK VINA RESULT:    -2.780      8.855     11.537
REMARK INTER + INTRA:          -3.263
REMARK INTER:                  -3.175
REMARK INTRA:                  -0.088
REMARK UNBOUND:                -0.077
REMARK SMILES COc1cc(C(=O)[O-])ccc1O
REMARK SMILES IDX 5 1 9 2 4 3 10 4 3 5 11 6 6 7 7 8 8 9 2 10 1 11 12 12
REMARK H PARENT 12 13
REMARK Flexibility Score: inf
ROOT
ATOM      1  C   UNL     1      13.697  15.910  -0.564  1.00  0.00     0.001 A 
ATOM      2  C   UNL     1      14.696  15.535  -1.474  1.00  0.00     0.014 A 
ATOM      3  C   UNL     1      12.504  15.164  -0.513  1.00  0.00     0.060 A 
ATOM      4  C   UNL     1      14.511  14.438  -2.317  1.00  0.00     0.051 A 
ATOM      5  C   UNL     1      12.311  14.056  -1.361  1.00  0.00     0.161 A 
ATOM      6  C   UNL     1      13.327  13.698  -2.266  1.00  0.00     0.157 A 
ENDROOT
BRANCH   1   7
ATOM      7  C   UNL     1      13.899  17.073   0.329  1.00  0.00     0.072 C 
ATOM      8  O   UNL     1      14.742  17.964   0.042  1.00  0.00    -0.545 OA
ATOM      9  O   UNL     1      13.161  17.198   1.501  1.00  0.00    -0.545 OA
ENDBRANCH   1   7
BRANCH   5  10
ATOM     10  O   UNL     1      11.132  13.293  -1.334  1.00  0.00    -0.493 OA
ATOM     11  C   UNL     1      10.932  12.144  -0.516  1.00  0.00     0.278 C 
ENDBRANCH   5  10
BRANCH   6  12
ATOM     12  O   UNL     1      13.177  12.609  -3.125  1.00  0.00    -0.504 OA
ATOM     13  H   UNL     1      13.531  12.618  -4.075  1.00  0.00     0.293 HD
ENDBRANCH   6  12
TORSDOF 3
ENDMDL
MODEL 8
REMARK VINA RESULT:    -2.716      2.603      5.416
REMARK INTER + INTRA:          -3.191
REMARK INTER:                  -3.112
REMARK INTRA:                  -0.079
REMARK UNBOUND:                -0.077
REMARK SMILES COc1cc(C(=O)[O-])ccc1O
REMARK SMILES IDX 5 1 9 2 4 3 10 4 3 5 11 6 6 7 7 8 8 9 2 10 1 11 12 12
REMARK H PARENT 12 13
REMARK Flexibility Score: inf
ROOT
ATOM      1  C   UNL     1       9.800   6.750  -1.773  1.00  0.00     0.001 A 
ATOM      2  C   UNL     1      10.072   5.468  -1.272  1.00  0.00     0.014 A 
ATOM      3  C   UNL     1      10.866   7.542  -2.239  1.00  0.00     0.060 A 
ATOM      4  C   UNL     1      11.380   4.985  -1.236  1.00  0.00     0.051 A 
ATOM      5  C   UNL     1      12.190   7.059  -2.206  1.00  0.00     0.161 A 
ATOM      6  C   UNL     1      12.439   5.771  -1.700  1.00  0.00     0.157 A 
ENDROOT
BRANCH   1   7
ATOM      7  C   UNL     1       8.410   7.257  -1.810  1.00  0.00     0.072 C 
ATOM      8  O   UNL     1       8.126   8.387  -1.329  1.00  0.00    -0.545 OA
ATOM      9  O   UNL     1       7.396   6.492  -2.374  1.00  0.00    -0.545 OA
ENDBRANCH   1   7
BRANCH   5  10
ATOM     10  O   UNL     1      13.274   7.826  -2.664  1.00  0.00    -0.493 OA
ATOM     11  C   UNL     1      13.365   9.244  -2.553  1.00  0.00     0.278 C 
ENDBRANCH   5  10
BRANCH   6  12
ATOM     12  O   UNL     1      13.733   5.254  -1.647  1.00  0.00    -0.504 OA
ATOM     13  H   UNL     1      13.952   4.394  -1.156  1.00  0.00     0.293 HD
ENDBRANCH   6  12
TORSDOF 3
ENDMDL
