MODEL 1
REMARK VINA RESULT:    -4.200      0.000      0.000
REMARK INTER + INTRA:          -6.539
REMARK INTER:                  -6.164
REMARK INTRA:                  -0.375
REMARK UNBOUND:                -0.375
REMARK SMILES O=C([O-])CCCCCCCC(=O)[O-]
REMARK SMILES IDX 7 1 6 2 5 3 4 4 2 5 1 6 3 7 8 8 9 9 10 10 11 11 12 12 13 13
REMARK H PARENT
REMARK Flexibility Score: inf
ROOT
ATOM      1  C   UNL     1       5.954   5.563  16.497  1.00  0.00     0.000 C 
ENDROOT
BRANCH   1   2
ATOM      2  C   UNL     1       6.410   6.497  17.633  1.00  0.00     0.000 C 
BRANCH   2   3
ATOM      3  C   UNL     1       6.356   5.825  19.015  1.00  0.00     0.006 C 
BRANCH   3   4
ATOM      4  C   UNL     1       6.517   4.302  18.925  1.00  0.00     0.053 C 
BRANCH   4   5
ATOM      5  C   UNL     1       5.698   3.591  19.958  1.00  0.00     0.041 C 
ATOM      6  O   UNL     1       4.943   4.244  20.726  1.00  0.00    -0.550 OA
ATOM      7  O   UNL     1       5.745   2.206  20.054  1.00  0.00    -0.550 OA
ENDBRANCH   4   5
ENDBRANCH   3   4
ENDBRANCH   2   3
ENDBRANCH   1   2
BRANCH   1   8
ATOM      8  C   UNL     1       7.035   5.230  15.448  1.00  0.00     0.000 C 
BRANCH   8   9
ATOM      9  C   UNL     1       8.378   5.958  15.640  1.00  0.00     0.006 C 
BRANCH   9  10
ATOM     10  C   UNL     1       9.390   5.642  14.532  1.00  0.00     0.053 C 
BRANCH  10  11
ATOM     11  C   UNL     1      10.282   6.818  14.290  1.00  0.00     0.041 C 
ATOM     12  O   UNL     1      10.640   7.112  13.119  1.00  0.00    -0.550 OA
ATOM     13  O   UNL     1      10.760   7.562  15.362  1.00  0.00    -0.550 OA
ENDBRANCH  10  11
ENDBRANCH   9  10
ENDBRANCH   8   9
ENDBRANCH   1   8
TORSDOF 8
ENDMDL
MODEL 2
REMARK VINA RESULT:    -4.163      0.764      6.381
REMARK INTER + INTRA:          -6.484
REMARK INTER:                  -6.047
REMARK INTRA:                  -0.437
REMARK UNBOUND:                -0.375
REMARK SMILES O=C([O-])CCCCCCCC(=O)[O-]
REMARK SMILES IDX 7 1 6 2 5 3 4 4 2 5 1 6 3 7 8 8 9 9 10 10 11 11 12 12 13 13
REMARK H PARENT
REMARK Flexibility Score: inf
ROOT
ATOM      1  C   UNL     1       5.932   5.788  16.236  1.00  0.00     0.000 C 
ENDROOT
BRANCH   1   2
ATOM      2  C   UNL     1       7.043   5.031  15.484  1.00  0.00     0.000 C 
BRANCH   2   3
ATOM      3  C   UNL     1       8.404   5.743  15.558  1.00  0.00     0.006 C 
BRANCH   3   4
ATOM      4  C   UNL     1       9.206   5.594  14.258  1.00  0.00     0.053 C 
BRANCH   4   5
ATOM      5  C   UNL     1      10.196   6.704  14.083  1.00  0.00     0.041 C 
ATOM      6  O   UNL     1      10.586   7.369  15.079  1.00  0.00    -0.550 OA
ATOM      7  O   UNL     1      10.712   6.986  12.824  1.00  0.00    -0.550 OA
ENDBRANCH   4   5
ENDBRANCH   3   4
ENDBRANCH   2   3
ENDBRANCH   1   2
BRANCH   1   8
ATOM      8  C   UNL     1       6.405   7.014  17.043  1.00  0.00     0.000 C 
BRANCH   8   9
ATOM      9  C   UNL     1       6.337   6.856  18.572  1.00  0.00     0.006 C 
BRANCH   9  10
ATOM     10  C   UNL     1       7.015   5.573  19.069  1.00  0.00     0.053 C 
BRANCH  10  11
ATOM     11  C   UNL     1       6.011   4.668  19.710  1.00  0.00     0.041 C 
ATOM     12  O   UNL     1       5.712   3.570  19.170  1.00  0.00    -0.550 OA
ATOM     13  O   UNL     1       5.367   5.057  20.878  1.00  0.00    -0.550 OA
ENDBRANCH  10  11
ENDBRANCH   9  10
ENDBRANCH   8   9
ENDBRANCH   1   8
TORSDOF 8
ENDMDL
MODEL 3
REMARK VINA RESULT:    -4.146      1.090      6.585
REMARK INTER + INTRA:          -6.460
REMARK INTER:                  -6.070
REMARK INTRA:                  -0.389
REMARK UNBOUND:                -0.375
REMARK SMILES O=C([O-])CCCCCCCC(=O)[O-]
REMARK SMILES IDX 7 1 6 2 5 3 4 4 2 5 1 6 3 7 8 8 9 9 10 10 11 11 12 12 13 13
REMARK H PARENT
REMARK Flexibility Score: inf
ROOT
ATOM      1  C   UNL     1       6.379   7.015  17.010  1.00  0.00     0.000 C 
ENDROOT
BRANCH   1   2
ATOM      2  C   UNL     1       6.174   5.728  16.190  1.00  0.00     0.000 C 
BRANCH   2   3
ATOM      3  C   UNL     1       7.460   5.255  15.491  1.00  0.00     0.006 C 
BRANCH   3   4
ATOM      4  C   UNL     1       8.631   6.219  15.721  1.00  0.00     0.053 C 
BRANCH   4   5
ATOM      5  C   UNL     1       9.704   6.050  14.689  1.00  0.00     0.041 C 
ATOM      6  O   UNL     1       9.845   4.949  14.096  1.00  0.00    -0.550 OA
ATOM      7  O   UNL     1      10.529   7.119  14.360  1.00  0.00    -0.550 OA
ENDBRANCH   4   5
ENDBRANCH   3   4
ENDBRANCH   2   3
ENDBRANCH   1   2
BRANCH   1   8
ATOM      8  C   UNL     1       6.356   6.827  18.541  1.00  0.00     0.000 C 
BRANCH   8   9
ATOM      9  C   UNL     1       6.461   5.369  19.022  1.00  0.00     0.006 C 
BRANCH   9  10
ATOM     10  C   UNL     1       5.750   5.130  20.360  1.00  0.00     0.053 C 
BRANCH  10  11
ATOM     11  C   UNL     1       5.313   3.705  20.472  1.00  0.00     0.041 C 
ATOM     12  O   UNL     1       5.653   2.867  19.595  1.00  0.00    -0.550 OA
ATOM     13  O   UNL     1       4.487   3.309  21.517  1.00  0.00    -0.550 OA
ENDBRANCH  10  11
ENDBRANCH   9  10
ENDBRANCH   8   9
ENDBRANCH   1   8
TORSDOF 8
ENDMDL
MODEL 4
REMARK VINA RESULT:    -4.127      1.003      1.466
REMARK INTER + INTRA:          -6.432
REMARK INTER:                  -6.033
REMARK INTRA:                  -0.400
REMARK UNBOUND:                -0.375
REMARK SMILES O=C([O-])CCCCCCCC(=O)[O-]
REMARK SMILES IDX 7 1 6 2 5 3 4 4 2 5 1 6 3 7 8 8 9 9 10 10 11 11 12 12 13 13
REMARK H PARENT
REMARK Flexibility Score: inf
ROOT
ATOM      1  C   UNL     1       6.394   7.054  17.205  1.00  0.00     0.000 C 
ENDROOT
BRANCH   1   2
ATOM      2  C   UNL     1       6.491   6.847  18.727  1.00  0.00     0.000 C 
BRANCH   2   3
ATOM      3  C   UNL     1       6.458   5.362  19.130  1.00  0.00     0.006 C 
BRANCH   3   4
ATOM      4  C   UNL     1       5.582   5.117  20.366  1.00  0.00     0.053 C 
BRANCH   4   5
ATOM      5  C   UNL     1       5.261   3.665  20.544  1.00  0.00     0.041 C 
ATOM      6  O   UNL     1       4.560   3.286  21.517  1.00  0.00    -0.550 OA
ATOM      7  O   UNL     1       5.712   2.733  19.617  1.00  0.00    -0.550 OA
ENDBRANCH   4   5
ENDBRANCH   3   4
ENDBRANCH   2   3
ENDBRANCH   1   2
BRANCH   1   8
ATOM      8  C   UNL     1       6.305   5.759  16.371  1.00  0.00     0.000 C 
BRANCH   8   9
ATOM      9  C   UNL     1       7.561   5.425  15.547  1.00  0.00     0.006 C 
BRANCH   9  10
ATOM     10  C   UNL     1       8.729   6.380  15.827  1.00  0.00     0.053 C 
BRANCH  10  11
ATOM     11  C   UNL     1       9.648   6.440  14.649  1.00  0.00     0.041 C 
ATOM     12  O   UNL     1      10.621   7.240  14.644  1.00  0.00    -0.550 OA
ATOM     13  O   UNL     1       9.402   5.650  13.533  1.00  0.00    -0.550 OA
ENDBRANCH  10  11
ENDBRANCH   9  10
ENDBRANCH   8   9
ENDBRANCH   1   8
TORSDOF 8
ENDMDL
MODEL 5
REMARK VINA RESULT:    -4.093      1.834      6.557
REMARK INTER + INTRA:          -6.382
REMARK INTER:                  -5.810
REMARK INTRA:                  -0.572
REMARK UNBOUND:                -0.375
REMARK SMILES O=C([O-])CCCCCCCC(=O)[O-]
REMARK SMILES IDX 7 1 6 2 5 3 4 4 2 5 1 6 3 7 8 8 9 9 10 10 11 11 12 12 13 13
REMARK H PARENT
REMARK Flexibility Score: inf
ROOT
ATOM      1  C   UNL     1       7.576   5.658  19.334  1.00  0.00     0.000 C 
ENDROOT
BRANCH   1   2
ATOM      2  C   UNL     1       6.319   6.392  18.834  1.00  0.00     0.000 C 
BRANCH   2   3
ATOM      3  C   UNL     1       6.507   7.015  17.440  1.00  0.00     0.006 C 
BRANCH   3   4
ATOM      4  C   UNL     1       6.284   5.995  16.316  1.00  0.00     0.053 C 
BRANCH   4   5
ATOM      5  C   UNL     1       7.568   5.612  15.647  1.00  0.00     0.041 C 
ATOM      6  O   UNL     1       7.606   4.626  14.866  1.00  0.00    -0.550 OA
ATOM      7  O   UNL     1       8.718   6.362  15.864  1.00  0.00    -0.550 OA
ENDBRANCH   4   5
ENDBRANCH   3   4
ENDBRANCH   2   3
ENDBRANCH   1   2
BRANCH   1   8
ATOM      8  C   UNL     1       7.482   4.118  19.327  1.00  0.00     0.000 C 
BRANCH   8   9
ATOM      9  C   UNL     1       6.053   3.551  19.240  1.00  0.00     0.006 C 
BRANCH   9  10
ATOM     10  C   UNL     1       5.832   2.351  20.169  1.00  0.00     0.053 C 
BRANCH  10  11
ATOM     11  C   UNL     1       5.086   2.771  21.395  1.00  0.00     0.041 C 
ATOM     12  O   UNL     1       4.450   3.858  21.409  1.00  0.00    -0.550 OA
ATOM     13  O   UNL     1       5.133   1.988  22.542  1.00  0.00    -0.550 OA
ENDBRANCH  10  11
ENDBRANCH   9  10
ENDBRANCH   8   9
ENDBRANCH   1   8
TORSDOF 8
ENDMDL
MODEL 6
REMARK VINA RESULT:    -4.084      2.023      3.194
REMARK INTER + INTRA:          -6.369
REMARK INTER:                  -5.790
REMARK INTRA:                  -0.579
REMARK UNBOUND:                -0.375
REMARK SMILES O=C([O-])CCCCCCCC(=O)[O-]
REMARK SMILES IDX 7 1 6 2 5 3 4 4 2 5 1 6 3 7 8 8 9 9 10 10 11 11 12 12 13 13
REMARK H PARENT
REMARK Flexibility Score: inf
ROOT
ATOM      1  C   UNL     1       7.534   5.343  19.195  1.00  0.00     0.000 C 
ENDROOT
BRANCH   1   2
ATOM      2  C   UNL     1       7.158   3.881  19.497  1.00  0.00     0.000 C 
BRANCH   2   3
ATOM      3  C   UNL     1       5.640   3.671  19.635  1.00  0.00     0.006 C 
BRANCH   3   4
ATOM      4  C   UNL     1       5.264   3.031  20.978  1.00  0.00     0.053 C 
BRANCH   4   5
ATOM      5  C   UNL     1       4.522   3.985  21.862  1.00  0.00     0.041 C 
ATOM      6  O   UNL     1       4.154   5.104  21.419  1.00  0.00    -0.550 OA
ATOM      7  O   UNL     1       4.212   3.627  23.169  1.00  0.00    -0.550 OA
ENDBRANCH   4   5
ENDBRANCH   3   4
ENDBRANCH   2   3
ENDBRANCH   1   2
BRANCH   1   8
ATOM      8  C   UNL     1       6.351   6.259  18.818  1.00  0.00     0.000 C 
BRANCH   8   9
ATOM      9  C   UNL     1       6.400   6.835  17.392  1.00  0.00     0.006 C 
BRANCH   9  10
ATOM     10  C   UNL     1       6.204   5.765  16.310  1.00  0.00     0.053 C 
BRANCH  10  11
ATOM     11  C   UNL     1       7.492   5.501  15.599  1.00  0.00     0.041 C 
ATOM     12  O   UNL     1       8.494   6.236  15.806  1.00  0.00    -0.550 OA
ATOM     13  O   UNL     1       7.576   4.473  14.668  1.00  0.00    -0.550 OA
ENDBRANCH  10  11
ENDBRANCH   9  10
ENDBRANCH   8   9
ENDBRANCH   1   8
TORSDOF 8
ENDMDL
MODEL 7
REMARK VINA RESULT:    -4.063      1.695      2.350
REMARK INTER + INTRA:          -6.338
REMARK INTER:                  -6.061
REMARK INTRA:                  -0.277
REMARK UNBOUND:                -0.375
REMARK SMILES O=C([O-])CCCCCCCC(=O)[O-]
REMARK SMILES IDX 7 1 6 2 5 3 4 4 2 5 1 6 3 7 8 8 9 9 10 10 11 11 12 12 13 13
REMARK H PARENT
REMARK Flexibility Score: inf
ROOT
ATOM      1  C   UNL     1       5.940   5.883  16.440  1.00  0.00     0.000 C 
ENDROOT
BRANCH   1   2
ATOM      2  C   UNL     1       6.361   6.922  17.495  1.00  0.00     0.000 C 
BRANCH   2   3
ATOM      3  C   UNL     1       6.383   6.346  18.922  1.00  0.00     0.006 C 
BRANCH   3   4
ATOM      4  C   UNL     1       6.579   7.437  19.983  1.00  0.00     0.053 C 
BRANCH   4   5
ATOM      5  C   UNL     1       5.612   7.293  21.117  1.00  0.00     0.041 C 
ATOM      6  O   UNL     1       4.831   6.306  21.162  1.00  0.00    -0.550 OA
ATOM      7  O   UNL     1       5.593   8.232  22.141  1.00  0.00    -0.550 OA
ENDBRANCH   4   5
ENDBRANCH   3   4
ENDBRANCH   2   3
ENDBRANCH   1   2
BRANCH   1   8
ATOM      8  C   UNL     1       7.100   5.255  15.640  1.00  0.00     0.000 C 
BRANCH   8   9
ATOM      9  C   UNL     1       8.441   6.003  15.736  1.00  0.00     0.006 C 
BRANCH   9  10
ATOM     10  C   UNL     1       9.383   5.689  14.567  1.00  0.00     0.053 C 
BRANCH  10  11
ATOM     11  C   UNL     1      10.313   6.835  14.324  1.00  0.00     0.041 C 
ATOM     12  O   UNL     1      10.684   7.112  13.152  1.00  0.00    -0.550 OA
ATOM     13  O   UNL     1      10.811   7.567  15.394  1.00  0.00    -0.550 OA
ENDBRANCH  10  11
ENDBRANCH   9  10
ENDBRANCH   8   9
ENDBRANCH   1   8
TORSDOF 8
ENDMDL
MODEL 8
REMARK VINA RESULT:    -4.027      2.122      3.363
REMARK INTER + INTRA:          -6.285
REMARK INTER:                  -5.756
REMARK INTRA:                  -0.529
REMARK UNBOUND:                -0.375
REMARK SMILES O=C([O-])CCCCCCCC(=O)[O-]
REMARK SMILES IDX 7 1 6 2 5 3 4 4 2 5 1 6 3 7 8 8 9 9 10 10 11 11 12 12 13 13
REMARK H PARENT
REMARK Flexibility Score: inf
ROOT
ATOM      1  C   UNL     1       6.387   7.246  20.228  1.00  0.00     0.000 C 
ENDROOT
BRANCH   1   2
ATOM      2  C   UNL     1       5.196   6.752  21.070  1.00  0.00     0.000 C 
BRANCH   2   3
ATOM      3  C   UNL     1       5.490   5.431  21.801  1.00  0.00     0.006 C 
BRANCH   3   4
ATOM      4  C   UNL     1       4.456   4.346  21.473  1.00  0.00     0.053 C 
BRANCH   4   5
ATOM      5  C   UNL     1       5.100   3.014  21.239  1.00  0.00     0.041 C 
ATOM      6  O   UNL     1       5.204   2.186  22.181  1.00  0.00    -0.550 OA
ATOM      7  O   UNL     1       5.559   2.675  19.972  1.00  0.00    -0.550 OA
ENDBRANCH   4   5
ENDBRANCH   3   4
ENDBRANCH   2   3
ENDBRANCH   1   2
BRANCH   1   8
ATOM      8  C   UNL     1       7.105   6.156  19.407  1.00  0.00     0.000 C 
BRANCH   8   9
ATOM      9  C   UNL     1       6.309   5.610  18.208  1.00  0.00     0.006 C 
BRANCH   9  10
ATOM     10  C   UNL     1       6.407   6.509  16.969  1.00  0.00     0.053 C 
BRANCH  10  11
ATOM     11  C   UNL     1       7.413   5.962  16.007  1.00  0.00     0.041 C 
ATOM     12  O   UNL     1       8.555   6.487  15.917  1.00  0.00    -0.550 OA
ATOM     13  O   UNL     1       7.075   4.904  15.172  1.00  0.00    -0.550 OA
ENDBRANCH  10  11
ENDBRANCH   9  10
ENDBRANCH   8   9
ENDBRANCH   1   8
TORSDOF 8
ENDMDL
MODEL 9
REMARK VINA RESULT:    -3.953      1.759      2.754
REMARK INTER + INTRA:          -6.177
REMARK INTER:                  -5.620
REMARK INTRA:                  -0.557
REMARK UNBOUND:                -0.375
REMARK SMILES O=C([O-])CCCCCCCC(=O)[O-]
REMARK SMILES IDX 7 1 6 2 5 3 4 4 2 5 1 6 3 7 8 8 9 9 10 10 11 11 12 12 13 13
REMARK H PARENT
REMARK Flexibility Score: inf
ROOT
ATOM      1  C   UNL     1       8.575   4.686  15.523  1.00  0.00     0.000 C 
ENDROOT
BRANCH   1   2
ATOM      2  C   UNL     1       8.264   6.059  16.144  1.00  0.00     0.000 C 
BRANCH   2   3
ATOM      3  C   UNL     1       6.757   6.370  16.179  1.00  0.00     0.006 C 
BRANCH   3   4
ATOM      4  C   UNL     1       5.972   5.333  16.993  1.00  0.00     0.053 C 
BRANCH   4   5
ATOM      5  C   UNL     1       6.376   5.333  18.435  1.00  0.00     0.041 C 
ATOM      6  O   UNL     1       6.750   4.265  18.987  1.00  0.00    -0.550 OA
ATOM      7  O   UNL     1       6.369   6.518  19.161  1.00  0.00    -0.550 OA
ENDBRANCH   4   5
ENDBRANCH   3   4
ENDBRANCH   2   3
ENDBRANCH   1   2
BRANCH   1   8
ATOM      8  C   UNL     1       8.092   4.498  14.070  1.00  0.00     0.000 C 
BRANCH   8   9
ATOM      9  C   UNL     1       9.211   4.380  13.020  1.00  0.00     0.006 C 
BRANCH   9  10
ATOM     10  C   UNL     1       9.309   5.613  12.113  1.00  0.00     0.053 C 
BRANCH  10  11
ATOM     11  C   UNL     1      10.494   6.444  12.490  1.00  0.00     0.041 C 
ATOM     12  O   UNL     1      10.472   7.140  13.540  1.00  0.00    -0.550 OA
ATOM     13  O   UNL     1      11.605   6.491  11.658  1.00  0.00    -0.550 OA
ENDBRANCH  10  11
ENDBRANCH   9  10
ENDBRANCH   8   9
ENDBRANCH   1   8
TORSDOF 8
ENDMDL
