MODEL 1
REMARK VINA RESULT:    -2.388      0.000      0.000
REMARK INTER + INTRA:          -6.384
REMARK INTER:                  -4.203
REMARK INTRA:                  -2.181
REMARK UNBOUND:                -2.181
REMARK SMILES CCCCCCCCCCCCCCC(=O)[O-]
REMARK SMILES IDX 9 1 10 2 11 3 12 4 13 5 14 6 15 7 16 8 17 9 8 10 7 11 6 12
REMARK SMILES IDX 5 13 4 14 3 15 2 16 1 17
REMARK H PARENT
REMARK Flexibility Score: inf
ROOT
ATOM      1  C   UNL     1       0.090   3.907  12.200  1.00  0.00     0.000 C 
ENDROOT
BRANCH   1   2
ATOM      2  C   UNL     1       0.545   5.116  11.359  1.00  0.00     0.000 C 
BRANCH   2   3
ATOM      3  C   UNL     1       0.260   5.005   9.849  1.00  0.00     0.000 C 
BRANCH   3   4
ATOM      4  C   UNL     1      -0.230   6.305   9.180  1.00  0.00     0.000 C 
BRANCH   4   5
ATOM      5  C   UNL     1      -1.685   6.268   8.672  1.00  0.00     0.006 C 
BRANCH   5   6
ATOM      6  C   UNL     1      -2.362   4.893   8.781  1.00  0.00     0.053 C 
BRANCH   6   7
ATOM      7  C   UNL     1      -3.400   4.864   9.861  1.00  0.00     0.041 C 
ATOM      8  O   UNL     1      -3.118   5.259  11.023  1.00  0.00    -0.550 OA
ATOM      9  O   UNL     1      -4.670   4.371   9.591  1.00  0.00    -0.550 OA
ENDBRANCH   6   7
ENDBRANCH   5   6
ENDBRANCH   4   5
ENDBRANCH   3   4
ENDBRANCH   2   3
ENDBRANCH   1   2
BRANCH   1  10
ATOM     10  C   UNL     1      -0.692   2.833  11.424  1.00  0.00     0.000 C 
BRANCH  10  11
ATOM     11  C   UNL     1      -0.315   1.402  11.839  1.00  0.00    -0.000 C 
BRANCH  11  12
ATOM     12  C   UNL     1       1.020   0.981  11.207  1.00  0.00    -0.000 C 
BRANCH  12  13
ATOM     13  C   UNL     1       1.135   1.380   9.724  1.00  0.00    -0.000 C 
BRANCH  13  14
ATOM     14  C   UNL     1       2.499   1.963   9.313  1.00  0.00    -0.000 C 
BRANCH  14  15
ATOM     15  C   UNL     1       3.317   2.474  10.508  1.00  0.00    -0.000 C 
BRANCH  15  16
ATOM     16  C   UNL     1       4.007   3.802  10.173  1.00  0.00    -0.003 C 
ATOM     17  C   UNL     1       3.763   4.199   8.719  1.00  0.00     0.004 C 
ENDBRANCH  15  16
ENDBRANCH  14  15
ENDBRANCH  13  14
ENDBRANCH  12  13
ENDBRANCH  11  12
ENDBRANCH  10  11
ENDBRANCH   1  10
TORSDOF 13
ENDMDL
MODEL 2
REMARK VINA RESULT:    -2.370      2.979      6.108
REMARK INTER + INTRA:          -6.353
REMARK INTER:                  -4.075
REMARK INTRA:                  -2.278
REMARK UNBOUND:                -2.181
REMARK SMILES CCCCCCCCCCCCCCC(=O)[O-]
REMARK SMILES IDX 9 1 10 2 11 3 12 4 13 5 14 6 15 7 16 8 17 9 8 10 7 11 6 12
REMARK SMILES IDX 5 13 4 14 3 15 2 16 1 17
REMARK H PARENT
REMARK Flexibility Score: inf
ROOT
ATOM      1  C   UNL     1       0.818   4.921  11.033  1.00  0.00     0.000 C 
ENDROOT
BRANCH   1   2
ATOM      2  C   UNL     1       0.741   3.419  11.374  1.00  0.00     0.000 C 
BRANCH   2   3
ATOM      3  C   UNL     1       0.288   2.510  10.216  1.00  0.00     0.000 C 
BRANCH   3   4
ATOM      4  C   UNL     1       1.299   1.421   9.807  1.00  0.00     0.000 C 
BRANCH   4   5
ATOM      5  C   UNL     1       2.771   1.878   9.770  1.00  0.00     0.006 C 
BRANCH   5   6
ATOM      6  C   UNL     1       3.143   2.725   8.544  1.00  0.00     0.053 C 
BRANCH   6   7
ATOM      7  C   UNL     1       4.121   3.807   8.887  1.00  0.00     0.041 C 
ATOM      8  O   UNL     1       4.947   4.213   8.028  1.00  0.00    -0.550 OA
ATOM      9  O   UNL     1       4.141   4.343  10.168  1.00  0.00    -0.550 OA
ENDBRANCH   6   7
ENDBRANCH   5   6
ENDBRANCH   4   5
ENDBRANCH   3   4
ENDBRANCH   2   3
ENDBRANCH   1   2
BRANCH   1  10
ATOM     10  C   UNL     1       0.480   5.274   9.574  1.00  0.00     0.000 C 
BRANCH  10  11
ATOM     11  C   UNL     1      -0.461   6.483   9.455  1.00  0.00    -0.000 C 
BRANCH  11  12
ATOM     12  C   UNL     1      -1.657   6.160   8.547  1.00  0.00    -0.000 C 
BRANCH  12  13
ATOM     13  C   UNL     1      -2.234   4.753   8.791  1.00  0.00    -0.000 C 
BRANCH  13  14
ATOM     14  C   UNL     1      -3.396   4.694   9.799  1.00  0.00    -0.000 C 
BRANCH  14  15
ATOM     15  C   UNL     1      -3.015   3.993  11.111  1.00  0.00    -0.000 C 
BRANCH  15  16
ATOM     16  C   UNL     1      -2.665   5.017  12.198  1.00  0.00    -0.003 C 
ATOM     17  C   UNL     1      -3.377   6.345  11.955  1.00  0.00     0.004 C 
ENDBRANCH  15  16
ENDBRANCH  14  15
ENDBRANCH  13  14
ENDBRANCH  12  13
ENDBRANCH  11  12
ENDBRANCH  10  11
ENDBRANCH   1  10
TORSDOF 13
ENDMDL
MODEL 3
REMARK VINA RESULT:    -2.288      2.784      5.474
REMARK INTER + INTRA:          -6.208
REMARK INTER:                  -4.261
REMARK INTRA:                  -1.946
REMARK UNBOUND:                -2.181
REMARK SMILES CCCCCCCCCCCCCCC(=O)[O-]
REMARK SMILES IDX 9 1 10 2 11 3 12 4 13 5 14 6 15 7 16 8 17 9 8 10 7 11 6 12
REMARK SMILES IDX 5 13 4 14 3 15 2 16 1 17
REMARK H PARENT
REMARK Flexibility Score: inf
ROOT
ATOM      1  C   UNL     1      -2.131   4.440  12.414  1.00  0.00     0.000 C 
ENDROOT
BRANCH   1   2
ATOM      2  C   UNL     1      -0.653   4.071  12.178  1.00  0.00     0.000 C 
BRANCH   2   3
ATOM      3  C   UNL     1      -0.422   2.722  11.470  1.00  0.00     0.000 C 
BRANCH   3   4
ATOM      4  C   UNL     1       0.348   2.809  10.137  1.00  0.00     0.000 C 
BRANCH   4   5
ATOM      5  C   UNL     1       1.251   1.599   9.826  1.00  0.00     0.006 C 
BRANCH   5   6
ATOM      6  C   UNL     1       2.757   1.893   9.905  1.00  0.00     0.053 C 
BRANCH   6   7
ATOM      7  C   UNL     1       3.198   2.847   8.837  1.00  0.00     0.041 C 
ATOM      8  O   UNL     1       3.448   2.429   7.676  1.00  0.00    -0.550 OA
ATOM      9  O   UNL     1       3.364   4.194   9.135  1.00  0.00    -0.550 OA
ENDBRANCH   6   7
ENDBRANCH   5   6
ENDBRANCH   4   5
ENDBRANCH   3   4
ENDBRANCH   2   3
ENDBRANCH   1   2
BRANCH   1  10
ATOM     10  C   UNL     1      -2.543   5.831  11.902  1.00  0.00     0.000 C 
BRANCH  10  11
ATOM     11  C   UNL     1      -3.607   5.769  10.794  1.00  0.00    -0.000 C 
BRANCH  11  12
ATOM     12  C   UNL     1      -3.350   4.583   9.854  1.00  0.00    -0.000 C 
BRANCH  12  13
ATOM     13  C   UNL     1      -2.339   4.907   8.738  1.00  0.00    -0.000 C 
BRANCH  13  14
ATOM     14  C   UNL     1      -2.384   6.356   8.223  1.00  0.00    -0.000 C 
BRANCH  14  15
ATOM     15  C   UNL     1      -1.061   7.107   8.432  1.00  0.00    -0.000 C 
BRANCH  15  16
ATOM     16  C   UNL     1      -0.044   6.231   9.174  1.00  0.00    -0.003 C 
ATOM     17  C   UNL     1       0.706   7.034  10.233  1.00  0.00     0.004 C 
ENDBRANCH  15  16
ENDBRANCH  14  15
ENDBRANCH  13  14
ENDBRANCH  12  13
ENDBRANCH  11  12
ENDBRANCH  10  11
ENDBRANCH   1  10
TORSDOF 13
ENDMDL
MODEL 4
REMARK VINA RESULT:    -2.270      3.505      5.848
REMARK INTER + INTRA:          -6.177
REMARK INTER:                  -4.211
REMARK INTRA:                  -1.966
REMARK UNBOUND:                -2.181
REMARK SMILES CCCCCCCCCCCCCCC(=O)[O-]
REMARK SMILES IDX 9 1 10 2 11 3 12 4 13 5 14 6 15 7 16 8 17 9 8 10 7 11 6 12
REMARK SMILES IDX 5 13 4 14 3 15 2 16 1 17
REMARK H PARENT
REMARK Flexibility Score: inf
ROOT
ATOM      1  C   UNL     1      -1.294   3.816  10.994  1.00  0.00     0.000 C 
ENDROOT
BRANCH   1   2
ATOM      2  C   UNL     1      -0.189   3.223  10.097  1.00  0.00     0.000 C 
BRANCH   2   3
ATOM      3  C   UNL     1       0.833   2.329  10.827  1.00  0.00     0.000 C 
BRANCH   3   4
ATOM      4  C   UNL     1       2.305   2.573  10.440  1.00  0.00     0.000 C 
BRANCH   4   5
ATOM      5  C   UNL     1       2.597   2.527   8.927  1.00  0.00     0.006 C 
BRANCH   5   6
ATOM      6  C   UNL     1       3.834   3.329   8.493  1.00  0.00     0.053 C 
BRANCH   6   7
ATOM      7  C   UNL     1       4.574   2.656   7.378  1.00  0.00     0.041 C 
ATOM      8  O   UNL     1       4.121   2.692   6.203  1.00  0.00    -0.550 OA
ATOM      9  O   UNL     1       5.747   1.961   7.642  1.00  0.00    -0.550 OA
ENDBRANCH   6   7
ENDBRANCH   5   6
ENDBRANCH   4   5
ENDBRANCH   3   4
ENDBRANCH   2   3
ENDBRANCH   1   2
BRANCH   1  10
ATOM     10  C   UNL     1      -2.539   4.321  10.244  1.00  0.00     0.000 C 
BRANCH  10  11
ATOM     11  C   UNL     1      -2.228   4.776   8.810  1.00  0.00    -0.000 C 
BRANCH  11  12
ATOM     12  C   UNL     1      -2.254   6.307   8.702  1.00  0.00    -0.000 C 
BRANCH  12  13
ATOM     13  C   UNL     1      -0.865   6.915   8.431  1.00  0.00    -0.000 C 
BRANCH  13  14
ATOM     14  C   UNL     1       0.065   6.981   9.656  1.00  0.00    -0.000 C 
BRANCH  14  15
ATOM     15  C   UNL     1       1.461   6.405   9.381  1.00  0.00    -0.000 C 
BRANCH  15  16
ATOM     16  C   UNL     1       2.239   6.205  10.688  1.00  0.00    -0.003 C 
ATOM     17  C   UNL     1       1.303   6.212  11.893  1.00  0.00     0.004 C 
ENDBRANCH  15  16
ENDBRANCH  14  15
ENDBRANCH  13  14
ENDBRANCH  12  13
ENDBRANCH  11  12
ENDBRANCH  10  11
ENDBRANCH   1  10
TORSDOF 13
ENDMDL
MODEL 5
REMARK VINA RESULT:    -2.240      3.023      5.887
REMARK INTER + INTRA:          -6.123
REMARK INTER:                  -4.003
REMARK INTRA:                  -2.120
REMARK UNBOUND:                -2.181
REMARK SMILES CCCCCCCCCCCCCCC(=O)[O-]
REMARK SMILES IDX 9 1 10 2 11 3 12 4 13 5 14 6 15 7 16 8 17 9 8 10 7 11 6 12
REMARK SMILES IDX 5 13 4 14 3 15 2 16 1 17
REMARK H PARENT
REMARK Flexibility Score: inf
ROOT
ATOM      1  C   UNL     1       0.382   5.832  12.077  1.00  0.00     0.000 C 
ENDROOT
BRANCH   1   2
ATOM      2  C   UNL     1       0.510   4.409  12.657  1.00  0.00     0.000 C 
BRANCH   2   3
ATOM      3  C   UNL     1      -0.373   3.346  11.977  1.00  0.00     0.000 C 
BRANCH   3   4
ATOM      4  C   UNL     1       0.397   2.240  11.229  1.00  0.00     0.000 C 
BRANCH   4   5
ATOM      5  C   UNL     1       0.891   2.627   9.821  1.00  0.00     0.006 C 
BRANCH   5   6
ATOM      6  C   UNL     1       2.356   3.090   9.766  1.00  0.00     0.053 C 
BRANCH   6   7
ATOM      7  C   UNL     1       3.201   2.172   8.937  1.00  0.00     0.041 C 
ATOM      8  O   UNL     1       3.473   2.464   7.743  1.00  0.00    -0.550 OA
ATOM      9  O   UNL     1       3.661   0.977   9.475  1.00  0.00    -0.550 OA
ENDBRANCH   6   7
ENDBRANCH   5   6
ENDBRANCH   4   5
ENDBRANCH   3   4
ENDBRANCH   2   3
ENDBRANCH   1   2
BRANCH   1  10
ATOM     10  C   UNL     1       1.618   6.334  11.310  1.00  0.00     0.000 C 
BRANCH  10  11
ATOM     11  C   UNL     1       1.272   6.899   9.924  1.00  0.00    -0.000 C 
BRANCH  11  12
ATOM     12  C   UNL     1       0.166   6.071   9.254  1.00  0.00    -0.000 C 
BRANCH  12  13
ATOM     13  C   UNL     1      -0.919   6.941   8.593  1.00  0.00    -0.000 C 
BRANCH  13  14
ATOM     14  C   UNL     1      -2.263   6.229   8.352  1.00  0.00    -0.000 C 
BRANCH  14  15
ATOM     15  C   UNL     1      -2.268   4.775   8.843  1.00  0.00    -0.000 C 
BRANCH  15  16
ATOM     16  C   UNL     1      -3.350   4.558   9.907  1.00  0.00    -0.003 C 
ATOM     17  C   UNL     1      -3.173   5.521  11.078  1.00  0.00     0.004 C 
ENDBRANCH  15  16
ENDBRANCH  14  15
ENDBRANCH  13  14
ENDBRANCH  12  13
ENDBRANCH  11  12
ENDBRANCH  10  11
ENDBRANCH   1  10
TORSDOF 13
ENDMDL
MODEL 6
REMARK VINA RESULT:    -2.228      2.957      5.267
REMARK INTER + INTRA:          -6.102
REMARK INTER:                  -4.453
REMARK INTRA:                  -1.649
REMARK UNBOUND:                -2.181
REMARK SMILES CCCCCCCCCCCCCCC(=O)[O-]
REMARK SMILES IDX 9 1 10 2 11 3 12 4 13 5 14 6 15 7 16 8 17 9 8 10 7 11 6 12
REMARK SMILES IDX 5 13 4 14 3 15 2 16 1 17
REMARK H PARENT
REMARK Flexibility Score: inf
ROOT
ATOM      1  C   UNL     1      -2.568   3.808  12.062  1.00  0.00     0.000 C 
ENDROOT
BRANCH   1   2
ATOM      2  C   UNL     1      -1.351   4.072  12.970  1.00  0.00     0.000 C 
BRANCH   2   3
ATOM      3  C   UNL     1      -0.010   3.535  12.435  1.00  0.00     0.000 C 
BRANCH   3   4
ATOM      4  C   UNL     1      -0.129   2.396  11.403  1.00  0.00     0.000 C 
BRANCH   4   5
ATOM      5  C   UNL     1       0.297   2.768   9.969  1.00  0.00     0.006 C 
BRANCH   5   6
ATOM      6  C   UNL     1       1.745   3.266   9.844  1.00  0.00     0.053 C 
BRANCH   6   7
ATOM      7  C   UNL     1       2.636   2.240   9.211  1.00  0.00     0.041 C 
ATOM      8  O   UNL     1       2.819   1.127   9.770  1.00  0.00    -0.550 OA
ATOM      9  O   UNL     1       3.291   2.529   8.021  1.00  0.00    -0.550 OA
ENDBRANCH   6   7
ENDBRANCH   5   6
ENDBRANCH   4   5
ENDBRANCH   3   4
ENDBRANCH   2   3
ENDBRANCH   1   2
BRANCH   1  10
ATOM     10  C   UNL     1      -2.970   4.985  11.155  1.00  0.00     0.000 C 
BRANCH  10  11
ATOM     11  C   UNL     1      -3.465   4.532   9.773  1.00  0.00    -0.000 C 
BRANCH  11  12
ATOM     12  C   UNL     1      -2.440   4.880   8.683  1.00  0.00    -0.000 C 
BRANCH  12  13
ATOM     13  C   UNL     1      -2.500   6.357   8.250  1.00  0.00    -0.000 C 
BRANCH  13  14
ATOM     14  C   UNL     1      -1.226   7.171   8.543  1.00  0.00    -0.000 C 
BRANCH  14  15
ATOM     15  C   UNL     1      -0.137   6.347   9.245  1.00  0.00    -0.000 C 
BRANCH  15  16
ATOM     16  C   UNL     1       1.209   7.082   9.218  1.00  0.00    -0.003 C 
ATOM     17  C   UNL     1       1.064   8.475   8.612  1.00  0.00     0.004 C 
ENDBRANCH  15  16
ENDBRANCH  14  15
ENDBRANCH  13  14
ENDBRANCH  12  13
ENDBRANCH  11  12
ENDBRANCH  10  11
ENDBRANCH   1  10
TORSDOF 13
ENDMDL
MODEL 7
REMARK VINA RESULT:    -2.198      2.218      3.743
REMARK INTER + INTRA:          -6.049
REMARK INTER:                  -3.641
REMARK INTRA:                  -2.408
REMARK UNBOUND:                -2.181
REMARK SMILES CCCCCCCCCCCCCCC(=O)[O-]
REMARK SMILES IDX 9 1 10 2 11 3 12 4 13 5 14 6 15 7 16 8 17 9 8 10 7 11 6 12
REMARK SMILES IDX 5 13 4 14 3 15 2 16 1 17
REMARK H PARENT
REMARK Flexibility Score: inf
ROOT
ATOM      1  C   UNL     1      -1.080   6.725   8.381  1.00  0.00     0.000 C 
ENDROOT
BRANCH   1   2
ATOM      2  C   UNL     1      -1.149   8.084   9.106  1.00  0.00     0.000 C 
BRANCH   2   3
ATOM      3  C   UNL     1      -1.117   8.004  10.644  1.00  0.00     0.000 C 
BRANCH   3   4
ATOM      4  C   UNL     1      -2.322   8.651  11.356  1.00  0.00     0.000 C 
BRANCH   4   5
ATOM      5  C   UNL     1      -3.494   7.695  11.654  1.00  0.00     0.006 C 
BRANCH   5   6
ATOM      6  C   UNL     1      -4.628   7.737  10.618  1.00  0.00     0.053 C 
BRANCH   6   7
ATOM      7  C   UNL     1      -5.518   6.536  10.715  1.00  0.00     0.041 C 
ATOM      8  O   UNL     1      -5.618   5.740   9.744  1.00  0.00    -0.550 OA
ATOM      9  O   UNL     1      -6.263   6.314  11.866  1.00  0.00    -0.550 OA
ENDBRANCH   6   7
ENDBRANCH   5   6
ENDBRANCH   4   5
ENDBRANCH   3   4
ENDBRANCH   2   3
ENDBRANCH   1   2
BRANCH   1  10
ATOM     10  C   UNL     1      -2.406   5.945   8.334  1.00  0.00     0.000 C 
BRANCH  10  11
ATOM     11  C   UNL     1      -2.273   4.508   8.861  1.00  0.00    -0.000 C 
BRANCH  11  12
ATOM     12  C   UNL     1      -2.285   4.484  10.396  1.00  0.00    -0.000 C 
BRANCH  12  13
ATOM     13  C   UNL     1      -0.933   4.062  11.001  1.00  0.00    -0.000 C 
BRANCH  13  14
ATOM     14  C   UNL     1      -0.028   3.243  10.063  1.00  0.00    -0.000 C 
BRANCH  14  15
ATOM     15  C   UNL     1       1.324   3.918   9.794  1.00  0.00    -0.000 C 
BRANCH  15  16
ATOM     16  C   UNL     1       1.440   5.239  10.565  1.00  0.00    -0.003 C 
ATOM     17  C   UNL     1       2.293   6.249   9.802  1.00  0.00     0.004 C 
ENDBRANCH  15  16
ENDBRANCH  14  15
ENDBRANCH  13  14
ENDBRANCH  12  13
ENDBRANCH  11  12
ENDBRANCH  10  11
ENDBRANCH   1  10
TORSDOF 13
ENDMDL
MODEL 8
REMARK VINA RESULT:    -2.187      1.295      3.140
REMARK INTER + INTRA:          -6.030
REMARK INTER:                  -3.943
REMARK INTRA:                  -2.087
REMARK UNBOUND:                -2.181
REMARK SMILES CCCCCCCCCCCCCCC(=O)[O-]
REMARK SMILES IDX 9 1 10 2 11 3 12 4 13 5 14 6 15 7 16 8 17 9 8 10 7 11 6 12
REMARK SMILES IDX 5 13 4 14 3 15 2 16 1 17
REMARK H PARENT
REMARK Flexibility Score: inf
ROOT
ATOM      1  C   UNL     1       1.874   5.250  10.865  1.00  0.00     0.000 C 
ENDROOT
BRANCH   1   2
ATOM      2  C   UNL     1       1.016   5.578   9.627  1.00  0.00     0.000 C 
BRANCH   2   3
ATOM      3  C   UNL     1      -0.503   5.626   9.881  1.00  0.00     0.000 C 
BRANCH   3   4
ATOM      4  C   UNL     1      -1.309   4.483   9.232  1.00  0.00     0.000 C 
BRANCH   4   5
ATOM      5  C   UNL     1      -2.836   4.694   9.210  1.00  0.00     0.006 C 
BRANCH   5   6
ATOM      6  C   UNL     1      -3.549   4.321  10.519  1.00  0.00     0.053 C 
BRANCH   6   7
ATOM      7  C   UNL     1      -5.036   4.470  10.407  1.00  0.00     0.041 C 
ATOM      8  O   UNL     1      -5.800   3.598  10.901  1.00  0.00    -0.550 OA
ATOM      9  O   UNL     1      -5.576   5.554   9.728  1.00  0.00    -0.550 OA
ENDBRANCH   6   7
ENDBRANCH   5   6
ENDBRANCH   4   5
ENDBRANCH   3   4
ENDBRANCH   2   3
ENDBRANCH   1   2
BRANCH   1  10
ATOM     10  C   UNL     1       2.789   4.022  10.714  1.00  0.00     0.000 C 
BRANCH  10  11
ATOM     11  C   UNL     1       2.673   3.356   9.335  1.00  0.00    -0.000 C 
BRANCH  11  12
ATOM     12  C   UNL     1       2.380   1.855   9.473  1.00  0.00    -0.000 C 
BRANCH  12  13
ATOM     13  C   UNL     1       0.895   1.555   9.753  1.00  0.00    -0.000 C 
BRANCH  13  14
ATOM     14  C   UNL     1       0.629   0.725  11.022  1.00  0.00    -0.000 C 
BRANCH  14  15
ATOM     15  C   UNL     1       0.468   1.590  12.280  1.00  0.00    -0.000 C 
BRANCH  15  16
ATOM     16  C   UNL     1      -0.846   2.380  12.238  1.00  0.00    -0.003 C 
ATOM     17  C   UNL     1      -0.736   3.677  13.036  1.00  0.00     0.004 C 
ENDBRANCH  15  16
ENDBRANCH  14  15
ENDBRANCH  13  14
ENDBRANCH  12  13
ENDBRANCH  11  12
ENDBRANCH  10  11
ENDBRANCH   1  10
TORSDOF 13
ENDMDL
MODEL 9
REMARK VINA RESULT:    -2.162      3.095      5.960
REMARK INTER + INTRA:          -5.986
REMARK INTER:                  -3.543
REMARK INTRA:                  -2.443
REMARK UNBOUND:                -2.181
REMARK SMILES CCCCCCCCCCCCCCC(=O)[O-]
REMARK SMILES IDX 9 1 10 2 11 3 12 4 13 5 14 6 15 7 16 8 17 9 8 10 7 11 6 12
REMARK SMILES IDX 5 13 4 14 3 15 2 16 1 17
REMARK H PARENT
REMARK Flexibility Score: inf
ROOT
ATOM      1  C   UNL     1      -2.858   4.608   9.825  1.00  0.00     0.000 C 
ENDROOT
BRANCH   1   2
ATOM      2  C   UNL     1      -1.816   4.108  10.846  1.00  0.00     0.000 C 
BRANCH   2   3
ATOM      3  C   UNL     1      -0.583   3.418  10.232  1.00  0.00     0.000 C 
BRANCH   3   4
ATOM      4  C   UNL     1       0.776   3.997  10.674  1.00  0.00     0.000 C 
BRANCH   4   5
ATOM      5  C   UNL     1       1.866   4.006   9.584  1.00  0.00     0.006 C 
BRANCH   5   6
ATOM      6  C   UNL     1       2.809   5.218   9.637  1.00  0.00     0.053 C 
BRANCH   6   7
ATOM      7  C   UNL     1       3.457   5.364  10.980  1.00  0.00     0.041 C 
ATOM      8  O   UNL     1       4.240   4.474  11.407  1.00  0.00    -0.550 OA
ATOM      9  O   UNL     1       3.171   6.468  11.773  1.00  0.00    -0.550 OA
ENDBRANCH   6   7
ENDBRANCH   5   6
ENDBRANCH   4   5
ENDBRANCH   3   4
ENDBRANCH   2   3
ENDBRANCH   1   2
BRANCH   1  10
ATOM     10  C   UNL     1      -2.272   5.140   8.506  1.00  0.00     0.000 C 
BRANCH  10  11
ATOM     11  C   UNL     1      -2.758   6.557   8.164  1.00  0.00    -0.000 C 
BRANCH  11  12
ATOM     12  C   UNL     1      -1.575   7.529   8.051  1.00  0.00    -0.000 C 
BRANCH  12  13
ATOM     13  C   UNL     1      -0.307   7.020   8.761  1.00  0.00    -0.000 C 
BRANCH  13  14
ATOM     14  C   UNL     1       0.201   7.917   9.905  1.00  0.00    -0.000 C 
BRANCH  14  15
ATOM     15  C   UNL     1      -0.218   7.413  11.293  1.00  0.00    -0.000 C 
BRANCH  15  16
ATOM     16  C   UNL     1      -1.267   8.340  11.920  1.00  0.00    -0.003 C 
ATOM     17  C   UNL     1      -2.680   7.821  11.672  1.00  0.00     0.004 C 
ENDBRANCH  15  16
ENDBRANCH  14  15
ENDBRANCH  13  14
ENDBRANCH  12  13
ENDBRANCH  11  12
ENDBRANCH  10  11
ENDBRANCH   1  10
TORSDOF 13
ENDMDL
