MODEL 1
REMARK VINA RESULT:    -5.196      0.000      0.000
REMARK INTER + INTRA:         -11.153
REMARK INTER:                  -9.449
REMARK INTRA:                  -1.704
REMARK UNBOUND:                -1.704
REMARK SMILES CCCCCCCCCCCCCCCC(=O)[O-]
REMARK SMILES IDX 9 1 10 2 11 3 12 4 13 5 14 6 15 7 16 8 17 9 18 10 8 11 7 12
REMARK SMILES IDX 6 13 5 14 4 15 3 16 2 17 1 18
REMARK H PARENT
REMARK Flexibility Score: inf
ROOT
ATOM      1  C   UNL     1       1.260  44.282   8.778  1.00  0.00     0.000 C 
ENDROOT
BRANCH   1   2
ATOM      2  C   UNL     1       2.264  43.214   9.244  1.00  0.00     0.000 C 
BRANCH   2   3
ATOM      3  C   UNL     1       3.693  43.764   9.400  1.00  0.00     0.000 C 
BRANCH   3   4
ATOM      4  C   UNL     1       4.059  44.257  10.816  1.00  0.00     0.000 C 
BRANCH   4   5
ATOM      5  C   UNL     1       3.474  43.423  11.970  1.00  0.00     0.000 C 
BRANCH   5   6
ATOM      6  C   UNL     1       4.105  42.027  12.079  1.00  0.00     0.006 C 
BRANCH   6   7
ATOM      7  C   UNL     1       3.031  40.956  12.294  1.00  0.00     0.053 C 
BRANCH   7   8
ATOM      8  C   UNL     1       3.641  39.706  12.843  1.00  0.00     0.041 C 
ATOM      9  O   UNL     1       3.070  38.596  12.675  1.00  0.00    -0.550 OA
ATOM     10  O   UNL     1       4.818  39.771  13.578  1.00  0.00    -0.550 OA
ENDBRANCH   7   8
ENDBRANCH   6   7
ENDBRANCH   5   6
ENDBRANCH   4   5
ENDBRANCH   3   4
ENDBRANCH   2   3
ENDBRANCH   1   2
BRANCH   1  11
ATOM     11  C   UNL     1       0.554  44.988   9.950  1.00  0.00     0.000 C 
BRANCH  11  12
ATOM     12  C   UNL     1       0.500  46.527   9.858  1.00  0.00    -0.000 C 
BRANCH  12  13
ATOM     13  C   UNL     1       1.854  47.242  10.010  1.00  0.00    -0.000 C 
BRANCH  13  14
ATOM     14  C   UNL     1       2.307  47.939   8.716  1.00  0.00    -0.000 C 
BRANCH  14  15
ATOM     15  C   UNL     1       3.597  47.336   8.133  1.00  0.00    -0.000 C 
BRANCH  15  16
ATOM     16  C   UNL     1       4.897  48.057   8.539  1.00  0.00    -0.000 C 
BRANCH  16  17
ATOM     17  C   UNL     1       5.741  47.284   9.574  1.00  0.00    -0.003 C 
ATOM     18  C   UNL     1       7.234  47.594   9.457  1.00  0.00     0.004 C 
ENDBRANCH  16  17
ENDBRANCH  15  16
ENDBRANCH  14  15
ENDBRANCH  13  14
ENDBRANCH  12  13
ENDBRANCH  11  12
ENDBRANCH   1  11
TORSDOF 14
ENDMDL
MODEL 2
REMARK VINA RESULT:    -5.126      3.378      6.735
REMARK INTER + INTRA:         -11.024
REMARK INTER:                  -9.362
REMARK INTRA:                  -1.662
REMARK UNBOUND:                -1.704
REMARK SMILES CCCCCCCCCCCCCCCC(=O)[O-]
REMARK SMILES IDX 9 1 10 2 11 3 12 4 13 5 14 6 15 7 16 8 17 9 18 10 8 11 7 12
REMARK SMILES IDX 6 13 5 14 4 15 3 16 2 17 1 18
REMARK H PARENT
REMARK Flexibility Score: inf
ROOT
ATOM      1  C   UNL     1       1.448  44.059   9.627  1.00  0.00     0.000 C 
ENDROOT
BRANCH   1   2
ATOM      2  C   UNL     1       0.884  45.240   8.820  1.00  0.00     0.000 C 
BRANCH   2   3
ATOM      3  C   UNL     1       0.853  46.554   9.623  1.00  0.00     0.000 C 
BRANCH   3   4
ATOM      4  C   UNL     1       2.079  47.471   9.435  1.00  0.00     0.000 C 
BRANCH   4   5
ATOM      5  C   UNL     1       2.797  47.334   8.080  1.00  0.00     0.000 C 
BRANCH   5   6
ATOM      6  C   UNL     1       4.182  47.998   8.068  1.00  0.00     0.006 C 
BRANCH   6   7
ATOM      7  C   UNL     1       5.089  47.393   9.143  1.00  0.00     0.053 C 
BRANCH   7   8
ATOM      8  C   UNL     1       6.456  47.996   9.076  1.00  0.00     0.041 C 
ATOM      9  O   UNL     1       6.629  49.111   8.519  1.00  0.00    -0.550 OA
ATOM     10  O   UNL     1       7.546  47.305   9.587  1.00  0.00    -0.550 OA
ENDBRANCH   7   8
ENDBRANCH   6   7
ENDBRANCH   5   6
ENDBRANCH   4   5
ENDBRANCH   3   4
ENDBRANCH   2   3
ENDBRANCH   1   2
BRANCH   1  11
ATOM     11  C   UNL     1       2.822  43.589   9.115  1.00  0.00     0.000 C 
BRANCH  11  12
ATOM     12  C   UNL     1       4.034  44.076   9.935  1.00  0.00    -0.000 C 
BRANCH  12  13
ATOM     13  C   UNL     1       3.700  44.656  11.321  1.00  0.00    -0.000 C 
BRANCH  13  14
ATOM     14  C   UNL     1       3.970  43.661  12.462  1.00  0.00    -0.000 C 
BRANCH  14  15
ATOM     15  C   UNL     1       4.162  42.218  11.962  1.00  0.00    -0.000 C 
BRANCH  15  16
ATOM     16  C   UNL     1       2.933  41.302  12.122  1.00  0.00    -0.000 C 
BRANCH  16  17
ATOM     17  C   UNL     1       3.243  39.957  12.811  1.00  0.00    -0.003 C 
ATOM     18  C   UNL     1       4.719  39.820  13.186  1.00  0.00     0.004 C 
ENDBRANCH  16  17
ENDBRANCH  15  16
ENDBRANCH  14  15
ENDBRANCH  13  14
ENDBRANCH  12  13
ENDBRANCH  11  12
ENDBRANCH   1  11
TORSDOF 14
ENDMDL
MODEL 3
REMARK VINA RESULT:    -5.105      1.443      2.637
REMARK INTER + INTRA:         -10.988
REMARK INTER:                  -9.022
REMARK INTRA:                  -1.966
REMARK UNBOUND:                -1.704
REMARK SMILES CCCCCCCCCCCCCCCC(=O)[O-]
REMARK SMILES IDX 9 1 10 2 11 3 12 4 13 5 14 6 15 7 16 8 17 9 18 10 8 11 7 12
REMARK SMILES IDX 6 13 5 14 4 15 3 16 2 17 1 18
REMARK H PARENT
REMARK Flexibility Score: inf
ROOT
ATOM      1  C   UNL     1       3.747  43.626   9.136  1.00  0.00     0.000 C 
ENDROOT
BRANCH   1   2
ATOM      2  C   UNL     1       3.919  45.104   9.525  1.00  0.00     0.000 C 
BRANCH   2   3
ATOM      3  C   UNL     1       3.943  45.324  11.048  1.00  0.00     0.000 C 
BRANCH   3   4
ATOM      4  C   UNL     1       3.935  44.037  11.901  1.00  0.00     0.000 C 
BRANCH   4   5
ATOM      5  C   UNL     1       2.574  43.670  12.519  1.00  0.00     0.000 C 
BRANCH   5   6
ATOM      6  C   UNL     1       2.219  42.187  12.341  1.00  0.00     0.006 C 
BRANCH   6   7
ATOM      7  C   UNL     1       3.448  41.376  11.919  1.00  0.00     0.053 C 
BRANCH   7   8
ATOM      8  C   UNL     1       3.590  40.156  12.773  1.00  0.00     0.041 C 
ATOM      9  O   UNL     1       4.620  39.994  13.479  1.00  0.00    -0.550 OA
ATOM     10  O   UNL     1       2.605  39.177  12.756  1.00  0.00    -0.550 OA
ENDBRANCH   7   8
ENDBRANCH   6   7
ENDBRANCH   5   6
ENDBRANCH   4   5
ENDBRANCH   3   4
ENDBRANCH   2   3
ENDBRANCH   1   2
BRANCH   1  11
ATOM     11  C   UNL     1       2.288  43.262   8.808  1.00  0.00     0.000 C 
BRANCH  11  12
ATOM     12  C   UNL     1       1.239  44.325   9.194  1.00  0.00    -0.000 C 
BRANCH  12  13
ATOM     13  C   UNL     1       0.359  44.830   8.038  1.00  0.00    -0.000 C 
BRANCH  13  14
ATOM     14  C   UNL     1       0.041  46.331   8.146  1.00  0.00    -0.000 C 
BRANCH  14  15
ATOM     15  C   UNL     1       0.615  46.972   9.421  1.00  0.00    -0.000 C 
BRANCH  15  16
ATOM     16  C   UNL     1       1.711  48.031   9.184  1.00  0.00    -0.000 C 
BRANCH  16  17
ATOM     17  C   UNL     1       2.107  48.197   7.702  1.00  0.00    -0.003 C 
ATOM     18  C   UNL     1       3.623  48.239   7.504  1.00  0.00     0.004 C 
ENDBRANCH  16  17
ENDBRANCH  15  16
ENDBRANCH  14  15
ENDBRANCH  13  14
ENDBRANCH  12  13
ENDBRANCH  11  12
ENDBRANCH   1  11
TORSDOF 14
ENDMDL
MODEL 4
REMARK VINA RESULT:    -5.095      1.022      3.622
REMARK INTER + INTRA:         -10.968
REMARK INTER:                  -9.233
REMARK INTRA:                  -1.735
REMARK UNBOUND:                -1.704
REMARK SMILES CCCCCCCCCCCCCCCC(=O)[O-]
REMARK SMILES IDX 9 1 10 2 11 3 12 4 13 5 14 6 15 7 16 8 17 9 18 10 8 11 7 12
REMARK SMILES IDX 6 13 5 14 4 15 3 16 2 17 1 18
REMARK H PARENT
REMARK Flexibility Score: inf
ROOT
ATOM      1  C   UNL     1       5.202  46.618   9.901  1.00  0.00     0.000 C 
ENDROOT
BRANCH   1   2
ATOM      2  C   UNL     1       4.269  45.422  10.153  1.00  0.00     0.000 C 
BRANCH   2   3
ATOM      3  C   UNL     1       4.099  45.101  11.649  1.00  0.00     0.000 C 
BRANCH   3   4
ATOM      4  C   UNL     1       2.915  44.172  11.994  1.00  0.00     0.000 C 
BRANCH   4   5
ATOM      5  C   UNL     1       2.907  42.822  11.256  1.00  0.00     0.000 C 
BRANCH   5   6
ATOM      6  C   UNL     1       3.691  41.730  12.000  1.00  0.00     0.006 C 
BRANCH   6   7
ATOM      7  C   UNL     1       2.754  40.621  12.489  1.00  0.00     0.053 C 
BRANCH   7   8
ATOM      8  C   UNL     1       3.531  39.386  12.817  1.00  0.00     0.041 C 
ATOM      9  O   UNL     1       4.661  39.476  13.366  1.00  0.00    -0.550 OA
ATOM     10  O   UNL     1       3.029  38.137  12.475  1.00  0.00    -0.550 OA
ENDBRANCH   7   8
ENDBRANCH   6   7
ENDBRANCH   5   6
ENDBRANCH   4   5
ENDBRANCH   3   4
ENDBRANCH   2   3
ENDBRANCH   1   2
BRANCH   1  11
ATOM     11  C   UNL     1       4.709  47.530   8.763  1.00  0.00     0.000 C 
BRANCH  11  12
ATOM     12  C   UNL     1       3.300  47.210   8.223  1.00  0.00    -0.000 C 
BRANCH  12  13
ATOM     13  C   UNL     1       2.186  48.164   8.688  1.00  0.00    -0.000 C 
BRANCH  13  14
ATOM     14  C   UNL     1       1.462  47.663   9.949  1.00  0.00    -0.000 C 
BRANCH  14  15
ATOM     15  C   UNL     1       0.187  46.865   9.627  1.00  0.00    -0.000 C 
BRANCH  15  16
ATOM     16  C   UNL     1       0.277  45.350   9.900  1.00  0.00    -0.000 C 
BRANCH  16  17
ATOM     17  C   UNL     1       0.813  44.533   8.706  1.00  0.00    -0.003 C 
ATOM     18  C   UNL     1       0.055  44.826   7.411  1.00  0.00     0.004 C 
ENDBRANCH  16  17
ENDBRANCH  15  16
ENDBRANCH  14  15
ENDBRANCH  13  14
ENDBRANCH  12  13
ENDBRANCH  11  12
ENDBRANCH   1  11
TORSDOF 14
ENDMDL
MODEL 5
REMARK VINA RESULT:    -5.060      1.248      3.442
REMARK INTER + INTRA:         -10.906
REMARK INTER:                  -9.005
REMARK INTRA:                  -1.901
REMARK UNBOUND:                -1.704
REMARK SMILES CCCCCCCCCCCCCCCC(=O)[O-]
REMARK SMILES IDX 9 1 10 2 11 3 12 4 13 5 14 6 15 7 16 8 17 9 18 10 8 11 7 12
REMARK SMILES IDX 6 13 5 14 4 15 3 16 2 17 1 18
REMARK H PARENT
REMARK Flexibility Score: inf
ROOT
ATOM      1  C   UNL     1       4.523  46.266   9.165  1.00  0.00     0.000 C 
ENDROOT
BRANCH   1   2
ATOM      2  C   UNL     1       4.118  46.213  10.648  1.00  0.00     0.000 C 
BRANCH   2   3
ATOM      3  C   UNL     1       3.966  44.774  11.176  1.00  0.00     0.000 C 
BRANCH   3   4
ATOM      4  C   UNL     1       3.734  43.696  10.096  1.00  0.00     0.000 C 
BRANCH   4   5
ATOM      5  C   UNL     1       3.047  42.411  10.592  1.00  0.00     0.000 C 
BRANCH   5   6
ATOM      6  C   UNL     1       3.594  41.925  11.943  1.00  0.00     0.006 C 
BRANCH   6   7
ATOM      7  C   UNL     1       2.721  40.804  12.515  1.00  0.00     0.053 C 
BRANCH   7   8
ATOM      8  C   UNL     1       3.548  39.592  12.804  1.00  0.00     0.041 C 
ATOM      9  O   UNL     1       3.084  38.442  12.585  1.00  0.00    -0.550 OA
ATOM     10  O   UNL     1       4.814  39.730  13.358  1.00  0.00    -0.550 OA
ENDBRANCH   7   8
ENDBRANCH   6   7
ENDBRANCH   5   6
ENDBRANCH   4   5
ENDBRANCH   3   4
ENDBRANCH   2   3
ENDBRANCH   1   2
BRANCH   1  11
ATOM     11  C   UNL     1       4.380  47.673   8.558  1.00  0.00     0.000 C 
BRANCH  11  12
ATOM     12  C   UNL     1       3.143  47.882   7.660  1.00  0.00    -0.000 C 
BRANCH  12  13
ATOM     13  C   UNL     1       1.918  48.496   8.362  1.00  0.00    -0.000 C 
BRANCH  13  14
ATOM     14  C   UNL     1       0.624  47.710   8.094  1.00  0.00    -0.000 C 
BRANCH  14  15
ATOM     15  C   UNL     1       0.878  46.215   7.829  1.00  0.00    -0.000 C 
BRANCH  15  16
ATOM     16  C   UNL     1       0.289  45.255   8.881  1.00  0.00    -0.000 C 
BRANCH  16  17
ATOM     17  C   UNL     1       0.295  45.823  10.316  1.00  0.00    -0.003 C 
ATOM     18  C   UNL     1       0.304  44.724  11.378  1.00  0.00     0.004 C 
ENDBRANCH  16  17
ENDBRANCH  15  16
ENDBRANCH  14  15
ENDBRANCH  13  14
ENDBRANCH  12  13
ENDBRANCH  11  12
ENDBRANCH   1  11
TORSDOF 14
ENDMDL
MODEL 6
REMARK VINA RESULT:    -5.035      1.443      3.886
REMARK INTER + INTRA:         -10.859
REMARK INTER:                  -8.762
REMARK INTRA:                  -2.097
REMARK UNBOUND:                -1.704
REMARK SMILES CCCCCCCCCCCCCCCC(=O)[O-]
REMARK SMILES IDX 9 1 10 2 11 3 12 4 13 5 14 6 15 7 16 8 17 9 18 10 8 11 7 12
REMARK SMILES IDX 6 13 5 14 4 15 3 16 2 17 1 18
REMARK H PARENT
REMARK Flexibility Score: inf
ROOT
ATOM      1  C   UNL     1       4.280  47.720   8.641  1.00  0.00     0.000 C 
ENDROOT
BRANCH   1   2
ATOM      2  C   UNL     1       4.587  46.312   9.176  1.00  0.00     0.000 C 
BRANCH   2   3
ATOM      3  C   UNL     1       4.101  46.102  10.623  1.00  0.00     0.000 C 
BRANCH   3   4
ATOM      4  C   UNL     1       4.086  44.637  11.108  1.00  0.00     0.000 C 
BRANCH   4   5
ATOM      5  C   UNL     1       3.932  43.582   9.997  1.00  0.00     0.000 C 
BRANCH   5   6
ATOM      6  C   UNL     1       2.851  42.537  10.312  1.00  0.00     0.006 C 
BRANCH   6   7
ATOM      7  C   UNL     1       2.605  42.441  11.820  1.00  0.00     0.053 C 
BRANCH   7   8
ATOM      8  C   UNL     1       3.193  41.180  12.368  1.00  0.00     0.041 C 
ATOM      9  O   UNL     1       4.443  41.026  12.400  1.00  0.00    -0.550 OA
ATOM     10  O   UNL     1       2.362  40.156  12.801  1.00  0.00    -0.550 OA
ENDBRANCH   7   8
ENDBRANCH   6   7
ENDBRANCH   5   6
ENDBRANCH   4   5
ENDBRANCH   3   4
ENDBRANCH   2   3
ENDBRANCH   1   2
BRANCH   1  11
ATOM     11  C   UNL     1       3.047  47.753   7.721  1.00  0.00     0.000 C 
BRANCH  11  12
ATOM     12  C   UNL     1       1.895  48.664   8.192  1.00  0.00    -0.000 C 
BRANCH  12  13
ATOM     13  C   UNL     1       1.312  48.324   9.575  1.00  0.00    -0.000 C 
BRANCH  13  14
ATOM     14  C   UNL     1       0.142  47.328   9.497  1.00  0.00    -0.000 C 
BRANCH  14  15
ATOM     15  C   UNL     1       0.571  45.879   9.787  1.00  0.00    -0.000 C 
BRANCH  15  16
ATOM     16  C   UNL     1       0.597  44.947   8.559  1.00  0.00    -0.000 C 
BRANCH  16  17
ATOM     17  C   UNL     1       0.021  45.587   7.279  1.00  0.00    -0.003 C 
ATOM     18  C   UNL     1      -0.668  44.565   6.375  1.00  0.00     0.004 C 
ENDBRANCH  16  17
ENDBRANCH  15  16
ENDBRANCH  14  15
ENDBRANCH  13  14
ENDBRANCH  12  13
ENDBRANCH  11  12
ENDBRANCH   1  11
TORSDOF 14
ENDMDL
MODEL 7
REMARK VINA RESULT:    -4.879      3.757      6.924
REMARK INTER + INTRA:         -10.575
REMARK INTER:                  -8.938
REMARK INTRA:                  -1.637
REMARK UNBOUND:                -1.704
REMARK SMILES CCCCCCCCCCCCCCCC(=O)[O-]
REMARK SMILES IDX 9 1 10 2 11 3 12 4 13 5 14 6 15 7 16 8 17 9 18 10 8 11 7 12
REMARK SMILES IDX 6 13 5 14 4 15 3 16 2 17 1 18
REMARK H PARENT
REMARK Flexibility Score: inf
ROOT
ATOM      1  C   UNL     1       4.033  44.811   9.282  1.00  0.00     0.000 C 
ENDROOT
BRANCH   1   2
ATOM      2  C   UNL     1       3.560  43.359   9.102  1.00  0.00     0.000 C 
BRANCH   2   3
ATOM      3  C   UNL     1       2.040  43.247   8.882  1.00  0.00     0.000 C 
BRANCH   3   4
ATOM      4  C   UNL     1       1.324  44.571   8.539  1.00  0.00     0.000 C 
BRANCH   4   5
ATOM      5  C   UNL     1       0.561  45.223   9.705  1.00  0.00     0.000 C 
BRANCH   5   6
ATOM      6  C   UNL     1       0.478  46.752   9.584  1.00  0.00     0.006 C 
BRANCH   6   7
ATOM      7  C   UNL     1       0.779  47.205   8.152  1.00  0.00     0.053 C 
BRANCH   7   8
ATOM      8  C   UNL     1       1.917  48.176   8.138  1.00  0.00     0.041 C 
ATOM      9  O   UNL     1       1.719  49.387   8.421  1.00  0.00    -0.550 OA
ATOM     10  O   UNL     1       3.187  47.753   7.769  1.00  0.00    -0.550 OA
ENDBRANCH   7   8
ENDBRANCH   6   7
ENDBRANCH   5   6
ENDBRANCH   4   5
ENDBRANCH   3   4
ENDBRANCH   2   3
ENDBRANCH   1   2
BRANCH   1  11
ATOM     11  C   UNL     1       4.027  45.262  10.753  1.00  0.00     0.000 C 
BRANCH  11  12
ATOM     12  C   UNL     1       3.938  44.125  11.792  1.00  0.00    -0.000 C 
BRANCH  12  13
ATOM     13  C   UNL     1       2.572  43.974  12.485  1.00  0.00    -0.000 C 
BRANCH  13  14
ATOM     14  C   UNL     1       1.939  42.591  12.254  1.00  0.00    -0.000 C 
BRANCH  14  15
ATOM     15  C   UNL     1       2.987  41.482  12.053  1.00  0.00    -0.000 C 
BRANCH  15  16
ATOM     16  C   UNL     1       2.599  40.105  12.630  1.00  0.00    -0.000 C 
BRANCH  16  17
ATOM     17  C   UNL     1       3.808  39.240  13.043  1.00  0.00    -0.003 C 
ATOM     18  C   UNL     1       5.082  40.067  13.226  1.00  0.00     0.004 C 
ENDBRANCH  16  17
ENDBRANCH  15  16
ENDBRANCH  14  15
ENDBRANCH  13  14
ENDBRANCH  12  13
ENDBRANCH  11  12
ENDBRANCH   1  11
TORSDOF 14
ENDMDL
MODEL 8
REMARK VINA RESULT:    -4.872      4.239      6.397
REMARK INTER + INTRA:         -10.564
REMARK INTER:                  -8.990
REMARK INTRA:                  -1.574
REMARK UNBOUND:                -1.704
REMARK SMILES CCCCCCCCCCCCCCCC(=O)[O-]
REMARK SMILES IDX 9 1 10 2 11 3 12 4 13 5 14 6 15 7 16 8 17 9 18 10 8 11 7 12
REMARK SMILES IDX 6 13 5 14 4 15 3 16 2 17 1 18
REMARK H PARENT
REMARK Flexibility Score: inf
ROOT
ATOM      1  C   UNL     1       2.247  43.178   9.145  1.00  0.00     0.000 C 
ENDROOT
BRANCH   1   2
ATOM      2  C   UNL     1       1.185  44.229   9.510  1.00  0.00     0.000 C 
BRANCH   2   3
ATOM      3  C   UNL     1       0.477  44.818   8.276  1.00  0.00     0.000 C 
BRANCH   3   4
ATOM      4  C   UNL     1       0.508  46.357   8.170  1.00  0.00     0.000 C 
BRANCH   4   5
ATOM      5  C   UNL     1       1.233  47.077   9.321  1.00  0.00     0.000 C 
BRANCH   5   6
ATOM      6  C   UNL     1       1.195  48.607   9.186  1.00  0.00     0.006 C 
BRANCH   6   7
ATOM      7  C   UNL     1       1.146  49.026   7.713  1.00  0.00     0.053 C 
BRANCH   7   8
ATOM      8  C   UNL     1       2.461  49.597   7.287  1.00  0.00     0.041 C 
ATOM      9  O   UNL     1       3.465  48.849   7.160  1.00  0.00    -0.550 OA
ATOM     10  O   UNL     1       2.588  50.964   7.074  1.00  0.00    -0.550 OA
ENDBRANCH   7   8
ENDBRANCH   6   7
ENDBRANCH   5   6
ENDBRANCH   4   5
ENDBRANCH   3   4
ENDBRANCH   2   3
ENDBRANCH   1   2
BRANCH   1  11
ATOM     11  C   UNL     1       3.046  42.689  10.366  1.00  0.00     0.000 C 
BRANCH  11  12
ATOM     12  C   UNL     1       2.595  43.264  11.725  1.00  0.00    -0.000 C 
BRANCH  12  13
ATOM     13  C   UNL     1       3.577  44.252  12.379  1.00  0.00    -0.000 C 
BRANCH  13  14
ATOM     14  C   UNL     1       4.605  44.815  11.382  1.00  0.00    -0.000 C 
BRANCH  14  15
ATOM     15  C   UNL     1       4.133  46.116  10.710  1.00  0.00    -0.000 C 
BRANCH  15  16
ATOM     16  C   UNL     1       4.943  46.542   9.469  1.00  0.00    -0.000 C 
BRANCH  16  17
ATOM     17  C   UNL     1       5.844  47.772   9.705  1.00  0.00    -0.003 C 
ATOM     18  C   UNL     1       7.312  47.489   9.383  1.00  0.00     0.004 C 
ENDBRANCH  16  17
ENDBRANCH  15  16
ENDBRANCH  14  15
ENDBRANCH  13  14
ENDBRANCH  12  13
ENDBRANCH  11  12
ENDBRANCH   1  11
TORSDOF 14
ENDMDL
MODEL 9
REMARK VINA RESULT:    -4.834      2.035      3.091
REMARK INTER + INTRA:         -10.494
REMARK INTER:                  -8.363
REMARK INTRA:                  -2.131
REMARK UNBOUND:                -1.704
REMARK SMILES CCCCCCCCCCCCCCCC(=O)[O-]
REMARK SMILES IDX 9 1 10 2 11 3 12 4 13 5 14 6 15 7 16 8 17 9 18 10 8 11 7 12
REMARK SMILES IDX 6 13 5 14 4 15 3 16 2 17 1 18
REMARK H PARENT
REMARK Flexibility Score: inf
ROOT
ATOM      1  C   UNL     1      -1.109  46.538   7.288  1.00  0.00     0.000 C 
ENDROOT
BRANCH   1   2
ATOM      2  C   UNL     1      -0.029  45.514   6.902  1.00  0.00     0.000 C 
BRANCH   2   3
ATOM      3  C   UNL     1       0.082  44.353   7.907  1.00  0.00     0.000 C 
BRANCH   3   4
ATOM      4  C   UNL     1       1.178  44.514   8.982  1.00  0.00     0.000 C 
BRANCH   4   5
ATOM      5  C   UNL     1       0.661  44.776  10.408  1.00  0.00     0.000 C 
BRANCH   5   6
ATOM      6  C   UNL     1       1.298  43.850  11.454  1.00  0.00     0.006 C 
BRANCH   6   7
ATOM      7  C   UNL     1       2.737  44.275  11.758  1.00  0.00     0.053 C 
BRANCH   7   8
ATOM      8  C   UNL     1       3.702  43.236  11.282  1.00  0.00     0.041 C 
ATOM      9  O   UNL     1       4.294  43.379  10.179  1.00  0.00    -0.550 OA
ATOM     10  O   UNL     1       3.915  42.088  12.034  1.00  0.00    -0.550 OA
ENDBRANCH   7   8
ENDBRANCH   6   7
ENDBRANCH   5   6
ENDBRANCH   4   5
ENDBRANCH   3   4
ENDBRANCH   2   3
ENDBRANCH   1   2
BRANCH   1  11
ATOM     11  C   UNL     1      -0.527  47.928   7.604  1.00  0.00     0.000 C 
BRANCH  11  12
ATOM     12  C   UNL     1      -0.080  48.141   9.065  1.00  0.00    -0.000 C 
BRANCH  12  13
ATOM     13  C   UNL     1       1.438  48.285   9.273  1.00  0.00    -0.000 C 
BRANCH  13  14
ATOM     14  C   UNL     1       2.217  48.330   7.948  1.00  0.00    -0.000 C 
BRANCH  14  15
ATOM     15  C   UNL     1       3.616  47.698   8.056  1.00  0.00    -0.000 C 
BRANCH  15  16
ATOM     16  C   UNL     1       3.863  46.875   9.336  1.00  0.00    -0.000 C 
BRANCH  16  17
ATOM     17  C   UNL     1       5.341  46.841   9.780  1.00  0.00    -0.003 C 
ATOM     18  C   UNL     1       6.196  47.867   9.037  1.00  0.00     0.004 C 
ENDBRANCH  16  17
ENDBRANCH  15  16
ENDBRANCH  14  15
ENDBRANCH  13  14
ENDBRANCH  12  13
ENDBRANCH  11  12
ENDBRANCH   1  11
TORSDOF 14
ENDMDL
