MODEL 1
REMARK VINA RESULT:    -2.071      0.000      0.000
REMARK INTER + INTRA:          -2.673
REMARK INTER:                  -2.919
REMARK INTRA:                   0.246
REMARK UNBOUND:                 0.246
REMARK SMILES CC1=CCC(=C(C)C)C(=O)CC(C)=CCC1
REMARK SMILES IDX 12 1 14 2 13 3 15 4 16 5 2 6 1 7 3 8 11 10 9 11 10 12 5 13
REMARK SMILES IDX 6 14 7 15 8 16 4 17
REMARK H PARENT
REMARK Flexibility Score: 60.00
ROOT
ATOM      1  C   UNL     1     153.776 154.902 151.015  1.00  0.00    -0.070 C 
ATOM      2  C   UNL     1     154.837 154.385 151.674  1.00  0.00    -0.027 C 
ATOM      3  C   UNL     1     152.564 155.291 151.823  1.00  0.00     0.039 C 
ENDROOT
BRANCH   2   4
ATOM      4  C   UNL     1     156.171 154.026 151.058  1.00  0.00     0.032 C 
BRANCH   4   5
ATOM      5  C   UNL     1     156.293 152.563 150.583  1.00  0.00     0.034 C 
BRANCH   5   6
ATOM      6  C   UNL     1     156.855 152.436 149.179  1.00  0.00    -0.077 C 
ATOM      7  C   UNL     1     158.352 152.521 149.012  1.00  0.00     0.039 C 
ATOM      8  C   UNL     1     156.108 152.181 148.077  1.00  0.00    -0.023 CG0
ATOM      9  G   UNL     1     154.597 152.073 148.001  1.00  0.00     0.000 G0
ENDBRANCH   5   6
ENDBRANCH   4   5
ENDBRANCH   2   4
BRANCH   1  10
ATOM     10  C   UNL     1     153.783 155.193 149.528  1.00  0.00     0.111 C 
BRANCH  10  11
ATOM     11  C   UNL     1     153.168 154.067 148.739  1.00  0.00     0.163 C 
ATOM     12  O   UNL     1     151.974 153.749 148.990  1.00  0.00    -0.294 OA
BRANCH  11  13
ATOM     13  C   UNL     1     153.896 153.367 147.640  1.00  0.00    -0.002 C 
ATOM     14  C   UNL     1     154.013 153.939 146.403  1.00  0.00    -0.069 C 
ATOM     15  C   UNL     1     153.282 155.217 146.058  1.00  0.00     0.039 C 
ATOM     16  C   UNL     1     154.875 153.331 145.318  1.00  0.00     0.039 C 
BRANCH  13  17
ATOM     17  C   UNL     1     154.575 152.051 147.983  1.00  0.00     0.066 CG0
ATOM     18  G   UNL     1     156.082 152.187 148.074  1.00  0.00     0.000 G0
ENDBRANCH  13  17
ENDBRANCH  11  13
ENDBRANCH  10  11
ENDBRANCH   1  10
TORSDOF 0
ENDMDL
MODEL 2
REMARK VINA RESULT:    -1.991     20.937     21.632
REMARK INTER + INTRA:          -2.559
REMARK INTER:                  -2.697
REMARK INTRA:                   0.137
REMARK UNBOUND:                 0.246
REMARK SMILES CC1=CCC(=C(C)C)C(=O)CC(C)=CCC1
REMARK SMILES IDX 12 1 14 2 13 3 15 4 16 5 2 6 1 7 3 8 11 10 9 11 10 12 5 13
REMARK SMILES IDX 6 14 7 15 8 16 4 17
REMARK H PARENT
REMARK Flexibility Score: 60.00
ROOT
ATOM      1  C   UNL     1     164.941 170.029 146.609  1.00  0.00    -0.070 C 
ATOM      2  C   UNL     1     165.491 170.418 147.781  1.00  0.00    -0.027 C 
ATOM      3  C   UNL     1     163.465 170.264 146.409  1.00  0.00     0.039 C 
ENDROOT
BRANCH   2   4
ATOM      4  C   UNL     1     166.961 170.356 148.129  1.00  0.00     0.032 C 
BRANCH   4   5
ATOM      5  C   UNL     1     167.793 171.562 147.646  1.00  0.00     0.034 C 
BRANCH   5   6
ATOM      6  C   UNL     1     169.015 171.161 146.839  1.00  0.00    -0.077 C 
ATOM      7  C   UNL     1     170.176 170.550 147.582  1.00  0.00     0.039 C 
ATOM      8  C   UNL     1     169.103 171.251 145.489  1.00  0.00    -0.023 CG0
ATOM      9  G   UNL     1     168.076 171.843 144.543  1.00  0.00     0.000 G0
ENDBRANCH   5   6
ENDBRANCH   4   5
ENDBRANCH   2   4
BRANCH   1  10
ATOM     10  C   UNL     1     165.748 169.460 145.460  1.00  0.00     0.111 C 
BRANCH  10  11
ATOM     11  C   UNL     1     165.931 170.469 144.357  1.00  0.00     0.163 C 
ATOM     12  O   UNL     1     164.914 171.090 143.945  1.00  0.00    -0.294 OA
BRANCH  11  13
ATOM     13  C   UNL     1     167.271 170.798 143.785  1.00  0.00    -0.002 C 
ATOM     14  C   UNL     1     167.691 170.228 142.615  1.00  0.00    -0.069 C 
ATOM     15  C   UNL     1     166.891 169.134 141.944  1.00  0.00     0.039 C 
ATOM     16  C   UNL     1     168.970 170.658 141.930  1.00  0.00     0.039 C 
BRANCH  13  17
ATOM     17  C   UNL     1     168.093 171.855 144.504  1.00  0.00     0.066 CG0
ATOM     18  G   UNL     1     169.076 171.250 145.487  1.00  0.00     0.000 G0
ENDBRANCH  13  17
ENDBRANCH  11  13
ENDBRANCH  10  11
ENDBRANCH   1  10
TORSDOF 0
ENDMDL
MODEL 3
REMARK VINA RESULT:    -1.924      1.986      2.956
REMARK INTER + INTRA:          -2.465
REMARK INTER:                  -2.980
REMARK INTRA:                   0.515
REMARK UNBOUND:                 0.246
REMARK SMILES CC1=CCC(=C(C)C)C(=O)CC(C)=CCC1
REMARK SMILES IDX 12 1 14 2 13 3 15 4 16 5 2 6 1 7 3 8 11 10 9 11 10 12 5 13
REMARK SMILES IDX 6 14 7 15 8 16 4 17
REMARK H PARENT
REMARK Flexibility Score: 60.00
ROOT
ATOM      1  C   UNL     1     152.849 155.699 148.562  1.00  0.00    -0.070 C 
ATOM      2  C   UNL     1     152.365 154.739 149.381  1.00  0.00    -0.027 C 
ATOM      3  C   UNL     1     152.649 157.138 148.965  1.00  0.00     0.039 C 
ENDROOT
BRANCH   2   4
ATOM      4  C   UNL     1     152.549 153.249 149.200  1.00  0.00     0.032 C 
BRANCH   4   5
ATOM      5  C   UNL     1     153.266 152.538 150.366  1.00  0.00     0.034 C 
BRANCH   5   6
ATOM      6  C   UNL     1     154.671 153.058 150.610  1.00  0.00    -0.077 C 
ATOM      7  C   UNL     1     155.012 153.531 152.001  1.00  0.00     0.039 C 
ATOM      8  C   UNL     1     155.657 153.061 149.680  1.00  0.00    -0.023 CG0
ATOM      9  G   UNL     1     155.542 152.653 148.224  1.00  0.00     0.000 G0
ENDBRANCH   5   6
ENDBRANCH   4   5
ENDBRANCH   2   4
BRANCH   1  10
ATOM     10  C   UNL     1     153.658 155.399 147.316  1.00  0.00     0.111 C 
BRANCH  10  11
ATOM     11  C   UNL     1     155.103 155.128 147.644  1.00  0.00     0.163 C 
ATOM     12  O   UNL     1     155.741 156.007 148.286  1.00  0.00    -0.294 OA
BRANCH  11  13
ATOM     13  C   UNL     1     155.777 153.843 147.295  1.00  0.00    -0.002 C 
ATOM     14  C   UNL     1     156.625 153.767 146.224  1.00  0.00    -0.069 C 
ATOM     15  C   UNL     1     156.787 154.929 145.268  1.00  0.00     0.039 C 
ATOM     16  C   UNL     1     157.443 152.527 145.937  1.00  0.00     0.039 C 
BRANCH  13  17
ATOM     17  C   UNL     1     155.556 152.665 148.229  1.00  0.00     0.066 CG0
ATOM     18  G   UNL     1     155.644 153.063 149.689  1.00  0.00     0.000 G0
ENDBRANCH  13  17
ENDBRANCH  11  13
ENDBRANCH  10  11
ENDBRANCH   1  10
TORSDOF 0
ENDMDL
MODEL 4
REMARK VINA RESULT:    -1.915      3.686      4.950
REMARK INTER + INTRA:          -2.453
REMARK INTER:                  -2.724
REMARK INTRA:                   0.271
REMARK UNBOUND:                 0.246
REMARK SMILES CC1=CCC(=C(C)C)C(=O)CC(C)=CCC1
REMARK SMILES IDX 12 1 14 2 13 3 15 4 16 5 2 6 1 7 3 8 11 10 9 11 10 12 5 13
REMARK SMILES IDX 6 14 7 15 8 16 4 17
REMARK H PARENT
REMARK Flexibility Score: 60.00
ROOT
ATOM      1  C   UNL     1     155.508 155.320 146.192  1.00  0.00    -0.070 C 
ATOM      2  C   UNL     1     156.073 154.578 147.171  1.00  0.00    -0.027 C 
ATOM      3  C   UNL     1     154.396 156.263 146.573  1.00  0.00     0.039 C 
ENDROOT
BRANCH   2   4
ATOM      4  C   UNL     1     157.258 153.653 147.005  1.00  0.00     0.032 C 
BRANCH   4   5
ATOM      5  C   UNL     1     156.985 152.395 146.156  1.00  0.00     0.034 C 
BRANCH   5   6
ATOM      6  C   UNL     1     157.994 152.196 145.039  1.00  0.00    -0.077 C 
ATOM      7  C   UNL     1     159.447 152.070 145.422  1.00  0.00     0.039 C 
ATOM      8  C   UNL     1     157.668 152.057 143.731  1.00  0.00    -0.023 CG0
ATOM      9  G   UNL     1     156.286 152.165 143.116  1.00  0.00     0.000 G0
ENDBRANCH   5   6
ENDBRANCH   4   5
ENDBRANCH   2   4
BRANCH   1  10
ATOM     10  C   UNL     1     156.000 155.317 144.758  1.00  0.00     0.111 C 
BRANCH  10  11
ATOM     11  C   UNL     1     155.222 154.349 143.906  1.00  0.00     0.163 C 
ATOM     12  O   UNL     1     153.984 154.236 144.116  1.00  0.00    -0.294 OA
BRANCH  11  13
ATOM     13  C   UNL     1     155.849 153.576 142.794  1.00  0.00    -0.002 C 
ATOM     14  C   UNL     1     156.106 154.169 141.588  1.00  0.00    -0.069 C 
ATOM     15  C   UNL     1     155.624 155.571 141.286  1.00  0.00     0.039 C 
ATOM     16  C   UNL     1     156.880 153.462 140.497  1.00  0.00     0.039 C 
BRANCH  13  17
ATOM     17  C   UNL     1     156.272 152.147 143.092  1.00  0.00     0.066 CG0
ATOM     18  G   UNL     1     157.648 152.073 143.724  1.00  0.00     0.000 G0
ENDBRANCH  13  17
ENDBRANCH  11  13
ENDBRANCH  10  11
ENDBRANCH   1  10
TORSDOF 0
ENDMDL
MODEL 5
REMARK VINA RESULT:    -1.894     20.801     22.182
REMARK INTER + INTRA:          -2.422
REMARK INTER:                  -2.596
REMARK INTRA:                   0.174
REMARK UNBOUND:                 0.246
REMARK SMILES CC1=CCC(=C(C)C)C(=O)CC(C)=CCC1
REMARK SMILES IDX 12 1 14 2 13 3 15 4 16 5 2 6 1 7 3 8 11 10 9 11 10 12 5 13
REMARK SMILES IDX 6 14 7 15 8 16 4 17
REMARK H PARENT
REMARK Flexibility Score: 60.00
ROOT
ATOM      1  C   UNL     1     171.585 168.593 149.562  1.00  0.00    -0.070 C 
ATOM      2  C   UNL     1     171.510 167.532 148.726  1.00  0.00    -0.027 C 
ATOM      3  C   UNL     1     171.631 168.322 151.044  1.00  0.00     0.039 C 
ENDROOT
BRANCH   2   4
ATOM      4  C   UNL     1     171.552 167.594 147.216  1.00  0.00     0.032 C 
BRANCH   4   5
ATOM      5  C   UNL     1     170.379 168.357 146.566  1.00  0.00     0.034 C 
BRANCH   5   6
ATOM      6  C   UNL     1     169.031 168.005 147.167  1.00  0.00    -0.077 C 
ATOM      7  C   UNL     1     168.528 166.595 146.986  1.00  0.00     0.039 C 
ATOM      8  C   UNL     1     168.282 168.854 147.914  1.00  0.00    -0.023 CG0
ATOM      9  G   UNL     1     168.576 170.311 148.212  1.00  0.00     0.000 G0
ENDBRANCH   5   6
ENDBRANCH   4   5
ENDBRANCH   2   4
BRANCH   1  10
ATOM     10  C   UNL     1     171.720 170.023 149.079  1.00  0.00     0.111 C 
BRANCH  10  11
ATOM     11  C   UNL     1     170.639 170.904 149.647  1.00  0.00     0.163 C 
ATOM     12  O   UNL     1     170.973 172.021 150.126  1.00  0.00    -0.294 OA
BRANCH  11  13
ATOM     13  C   UNL     1     169.194 170.529 149.604  1.00  0.00    -0.002 C 
ATOM     14  C   UNL     1     168.455 170.462 150.752  1.00  0.00    -0.069 C 
ATOM     15  C   UNL     1     169.102 170.609 152.112  1.00  0.00     0.039 C 
ATOM     16  C   UNL     1     166.958 170.240 150.729  1.00  0.00     0.039 C 
BRANCH  13  17
ATOM     17  C   UNL     1     168.570 170.323 148.234  1.00  0.00     0.066 CG0
ATOM     18  G   UNL     1     168.305 168.860 147.936  1.00  0.00     0.000 G0
ENDBRANCH  13  17
ENDBRANCH  11  13
ENDBRANCH  10  11
ENDBRANCH   1  10
TORSDOF 0
ENDMDL
MODEL 6
REMARK VINA RESULT:    -1.838     20.375     21.443
REMARK INTER + INTRA:          -2.344
REMARK INTER:                  -2.587
REMARK INTRA:                   0.243
REMARK UNBOUND:                 0.246
REMARK SMILES CC1=CCC(=C(C)C)C(=O)CC(C)=CCC1
REMARK SMILES IDX 12 1 14 2 13 3 15 4 16 5 2 6 1 7 3 8 11 10 9 11 10 12 5 13
REMARK SMILES IDX 6 14 7 15 8 16 4 17
REMARK H PARENT
REMARK Flexibility Score: 60.00
ROOT
ATOM      1  C   UNL     1     164.877 167.590 141.890  1.00  0.00    -0.070 C 
ATOM      2  C   UNL     1     165.347 167.526 140.624  1.00  0.00    -0.027 C 
ATOM      3  C   UNL     1     163.494 167.052 142.158  1.00  0.00     0.039 C 
ENDROOT
BRANCH   2   4
ATOM      4  C   UNL     1     166.736 167.921 140.177  1.00  0.00     0.032 C 
BRANCH   4   5
ATOM      5  C   UNL     1     166.957 169.439 140.013  1.00  0.00     0.034 C 
BRANCH   5   6
ATOM      6  C   UNL     1     168.217 169.937 140.698  1.00  0.00    -0.077 C 
ATOM      7  C   UNL     1     169.543 169.484 140.143  1.00  0.00     0.039 C 
ATOM      8  C   UNL     1     168.229 170.816 141.731  1.00  0.00    -0.023 CG0
ATOM      9  G   UNL     1     167.028 171.389 142.458  1.00  0.00     0.000 G0
ENDBRANCH   5   6
ENDBRANCH   4   5
ENDBRANCH   2   4
BRANCH   1  10
ATOM     10  C   UNL     1     165.704 168.086 143.059  1.00  0.00     0.111 C 
BRANCH  10  11
ATOM     11  C   UNL     1     165.449 169.543 143.340  1.00  0.00     0.163 C 
ATOM     12  O   UNL     1     164.253 169.937 143.401  1.00  0.00    -0.294 OA
BRANCH  11  13
ATOM     13  C   UNL     1     166.553 170.513 143.608  1.00  0.00    -0.002 C 
ATOM     14  C   UNL     1     167.174 170.545 144.826  1.00  0.00    -0.069 C 
ATOM     15  C   UNL     1     166.666 169.720 145.988  1.00  0.00     0.039 C 
ATOM     16  C   UNL     1     168.395 171.403 145.079  1.00  0.00     0.039 C 
BRANCH  13  17
ATOM     17  C   UNL     1     167.011 171.382 142.449  1.00  0.00     0.066 CG0
ATOM     18  G   UNL     1     168.215 170.800 141.733  1.00  0.00     0.000 G0
ENDBRANCH  13  17
ENDBRANCH  11  13
ENDBRANCH  10  11
ENDBRANCH   1  10
TORSDOF 0
ENDMDL
MODEL 7
REMARK VINA RESULT:    -1.830      2.946      5.492
REMARK INTER + INTRA:          -2.333
REMARK INTER:                  -2.477
REMARK INTRA:                   0.144
REMARK UNBOUND:                 0.246
REMARK SMILES CC1=CCC(=C(C)C)C(=O)CC(C)=CCC1
REMARK SMILES IDX 12 1 14 2 13 3 15 4 16 5 2 6 1 7 3 8 11 10 9 11 10 12 5 13
REMARK SMILES IDX 6 14 7 15 8 16 4 17
REMARK H PARENT
REMARK Flexibility Score: 60.00
ROOT
ATOM      1  C   UNL     1     154.932 156.019 143.522  1.00  0.00    -0.070 C 
ATOM      2  C   UNL     1     155.790 155.740 142.516  1.00  0.00    -0.027 C 
ATOM      3  C   UNL     1     153.601 156.630 143.166  1.00  0.00     0.039 C 
ENDROOT
BRANCH   2   4
ATOM      4  C   UNL     1     157.124 155.042 142.661  1.00  0.00     0.032 C 
BRANCH   4   5
ATOM      5  C   UNL     1     157.047 153.502 142.714  1.00  0.00     0.034 C 
BRANCH   5   6
ATOM      6  C   UNL     1     157.907 152.898 143.810  1.00  0.00    -0.077 C 
ATOM      7  C   UNL     1     159.405 152.991 143.657  1.00  0.00     0.039 C 
ATOM      8  C   UNL     1     157.420 152.343 144.947  1.00  0.00    -0.023 CG0
ATOM      9  G   UNL     1     155.962 152.127 145.306  1.00  0.00     0.000 G0
ENDBRANCH   5   6
ENDBRANCH   4   5
ENDBRANCH   2   4
BRANCH   1  10
ATOM     10  C   UNL     1     155.205 155.663 144.970  1.00  0.00     0.111 C 
BRANCH  10  11
ATOM     11  C   UNL     1     154.604 154.332 145.337  1.00  0.00     0.163 C 
ATOM     12  O   UNL     1     153.437 154.076 144.935  1.00  0.00    -0.294 OA
BRANCH  11  13
ATOM     13  C   UNL     1     155.360 153.293 146.097  1.00  0.00    -0.002 C 
ATOM     14  C   UNL     1     155.441 153.347 147.462  1.00  0.00    -0.069 C 
ATOM     15  C   UNL     1     154.909 154.534 148.233  1.00  0.00     0.039 C 
ATOM     16  C   UNL     1     156.064 152.230 148.271  1.00  0.00     0.039 C 
BRANCH  13  17
ATOM     17  C   UNL     1     155.945 152.137 145.303  1.00  0.00     0.066 CG0
ATOM     18  G   UNL     1     157.410 152.348 144.973  1.00  0.00     0.000 G0
ENDBRANCH  13  17
ENDBRANCH  11  13
ENDBRANCH  10  11
ENDBRANCH   1  10
TORSDOF 0
ENDMDL
MODEL 8
REMARK VINA RESULT:    -1.768      4.986      6.705
REMARK INTER + INTRA:          -2.246
REMARK INTER:                  -2.367
REMARK INTRA:                   0.121
REMARK UNBOUND:                 0.246
REMARK SMILES CC1=CCC(=C(C)C)C(=O)CC(C)=CCC1
REMARK SMILES IDX 12 1 14 2 13 3 15 4 16 5 2 6 1 7 3 8 11 10 9 11 10 12 5 13
REMARK SMILES IDX 6 14 7 15 8 16 4 17
REMARK H PARENT
REMARK Flexibility Score: 60.00
ROOT
ATOM      1  C   UNL     1     158.159 155.987 143.755  1.00  0.00    -0.070 C 
ATOM      2  C   UNL     1     158.504 155.112 144.726  1.00  0.00    -0.027 C 
ATOM      3  C   UNL     1     159.261 156.767 143.084  1.00  0.00     0.039 C 
ENDROOT
BRANCH   2   4
ATOM      4  C   UNL     1     157.561 154.173 145.444  1.00  0.00     0.032 C 
BRANCH   4   5
ATOM      5  C   UNL     1     157.393 152.791 144.780  1.00  0.00     0.034 C 
BRANCH   5   6
ATOM      6  C   UNL     1     155.940 152.387 144.599  1.00  0.00    -0.077 C 
ATOM      7  C   UNL     1     155.195 151.888 145.811  1.00  0.00     0.039 C 
ATOM      8  C   UNL     1     155.252 152.512 143.438  1.00  0.00    -0.023 CG0
ATOM      9  G   UNL     1     155.794 152.970 142.098  1.00  0.00     0.000 G0
ENDBRANCH   5   6
ENDBRANCH   4   5
ENDBRANCH   2   4
BRANCH   1  10
ATOM     10  C   UNL     1     156.740 156.149 143.248  1.00  0.00     0.111 C 
BRANCH  10  11
ATOM     11  C   UNL     1     156.532 155.427 141.942  1.00  0.00     0.163 C 
ATOM     12  O   UNL     1     157.337 155.660 141.000  1.00  0.00    -0.294 OA
BRANCH  11  13
ATOM     13  C   UNL     1     155.454 154.412 141.750  1.00  0.00    -0.002 C 
ATOM     14  C   UNL     1     154.245 154.769 141.219  1.00  0.00    -0.069 C 
ATOM     15  C   UNL     1     153.900 156.218 140.957  1.00  0.00     0.039 C 
ATOM     16  C   UNL     1     153.191 153.741 140.867  1.00  0.00     0.039 C 
BRANCH  13  17
ATOM     17  C   UNL     1     155.793 152.967 142.077  1.00  0.00     0.066 CG0
ATOM     18  G   UNL     1     155.256 152.542 143.430  1.00  0.00     0.000 G0
ENDBRANCH  13  17
ENDBRANCH  11  13
ENDBRANCH  10  11
ENDBRANCH   1  10
TORSDOF 0
ENDMDL
MODEL 9
REMARK VINA RESULT:    -1.608     20.800     21.965
REMARK INTER + INTRA:          -2.020
REMARK INTER:                  -2.443
REMARK INTRA:                   0.423
REMARK UNBOUND:                 0.246
REMARK SMILES CC1=CCC(=C(C)C)C(=O)CC(C)=CCC1
REMARK SMILES IDX 12 1 14 2 13 3 15 4 16 5 2 6 1 7 3 8 11 10 9 11 10 12 5 13
REMARK SMILES IDX 6 14 7 15 8 16 4 17
REMARK H PARENT
REMARK Flexibility Score: 60.00
ROOT
ATOM      1  C   UNL     1     166.641 168.251 145.944  1.00  0.00    -0.070 C 
ATOM      2  C   UNL     1     165.919 169.190 145.293  1.00  0.00    -0.027 C 
ATOM      3  C   UNL     1     167.027 167.006 145.186  1.00  0.00     0.039 C 
ENDROOT
BRANCH   2   4
ATOM      4  C   UNL     1     165.521 170.539 145.848  1.00  0.00     0.032 C 
BRANCH   4   5
ATOM      5  C   UNL     1     166.147 171.748 145.123  1.00  0.00     0.034 C 
BRANCH   5   6
ATOM      6  C   UNL     1     167.635 171.587 144.868  1.00  0.00    -0.077 C 
ATOM      7  C   UNL     1     168.101 171.547 143.434  1.00  0.00     0.039 C 
ATOM      8  C   UNL     1     168.578 171.547 145.842  1.00  0.00    -0.023 CG0
ATOM      9  G   UNL     1     168.345 171.553 147.340  1.00  0.00     0.000 G0
ENDBRANCH   5   6
ENDBRANCH   4   5
ENDBRANCH   2   4
BRANCH   1  10
ATOM     10  C   UNL     1     167.156 168.430 147.358  1.00  0.00     0.111 C 
BRANCH  10  11
ATOM     11  C   UNL     1     168.556 168.987 147.372  1.00  0.00     0.163 C 
ATOM     12  O   UNL     1     169.457 168.343 146.769  1.00  0.00    -0.294 OA
BRANCH  11  13
ATOM     13  C   UNL     1     168.894 170.291 148.016  1.00  0.00    -0.002 C 
ATOM     14  C   UNL     1     169.715 170.338 149.109  1.00  0.00    -0.069 C 
ATOM     15  C   UNL     1     170.180 169.074 149.796  1.00  0.00     0.039 C 
ATOM     16  C   UNL     1     170.202 171.649 149.687  1.00  0.00     0.039 C 
BRANCH  13  17
ATOM     17  C   UNL     1     168.368 171.552 147.351  1.00  0.00     0.066 CG0
ATOM     18  G   UNL     1     168.570 171.538 145.848  1.00  0.00     0.000 G0
ENDBRANCH  13  17
ENDBRANCH  11  13
ENDBRANCH  10  11
ENDBRANCH   1  10
TORSDOF 0
ENDMDL
