MODEL 1
REMARK VINA RESULT:    -3.914      0.000      0.000
REMARK INTER + INTRA:          -4.889
REMARK INTER:                  -4.943
REMARK INTRA:                   0.055
REMARK UNBOUND:                 0.055
REMARK SMILES CSCC[C@H]([NH3+])C(=O)[O-]
REMARK SMILES IDX 4 1 5 2 6 3 7 7 8 8 9 9 3 10 2 11 1 12
REMARK H PARENT 6 4 6 5 6 6
REMARK Flexibility Score: inf
ROOT
ATOM      1  C   UNL     1       7.674  25.150  34.240  1.00  0.00     0.082 C 
ENDROOT
BRANCH   1   2
ATOM      2  C   UNL     1       7.708  24.454  35.618  1.00  0.00     0.228 C 
BRANCH   2   3
ATOM      3  N   UNL     1       6.452  24.650  36.358  1.00  0.00    -0.350 N 
ATOM      4  H   UNL     1       6.504  24.161  37.282  1.00  0.00     0.345 HD
ATOM      5  H   UNL     1       6.271  25.667  36.519  1.00  0.00     0.345 HD
ATOM      6  H   UNL     1       5.653  24.235  35.826  1.00  0.00     0.345 HD
ENDBRANCH   2   3
BRANCH   2   7
ATOM      7  C   UNL     1       8.869  24.977  36.421  1.00  0.00     0.099 C 
ATOM      8  O   UNL     1       9.640  25.849  35.937  1.00  0.00    -0.544 OA
ATOM      9  O   UNL     1       9.111  24.482  37.697  1.00  0.00    -0.544 OA
ENDBRANCH   2   7
ENDBRANCH   1   2
BRANCH   1  10
ATOM     10  C   UNL     1       7.439  24.165  33.087  1.00  0.00     0.076 C 
BRANCH  10  11
ATOM     11  S   UNL     1       8.988  23.878  32.158  1.00  0.00    -0.165 SA
ATOM     12  C   UNL     1       9.893  25.303  32.844  1.00  0.00     0.085 C 
ENDBRANCH  10  11
ENDBRANCH   1  10
TORSDOF 5
ENDMDL
MODEL 2
REMARK VINA RESULT:    -3.527      3.471      4.205
REMARK INTER + INTRA:          -4.400
REMARK INTER:                  -4.258
REMARK INTRA:                  -0.142
REMARK UNBOUND:                 0.055
REMARK SMILES CSCC[C@H]([NH3+])C(=O)[O-]
REMARK SMILES IDX 4 1 5 2 6 3 7 7 8 8 9 9 3 10 2 11 1 12
REMARK H PARENT 6 4 6 5 6 6
REMARK Flexibility Score: inf
ROOT
ATOM      1  C   UNL     1       7.917  25.640  34.161  1.00  0.00     0.082 C 
ENDROOT
BRANCH   1   2
ATOM      2  C   UNL     1       9.153  24.972  33.522  1.00  0.00     0.228 C 
BRANCH   2   3
ATOM      3  N   UNL     1      10.250  25.931  33.327  1.00  0.00    -0.350 N 
ATOM      4  H   UNL     1      10.988  25.509  32.716  1.00  0.00     0.345 HD
ATOM      5  H   UNL     1       9.900  26.811  32.882  1.00  0.00     0.345 HD
ATOM      6  H   UNL     1      10.695  26.161  34.244  1.00  0.00     0.345 HD
ENDBRANCH   2   3
BRANCH   2   7
ATOM      7  C   UNL     1       8.769  24.350  32.206  1.00  0.00     0.099 C 
ATOM      8  O   UNL     1       9.651  23.875  31.441  1.00  0.00    -0.544 OA
ATOM      9  O   UNL     1       7.436  24.315  31.817  1.00  0.00    -0.544 OA
ENDBRANCH   2   7
ENDBRANCH   1   2
BRANCH   1  10
ATOM     10  C   UNL     1       7.528  25.003  35.501  1.00  0.00     0.076 C 
BRANCH  10  11
ATOM     11  S   UNL     1       8.844  23.876  36.086  1.00  0.00    -0.165 SA
ATOM     12  C   UNL     1       9.020  24.624  37.739  1.00  0.00     0.085 C 
ENDBRANCH  10  11
ENDBRANCH   1  10
TORSDOF 5
ENDMDL
MODEL 3
REMARK VINA RESULT:    -2.445      3.450      4.357
REMARK INTER + INTRA:          -3.034
REMARK INTER:                  -2.880
REMARK INTRA:                  -0.153
REMARK UNBOUND:                 0.055
REMARK SMILES CSCC[C@H]([NH3+])C(=O)[O-]
REMARK SMILES IDX 4 1 5 2 6 3 7 7 8 8 9 9 3 10 2 11 1 12
REMARK H PARENT 6 4 6 5 6 6
REMARK Flexibility Score: inf
ROOT
ATOM      1  C   UNL     1       9.378  24.664  34.366  1.00  0.00     0.082 C 
ENDROOT
BRANCH   1   2
ATOM      2  C   UNL     1       8.841  23.922  33.122  1.00  0.00     0.228 C 
BRANCH   2   3
ATOM      3  N   UNL     1       9.840  23.875  32.043  1.00  0.00    -0.350 N 
ATOM      4  H   UNL     1      10.429  23.016  32.141  1.00  0.00     0.345 HD
ATOM      5  H   UNL     1       9.374  23.866  31.106  1.00  0.00     0.345 HD
ATOM      6  H   UNL     1      10.476  24.702  32.106  1.00  0.00     0.345 HD
ENDBRANCH   2   3
BRANCH   2   7
ATOM      7  C   UNL     1       7.584  24.593  32.635  1.00  0.00     0.099 C 
ATOM      8  O   UNL     1       6.834  24.018  31.802  1.00  0.00    -0.544 OA
ATOM      9  O   UNL     1       7.256  25.865  33.089  1.00  0.00    -0.544 OA
ENDBRANCH   2   7
ENDBRANCH   1   2
BRANCH   1  10
ATOM     10  C   UNL     1       9.154  23.878  35.664  1.00  0.00     0.076 C 
BRANCH  10  11
ATOM     11  S   UNL     1       8.650  24.998  37.018  1.00  0.00    -0.165 SA
ATOM     12  C   UNL     1       6.870  24.987  36.627  1.00  0.00     0.085 C 
ENDBRANCH  10  11
ENDBRANCH   1  10
TORSDOF 5
ENDMDL
MODEL 4
REMARK VINA RESULT:    -2.292     14.692     15.181
REMARK INTER + INTRA:          -2.840
REMARK INTER:                  -2.765
REMARK INTRA:                  -0.076
REMARK UNBOUND:                 0.055
REMARK SMILES CSCC[C@H]([NH3+])C(=O)[O-]
REMARK SMILES IDX 4 1 5 2 6 3 7 7 8 8 9 9 3 10 2 11 1 12
REMARK H PARENT 6 4 6 5 6 6
REMARK Flexibility Score: inf
ROOT
ATOM      1  C   UNL     1       9.885  39.796  34.333  1.00  0.00     0.082 C 
ENDROOT
BRANCH   1   2
ATOM      2  C   UNL     1       8.492  39.765  33.666  1.00  0.00     0.228 C 
BRANCH   2   3
ATOM      3  N   UNL     1       8.447  40.608  32.462  1.00  0.00    -0.350 N 
ATOM      4  H   UNL     1       7.612  40.358  31.884  1.00  0.00     0.345 HD
ATOM      5  H   UNL     1       8.394  41.621  32.719  1.00  0.00     0.345 HD
ATOM      6  H   UNL     1       9.296  40.444  31.875  1.00  0.00     0.345 HD
ENDBRANCH   2   3
BRANCH   2   7
ATOM      7  C   UNL     1       7.448  40.215  34.653  1.00  0.00     0.099 C 
ATOM      8  O   UNL     1       7.725  41.081  35.526  1.00  0.00    -0.544 OA
ATOM      9  O   UNL     1       6.176  39.659  34.620  1.00  0.00    -0.544 OA
ENDBRANCH   2   7
ENDBRANCH   1   2
BRANCH   1  10
ATOM     10  C   UNL     1      10.247  38.465  35.003  1.00  0.00     0.076 C 
BRANCH  10  11
ATOM     11  S   UNL     1      11.936  38.533  35.703  1.00  0.00    -0.165 SA
ATOM     12  C   UNL     1      11.603  37.436  37.120  1.00  0.00     0.085 C 
ENDBRANCH  10  11
ENDBRANCH   1  10
TORSDOF 5
ENDMDL
MODEL 5
REMARK VINA RESULT:    -1.313     14.756     15.229
REMARK INTER + INTRA:          -1.604
REMARK INTER:                  -1.471
REMARK INTRA:                  -0.133
REMARK UNBOUND:                 0.055
REMARK SMILES CSCC[C@H]([NH3+])C(=O)[O-]
REMARK SMILES IDX 4 1 5 2 6 3 7 7 8 8 9 9 3 10 2 11 1 12
REMARK H PARENT 6 4 6 5 6 6
REMARK Flexibility Score: inf
ROOT
ATOM      1  C   UNL     1       9.672  38.879  33.619  1.00  0.00     0.082 C 
ENDROOT
BRANCH   1   2
ATOM      2  C   UNL     1       8.373  39.678  33.860  1.00  0.00     0.228 C 
BRANCH   2   3
ATOM      3  N   UNL     1       7.709  40.030  32.597  1.00  0.00    -0.350 N 
ATOM      4  H   UNL     1       6.820  39.488  32.499  1.00  0.00     0.345 HD
ATOM      5  H   UNL     1       7.491  41.053  32.564  1.00  0.00     0.345 HD
ATOM      6  H   UNL     1       8.320  39.780  31.786  1.00  0.00     0.345 HD
ENDBRANCH   2   3
BRANCH   2   7
ATOM      7  C   UNL     1       8.684  40.924  34.647  1.00  0.00     0.099 C 
ATOM      8  O   UNL     1       9.461  41.799  34.178  1.00  0.00    -0.544 OA
ATOM      9  O   UNL     1       8.130  41.105  35.908  1.00  0.00    -0.544 OA
ENDBRANCH   2   7
ENDBRANCH   1   2
BRANCH   1  10
ATOM     10  C   UNL     1      10.081  38.037  34.835  1.00  0.00     0.076 C 
BRANCH  10  11
ATOM     11  S   UNL     1      11.560  38.747  35.644  1.00  0.00    -0.165 SA
ATOM     12  C   UNL     1      11.673  37.500  36.969  1.00  0.00     0.085 C 
ENDBRANCH  10  11
ENDBRANCH   1  10
TORSDOF 5
ENDMDL
MODEL 6
REMARK VINA RESULT:    -1.286     14.673     15.261
REMARK INTER + INTRA:          -1.569
REMARK INTER:                  -1.530
REMARK INTRA:                  -0.039
REMARK UNBOUND:                 0.055
REMARK SMILES CSCC[C@H]([NH3+])C(=O)[O-]
REMARK SMILES IDX 4 1 5 2 6 3 7 7 8 8 9 9 3 10 2 11 1 12
REMARK H PARENT 6 4 6 5 6 6
REMARK Flexibility Score: inf
ROOT
ATOM      1  C   UNL     1       9.344  38.993  34.521  1.00  0.00     0.082 C 
ENDROOT
BRANCH   1   2
ATOM      2  C   UNL     1       8.787  40.382  34.138  1.00  0.00     0.228 C 
BRANCH   2   3
ATOM      3  N   UNL     1       7.986  40.965  35.224  1.00  0.00    -0.350 N 
ATOM      4  H   UNL     1       8.617  41.386  35.944  1.00  0.00     0.345 HD
ATOM      5  H   UNL     1       7.345  41.706  34.856  1.00  0.00     0.345 HD
ATOM      6  H   UNL     1       7.422  40.222  35.695  1.00  0.00     0.345 HD
ENDBRANCH   2   3
BRANCH   2   7
ATOM      7  C   UNL     1       7.958  40.267  32.886  1.00  0.00     0.099 C 
ATOM      8  O   UNL     1       6.775  39.836  32.940  1.00  0.00    -0.544 OA
ATOM      9  O   UNL     1       8.504  40.616  31.657  1.00  0.00    -0.544 OA
ENDBRANCH   2   7
ENDBRANCH   1   2
BRANCH   1  10
ATOM     10  C   UNL     1      10.609  39.083  35.385  1.00  0.00     0.076 C 
BRANCH  10  11
ATOM     11  S   UNL     1      11.269  37.414  35.738  1.00  0.00    -0.165 SA
ATOM     12  C   UNL     1      11.595  37.706  37.507  1.00  0.00     0.085 C 
ENDBRANCH  10  11
ENDBRANCH   1  10
TORSDOF 5
ENDMDL
MODEL 7
REMARK VINA RESULT:    -1.030     14.077     14.491
REMARK INTER + INTRA:          -1.247
REMARK INTER:                  -1.194
REMARK INTRA:                  -0.053
REMARK UNBOUND:                 0.055
REMARK SMILES CSCC[C@H]([NH3+])C(=O)[O-]
REMARK SMILES IDX 4 1 5 2 6 3 7 7 8 8 9 9 3 10 2 11 1 12
REMARK H PARENT 6 4 6 5 6 6
REMARK Flexibility Score: inf
ROOT
ATOM      1  C   UNL     1      10.294  39.107  34.864  1.00  0.00     0.082 C 
ENDROOT
BRANCH   1   2
ATOM      2  C   UNL     1      11.423  38.987  35.910  1.00  0.00     0.228 C 
BRANCH   2   3
ATOM      3  N   UNL     1      12.750  39.171  35.303  1.00  0.00    -0.350 N 
ATOM      4  H   UNL     1      12.839  40.145  34.933  1.00  0.00     0.345 HD
ATOM      5  H   UNL     1      13.506  39.001  36.006  1.00  0.00     0.345 HD
ATOM      6  H   UNL     1      12.871  38.515  34.498  1.00  0.00     0.345 HD
ENDBRANCH   2   3
BRANCH   2   7
ATOM      7  C   UNL     1      11.345  37.644  36.587  1.00  0.00     0.099 C 
ATOM      8  O   UNL     1      11.781  37.493  37.760  1.00  0.00    -0.544 OA
ATOM      9  O   UNL     1      10.808  36.556  35.911  1.00  0.00    -0.544 OA
ENDBRANCH   2   7
ENDBRANCH   1   2
BRANCH   1  10
ATOM     10  C   UNL     1       9.299  40.227  35.196  1.00  0.00     0.076 C 
BRANCH  10  11
ATOM     11  S   UNL     1       7.710  39.955  34.332  1.00  0.00    -0.165 SA
ATOM     12  C   UNL     1       8.396  40.002  32.644  1.00  0.00     0.085 C 
ENDBRANCH  10  11
ENDBRANCH   1  10
TORSDOF 5
ENDMDL
