MODEL 1
REMARK VINA RESULT:    -6.242      0.000      0.000
REMARK INTER + INTRA:         -18.615
REMARK INTER:                 -16.459
REMARK INTRA:                  -2.156
REMARK UNBOUND:                -2.156
REMARK SMILES CCCCCCCCCCCCCCCCCCCCCCCCCCCCCC(=O)[O-]
REMARK SMILES IDX 16 1 17 2 18 3 19 4 20 5 21 6 22 7 23 8 24 9 25 10 26 11
REMARK SMILES IDX 27 12 28 13 29 14 30 15 31 16 32 17 15 18 14 19 13 20 12 21
REMARK SMILES IDX 11 22 10 23 9 24 8 25 7 26 6 27 5 28 4 29 3 30 2 31 1 32
REMARK H PARENT
REMARK Flexibility Score: inf
ROOT
ATOM      1  C   UNL     1      -8.953  62.721  46.835  1.00  0.00     0.000 C 
ENDROOT
BRANCH   1   2
ATOM      2  C   UNL     1      -9.221  64.043  47.571  1.00  0.00     0.000 C 
BRANCH   2   3
ATOM      3  C   UNL     1      -9.147  63.893  49.106  1.00  0.00     0.000 C 
BRANCH   3   4
ATOM      4  C   UNL     1      -7.715  63.719  49.646  1.00  0.00     0.000 C 
BRANCH   4   5
ATOM      5  C   UNL     1      -6.810  64.956  49.517  1.00  0.00     0.000 C 
BRANCH   5   6
ATOM      6  C   UNL     1      -5.806  65.080  50.676  1.00  0.00     0.000 C 
BRANCH   6   7
ATOM      7  C   UNL     1      -6.183  66.183  51.682  1.00  0.00     0.000 C 
BRANCH   7   8
ATOM      8  C   UNL     1      -6.548  65.687  53.096  1.00  0.00     0.000 C 
BRANCH   8   9
ATOM      9  C   UNL     1      -6.555  64.155  53.271  1.00  0.00     0.000 C 
BRANCH   9  10
ATOM     10  C   UNL     1      -7.953  63.514  53.379  1.00  0.00     0.000 C 
BRANCH  10  11
ATOM     11  C   UNL     1      -8.059  62.339  54.369  1.00  0.00     0.000 C 
BRANCH  11  12
ATOM     12  C   UNL     1      -6.699  61.934  54.964  1.00  0.00     0.000 C 
BRANCH  12  13
ATOM     13  C   UNL     1      -6.230  60.546  54.488  1.00  0.00     0.006 C 
BRANCH  13  14
ATOM     14  C   UNL     1      -5.955  59.544  55.622  1.00  0.00     0.053 C 
BRANCH  14  15
ATOM     15  C   UNL     1      -4.504  59.497  55.992  1.00  0.00     0.041 C 
ATOM     16  O   UNL     1      -4.027  58.480  56.559  1.00  0.00    -0.550 OA
ATOM     17  O   UNL     1      -3.685  60.588  55.734  1.00  0.00    -0.550 OA
ENDBRANCH  14  15
ENDBRANCH  13  14
ENDBRANCH  12  13
ENDBRANCH  11  12
ENDBRANCH  10  11
ENDBRANCH   9  10
ENDBRANCH   8   9
ENDBRANCH   7   8
ENDBRANCH   6   7
ENDBRANCH   5   6
ENDBRANCH   4   5
ENDBRANCH   3   4
ENDBRANCH   2   3
ENDBRANCH   1   2
BRANCH   1  18
ATOM     18  C   UNL     1      -9.218  62.871  45.329  1.00  0.00     0.000 C 
BRANCH  18  19
ATOM     19  C   UNL     1      -9.617  61.538  44.672  1.00  0.00     0.000 C 
BRANCH  19  20
ATOM     20  C   UNL     1     -10.395  61.713  43.351  1.00  0.00     0.000 C 
BRANCH  20  21
ATOM     21  C   UNL     1      -9.605  62.445  42.245  1.00  0.00     0.000 C 
BRANCH  21  22
ATOM     22  C   UNL     1      -9.961  63.940  42.097  1.00  0.00     0.000 C 
BRANCH  22  23
ATOM     23  C   UNL     1      -9.054  64.694  41.101  1.00  0.00     0.000 C 
BRANCH  23  24
ATOM     24  C   UNL     1      -8.767  63.922  39.800  1.00  0.00    -0.000 C 
BRANCH  24  25
ATOM     25  C   UNL     1      -9.948  63.896  38.806  1.00  0.00    -0.000 C 
BRANCH  25  26
ATOM     26  C   UNL     1     -10.469  62.489  38.448  1.00  0.00    -0.000 C 
BRANCH  26  27
ATOM     27  C   UNL     1     -11.898  62.159  38.931  1.00  0.00    -0.000 C 
BRANCH  27  28
ATOM     28  C   UNL     1     -12.002  61.031  39.974  1.00  0.00    -0.000 C 
BRANCH  28  29
ATOM     29  C   UNL     1     -13.032  59.955  39.590  1.00  0.00    -0.000 C 
BRANCH  29  30
ATOM     30  C   UNL     1     -14.079  60.459  38.579  1.00  0.00    -0.000 C 
BRANCH  30  31
ATOM     31  C   UNL     1     -15.403  60.942  39.199  1.00  0.00    -0.003 C 
ATOM     32  C   UNL     1     -16.577  60.009  38.905  1.00  0.00     0.004 C 
ENDBRANCH  30  31
ENDBRANCH  29  30
ENDBRANCH  28  29
ENDBRANCH  27  28
ENDBRANCH  26  27
ENDBRANCH  25  26
ENDBRANCH  24  25
ENDBRANCH  23  24
ENDBRANCH  22  23
ENDBRANCH  21  22
ENDBRANCH  20  21
ENDBRANCH  19  20
ENDBRANCH  18  19
ENDBRANCH   1  18
TORSDOF 28
ENDMDL
MODEL 2
REMARK VINA RESULT:    -6.193      4.441     13.830
REMARK INTER + INTRA:         -18.485
REMARK INTER:                 -16.080
REMARK INTRA:                  -2.405
REMARK UNBOUND:                -2.156
REMARK SMILES CCCCCCCCCCCCCCCCCCCCCCCCCCCCCC(=O)[O-]
REMARK SMILES IDX 16 1 17 2 18 3 19 4 20 5 21 6 22 7 23 8 24 9 25 10 26 11
REMARK SMILES IDX 27 12 28 13 29 14 30 15 31 16 32 17 15 18 14 19 13 20 12 21
REMARK SMILES IDX 11 22 10 23 9 24 8 25 7 26 6 27 5 28 4 29 3 30 2 31 1 32
REMARK H PARENT
REMARK Flexibility Score: inf
ROOT
ATOM      1  C   UNL     1      -9.188  62.967  45.413  1.00  0.00     0.000 C 
ENDROOT
BRANCH   1   2
ATOM      2  C   UNL     1      -9.569  61.639  44.741  1.00  0.00     0.000 C 
BRANCH   2   3
ATOM      3  C   UNL     1     -10.335  61.843  43.417  1.00  0.00     0.000 C 
BRANCH   3   4
ATOM      4  C   UNL     1      -9.560  62.664  42.368  1.00  0.00     0.000 C 
BRANCH   4   5
ATOM      5  C   UNL     1     -10.121  64.069  42.090  1.00  0.00     0.000 C 
BRANCH   5   6
ATOM      6  C   UNL     1      -9.081  65.007  41.454  1.00  0.00     0.000 C 
BRANCH   6   7
ATOM      7  C   UNL     1      -8.457  64.431  40.171  1.00  0.00     0.000 C 
BRANCH   7   8
ATOM      8  C   UNL     1      -9.425  64.274  38.981  1.00  0.00     0.000 C 
BRANCH   8   9
ATOM      9  C   UNL     1      -9.785  62.820  38.616  1.00  0.00     0.000 C 
BRANCH   9  10
ATOM     10  C   UNL     1     -11.271  62.575  38.288  1.00  0.00     0.000 C 
BRANCH  10  11
ATOM     11  C   UNL     1     -12.269  63.105  39.335  1.00  0.00     0.000 C 
BRANCH  11  12
ATOM     12  C   UNL     1     -13.735  62.961  38.890  1.00  0.00     0.000 C 
BRANCH  12  13
ATOM     13  C   UNL     1     -14.173  61.490  38.749  1.00  0.00     0.006 C 
BRANCH  13  14
ATOM     14  C   UNL     1     -14.555  60.811  40.075  1.00  0.00     0.053 C 
BRANCH  14  15
ATOM     15  C   UNL     1     -13.377  60.158  40.732  1.00  0.00     0.041 C 
ATOM     16  O   UNL     1     -13.216  60.247  41.977  1.00  0.00    -0.550 OA
ATOM     17  O   UNL     1     -12.444  59.473  39.965  1.00  0.00    -0.550 OA
ENDBRANCH  14  15
ENDBRANCH  13  14
ENDBRANCH  12  13
ENDBRANCH  11  12
ENDBRANCH  10  11
ENDBRANCH   9  10
ENDBRANCH   8   9
ENDBRANCH   7   8
ENDBRANCH   6   7
ENDBRANCH   5   6
ENDBRANCH   4   5
ENDBRANCH   3   4
ENDBRANCH   2   3
ENDBRANCH   1   2
BRANCH   1  18
ATOM     18  C   UNL     1      -9.209  62.831  46.944  1.00  0.00     0.000 C 
BRANCH  18  19
ATOM     19  C   UNL     1      -9.280  64.196  47.650  1.00  0.00     0.000 C 
BRANCH  19  20
ATOM     20  C   UNL     1      -8.831  64.148  49.126  1.00  0.00     0.000 C 
BRANCH  20  21
ATOM     21  C   UNL     1      -7.588  63.269  49.380  1.00  0.00     0.000 C 
BRANCH  21  22
ATOM     22  C   UNL     1      -6.410  64.016  50.040  1.00  0.00     0.000 C 
BRANCH  22  23
ATOM     23  C   UNL     1      -6.833  65.299  50.786  1.00  0.00     0.000 C 
BRANCH  23  24
ATOM     24  C   UNL     1      -6.712  65.207  52.318  1.00  0.00    -0.000 C 
BRANCH  24  25
ATOM     25  C   UNL     1      -7.877  64.457  53.001  1.00  0.00    -0.000 C 
BRANCH  25  26
ATOM     26  C   UNL     1      -7.527  63.049  53.525  1.00  0.00    -0.000 C 
BRANCH  26  27
ATOM     27  C   UNL     1      -6.076  62.581  53.281  1.00  0.00    -0.000 C 
BRANCH  27  28
ATOM     28  C   UNL     1      -5.686  61.250  53.948  1.00  0.00    -0.000 C 
BRANCH  28  29
ATOM     29  C   UNL     1      -6.326  61.066  55.334  1.00  0.00    -0.000 C 
BRANCH  29  30
ATOM     30  C   UNL     1      -6.178  59.633  55.879  1.00  0.00    -0.000 C 
BRANCH  30  31
ATOM     31  C   UNL     1      -4.959  59.405  56.790  1.00  0.00    -0.003 C 
ATOM     32  C   UNL     1      -3.885  58.529  56.145  1.00  0.00     0.004 C 
ENDBRANCH  30  31
ENDBRANCH  29  30
ENDBRANCH  28  29
ENDBRANCH  27  28
ENDBRANCH  26  27
ENDBRANCH  25  26
ENDBRANCH  24  25
ENDBRANCH  23  24
ENDBRANCH  22  23
ENDBRANCH  21  22
ENDBRANCH  20  21
ENDBRANCH  19  20
ENDBRANCH  18  19
ENDBRANCH   1  18
TORSDOF 28
ENDMDL
MODEL 3
REMARK VINA RESULT:    -6.189      4.550     13.285
REMARK INTER + INTRA:         -18.475
REMARK INTER:                 -15.296
REMARK INTRA:                  -3.180
REMARK UNBOUND:                -2.156
REMARK SMILES CCCCCCCCCCCCCCCCCCCCCCCCCCCCCC(=O)[O-]
REMARK SMILES IDX 16 1 17 2 18 3 19 4 20 5 21 6 22 7 23 8 24 9 25 10 26 11
REMARK SMILES IDX 27 12 28 13 29 14 30 15 31 16 32 17 15 18 14 19 13 20 12 21
REMARK SMILES IDX 11 22 10 23 9 24 8 25 7 26 6 27 5 28 4 29 3 30 2 31 1 32
REMARK H PARENT
REMARK Flexibility Score: inf
ROOT
ATOM      1  C   UNL     1      -9.581  64.177  48.108  1.00  0.00     0.000 C 
ENDROOT
BRANCH   1   2
ATOM      2  C   UNL     1      -8.882  64.780  46.879  1.00  0.00     0.000 C 
BRANCH   2   3
ATOM      3  C   UNL     1      -8.955  63.856  45.644  1.00  0.00     0.000 C 
BRANCH   3   4
ATOM      4  C   UNL     1      -9.137  62.366  45.990  1.00  0.00     0.000 C 
BRANCH   4   5
ATOM      5  C   UNL     1      -9.267  61.422  44.782  1.00  0.00     0.000 C 
BRANCH   5   6
ATOM      6  C   UNL     1     -10.301  61.913  43.754  1.00  0.00     0.000 C 
BRANCH   6   7
ATOM      7  C   UNL     1      -9.657  62.455  42.466  1.00  0.00     0.000 C 
BRANCH   7   8
ATOM      8  C   UNL     1     -10.024  63.911  42.111  1.00  0.00     0.000 C 
BRANCH   8   9
ATOM      9  C   UNL     1      -9.020  64.633  41.189  1.00  0.00     0.000 C 
BRANCH   9  10
ATOM     10  C   UNL     1      -8.823  63.987  39.803  1.00  0.00     0.000 C 
BRANCH  10  11
ATOM     11  C   UNL     1     -10.094  63.890  38.939  1.00  0.00     0.000 C 
BRANCH  11  12
ATOM     12  C   UNL     1     -10.503  62.436  38.639  1.00  0.00     0.000 C 
BRANCH  12  13
ATOM     13  C   UNL     1     -11.841  62.047  39.296  1.00  0.00     0.006 C 
BRANCH  13  14
ATOM     14  C   UNL     1     -11.793  60.743  40.110  1.00  0.00     0.053 C 
BRANCH  14  15
ATOM     15  C   UNL     1     -13.143  60.357  40.634  1.00  0.00     0.041 C 
ATOM     16  O   UNL     1     -14.147  60.379  39.877  1.00  0.00    -0.550 OA
ATOM     17  O   UNL     1     -13.295  60.000  41.968  1.00  0.00    -0.550 OA
ENDBRANCH  14  15
ENDBRANCH  13  14
ENDBRANCH  12  13
ENDBRANCH  11  12
ENDBRANCH  10  11
ENDBRANCH   9  10
ENDBRANCH   8   9
ENDBRANCH   7   8
ENDBRANCH   6   7
ENDBRANCH   5   6
ENDBRANCH   4   5
ENDBRANCH   3   4
ENDBRANCH   2   3
ENDBRANCH   1   2
BRANCH   1  18
ATOM     18  C   UNL     1      -8.750  64.415  49.378  1.00  0.00     0.000 C 
BRANCH  18  19
ATOM     19  C   UNL     1      -7.706  63.308  49.608  1.00  0.00     0.000 C 
BRANCH  19  20
ATOM     20  C   UNL     1      -6.249  63.812  49.535  1.00  0.00     0.000 C 
BRANCH  20  21
ATOM     21  C   UNL     1      -6.119  65.340  49.362  1.00  0.00     0.000 C 
BRANCH  21  22
ATOM     22  C   UNL     1      -5.267  66.030  50.449  1.00  0.00     0.000 C 
BRANCH  22  23
ATOM     23  C   UNL     1      -6.106  66.750  51.526  1.00  0.00     0.000 C 
BRANCH  23  24
ATOM     24  C   UNL     1      -6.351  65.915  52.796  1.00  0.00    -0.000 C 
BRANCH  24  25
ATOM     25  C   UNL     1      -7.728  65.216  52.839  1.00  0.00    -0.000 C 
BRANCH  25  26
ATOM     26  C   UNL     1      -7.773  63.911  53.659  1.00  0.00    -0.000 C 
BRANCH  26  27
ATOM     27  C   UNL     1      -7.203  62.657  52.960  1.00  0.00    -0.000 C 
BRANCH  27  28
ATOM     28  C   UNL     1      -7.322  61.343  53.753  1.00  0.00    -0.000 C 
BRANCH  28  29
ATOM     29  C   UNL     1      -6.992  61.514  55.245  1.00  0.00    -0.000 C 
BRANCH  29  30
ATOM     30  C   UNL     1      -5.559  61.071  55.598  1.00  0.00    -0.000 C 
BRANCH  30  31
ATOM     31  C   UNL     1      -5.262  59.579  55.362  1.00  0.00    -0.003 C 
ATOM     32  C   UNL     1      -6.298  58.654  56.001  1.00  0.00     0.004 C 
ENDBRANCH  30  31
ENDBRANCH  29  30
ENDBRANCH  28  29
ENDBRANCH  27  28
ENDBRANCH  26  27
ENDBRANCH  25  26
ENDBRANCH  24  25
ENDBRANCH  23  24
ENDBRANCH  22  23
ENDBRANCH  21  22
ENDBRANCH  20  21
ENDBRANCH  19  20
ENDBRANCH  18  19
ENDBRANCH   1  18
TORSDOF 28
ENDMDL
MODEL 4
REMARK VINA RESULT:    -6.128      5.542     13.810
REMARK INTER + INTRA:         -18.314
REMARK INTER:                 -16.303
REMARK INTRA:                  -2.011
REMARK UNBOUND:                -2.156
REMARK SMILES CCCCCCCCCCCCCCCCCCCCCCCCCCCCCC(=O)[O-]
REMARK SMILES IDX 16 1 17 2 18 3 19 4 20 5 21 6 22 7 23 8 24 9 25 10 26 11
REMARK SMILES IDX 27 12 28 13 29 14 30 15 31 16 32 17 15 18 14 19 13 20 12 21
REMARK SMILES IDX 11 22 10 23 9 24 8 25 7 26 6 27 5 28 4 29 3 30 2 31 1 32
REMARK H PARENT
REMARK Flexibility Score: inf
ROOT
ATOM      1  C   UNL     1      -9.545  63.673  41.911  1.00  0.00     0.000 C 
ENDROOT
BRANCH   1   2
ATOM      2  C   UNL     1      -9.886  65.140  41.604  1.00  0.00     0.000 C 
BRANCH   2   3
ATOM      3  C   UNL     1      -8.631  66.037  41.535  1.00  0.00     0.000 C 
BRANCH   3   4
ATOM      4  C   UNL     1      -7.776  65.816  40.273  1.00  0.00     0.000 C 
BRANCH   4   5
ATOM      5  C   UNL     1      -8.503  66.050  38.938  1.00  0.00     0.000 C 
BRANCH   5   6
ATOM      6  C   UNL     1      -8.593  64.777  38.079  1.00  0.00     0.000 C 
BRANCH   6   7
ATOM      7  C   UNL     1      -9.964  64.084  38.173  1.00  0.00     0.000 C 
BRANCH   7   8
ATOM      8  C   UNL     1      -9.925  62.610  38.625  1.00  0.00     0.000 C 
BRANCH   8   9
ATOM      9  C   UNL     1     -11.295  61.998  38.981  1.00  0.00     0.000 C 
BRANCH   9  10
ATOM     10  C   UNL     1     -11.274  60.970  40.130  1.00  0.00     0.000 C 
BRANCH  10  11
ATOM     11  C   UNL     1     -12.441  59.964  40.130  1.00  0.00     0.000 C 
BRANCH  11  12
ATOM     12  C   UNL     1     -13.428  60.194  38.971  1.00  0.00     0.000 C 
BRANCH  12  13
ATOM     13  C   UNL     1     -14.483  61.269  39.291  1.00  0.00     0.006 C 
BRANCH  13  14
ATOM     14  C   UNL     1     -15.585  61.415  38.228  1.00  0.00     0.053 C 
BRANCH  14  15
ATOM     15  C   UNL     1     -16.884  60.821  38.680  1.00  0.00     0.041 C 
ATOM     16  O   UNL     1     -17.877  61.562  38.900  1.00  0.00    -0.550 OA
ATOM     17  O   UNL     1     -16.990  59.451  38.883  1.00  0.00    -0.550 OA
ENDBRANCH  14  15
ENDBRANCH  13  14
ENDBRANCH  12  13
ENDBRANCH  11  12
ENDBRANCH  10  11
ENDBRANCH   9  10
ENDBRANCH   8   9
ENDBRANCH   7   8
ENDBRANCH   6   7
ENDBRANCH   5   6
ENDBRANCH   4   5
ENDBRANCH   3   4
ENDBRANCH   2   3
ENDBRANCH   1   2
BRANCH   1  18
ATOM     18  C   UNL     1      -9.705  63.377  43.410  1.00  0.00     0.000 C 
BRANCH  18  19
ATOM     19  C   UNL     1      -9.890  61.876  43.692  1.00  0.00     0.000 C 
BRANCH  19  20
ATOM     20  C   UNL     1      -9.557  61.478  45.146  1.00  0.00     0.000 C 
BRANCH  20  21
ATOM     21  C   UNL     1      -9.104  62.656  46.034  1.00  0.00     0.000 C 
BRANCH  21  22
ATOM     22  C   UNL     1      -8.885  62.283  47.516  1.00  0.00     0.000 C 
BRANCH  22  23
ATOM     23  C   UNL     1      -9.666  63.181  48.500  1.00  0.00     0.000 C 
BRANCH  23  24
ATOM     24  C   UNL     1      -9.122  64.617  48.610  1.00  0.00    -0.000 C 
BRANCH  24  25
ATOM     25  C   UNL     1      -7.730  64.718  49.272  1.00  0.00    -0.000 C 
BRANCH  25  26
ATOM     26  C   UNL     1      -7.740  64.731  50.814  1.00  0.00    -0.000 C 
BRANCH  26  27
ATOM     27  C   UNL     1      -6.373  64.506  51.497  1.00  0.00    -0.000 C 
BRANCH  27  28
ATOM     28  C   UNL     1      -6.431  63.924  52.921  1.00  0.00    -0.000 C 
BRANCH  28  29
ATOM     29  C   UNL     1      -7.865  63.622  53.386  1.00  0.00    -0.000 C 
BRANCH  29  30
ATOM     30  C   UNL     1      -7.915  62.726  54.637  1.00  0.00    -0.000 C 
BRANCH  30  31
ATOM     31  C   UNL     1      -7.302  61.325  54.460  1.00  0.00    -0.003 C 
ATOM     32  C   UNL     1      -6.168  61.039  55.444  1.00  0.00     0.004 C 
ENDBRANCH  30  31
ENDBRANCH  29  30
ENDBRANCH  28  29
ENDBRANCH  27  28
ENDBRANCH  26  27
ENDBRANCH  25  26
ENDBRANCH  24  25
ENDBRANCH  23  24
ENDBRANCH  22  23
ENDBRANCH  21  22
ENDBRANCH  20  21
ENDBRANCH  19  20
ENDBRANCH  18  19
ENDBRANCH   1  18
TORSDOF 28
ENDMDL
MODEL 5
REMARK VINA RESULT:    -6.125      0.999      2.316
REMARK INTER + INTRA:         -18.306
REMARK INTER:                 -16.355
REMARK INTRA:                  -1.951
REMARK UNBOUND:                -2.156
REMARK SMILES CCCCCCCCCCCCCCCCCCCCCCCCCCCCCC(=O)[O-]
REMARK SMILES IDX 16 1 17 2 18 3 19 4 20 5 21 6 22 7 23 8 24 9 25 10 26 11
REMARK SMILES IDX 27 12 28 13 29 14 30 15 31 16 32 17 15 18 14 19 13 20 12 21
REMARK SMILES IDX 11 22 10 23 9 24 8 25 7 26 6 27 5 28 4 29 3 30 2 31 1 32
REMARK H PARENT
REMARK Flexibility Score: inf
ROOT
ATOM      1  C   UNL     1      -9.816  61.904  44.032  1.00  0.00     0.000 C 
ENDROOT
BRANCH   1   2
ATOM      2  C   UNL     1      -9.258  62.923  45.038  1.00  0.00     0.000 C 
BRANCH   2   3
ATOM      3  C   UNL     1      -8.941  62.290  46.409  1.00  0.00     0.000 C 
BRANCH   3   4
ATOM      4  C   UNL     1      -9.234  63.217  47.605  1.00  0.00     0.000 C 
BRANCH   4   5
ATOM      5  C   UNL     1      -8.239  63.113  48.774  1.00  0.00     0.000 C 
BRANCH   5   6
ATOM      6  C   UNL     1      -8.070  64.443  49.529  1.00  0.00     0.000 C 
BRANCH   6   7
ATOM      7  C   UNL     1      -6.596  64.838  49.727  1.00  0.00     0.000 C 
BRANCH   7   8
ATOM      8  C   UNL     1      -6.242  65.374  51.130  1.00  0.00     0.000 C 
BRANCH   8   9
ATOM      9  C   UNL     1      -7.426  65.464  52.114  1.00  0.00     0.000 C 
BRANCH   9  10
ATOM     10  C   UNL     1      -7.337  64.523  53.332  1.00  0.00     0.000 C 
BRANCH  10  11
ATOM     11  C   UNL     1      -7.230  63.024  52.995  1.00  0.00     0.000 C 
BRANCH  11  12
ATOM     12  C   UNL     1      -7.814  62.121  54.096  1.00  0.00     0.000 C 
BRANCH  12  13
ATOM     13  C   UNL     1      -6.740  61.592  55.066  1.00  0.00     0.006 C 
BRANCH  13  14
ATOM     14  C   UNL     1      -6.026  60.316  54.589  1.00  0.00     0.053 C 
BRANCH  14  15
ATOM     15  C   UNL     1      -5.528  59.489  55.735  1.00  0.00     0.041 C 
ATOM     16  O   UNL     1      -6.341  58.878  56.476  1.00  0.00    -0.550 OA
ATOM     17  O   UNL     1      -4.167  59.415  56.000  1.00  0.00    -0.550 OA
ENDBRANCH  14  15
ENDBRANCH  13  14
ENDBRANCH  12  13
ENDBRANCH  11  12
ENDBRANCH  10  11
ENDBRANCH   9  10
ENDBRANCH   8   9
ENDBRANCH   7   8
ENDBRANCH   6   7
ENDBRANCH   5   6
ENDBRANCH   4   5
ENDBRANCH   3   4
ENDBRANCH   2   3
ENDBRANCH   1   2
BRANCH   1  18
ATOM     18  C   UNL     1      -9.914  62.521  42.628  1.00  0.00     0.000 C 
BRANCH  18  19
ATOM     19  C   UNL     1      -9.960  64.058  42.668  1.00  0.00     0.000 C 
BRANCH  19  20
ATOM     20  C   UNL     1      -9.857  64.712  41.273  1.00  0.00     0.000 C 
BRANCH  20  21
ATOM     21  C   UNL     1      -8.423  64.770  40.707  1.00  0.00     0.000 C 
BRANCH  21  22
ATOM     22  C   UNL     1      -8.267  64.132  39.310  1.00  0.00     0.000 C 
BRANCH  22  23
ATOM     23  C   UNL     1      -9.306  64.633  38.285  1.00  0.00     0.000 C 
BRANCH  23  24
ATOM     24  C   UNL     1     -10.349  63.576  37.877  1.00  0.00    -0.000 C 
BRANCH  24  25
ATOM     25  C   UNL     1     -11.134  62.971  39.061  1.00  0.00    -0.000 C 
BRANCH  25  26
ATOM     26  C   UNL     1     -11.374  61.450  38.976  1.00  0.00    -0.000 C 
BRANCH  26  27
ATOM     27  C   UNL     1     -11.746  60.752  40.303  1.00  0.00    -0.000 C 
BRANCH  27  28
ATOM     28  C   UNL     1     -12.943  59.787  40.233  1.00  0.00    -0.000 C 
BRANCH  28  29
ATOM     29  C   UNL     1     -14.289  60.515  40.077  1.00  0.00    -0.000 C 
BRANCH  29  30
ATOM     30  C   UNL     1     -14.859  60.425  38.649  1.00  0.00    -0.000 C 
BRANCH  30  31
ATOM     31  C   UNL     1     -15.656  61.658  38.187  1.00  0.00    -0.003 C 
ATOM     32  C   UNL     1     -14.854  62.957  38.278  1.00  0.00     0.004 C 
ENDBRANCH  30  31
ENDBRANCH  29  30
ENDBRANCH  28  29
ENDBRANCH  27  28
ENDBRANCH  26  27
ENDBRANCH  25  26
ENDBRANCH  24  25
ENDBRANCH  23  24
ENDBRANCH  22  23
ENDBRANCH  21  22
ENDBRANCH  20  21
ENDBRANCH  19  20
ENDBRANCH  18  19
ENDBRANCH   1  18
TORSDOF 28
ENDMDL
MODEL 6
REMARK VINA RESULT:    -6.119      4.495     13.471
REMARK INTER + INTRA:         -18.291
REMARK INTER:                 -15.578
REMARK INTRA:                  -2.713
REMARK UNBOUND:                -2.156
REMARK SMILES CCCCCCCCCCCCCCCCCCCCCCCCCCCCCC(=O)[O-]
REMARK SMILES IDX 16 1 17 2 18 3 19 4 20 5 21 6 22 7 23 8 24 9 25 10 26 11
REMARK SMILES IDX 27 12 28 13 29 14 30 15 31 16 32 17 15 18 14 19 13 20 12 21
REMARK SMILES IDX 11 22 10 23 9 24 8 25 7 26 6 27 5 28 4 29 3 30 2 31 1 32
REMARK H PARENT
REMARK Flexibility Score: inf
ROOT
ATOM      1  C   UNL     1      -9.225  63.000  45.910  1.00  0.00     0.000 C 
ENDROOT
BRANCH   1   2
ATOM      2  C   UNL     1      -9.062  61.822  44.938  1.00  0.00     0.000 C 
BRANCH   2   3
ATOM      3  C   UNL     1     -10.378  61.461  44.216  1.00  0.00     0.000 C 
BRANCH   3   4
ATOM      4  C   UNL     1     -10.408  61.872  42.731  1.00  0.00     0.000 C 
BRANCH   4   5
ATOM      5  C   UNL     1      -9.300  62.847  42.298  1.00  0.00     0.000 C 
BRANCH   5   6
ATOM      6  C   UNL     1      -9.842  64.241  41.939  1.00  0.00     0.000 C 
BRANCH   6   7
ATOM      7  C   UNL     1      -8.798  65.131  41.243  1.00  0.00     0.000 C 
BRANCH   7   8
ATOM      8  C   UNL     1      -8.317  64.627  39.867  1.00  0.00     0.000 C 
BRANCH   8   9
ATOM      9  C   UNL     1      -9.247  64.966  38.684  1.00  0.00     0.000 C 
BRANCH   9  10
ATOM     10  C   UNL     1      -9.781  63.750  37.901  1.00  0.00     0.000 C 
BRANCH  10  11
ATOM     11  C   UNL     1     -10.256  62.570  38.769  1.00  0.00     0.000 C 
BRANCH  11  12
ATOM     12  C   UNL     1     -11.778  62.571  38.997  1.00  0.00     0.000 C 
BRANCH  12  13
ATOM     13  C   UNL     1     -12.400  61.166  38.877  1.00  0.00     0.006 C 
BRANCH  13  14
ATOM     14  C   UNL     1     -12.231  60.287  40.127  1.00  0.00     0.053 C 
BRANCH  14  15
ATOM     15  C   UNL     1     -13.416  60.374  41.040  1.00  0.00     0.041 C 
ATOM     16  O   UNL     1     -13.316  60.022  42.244  1.00  0.00    -0.550 OA
ATOM     17  O   UNL     1     -14.638  60.821  40.553  1.00  0.00    -0.550 OA
ENDBRANCH  14  15
ENDBRANCH  13  14
ENDBRANCH  12  13
ENDBRANCH  11  12
ENDBRANCH  10  11
ENDBRANCH   9  10
ENDBRANCH   8   9
ENDBRANCH   7   8
ENDBRANCH   6   7
ENDBRANCH   5   6
ENDBRANCH   4   5
ENDBRANCH   3   4
ENDBRANCH   2   3
ENDBRANCH   1   2
BRANCH   1  18
ATOM     18  C   UNL     1      -8.893  62.571  47.348  1.00  0.00     0.000 C 
BRANCH  18  19
ATOM     19  C   UNL     1      -9.693  63.367  48.394  1.00  0.00     0.000 C 
BRANCH  19  20
ATOM     20  C   UNL     1      -8.873  64.481  49.078  1.00  0.00     0.000 C 
BRANCH  20  21
ATOM     21  C   UNL     1      -7.440  64.060  49.469  1.00  0.00     0.000 C 
BRANCH  21  22
ATOM     22  C   UNL     1      -6.430  65.226  49.520  1.00  0.00     0.000 C 
BRANCH  22  23
ATOM     23  C   UNL     1      -5.691  65.343  50.870  1.00  0.00     0.000 C 
BRANCH  23  24
ATOM     24  C   UNL     1      -6.396  66.247  51.898  1.00  0.00    -0.000 C 
BRANCH  24  25
ATOM     25  C   UNL     1      -6.756  65.539  53.222  1.00  0.00    -0.000 C 
BRANCH  25  26
ATOM     26  C   UNL     1      -7.910  64.520  53.124  1.00  0.00    -0.000 C 
BRANCH  26  27
ATOM     27  C   UNL     1      -7.655  63.150  53.789  1.00  0.00    -0.000 C 
BRANCH  27  28
ATOM     28  C   UNL     1      -6.394  62.405  53.312  1.00  0.00    -0.000 C 
BRANCH  28  29
ATOM     29  C   UNL     1      -6.244  61.014  53.952  1.00  0.00    -0.000 C 
BRANCH  29  30
ATOM     30  C   UNL     1      -6.173  61.064  55.489  1.00  0.00    -0.000 C 
BRANCH  30  31
ATOM     31  C   UNL     1      -6.303  59.701  56.192  1.00  0.00    -0.003 C 
ATOM     32  C   UNL     1      -5.175  58.733  55.833  1.00  0.00     0.004 C 
ENDBRANCH  30  31
ENDBRANCH  29  30
ENDBRANCH  28  29
ENDBRANCH  27  28
ENDBRANCH  26  27
ENDBRANCH  25  26
ENDBRANCH  24  25
ENDBRANCH  23  24
ENDBRANCH  22  23
ENDBRANCH  21  22
ENDBRANCH  20  21
ENDBRANCH  19  20
ENDBRANCH  18  19
ENDBRANCH   1  18
TORSDOF 28
ENDMDL
MODEL 7
REMARK VINA RESULT:    -6.052      1.015      2.122
REMARK INTER + INTRA:         -18.115
REMARK INTER:                 -15.421
REMARK INTRA:                  -2.694
REMARK UNBOUND:                -2.156
REMARK SMILES CCCCCCCCCCCCCCCCCCCCCCCCCCCCCC(=O)[O-]
REMARK SMILES IDX 16 1 17 2 18 3 19 4 20 5 21 6 22 7 23 8 24 9 25 10 26 11
REMARK SMILES IDX 27 12 28 13 29 14 30 15 31 16 32 17 15 18 14 19 13 20 12 21
REMARK SMILES IDX 11 22 10 23 9 24 8 25 7 26 6 27 5 28 4 29 3 30 2 31 1 32
REMARK H PARENT
REMARK Flexibility Score: inf
ROOT
ATOM      1  C   UNL     1      -9.365  63.574  48.243  1.00  0.00     0.000 C 
ENDROOT
BRANCH   1   2
ATOM      2  C   UNL     1      -8.475  63.987  49.426  1.00  0.00     0.000 C 
BRANCH   2   3
ATOM      3  C   UNL     1      -7.200  63.125  49.538  1.00  0.00     0.000 C 
BRANCH   3   4
ATOM      4  C   UNL     1      -5.892  63.939  49.505  1.00  0.00     0.000 C 
BRANCH   4   5
ATOM      5  C   UNL     1      -6.064  65.445  49.244  1.00  0.00     0.000 C 
BRANCH   5   6
ATOM      6  C   UNL     1      -5.066  66.303  50.041  1.00  0.00     0.000 C 
BRANCH   6   7
ATOM      7  C   UNL     1      -5.662  66.863  51.344  1.00  0.00     0.000 C 
BRANCH   7   8
ATOM      8  C   UNL     1      -6.820  66.039  51.945  1.00  0.00     0.000 C 
BRANCH   8   9
ATOM      9  C   UNL     1      -6.490  65.309  53.262  1.00  0.00     0.000 C 
BRANCH   9  10
ATOM     10  C   UNL     1      -6.526  63.770  53.184  1.00  0.00     0.000 C 
BRANCH  10  11
ATOM     11  C   UNL     1      -7.701  63.104  53.925  1.00  0.00     0.000 C 
BRANCH  11  12
ATOM     12  C   UNL     1      -7.790  61.589  53.665  1.00  0.00     0.000 C 
BRANCH  12  13
ATOM     13  C   UNL     1      -6.562  60.821  54.188  1.00  0.00     0.006 C 
BRANCH  13  14
ATOM     14  C   UNL     1      -6.383  60.873  55.715  1.00  0.00     0.053 C 
BRANCH  14  15
ATOM     15  C   UNL     1      -5.875  59.575  56.266  1.00  0.00     0.041 C 
ATOM     16  O   UNL     1      -6.482  58.501  56.020  1.00  0.00    -0.550 OA
ATOM     17  O   UNL     1      -4.744  59.557  57.073  1.00  0.00    -0.550 OA
ENDBRANCH  14  15
ENDBRANCH  13  14
ENDBRANCH  12  13
ENDBRANCH  11  12
ENDBRANCH  10  11
ENDBRANCH   9  10
ENDBRANCH   8   9
ENDBRANCH   7   8
ENDBRANCH   6   7
ENDBRANCH   5   6
ENDBRANCH   4   5
ENDBRANCH   3   4
ENDBRANCH   2   3
ENDBRANCH   1   2
BRANCH   1  18
ATOM     18  C   UNL     1      -8.965  64.334  46.968  1.00  0.00     0.000 C 
BRANCH  18  19
ATOM     19  C   UNL     1      -9.252  63.523  45.692  1.00  0.00     0.000 C 
BRANCH  19  20
ATOM     20  C   UNL     1      -8.926  62.021  45.833  1.00  0.00     0.000 C 
BRANCH  20  21
ATOM     21  C   UNL     1      -9.440  61.152  44.666  1.00  0.00     0.000 C 
BRANCH  21  22
ATOM     22  C   UNL     1     -10.399  61.886  43.704  1.00  0.00     0.000 C 
BRANCH  22  23
ATOM     23  C   UNL     1      -9.759  62.235  42.344  1.00  0.00     0.000 C 
BRANCH  23  24
ATOM     24  C   UNL     1      -9.691  63.744  42.048  1.00  0.00    -0.000 C 
BRANCH  24  25
ATOM     25  C   UNL     1      -8.857  64.108  40.800  1.00  0.00    -0.000 C 
BRANCH  25  26
ATOM     26  C   UNL     1      -9.646  64.791  39.664  1.00  0.00    -0.000 C 
BRANCH  26  27
ATOM     27  C   UNL     1      -9.584  64.092  38.288  1.00  0.00    -0.000 C 
BRANCH  27  28
ATOM     28  C   UNL     1     -10.490  62.858  38.129  1.00  0.00    -0.000 C 
BRANCH  28  29
ATOM     29  C   UNL     1     -11.735  62.910  39.030  1.00  0.00    -0.000 C 
BRANCH  29  30
ATOM     30  C   UNL     1     -12.279  61.514  39.385  1.00  0.00    -0.000 C 
BRANCH  30  31
ATOM     31  C   UNL     1     -13.812  61.421  39.495  1.00  0.00    -0.003 C 
ATOM     32  C   UNL     1     -14.412  60.342  38.593  1.00  0.00     0.004 C 
ENDBRANCH  30  31
ENDBRANCH  29  30
ENDBRANCH  28  29
ENDBRANCH  27  28
ENDBRANCH  26  27
ENDBRANCH  25  26
ENDBRANCH  24  25
ENDBRANCH  23  24
ENDBRANCH  22  23
ENDBRANCH  21  22
ENDBRANCH  20  21
ENDBRANCH  19  20
ENDBRANCH  18  19
ENDBRANCH   1  18
TORSDOF 28
ENDMDL
MODEL 8
REMARK VINA RESULT:    -5.917      1.207      3.839
REMARK INTER + INTRA:         -17.757
REMARK INTER:                 -14.861
REMARK INTRA:                  -2.897
REMARK UNBOUND:                -2.156
REMARK SMILES CCCCCCCCCCCCCCCCCCCCCCCCCCCCCC(=O)[O-]
REMARK SMILES IDX 16 1 17 2 18 3 19 4 20 5 21 6 22 7 23 8 24 9 25 10 26 11
REMARK SMILES IDX 27 12 28 13 29 14 30 15 31 16 32 17 15 18 14 19 13 20 12 21
REMARK SMILES IDX 11 22 10 23 9 24 8 25 7 26 6 27 5 28 4 29 3 30 2 31 1 32
REMARK H PARENT
REMARK Flexibility Score: inf
ROOT
ATOM      1  C   UNL     1      -9.092  61.517  45.056  1.00  0.00     0.000 C 
ENDROOT
BRANCH   1   2
ATOM      2  C   UNL     1      -9.214  62.802  45.890  1.00  0.00     0.000 C 
BRANCH   2   3
ATOM      3  C   UNL     1      -8.807  62.591  47.365  1.00  0.00     0.000 C 
BRANCH   3   4
ATOM      4  C   UNL     1      -9.640  63.416  48.365  1.00  0.00     0.000 C 
BRANCH   4   5
ATOM      5  C   UNL     1      -8.873  64.532  49.094  1.00  0.00     0.000 C 
BRANCH   5   6
ATOM      6  C   UNL     1      -7.455  64.103  49.511  1.00  0.00     0.000 C 
BRANCH   6   7
ATOM      7  C   UNL     1      -6.424  65.240  49.393  1.00  0.00     0.000 C 
BRANCH   7   8
ATOM      8  C   UNL     1      -5.577  65.492  50.657  1.00  0.00     0.000 C 
BRANCH   8   9
ATOM      9  C   UNL     1      -6.290  66.275  51.778  1.00  0.00     0.000 C 
BRANCH   9  10
ATOM     10  C   UNL     1      -6.514  65.490  53.085  1.00  0.00     0.000 C 
BRANCH  10  11
ATOM     11  C   UNL     1      -7.838  64.706  53.160  1.00  0.00     0.000 C 
BRANCH  11  12
ATOM     12  C   UNL     1      -7.632  63.181  53.144  1.00  0.00     0.000 C 
BRANCH  12  13
ATOM     13  C   UNL     1      -6.192  62.771  53.506  1.00  0.00     0.006 C 
BRANCH  13  14
ATOM     14  C   UNL     1      -6.014  61.273  53.807  1.00  0.00     0.053 C 
BRANCH  14  15
ATOM     15  C   UNL     1      -5.362  61.040  55.136  1.00  0.00     0.041 C 
ATOM     16  O   UNL     1      -6.037  60.605  56.105  1.00  0.00    -0.550 OA
ATOM     17  O   UNL     1      -4.015  61.328  55.310  1.00  0.00    -0.550 OA
ENDBRANCH  14  15
ENDBRANCH  13  14
ENDBRANCH  12  13
ENDBRANCH  11  12
ENDBRANCH  10  11
ENDBRANCH   9  10
ENDBRANCH   8   9
ENDBRANCH   7   8
ENDBRANCH   6   7
ENDBRANCH   5   6
ENDBRANCH   4   5
ENDBRANCH   3   4
ENDBRANCH   2   3
ENDBRANCH   1   2
BRANCH   1  18
ATOM     18  C   UNL     1     -10.365  61.282  44.227  1.00  0.00     0.000 C 
BRANCH  18  19
ATOM     19  C   UNL     1     -10.262  61.886  42.816  1.00  0.00     0.000 C 
BRANCH  19  20
ATOM     20  C   UNL     1     -11.126  61.150  41.769  1.00  0.00     0.000 C 
BRANCH  20  21
ATOM     21  C   UNL     1     -12.441  60.570  42.330  1.00  0.00     0.000 C 
BRANCH  21  22
ATOM     22  C   UNL     1     -13.402  60.023  41.254  1.00  0.00     0.000 C 
BRANCH  22  23
ATOM     23  C   UNL     1     -12.728  59.798  39.883  1.00  0.00     0.000 C 
BRANCH  23  24
ATOM     24  C   UNL     1     -13.487  60.422  38.698  1.00  0.00    -0.000 C 
BRANCH  24  25
ATOM     25  C   UNL     1     -14.269  61.706  39.052  1.00  0.00    -0.000 C 
BRANCH  25  26
ATOM     26  C   UNL     1     -13.577  63.024  38.646  1.00  0.00    -0.000 C 
BRANCH  26  27
ATOM     27  C   UNL     1     -12.174  63.258  39.247  1.00  0.00    -0.000 C 
BRANCH  27  28
ATOM     28  C   UNL     1     -10.992  62.802  38.372  1.00  0.00    -0.000 C 
BRANCH  28  29
ATOM     29  C   UNL     1      -9.808  63.783  38.407  1.00  0.00    -0.000 C 
BRANCH  29  30
ATOM     30  C   UNL     1      -9.036  63.746  39.739  1.00  0.00    -0.000 C 
BRANCH  30  31
ATOM     31  C   UNL     1      -8.821  65.116  40.405  1.00  0.00    -0.003 C 
ATOM     32  C   UNL     1      -9.635  65.293  41.688  1.00  0.00     0.004 C 
ENDBRANCH  30  31
ENDBRANCH  29  30
ENDBRANCH  28  29
ENDBRANCH  27  28
ENDBRANCH  26  27
ENDBRANCH  25  26
ENDBRANCH  24  25
ENDBRANCH  23  24
ENDBRANCH  22  23
ENDBRANCH  21  22
ENDBRANCH  20  21
ENDBRANCH  19  20
ENDBRANCH  18  19
ENDBRANCH   1  18
TORSDOF 28
ENDMDL
MODEL 9
REMARK VINA RESULT:    -5.868      1.300      2.812
REMARK INTER + INTRA:         -17.629
REMARK INTER:                 -15.280
REMARK INTRA:                  -2.349
REMARK UNBOUND:                -2.156
REMARK SMILES CCCCCCCCCCCCCCCCCCCCCCCCCCCCCC(=O)[O-]
REMARK SMILES IDX 16 1 17 2 18 3 19 4 20 5 21 6 22 7 23 8 24 9 25 10 26 11
REMARK SMILES IDX 27 12 28 13 29 14 30 15 31 16 32 17 15 18 14 19 13 20 12 21
REMARK SMILES IDX 11 22 10 23 9 24 8 25 7 26 6 27 5 28 4 29 3 30 2 31 1 32
REMARK H PARENT
REMARK Flexibility Score: inf
ROOT
ATOM      1  C   UNL     1      -9.764  62.023  43.824  1.00  0.00     0.000 C 
ENDROOT
BRANCH   1   2
ATOM      2  C   UNL     1      -9.255  62.971  44.920  1.00  0.00     0.000 C 
BRANCH   2   3
ATOM      3  C   UNL     1      -9.090  62.266  46.284  1.00  0.00     0.000 C 
BRANCH   3   4
ATOM      4  C   UNL     1      -9.245  63.207  47.494  1.00  0.00     0.000 C 
BRANCH   4   5
ATOM      5  C   UNL     1      -8.295  62.926  48.670  1.00  0.00     0.000 C 
BRANCH   5   6
ATOM      6  C   UNL     1      -7.985  64.185  49.497  1.00  0.00     0.000 C 
BRANCH   6   7
ATOM      7  C   UNL     1      -6.588  64.152  50.142  1.00  0.00     0.000 C 
BRANCH   7   8
ATOM      8  C   UNL     1      -6.286  65.308  51.118  1.00  0.00     0.000 C 
BRANCH   8   9
ATOM      9  C   UNL     1      -6.589  65.010  52.600  1.00  0.00     0.000 C 
BRANCH   9  10
ATOM     10  C   UNL     1      -6.631  63.514  52.972  1.00  0.00     0.000 C 
BRANCH  10  11
ATOM     11  C   UNL     1      -7.729  63.120  53.978  1.00  0.00     0.000 C 
BRANCH  11  12
ATOM     12  C   UNL     1      -7.364  61.872  54.802  1.00  0.00     0.000 C 
BRANCH  12  13
ATOM     13  C   UNL     1      -6.051  61.214  54.336  1.00  0.00     0.006 C 
BRANCH  13  14
ATOM     14  C   UNL     1      -5.087  60.845  55.476  1.00  0.00     0.053 C 
BRANCH  14  15
ATOM     15  C   UNL     1      -5.308  59.448  55.970  1.00  0.00     0.041 C 
ATOM     16  O   UNL     1      -4.326  58.709  56.242  1.00  0.00    -0.550 OA
ATOM     17  O   UNL     1      -6.599  58.954  56.105  1.00  0.00    -0.550 OA
ENDBRANCH  14  15
ENDBRANCH  13  14
ENDBRANCH  12  13
ENDBRANCH  11  12
ENDBRANCH  10  11
ENDBRANCH   9  10
ENDBRANCH   8   9
ENDBRANCH   7   8
ENDBRANCH   6   7
ENDBRANCH   5   6
ENDBRANCH   4   5
ENDBRANCH   3   4
ENDBRANCH   2   3
ENDBRANCH   1   2
BRANCH   1  18
ATOM     18  C   UNL     1      -9.661  62.682  42.440  1.00  0.00     0.000 C 
BRANCH  18  19
ATOM     19  C   UNL     1      -9.826  64.211  42.509  1.00  0.00     0.000 C 
BRANCH  19  20
ATOM     20  C   UNL     1      -9.383  64.935  41.220  1.00  0.00     0.000 C 
BRANCH  20  21
ATOM     21  C   UNL     1      -8.296  64.188  40.417  1.00  0.00     0.000 C 
BRANCH  21  22
ATOM     22  C   UNL     1      -8.370  64.413  38.892  1.00  0.00     0.000 C 
BRANCH  22  23
ATOM     23  C   UNL     1      -9.810  64.407  38.336  1.00  0.00     0.000 C 
BRANCH  23  24
ATOM     24  C   UNL     1     -10.401  63.000  38.133  1.00  0.00    -0.000 C 
BRANCH  24  25
ATOM     25  C   UNL     1     -11.355  62.545  39.258  1.00  0.00    -0.000 C 
BRANCH  25  26
ATOM     26  C   UNL     1     -12.823  62.988  39.088  1.00  0.00    -0.000 C 
BRANCH  26  27
ATOM     27  C   UNL     1     -13.834  61.862  38.777  1.00  0.00    -0.000 C 
BRANCH  27  28
ATOM     28  C   UNL     1     -13.530  60.500  39.428  1.00  0.00    -0.000 C 
BRANCH  28  29
ATOM     29  C   UNL     1     -14.095  60.379  40.853  1.00  0.00    -0.000 C 
BRANCH  29  30
ATOM     30  C   UNL     1     -12.998  60.231  41.924  1.00  0.00    -0.000 C 
BRANCH  30  31
ATOM     31  C   UNL     1     -13.413  60.655  43.344  1.00  0.00    -0.003 C 
ATOM     32  C   UNL     1     -12.543  60.026  44.434  1.00  0.00     0.004 C 
ENDBRANCH  30  31
ENDBRANCH  29  30
ENDBRANCH  28  29
ENDBRANCH  27  28
ENDBRANCH  26  27
ENDBRANCH  25  26
ENDBRANCH  24  25
ENDBRANCH  23  24
ENDBRANCH  22  23
ENDBRANCH  21  22
ENDBRANCH  20  21
ENDBRANCH  19  20
ENDBRANCH  18  19
ENDBRANCH   1  18
TORSDOF 28
ENDMDL
