MODEL 1
REMARK VINA RESULT:    -3.781      0.000      0.000
REMARK INTER + INTRA:          -7.924
REMARK INTER:                  -6.544
REMARK INTRA:                  -1.380
REMARK UNBOUND:                -1.380
REMARK SMILES CCCCCCCCCCCCCCO
REMARK SMILES IDX 8 1 7 2 6 3 5 4 4 5 3 6 2 7 1 8 9 9 10 10 11 11 12 12 13 13
REMARK SMILES IDX 14 14 15 15
REMARK H PARENT 15 16
REMARK Flexibility Score: inf
ROOT
ATOM      1  C   UNL     1     173.750 175.812 150.819  1.00  0.00     0.000 C 
ENDROOT
BRANCH   1   2
ATOM      2  C   UNL     1     174.525 174.532 151.171  1.00  0.00    -0.000 C 
BRANCH   2   3
ATOM      3  C   UNL     1     175.992 174.804 151.547  1.00  0.00    -0.000 C 
BRANCH   3   4
ATOM      4  C   UNL     1     176.949 173.608 151.368  1.00  0.00    -0.000 C 
BRANCH   4   5
ATOM      5  C   UNL     1     177.135 173.130 149.914  1.00  0.00    -0.000 C 
BRANCH   5   6
ATOM      6  C   UNL     1     176.475 171.776 149.585  1.00  0.00    -0.000 C 
BRANCH   6   7
ATOM      7  C   UNL     1     176.091 170.929 150.810  1.00  0.00    -0.003 C 
ATOM      8  C   UNL     1     174.721 170.265 150.671  1.00  0.00     0.004 C 
ENDBRANCH   6   7
ENDBRANCH   5   6
ENDBRANCH   4   5
ENDBRANCH   3   4
ENDBRANCH   2   3
ENDBRANCH   1   2
BRANCH   1   9
ATOM      9  C   UNL     1     174.670 176.989 150.444  1.00  0.00     0.000 C 
BRANCH   9  10
ATOM     10  C   UNL     1     174.744 178.125 151.482  1.00  0.00     0.000 C 
BRANCH  10  11
ATOM     11  C   UNL     1     173.717 177.971 152.617  1.00  0.00     0.000 C 
BRANCH  11  12
ATOM     12  C   UNL     1     174.380 177.737 153.983  1.00  0.00     0.002 C 
BRANCH  12  13
ATOM     13  C   UNL     1     174.101 176.336 154.546  1.00  0.00     0.028 C 
BRANCH  13  14
ATOM     14  C   UNL     1     175.362 175.732 155.171  1.00  0.00     0.156 C 
BRANCH  14  15
ATOM     15  O   UNL     1     176.504 176.377 154.676  1.00  0.00    -0.396 OA
ATOM     16  H   UNL     1     177.287 175.859 155.001  1.00  0.00     0.210 HD
ENDBRANCH  14  15
ENDBRANCH  13  14
ENDBRANCH  12  13
ENDBRANCH  11  12
ENDBRANCH  10  11
ENDBRANCH   9  10
ENDBRANCH   1   9
TORSDOF 13
ENDMDL
MODEL 2
REMARK VINA RESULT:    -3.778      2.282      2.891
REMARK INTER + INTRA:          -7.919
REMARK INTER:                  -6.835
REMARK INTRA:                  -1.084
REMARK UNBOUND:                -1.380
REMARK SMILES CCCCCCCCCCCCCCO
REMARK SMILES IDX 8 1 7 2 6 3 5 4 4 5 3 6 2 7 1 8 9 9 10 10 11 11 12 12 13 13
REMARK SMILES IDX 14 14 15 15
REMARK H PARENT 15 16
REMARK Flexibility Score: inf
ROOT
ATOM      1  C   UNL     1     174.977 175.182 151.093  1.00  0.00     0.000 C 
ENDROOT
BRANCH   1   2
ATOM      2  C   UNL     1     175.774 174.587 152.265  1.00  0.00    -0.000 C 
BRANCH   2   3
ATOM      3  C   UNL     1     176.917 173.663 151.805  1.00  0.00    -0.000 C 
BRANCH   3   4
ATOM      4  C   UNL     1     177.106 173.562 150.278  1.00  0.00    -0.000 C 
BRANCH   4   5
ATOM      5  C   UNL     1     176.794 172.180 149.670  1.00  0.00    -0.000 C 
BRANCH   5   6
ATOM      6  C   UNL     1     175.390 171.630 149.991  1.00  0.00    -0.000 C 
BRANCH   6   7
ATOM      7  C   UNL     1     175.374 170.386 150.895  1.00  0.00    -0.003 C 
ATOM      8  C   UNL     1     176.773 169.843 151.187  1.00  0.00     0.004 C 
ENDBRANCH   6   7
ENDBRANCH   5   6
ENDBRANCH   4   5
ENDBRANCH   3   4
ENDBRANCH   2   3
ENDBRANCH   1   2
BRANCH   1   9
ATOM      9  C   UNL     1     175.195 176.697 150.924  1.00  0.00     0.000 C 
BRANCH   9  10
ATOM     10  C   UNL     1     173.917 177.528 150.705  1.00  0.00     0.000 C 
BRANCH  10  11
ATOM     11  C   UNL     1     173.357 178.125 152.008  1.00  0.00     0.000 C 
BRANCH  11  12
ATOM     12  C   UNL     1     172.492 177.124 152.791  1.00  0.00     0.002 C 
BRANCH  12  13
ATOM     13  C   UNL     1     171.416 176.461 151.919  1.00  0.00     0.028 C 
BRANCH  13  14
ATOM     14  C   UNL     1     170.091 177.224 152.007  1.00  0.00     0.156 C 
BRANCH  14  15
ATOM     15  O   UNL     1     169.950 177.807 153.274  1.00  0.00    -0.396 OA
ATOM     16  H   UNL     1     170.698 177.463 153.830  1.00  0.00     0.210 HD
ENDBRANCH  14  15
ENDBRANCH  13  14
ENDBRANCH  12  13
ENDBRANCH  11  12
ENDBRANCH  10  11
ENDBRANCH   9  10
ENDBRANCH   1   9
TORSDOF 13
ENDMDL
MODEL 3
REMARK VINA RESULT:    -3.769     10.312     11.749
REMARK INTER + INTRA:          -7.903
REMARK INTER:                  -6.287
REMARK INTRA:                  -1.616
REMARK UNBOUND:                -1.380
REMARK SMILES CCCCCCCCCCCCCCO
REMARK SMILES IDX 8 1 7 2 6 3 5 4 4 5 3 6 2 7 1 8 9 9 10 10 11 11 12 12 13 13
REMARK SMILES IDX 14 14 15 15
REMARK H PARENT 15 16
REMARK Flexibility Score: inf
ROOT
ATOM      1  C   UNL     1     164.278 177.290 152.249  1.00  0.00     0.000 C 
ENDROOT
BRANCH   1   2
ATOM      2  C   UNL     1     165.588 177.967 151.812  1.00  0.00    -0.000 C 
BRANCH   2   3
ATOM      3  C   UNL     1     165.805 177.926 150.289  1.00  0.00    -0.000 C 
BRANCH   3   4
ATOM      4  C   UNL     1     167.177 177.389 149.835  1.00  0.00    -0.000 C 
BRANCH   4   5
ATOM      5  C   UNL     1     167.153 175.985 149.200  1.00  0.00    -0.000 C 
BRANCH   5   6
ATOM      6  C   UNL     1     167.461 174.827 150.169  1.00  0.00    -0.000 C 
BRANCH   6   7
ATOM      7  C   UNL     1     168.178 175.242 151.465  1.00  0.00    -0.003 C 
ATOM      8  C   UNL     1     167.443 174.787 152.726  1.00  0.00     0.004 C 
ENDBRANCH   6   7
ENDBRANCH   5   6
ENDBRANCH   4   5
ENDBRANCH   3   4
ENDBRANCH   2   3
ENDBRANCH   1   2
BRANCH   1   9
ATOM      9  C   UNL     1     164.098 175.884 151.648  1.00  0.00     0.000 C 
BRANCH   9  10
ATOM     10  C   UNL     1     162.803 175.670 150.843  1.00  0.00     0.000 C 
BRANCH  10  11
ATOM     11  C   UNL     1     161.962 176.952 150.706  1.00  0.00     0.000 C 
BRANCH  11  12
ATOM     12  C   UNL     1     160.537 176.783 151.257  1.00  0.00     0.002 C 
BRANCH  12  13
ATOM     13  C   UNL     1     160.311 177.560 152.562  1.00  0.00     0.028 C 
BRANCH  13  14
ATOM     14  C   UNL     1     160.677 176.708 153.781  1.00  0.00     0.156 C 
BRANCH  14  15
ATOM     15  O   UNL     1     159.864 175.566 153.835  1.00  0.00    -0.396 OA
ATOM     16  H   UNL     1     160.452 174.812 154.103  1.00  0.00     0.210 HD
ENDBRANCH  14  15
ENDBRANCH  13  14
ENDBRANCH  12  13
ENDBRANCH  11  12
ENDBRANCH  10  11
ENDBRANCH   9  10
ENDBRANCH   1   9
TORSDOF 13
ENDMDL
MODEL 4
REMARK VINA RESULT:    -3.767     11.260     12.589
REMARK INTER + INTRA:          -7.899
REMARK INTER:                  -6.884
REMARK INTRA:                  -1.015
REMARK UNBOUND:                -1.380
REMARK SMILES CCCCCCCCCCCCCCO
REMARK SMILES IDX 8 1 7 2 6 3 5 4 4 5 3 6 2 7 1 8 9 9 10 10 11 11 12 12 13 13
REMARK SMILES IDX 14 14 15 15
REMARK H PARENT 15 16
REMARK Flexibility Score: inf
ROOT
ATOM      1  C   UNL     1     163.529 177.570 150.852  1.00  0.00     0.000 C 
ENDROOT
BRANCH   1   2
ATOM      2  C   UNL     1     164.463 177.532 152.073  1.00  0.00    -0.000 C 
BRANCH   2   3
ATOM      3  C   UNL     1     165.953 177.573 151.689  1.00  0.00    -0.000 C 
BRANCH   3   4
ATOM      4  C   UNL     1     166.240 177.804 150.192  1.00  0.00    -0.000 C 
BRANCH   4   5
ATOM      5  C   UNL     1     167.283 176.854 149.571  1.00  0.00    -0.000 C 
BRANCH   5   6
ATOM      6  C   UNL     1     166.791 175.411 149.338  1.00  0.00    -0.000 C 
BRANCH   6   7
ATOM      7  C   UNL     1     167.377 174.364 150.300  1.00  0.00    -0.003 C 
ATOM      8  C   UNL     1     166.347 173.822 151.291  1.00  0.00     0.004 C 
ENDBRANCH   6   7
ENDBRANCH   5   6
ENDBRANCH   4   5
ENDBRANCH   3   4
ENDBRANCH   2   3
ENDBRANCH   1   2
BRANCH   1   9
ATOM      9  C   UNL     1     162.451 176.471 150.884  1.00  0.00     0.000 C 
BRANCH   9  10
ATOM     10  C   UNL     1     161.014 176.946 150.599  1.00  0.00     0.000 C 
BRANCH  10  11
ATOM     11  C   UNL     1     160.171 177.110 151.875  1.00  0.00     0.000 C 
BRANCH  11  12
ATOM     12  C   UNL     1     160.102 175.819 152.706  1.00  0.00     0.002 C 
BRANCH  12  13
ATOM     13  C   UNL     1     159.339 174.694 151.993  1.00  0.00     0.028 C 
BRANCH  13  14
ATOM     14  C   UNL     1     159.969 173.330 152.288  1.00  0.00     0.156 C 
BRANCH  14  15
ATOM     15  O   UNL     1     159.222 172.652 153.262  1.00  0.00    -0.396 OA
ATOM     16  H   UNL     1     158.784 171.887 152.803  1.00  0.00     0.210 HD
ENDBRANCH  14  15
ENDBRANCH  13  14
ENDBRANCH  12  13
ENDBRANCH  11  12
ENDBRANCH  10  11
ENDBRANCH   9  10
ENDBRANCH   1   9
TORSDOF 13
ENDMDL
MODEL 5
REMARK VINA RESULT:    -3.747      1.856      5.094
REMARK INTER + INTRA:          -7.866
REMARK INTER:                  -6.276
REMARK INTRA:                  -1.590
REMARK UNBOUND:                -1.380
REMARK SMILES CCCCCCCCCCCCCCO
REMARK SMILES IDX 8 1 7 2 6 3 5 4 4 5 3 6 2 7 1 8 9 9 10 10 11 11 12 12 13 13
REMARK SMILES IDX 14 14 15 15
REMARK H PARENT 15 16
REMARK Flexibility Score: inf
ROOT
ATOM      1  C   UNL     1     173.184 176.451 151.204  1.00  0.00     0.000 C 
ENDROOT
BRANCH   1   2
ATOM      2  C   UNL     1     173.985 177.520 150.443  1.00  0.00    -0.000 C 
BRANCH   2   3
ATOM      3  C   UNL     1     175.125 178.125 151.282  1.00  0.00    -0.000 C 
BRANCH   3   4
ATOM      4  C   UNL     1     174.898 178.111 152.807  1.00  0.00    -0.000 C 
BRANCH   4   5
ATOM      5  C   UNL     1     175.870 177.221 153.606  1.00  0.00    -0.000 C 
BRANCH   5   6
ATOM      6  C   UNL     1     175.218 176.386 154.725  1.00  0.00    -0.000 C 
BRANCH   6   7
ATOM      7  C   UNL     1     173.727 176.679 154.966  1.00  0.00    -0.003 C 
ATOM      8  C   UNL     1     172.866 175.416 154.988  1.00  0.00     0.004 C 
ENDBRANCH   6   7
ENDBRANCH   5   6
ENDBRANCH   4   5
ENDBRANCH   3   4
ENDBRANCH   2   3
ENDBRANCH   1   2
BRANCH   1   9
ATOM      9  C   UNL     1     173.483 175.019 150.722  1.00  0.00     0.000 C 
BRANCH   9  10
ATOM     10  C   UNL     1     174.548 174.258 151.534  1.00  0.00     0.000 C 
BRANCH  10  11
ATOM     11  C   UNL     1     175.975 174.464 150.997  1.00  0.00     0.000 C 
BRANCH  11  12
ATOM     12  C   UNL     1     176.763 173.149 150.898  1.00  0.00     0.002 C 
BRANCH  12  13
ATOM     13  C   UNL     1     176.278 172.090 151.899  1.00  0.00     0.028 C 
BRANCH  13  14
ATOM     14  C   UNL     1     176.944 172.278 153.265  1.00  0.00     0.156 C 
BRANCH  14  15
ATOM     15  O   UNL     1     177.338 171.038 153.787  1.00  0.00    -0.396 OA
ATOM     16  H   UNL     1     178.020 171.227 154.484  1.00  0.00     0.210 HD
ENDBRANCH  14  15
ENDBRANCH  13  14
ENDBRANCH  12  13
ENDBRANCH  11  12
ENDBRANCH  10  11
ENDBRANCH   9  10
ENDBRANCH   1   9
TORSDOF 13
ENDMDL
MODEL 6
REMARK VINA RESULT:    -3.739      2.289      6.005
REMARK INTER + INTRA:          -7.851
REMARK INTER:                  -6.702
REMARK INTRA:                  -1.149
REMARK UNBOUND:                -1.380
REMARK SMILES CCCCCCCCCCCCCCO
REMARK SMILES IDX 8 1 7 2 6 3 5 4 4 5 3 6 2 7 1 8 9 9 10 10 11 11 12 12 13 13
REMARK SMILES IDX 14 14 15 15
REMARK H PARENT 15 16
REMARK Flexibility Score: inf
ROOT
ATOM      1  C   UNL     1     174.775 174.653 151.578  1.00  0.00     0.000 C 
ENDROOT
BRANCH   1   2
ATOM      2  C   UNL     1     173.755 175.519 150.821  1.00  0.00    -0.000 C 
BRANCH   2   3
ATOM      3  C   UNL     1     174.189 176.991 150.703  1.00  0.00    -0.000 C 
BRANCH   3   4
ATOM      4  C   UNL     1     174.163 177.793 152.020  1.00  0.00    -0.000 C 
BRANCH   4   5
ATOM      5  C   UNL     1     175.546 178.125 152.612  1.00  0.00    -0.000 C 
BRANCH   5   6
ATOM      6  C   UNL     1     175.932 177.308 153.862  1.00  0.00    -0.000 C 
BRANCH   6   7
ATOM      7  C   UNL     1     174.743 176.779 154.681  1.00  0.00    -0.003 C 
ATOM      8  C   UNL     1     175.128 175.639 155.625  1.00  0.00     0.004 C 
ENDBRANCH   6   7
ENDBRANCH   5   6
ENDBRANCH   4   5
ENDBRANCH   3   4
ENDBRANCH   2   3
ENDBRANCH   1   2
BRANCH   1   9
ATOM      9  C   UNL     1     176.208 174.798 151.035  1.00  0.00     0.000 C 
BRANCH   9  10
ATOM     10  C   UNL     1     176.890 173.484 150.612  1.00  0.00     0.000 C 
BRANCH  10  11
ATOM     11  C   UNL     1     175.887 172.373 150.255  1.00  0.00     0.000 C 
BRANCH  11  12
ATOM     12  C   UNL     1     176.520 170.973 150.288  1.00  0.00     0.002 C 
BRANCH  12  13
ATOM     13  C   UNL     1     176.513 170.352 151.692  1.00  0.00     0.028 C 
BRANCH  13  14
ATOM     14  C   UNL     1     177.191 168.979 151.689  1.00  0.00     0.156 C 
BRANCH  14  15
ATOM     15  O   UNL     1     178.124 168.897 152.732  1.00  0.00    -0.396 OA
ATOM     16  H   UNL     1     177.931 169.653 153.346  1.00  0.00     0.210 HD
ENDBRANCH  14  15
ENDBRANCH  13  14
ENDBRANCH  12  13
ENDBRANCH  11  12
ENDBRANCH  10  11
ENDBRANCH   9  10
ENDBRANCH   1   9
TORSDOF 13
ENDMDL
MODEL 7
REMARK VINA RESULT:    -3.719      2.693      5.073
REMARK INTER + INTRA:          -7.816
REMARK INTER:                  -5.978
REMARK INTRA:                  -1.838
REMARK UNBOUND:                -1.380
REMARK SMILES CCCCCCCCCCCCCCO
REMARK SMILES IDX 8 1 7 2 6 3 5 4 4 5 3 6 2 7 1 8 9 9 10 10 11 11 12 12 13 13
REMARK SMILES IDX 14 14 15 15
REMARK H PARENT 15 16
REMARK Flexibility Score: inf
ROOT
ATOM      1  C   UNL     1     176.251 174.729 151.314  1.00  0.00     0.000 C 
ENDROOT
BRANCH   1   2
ATOM      2  C   UNL     1     176.128 173.662 152.414  1.00  0.00    -0.000 C 
BRANCH   2   3
ATOM      3  C   UNL     1     174.725 173.611 153.046  1.00  0.00    -0.000 C 
BRANCH   3   4
ATOM      4  C   UNL     1     174.629 174.165 154.482  1.00  0.00    -0.000 C 
BRANCH   4   5
ATOM      5  C   UNL     1     173.604 175.299 154.678  1.00  0.00    -0.000 C 
BRANCH   5   6
ATOM      6  C   UNL     1     174.131 176.526 155.450  1.00  0.00    -0.000 C 
BRANCH   6   7
ATOM      7  C   UNL     1     174.570 177.706 154.566  1.00  0.00    -0.003 C 
ATOM      8  C   UNL     1     176.014 177.581 154.078  1.00  0.00     0.004 C 
ENDBRANCH   6   7
ENDBRANCH   5   6
ENDBRANCH   4   5
ENDBRANCH   3   4
ENDBRANCH   2   3
ENDBRANCH   1   2
BRANCH   1   9
ATOM      9  C   UNL     1     174.938 175.496 151.070  1.00  0.00     0.000 C 
BRANCH   9  10
ATOM     10  C   UNL     1     175.102 176.975 150.672  1.00  0.00     0.000 C 
BRANCH  10  11
ATOM     11  C   UNL     1     173.785 177.767 150.748  1.00  0.00     0.000 C 
BRANCH  11  12
ATOM     12  C   UNL     1     172.679 177.002 151.492  1.00  0.00     0.002 C 
BRANCH  12  13
ATOM     13  C   UNL     1     171.634 177.934 152.122  1.00  0.00     0.028 C 
BRANCH  13  14
ATOM     14  C   UNL     1     170.273 177.240 152.232  1.00  0.00     0.156 C 
BRANCH  14  15
ATOM     15  O   UNL     1     169.553 177.755 153.318  1.00  0.00    -0.396 OA
ATOM     16  H   UNL     1     169.123 176.981 153.768  1.00  0.00     0.210 HD
ENDBRANCH  14  15
ENDBRANCH  13  14
ENDBRANCH  12  13
ENDBRANCH  11  12
ENDBRANCH  10  11
ENDBRANCH   9  10
ENDBRANCH   1   9
TORSDOF 13
ENDMDL
MODEL 8
REMARK VINA RESULT:    -3.717     10.365     11.863
REMARK INTER + INTRA:          -7.812
REMARK INTER:                  -6.890
REMARK INTRA:                  -0.923
REMARK UNBOUND:                -1.380
REMARK SMILES CCCCCCCCCCCCCCO
REMARK SMILES IDX 8 1 7 2 6 3 5 4 4 5 3 6 2 7 1 8 9 9 10 10 11 11 12 12 13 13
REMARK SMILES IDX 14 14 15 15
REMARK H PARENT 15 16
REMARK Flexibility Score: inf
ROOT
ATOM      1  C   UNL     1     164.808 175.874 150.836  1.00  0.00     0.000 C 
ENDROOT
BRANCH   1   2
ATOM      2  C   UNL     1     165.516 174.766 150.040  1.00  0.00    -0.000 C 
BRANCH   2   3
ATOM      3  C   UNL     1     166.862 175.220 149.445  1.00  0.00    -0.000 C 
BRANCH   3   4
ATOM      4  C   UNL     1     167.182 176.720 149.614  1.00  0.00    -0.000 C 
BRANCH   4   5
ATOM      5  C   UNL     1     168.369 177.035 150.545  1.00  0.00    -0.000 C 
BRANCH   5   6
ATOM      6  C   UNL     1     168.443 176.172 151.820  1.00  0.00    -0.000 C 
BRANCH   6   7
ATOM      7  C   UNL     1     168.291 176.951 153.137  1.00  0.00    -0.003 C 
ATOM      8  C   UNL     1     166.920 177.613 153.285  1.00  0.00     0.004 C 
ENDBRANCH   6   7
ENDBRANCH   5   6
ENDBRANCH   4   5
ENDBRANCH   3   4
ENDBRANCH   2   3
ENDBRANCH   1   2
BRANCH   1   9
ATOM      9  C   UNL     1     163.273 175.770 150.779  1.00  0.00     0.000 C 
BRANCH   9  10
ATOM     10  C   UNL     1     162.514 177.097 150.964  1.00  0.00     0.000 C 
BRANCH  10  11
ATOM     11  C   UNL     1     160.996 176.955 150.756  1.00  0.00     0.000 C 
BRANCH  11  12
ATOM     12  C   UNL     1     160.204 177.136 152.061  1.00  0.00     0.002 C 
BRANCH  12  13
ATOM     13  C   UNL     1     160.134 175.849 152.895  1.00  0.00     0.028 C 
BRANCH  13  14
ATOM     14  C   UNL     1     160.732 176.063 154.289  1.00  0.00     0.156 C 
BRANCH  14  15
ATOM     15  O   UNL     1     159.789 175.742 155.275  1.00  0.00    -0.396 OA
ATOM     16  H   UNL     1     158.938 175.546 154.802  1.00  0.00     0.210 HD
ENDBRANCH  14  15
ENDBRANCH  13  14
ENDBRANCH  12  13
ENDBRANCH  11  12
ENDBRANCH  10  11
ENDBRANCH   9  10
ENDBRANCH   1   9
TORSDOF 13
ENDMDL
MODEL 9
REMARK VINA RESULT:    -3.706     11.127     12.500
REMARK INTER + INTRA:          -7.795
REMARK INTER:                  -6.705
REMARK INTRA:                  -1.089
REMARK UNBOUND:                -1.380
REMARK SMILES CCCCCCCCCCCCCCO
REMARK SMILES IDX 8 1 7 2 6 3 5 4 4 5 3 6 2 7 1 8 9 9 10 10 11 11 12 12 13 13
REMARK SMILES IDX 14 14 15 15
REMARK H PARENT 15 16
REMARK Flexibility Score: inf
ROOT
ATOM      1  C   UNL     1     162.844 176.603 150.850  1.00  0.00     0.000 C 
ENDROOT
BRANCH   1   2
ATOM      2  C   UNL     1     163.588 177.729 151.585  1.00  0.00    -0.000 C 
BRANCH   2   3
ATOM      3  C   UNL     1     164.975 178.023 150.986  1.00  0.00    -0.000 C 
BRANCH   3   4
ATOM      4  C   UNL     1     166.170 177.691 151.903  1.00  0.00    -0.000 C 
BRANCH   4   5
ATOM      5  C   UNL     1     167.269 176.824 151.257  1.00  0.00    -0.000 C 
BRANCH   5   6
ATOM      6  C   UNL     1     167.308 176.864 149.717  1.00  0.00    -0.000 C 
BRANCH   6   7
ATOM      7  C   UNL     1     167.110 175.502 149.030  1.00  0.00    -0.003 C 
ATOM      8  C   UNL     1     165.994 174.671 149.664  1.00  0.00     0.004 C 
ENDBRANCH   6   7
ENDBRANCH   5   6
ENDBRANCH   4   5
ENDBRANCH   3   4
ENDBRANCH   2   3
ENDBRANCH   1   2
BRANCH   1   9
ATOM      9  C   UNL     1     161.424 177.006 150.410  1.00  0.00     0.000 C 
BRANCH   9  10
ATOM     10  C   UNL     1     160.277 176.380 151.225  1.00  0.00     0.000 C 
BRANCH  10  11
ATOM     11  C   UNL     1     160.140 176.984 152.633  1.00  0.00     0.000 C 
BRANCH  11  12
ATOM     12  C   UNL     1     160.537 175.994 153.740  1.00  0.00     0.002 C 
BRANCH  12  13
ATOM     13  C   UNL     1     161.682 176.515 154.620  1.00  0.00     0.028 C 
BRANCH  13  14
ATOM     14  C   UNL     1     161.210 176.740 156.060  1.00  0.00     0.156 C 
BRANCH  14  15
ATOM     15  O   UNL     1     159.812 176.664 156.129  1.00  0.00    -0.396 OA
ATOM     16  H   UNL     1     159.567 175.726 155.914  1.00  0.00     0.210 HD
ENDBRANCH  14  15
ENDBRANCH  13  14
ENDBRANCH  12  13
ENDBRANCH  11  12
ENDBRANCH  10  11
ENDBRANCH   9  10
ENDBRANCH   1   9
TORSDOF 13
ENDMDL
