MODEL 1
REMARK VINA RESULT:    -3.784      0.000      0.000
REMARK INTER + INTRA:          -4.343
REMARK INTER:                  -4.115
REMARK INTRA:                  -0.228
REMARK UNBOUND:                -0.228
REMARK SMILES O=C([O-])c1ccccc1O
REMARK SMILES IDX 4 1 9 2 5 3 8 4 6 5 7 6 2 7 1 8 3 9 10 10
REMARK H PARENT 10 11
REMARK Flexibility Score: inf
ROOT
ATOM      1  C   UNL     1     -16.121 -22.405   2.052  1.00  0.00     0.039 A 
ATOM      2  C   UNL     1     -16.765 -21.610   3.036  1.00  0.00     0.124 A 
ATOM      3  C   UNL     1     -16.413 -23.780   1.991  1.00  0.00     0.014 A 
ATOM      4  C   UNL     1     -17.721 -22.192   3.879  1.00  0.00     0.047 A 
ATOM      5  C   UNL     1     -17.354 -24.348   2.854  1.00  0.00     0.001 A 
ATOM      6  C   UNL     1     -18.014 -23.553   3.790  1.00  0.00     0.004 A 
ENDROOT
BRANCH   1   7
ATOM      7  C   UNL     1     -15.175 -21.845   1.062  1.00  0.00     0.075 C 
ATOM      8  O   UNL     1     -14.565 -20.766   1.288  1.00  0.00    -0.545 OA
ATOM      9  O   UNL     1     -15.000 -22.473  -0.166  1.00  0.00    -0.545 OA
ENDBRANCH   1   7
BRANCH   2  10
ATOM     10  O   UNL     1     -16.465 -20.260   3.231  1.00  0.00    -0.507 OA
ATOM     11  H   UNL     1     -15.918 -19.916   4.008  1.00  0.00     0.293 HD
ENDBRANCH   2  10
TORSDOF 2
ENDMDL
MODEL 2
REMARK VINA RESULT:    -3.635      1.941      3.387
REMARK INTER + INTRA:          -4.182
REMARK INTER:                  -3.932
REMARK INTRA:                  -0.250
REMARK UNBOUND:                -0.228
REMARK SMILES O=C([O-])c1ccccc1O
REMARK SMILES IDX 4 1 9 2 5 3 8 4 6 5 7 6 2 7 1 8 3 9 10 10
REMARK H PARENT 10 11
REMARK Flexibility Score: inf
ROOT
ATOM      1  C   UNL     1     -17.067 -22.895   3.012  1.00  0.00     0.039 A 
ATOM      2  C   UNL     1     -17.963 -23.988   3.148  1.00  0.00     0.124 A 
ATOM      3  C   UNL     1     -16.161 -22.890   1.936  1.00  0.00     0.014 A 
ATOM      4  C   UNL     1     -17.972 -25.001   2.180  1.00  0.00     0.047 A 
ATOM      5  C   UNL     1     -16.170 -23.919   0.991  1.00  0.00     0.001 A 
ATOM      6  C   UNL     1     -17.081 -24.967   1.108  1.00  0.00     0.004 A 
ENDROOT
BRANCH   1   7
ATOM      7  C   UNL     1     -17.064 -21.740   3.937  1.00  0.00     0.075 C 
ATOM      8  O   UNL     1     -16.806 -20.580   3.522  1.00  0.00    -0.545 OA
ATOM      9  O   UNL     1     -17.282 -21.937   5.296  1.00  0.00    -0.545 OA
ENDBRANCH   1   7
BRANCH   2  10
ATOM     10  O   UNL     1     -18.829 -24.123   4.236  1.00  0.00    -0.507 OA
ATOM     11  H   UNL     1     -19.623 -24.748   4.244  1.00  0.00     0.293 HD
ENDBRANCH   2  10
TORSDOF 2
ENDMDL
MODEL 3
REMARK VINA RESULT:    -3.577      0.904      2.193
REMARK INTER + INTRA:          -4.119
REMARK INTER:                  -3.909
REMARK INTRA:                  -0.210
REMARK UNBOUND:                -0.228
REMARK SMILES O=C([O-])c1ccccc1O
REMARK SMILES IDX 4 1 9 2 5 3 8 4 6 5 7 6 2 7 1 8 3 9 10 10
REMARK H PARENT 10 11
REMARK Flexibility Score: inf
ROOT
ATOM      1  C   UNL     1     -16.227 -21.984   2.248  1.00  0.00     0.039 A 
ATOM      2  C   UNL     1     -16.375 -23.337   1.846  1.00  0.00     0.124 A 
ATOM      3  C   UNL     1     -16.994 -21.508   3.327  1.00  0.00     0.014 A 
ATOM      4  C   UNL     1     -17.227 -24.184   2.565  1.00  0.00     0.047 A 
ATOM      5  C   UNL     1     -17.856 -22.362   4.021  1.00  0.00     0.001 A 
ATOM      6  C   UNL     1     -17.964 -23.700   3.646  1.00  0.00     0.004 A 
ENDROOT
BRANCH   1   7
ATOM      7  C   UNL     1     -15.274 -21.054   1.602  1.00  0.00     0.075 C 
ATOM      8  O   UNL     1     -15.304 -19.820   1.851  1.00  0.00    -0.545 OA
ATOM      9  O   UNL     1     -14.374 -21.529   0.655  1.00  0.00    -0.545 OA
ENDBRANCH   1   7
BRANCH   2  10
ATOM     10  O   UNL     1     -15.726 -23.867   0.728  1.00  0.00    -0.507 OA
ATOM     11  H   UNL     1     -14.825 -23.548   0.401  1.00  0.00     0.293 HD
ENDBRANCH   2  10
TORSDOF 2
ENDMDL
MODEL 4
REMARK VINA RESULT:    -3.494      2.304      3.271
REMARK INTER + INTRA:          -4.029
REMARK INTER:                  -3.777
REMARK INTRA:                  -0.252
REMARK UNBOUND:                -0.228
REMARK SMILES O=C([O-])c1ccccc1O
REMARK SMILES IDX 4 1 9 2 5 3 8 4 6 5 7 6 2 7 1 8 3 9 10 10
REMARK H PARENT 10 11
REMARK Flexibility Score: inf
ROOT
ATOM      1  C   UNL     1     -16.602 -22.842   2.506  1.00  0.00     0.039 A 
ATOM      2  C   UNL     1     -17.211 -21.960   3.437  1.00  0.00     0.124 A 
ATOM      3  C   UNL     1     -15.670 -22.323   1.589  1.00  0.00     0.014 A 
ATOM      4  C   UNL     1     -16.828 -20.613   3.469  1.00  0.00     0.047 A 
ATOM      5  C   UNL     1     -15.314 -20.972   1.621  1.00  0.00     0.001 A 
ATOM      6  C   UNL     1     -15.885 -20.122   2.566  1.00  0.00     0.004 A 
ENDROOT
BRANCH   1   7
ATOM      7  C   UNL     1     -16.882 -24.295   2.476  1.00  0.00     0.075 C 
ATOM      8  O   UNL     1     -15.966 -25.125   2.236  1.00  0.00    -0.545 OA
ATOM      9  O   UNL     1     -18.182 -24.756   2.647  1.00  0.00    -0.545 OA
ENDBRANCH   1   7
BRANCH   2  10
ATOM     10  O   UNL     1     -18.216 -22.369   4.318  1.00  0.00    -0.507 OA
ATOM     11  H   UNL     1     -18.573 -23.313   4.358  1.00  0.00     0.293 HD
ENDBRANCH   2  10
TORSDOF 2
ENDMDL
MODEL 5
REMARK VINA RESULT:    -3.430      1.947      3.401
REMARK INTER + INTRA:          -3.959
REMARK INTER:                  -3.713
REMARK INTRA:                  -0.245
REMARK UNBOUND:                -0.228
REMARK SMILES O=C([O-])c1ccccc1O
REMARK SMILES IDX 4 1 9 2 5 3 8 4 6 5 7 6 2 7 1 8 3 9 10 10
REMARK H PARENT 10 11
REMARK Flexibility Score: inf
ROOT
ATOM      1  C   UNL     1     -16.573 -22.263   2.683  1.00  0.00     0.039 A 
ATOM      2  C   UNL     1     -16.116 -20.925   2.556  1.00  0.00     0.124 A 
ATOM      3  C   UNL     1     -16.090 -23.234   1.787  1.00  0.00     0.014 A 
ATOM      4  C   UNL     1     -15.152 -20.611   1.590  1.00  0.00     0.047 A 
ATOM      5  C   UNL     1     -15.144 -22.899   0.815  1.00  0.00     0.001 A 
ATOM      6  C   UNL     1     -14.668 -21.592   0.724  1.00  0.00     0.004 A 
ENDROOT
BRANCH   1   7
ATOM      7  C   UNL     1     -17.516 -22.692   3.741  1.00  0.00     0.075 C 
ATOM      8  O   UNL     1     -17.541 -22.112   4.858  1.00  0.00    -0.545 OA
ATOM      9  O   UNL     1     -18.341 -23.791   3.532  1.00  0.00    -0.545 OA
ENDBRANCH   1   7
BRANCH   2  10
ATOM     10  O   UNL     1     -16.613 -19.880   3.339  1.00  0.00    -0.507 OA
ATOM     11  H   UNL     1     -17.116 -20.020   4.204  1.00  0.00     0.293 HD
ENDBRANCH   2  10
TORSDOF 2
ENDMDL
MODEL 6
REMARK VINA RESULT:    -3.368      4.524      5.736
REMARK INTER + INTRA:          -3.891
REMARK INTER:                  -3.643
REMARK INTRA:                  -0.248
REMARK UNBOUND:                -0.228
REMARK SMILES O=C([O-])c1ccccc1O
REMARK SMILES IDX 4 1 9 2 5 3 8 4 6 5 7 6 2 7 1 8 3 9 10 10
REMARK H PARENT 10 11
REMARK Flexibility Score: inf
ROOT
ATOM      1  C   UNL     1     -17.049 -22.034   7.471  1.00  0.00     0.039 A 
ATOM      2  C   UNL     1     -16.756 -23.239   6.779  1.00  0.00     0.124 A 
ATOM      3  C   UNL     1     -17.882 -22.086   8.603  1.00  0.00     0.014 A 
ATOM      4  C   UNL     1     -17.246 -24.456   7.270  1.00  0.00     0.047 A 
ATOM      5  C   UNL     1     -18.379 -23.307   9.067  1.00  0.00     0.001 A 
ATOM      6  C   UNL     1     -18.053 -24.490   8.408  1.00  0.00     0.004 A 
ENDROOT
BRANCH   1   7
ATOM      7  C   UNL     1     -16.490 -20.724   7.071  1.00  0.00     0.075 C 
ATOM      8  O   UNL     1     -16.383 -20.409   5.857  1.00  0.00    -0.545 OA
ATOM      9  O   UNL     1     -16.011 -19.848   8.039  1.00  0.00    -0.545 OA
ENDBRANCH   1   7
BRANCH   2  10
ATOM     10  O   UNL     1     -16.018 -23.268   5.593  1.00  0.00    -0.507 OA
ATOM     11  H   UNL     1     -15.756 -22.439   5.078  1.00  0.00     0.293 HD
ENDBRANCH   2  10
TORSDOF 2
ENDMDL
MODEL 7
REMARK VINA RESULT:    -3.331      1.644      3.478
REMARK INTER + INTRA:          -3.851
REMARK INTER:                  -3.653
REMARK INTRA:                  -0.198
REMARK UNBOUND:                -0.228
REMARK SMILES O=C([O-])c1ccccc1O
REMARK SMILES IDX 4 1 9 2 5 3 8 4 6 5 7 6 2 7 1 8 3 9 10 10
REMARK H PARENT 10 11
REMARK Flexibility Score: inf
ROOT
ATOM      1  C   UNL     1     -15.945 -21.846   2.017  1.00  0.00     0.039 A 
ATOM      2  C   UNL     1     -14.979 -21.102   1.289  1.00  0.00     0.124 A 
ATOM      3  C   UNL     1     -16.139 -23.203   1.699  1.00  0.00     0.014 A 
ATOM      4  C   UNL     1     -14.198 -21.743   0.319  1.00  0.00     0.047 A 
ATOM      5  C   UNL     1     -15.365 -23.821   0.713  1.00  0.00     0.001 A 
ATOM      6  C   UNL     1     -14.389 -23.095   0.032  1.00  0.00     0.004 A 
ENDROOT
BRANCH   1   7
ATOM      7  C   UNL     1     -16.739 -21.265   3.122  1.00  0.00     0.075 C 
ATOM      8  O   UNL     1     -17.667 -21.920   3.666  1.00  0.00    -0.545 OA
ATOM      9  O   UNL     1     -16.511 -19.955   3.528  1.00  0.00    -0.545 OA
ENDBRANCH   1   7
BRANCH   2  10
ATOM     10  O   UNL     1     -14.788 -19.730   1.473  1.00  0.00    -0.507 OA
ATOM     11  H   UNL     1     -15.297 -19.022   0.962  1.00  0.00     0.293 HD
ENDBRANCH   2  10
TORSDOF 2
ENDMDL
MODEL 8
REMARK VINA RESULT:    -3.326      1.354      3.157
REMARK INTER + INTRA:          -3.846
REMARK INTER:                  -3.602
REMARK INTRA:                  -0.244
REMARK UNBOUND:                -0.228
REMARK SMILES O=C([O-])c1ccccc1O
REMARK SMILES IDX 4 1 9 2 5 3 8 4 6 5 7 6 2 7 1 8 3 9 10 10
REMARK H PARENT 10 11
REMARK Flexibility Score: inf
ROOT
ATOM      1  C   UNL     1     -17.089 -22.870   3.025  1.00  0.00     0.039 A 
ATOM      2  C   UNL     1     -16.163 -22.917   1.951  1.00  0.00     0.124 A 
ATOM      3  C   UNL     1     -17.999 -23.931   3.186  1.00  0.00     0.014 A 
ATOM      4  C   UNL     1     -16.129 -24.040   1.114  1.00  0.00     0.047 A 
ATOM      5  C   UNL     1     -17.965 -25.034   2.329  1.00  0.00     0.001 A 
ATOM      6  C   UNL     1     -17.025 -25.093   1.301  1.00  0.00     0.004 A 
ENDROOT
BRANCH   1   7
ATOM      7  C   UNL     1     -17.120 -21.765   4.010  1.00  0.00     0.075 C 
ATOM      8  O   UNL     1     -16.850 -20.585   3.665  1.00  0.00    -0.545 OA
ATOM      9  O   UNL     1     -17.383 -22.034   5.348  1.00  0.00    -0.545 OA
ENDBRANCH   1   7
BRANCH   2  10
ATOM     10  O   UNL     1     -15.289 -21.866   1.660  1.00  0.00    -0.507 OA
ATOM     11  H   UNL     1     -14.409 -21.724   2.135  1.00  0.00     0.293 HD
ENDBRANCH   2  10
TORSDOF 2
ENDMDL
MODEL 9
REMARK VINA RESULT:    -3.281      3.476      4.739
REMARK INTER + INTRA:          -3.797
REMARK INTER:                  -3.578
REMARK INTRA:                  -0.219
REMARK UNBOUND:                -0.228
REMARK SMILES O=C([O-])c1ccccc1O
REMARK SMILES IDX 4 1 9 2 5 3 8 4 6 5 7 6 2 7 1 8 3 9 10 10
REMARK H PARENT 10 11
REMARK Flexibility Score: inf
ROOT
ATOM      1  C   UNL     1     -17.061 -22.171   5.735  1.00  0.00     0.039 A 
ATOM      2  C   UNL     1     -17.188 -23.328   6.548  1.00  0.00     0.124 A 
ATOM      3  C   UNL     1     -16.478 -21.014   6.285  1.00  0.00     0.014 A 
ATOM      4  C   UNL     1     -16.676 -23.317   7.852  1.00  0.00     0.047 A 
ATOM      5  C   UNL     1     -15.991 -21.015   7.595  1.00  0.00     0.001 A 
ATOM      6  C   UNL     1     -16.081 -22.168   8.373  1.00  0.00     0.004 A 
ENDROOT
BRANCH   1   7
ATOM      7  C   UNL     1     -17.488 -22.135   4.319  1.00  0.00     0.075 C 
ATOM      8  O   UNL     1     -18.251 -23.021   3.851  1.00  0.00    -0.545 OA
ATOM      9  O   UNL     1     -16.992 -21.155   3.468  1.00  0.00    -0.545 OA
ENDBRANCH   1   7
BRANCH   2  10
ATOM     10  O   UNL     1     -17.839 -24.486   6.117  1.00  0.00    -0.507 OA
ATOM     11  H   UNL     1     -17.428 -25.408   6.163  1.00  0.00     0.293 HD
ENDBRANCH   2  10
TORSDOF 2
ENDMDL
