MODEL 1
REMARK VINA RESULT:     2.519      0.000      0.000
REMARK INTER + INTRA:          12.389
REMARK INTER:                   5.980
REMARK INTRA:                   6.408
REMARK UNBOUND:                 6.408
REMARK SMILES O=C(OC[C@@H]1O[C@@H](OC(=O)c2cc(O)c(O)c(O)c2)[C@@H](OC(=O)c2cc(O)c(O)c(O)c2)[C@H](OC(=O)c2cc(O)c(O)c(O)c2)[C@@H]1OC(=O)c1cc(O)c(O)c(O)c1)c1cc(O)c(O)c(O)c1
REMARK SMILES IDX 5 1 46 2 33 3 20 4 7 5 6 6 4 7 3 8 2 9 1 10 59 11 60 12
REMARK SMILES IDX 61 13 67 14 63 15 65 16 62 17 64 19 66 21 47 23 48 24 49 25
REMARK SMILES IDX 50 26 58 27 51 28 56 29 52 30 54 31 57 32 53 34 55 36 34 38
REMARK SMILES IDX 35 39 36 40 37 41 45 42 38 43 43 44 39 45 41 46 44 47 40 49
REMARK SMILES IDX 42 51 8 53 9 54 10 55 11 56 19 57 12 58 17 59 13 60 15 61
REMARK SMILES IDX 18 62 14 64 16 66 21 68 22 69 23 70 24 71 32 72 25 73 30 74
REMARK SMILES IDX 26 75 28 76 31 77 27 79 29 81
REMARK H PARENT 62 18 64 20 66 22 57 33 53 35 55 37 44 48 40 50 42 52 18 63
REMARK H PARENT 14 65 16 67 31 78 27 80 29 82
REMARK Flexibility Score: inf
ROOT
ATOM      1  C   UNL     1      31.394  21.076   3.052  1.00  0.00     0.205 C 
ATOM      2  C   UNL     1      31.908  19.629   2.891  1.00  0.00     0.254 C 
ATOM      3  C   UNL     1      30.728  18.651   3.064  1.00  0.00     0.267 C 
ATOM      4  C   UNL     1      29.989  18.943   4.383  1.00  0.00     0.290 C 
ATOM      5  C   UNL     1      29.640  20.439   4.475  1.00  0.00     0.357 C 
ATOM      6  O   UNL     1      30.795  21.251   4.328  1.00  0.00    -0.329 OA
ENDROOT
BRANCH   1   7
ATOM      7  C   UNL     1      32.538  22.091   2.889  1.00  0.00     0.269 C 
BRANCH   7   8
ATOM      8  O   UNL     1      32.558  23.007   3.982  1.00  0.00    -0.459 OA
BRANCH   8   9
ATOM      9  C   UNL     1      32.764  24.385   3.848  1.00  0.00     0.338 C 
ATOM     10  O   UNL     1      31.783  25.161   3.687  1.00  0.00    -0.246 OA
BRANCH   9  11
ATOM     11  C   UNL     1      34.136  24.931   3.931  1.00  0.00     0.067 A 
ATOM     12  C   UNL     1      35.152  24.193   4.555  1.00  0.00     0.066 A 
ATOM     13  C   UNL     1      36.447  24.704   4.655  1.00  0.00     0.162 A 
ATOM     14  C   UNL     1      34.440  26.191   3.396  1.00  0.00     0.066 A 
ATOM     15  C   UNL     1      36.750  25.972   4.128  1.00  0.00     0.200 A 
ATOM     16  C   UNL     1      35.733  26.719   3.483  1.00  0.00     0.162 A 
BRANCH  13  17
ATOM     17  O   UNL     1      37.423  23.941   5.301  1.00  0.00    -0.504 OA
ATOM     18  H   UNL     1      37.249  23.469   6.180  1.00  0.00     0.293 HD
ENDBRANCH  13  17
BRANCH  15  19
ATOM     19  O   UNL     1      38.054  26.456   4.268  1.00  0.00    -0.502 OA
ATOM     20  H   UNL     1      38.300  27.271   4.809  1.00  0.00     0.293 HD
ENDBRANCH  15  19
BRANCH  16  21
ATOM     21  O   UNL     1      35.962  27.975   2.915  1.00  0.00    -0.504 OA
ATOM     22  H   UNL     1      35.323  28.751   2.972  1.00  0.00     0.293 HD
ENDBRANCH  16  21
ENDBRANCH   9  11
ENDBRANCH   8   9
ENDBRANCH   7   8
ENDBRANCH   1   7
BRANCH   2  23
ATOM     23  O   UNL     1      32.904  19.365   3.879  1.00  0.00    -0.452 OA
BRANCH  23  24
ATOM     24  C   UNL     1      34.148  20.010   3.930  1.00  0.00     0.338 C 
ATOM     25  O   UNL     1      34.388  20.991   3.174  1.00  0.00    -0.246 OA
BRANCH  24  26
ATOM     26  C   UNL     1      35.176  19.535   4.878  1.00  0.00     0.067 A 
ATOM     27  C   UNL     1      35.363  18.160   5.104  1.00  0.00     0.066 A 
ATOM     28  C   UNL     1      35.986  20.457   5.557  1.00  0.00     0.066 A 
ATOM     29  C   UNL     1      36.343  17.712   5.994  1.00  0.00     0.162 A 
ATOM     30  C   UNL     1      36.964  20.018   6.454  1.00  0.00     0.162 A 
ATOM     31  C   UNL     1      37.146  18.642   6.678  1.00  0.00     0.200 A 
BRANCH  29  32
ATOM     32  O   UNL     1      36.520  16.339   6.172  1.00  0.00    -0.504 OA
ATOM     33  H   UNL     1      36.178  15.858   6.995  1.00  0.00     0.293 HD
ENDBRANCH  29  32
BRANCH  30  34
ATOM     34  O   UNL     1      37.757  20.946   7.133  1.00  0.00    -0.504 OA
ATOM     35  H   UNL     1      37.423  21.886   7.319  1.00  0.00     0.293 HD
ENDBRANCH  30  34
BRANCH  31  36
ATOM     36  O   UNL     1      38.122  18.187   7.566  1.00  0.00    -0.502 OA
ATOM     37  H   UNL     1      38.296  17.198   7.719  1.00  0.00     0.293 HD
ENDBRANCH  31  36
ENDBRANCH  24  26
ENDBRANCH  23  24
ENDBRANCH   2  23
BRANCH   3  38
ATOM     38  O   UNL     1      31.188  17.299   3.079  1.00  0.00    -0.450 OA
BRANCH  38  39
ATOM     39  C   UNL     1      31.903  16.717   4.130  1.00  0.00     0.338 C 
ATOM     40  O   UNL     1      31.517  16.874   5.321  1.00  0.00    -0.246 OA
BRANCH  39  41
ATOM     41  C   UNL     1      33.119  15.923   3.835  1.00  0.00     0.067 A 
ATOM     42  C   UNL     1      34.369  16.542   3.668  1.00  0.00     0.066 A 
ATOM     43  C   UNL     1      33.030  14.528   3.711  1.00  0.00     0.066 A 
ATOM     44  C   UNL     1      35.506  15.786   3.349  1.00  0.00     0.162 A 
ATOM     45  C   UNL     1      34.156  13.765   3.392  1.00  0.00     0.162 A 
ATOM     46  C   UNL     1      35.399  14.392   3.203  1.00  0.00     0.200 A 
BRANCH  44  47
ATOM     47  O   UNL     1      36.743  16.413   3.173  1.00  0.00    -0.504 OA
ATOM     48  H   UNL     1      36.835  17.282   2.658  1.00  0.00     0.293 HD
ENDBRANCH  44  47
BRANCH  45  49
ATOM     49  O   UNL     1      34.026  12.381   3.269  1.00  0.00    -0.504 OA
ATOM     50  H   UNL     1      34.653  11.740   3.735  1.00  0.00     0.293 HD
ENDBRANCH  45  49
BRANCH  46  51
ATOM     51  O   UNL     1      36.514  13.620   2.878  1.00  0.00    -0.502 OA
ATOM     52  H   UNL     1      37.003  13.715   1.994  1.00  0.00     0.293 HD
ENDBRANCH  46  51
ENDBRANCH  39  41
ENDBRANCH  38  39
ENDBRANCH   3  38
BRANCH   5  53
ATOM     53  O   UNL     1      28.649  20.792   3.507  1.00  0.00    -0.428 OA
BRANCH  53  54
ATOM     54  C   UNL     1      27.827  21.920   3.621  1.00  0.00     0.340 C 
ATOM     55  O   UNL     1      26.621  21.865   3.254  1.00  0.00    -0.246 OA
BRANCH  54  56
ATOM     56  C   UNL     1      28.392  23.183   4.146  1.00  0.00     0.067 A 
ATOM     57  C   UNL     1      28.495  23.386   5.532  1.00  0.00     0.066 A 
ATOM     58  C   UNL     1      28.842  24.183   3.269  1.00  0.00     0.066 A 
ATOM     59  C   UNL     1      29.032  24.579   6.038  1.00  0.00     0.162 A 
ATOM     60  C   UNL     1      29.387  25.374   3.769  1.00  0.00     0.162 A 
ATOM     61  C   UNL     1      29.476  25.578   5.155  1.00  0.00     0.200 A 
BRANCH  59  62
ATOM     62  O   UNL     1      29.126  24.776   7.413  1.00  0.00    -0.504 OA
ATOM     63  H   UNL     1      28.411  25.275   7.930  1.00  0.00     0.293 HD
ENDBRANCH  59  62
BRANCH  60  64
ATOM     64  O   UNL     1      29.824  26.354   2.878  1.00  0.00    -0.504 OA
ATOM     65  H   UNL     1      30.518  26.160   2.166  1.00  0.00     0.293 HD
ENDBRANCH  60  64
BRANCH  61  66
ATOM     66  O   UNL     1      30.010  26.775   5.638  1.00  0.00    -0.502 OA
ATOM     67  H   UNL     1      30.723  27.292   5.125  1.00  0.00     0.293 HD
ENDBRANCH  61  66
ENDBRANCH  54  56
ENDBRANCH  53  54
ENDBRANCH   5  53
BRANCH   4  68
ATOM     68  O   UNL     1      28.787  18.170   4.458  1.00  0.00    -0.448 OA
BRANCH  68  69
ATOM     69  C   UNL     1      27.904  18.215   5.548  1.00  0.00     0.339 C 
ATOM     70  O   UNL     1      27.962  17.332   6.445  1.00  0.00    -0.246 OA
BRANCH  69  71
ATOM     71  C   UNL     1      26.930  19.321   5.666  1.00  0.00     0.067 A 
ATOM     72  C   UNL     1      25.871  19.444   4.749  1.00  0.00     0.066 A 
ATOM     73  C   UNL     1      27.048  20.263   6.702  1.00  0.00     0.066 A 
ATOM     74  C   UNL     1      24.927  20.471   4.884  1.00  0.00     0.162 A 
ATOM     75  C   UNL     1      26.120  21.304   6.839  1.00  0.00     0.162 A 
ATOM     76  C   UNL     1      25.036  21.398   5.931  1.00  0.00     0.200 A 
BRANCH  74  77
ATOM     77  O   UNL     1      23.863  20.572   3.987  1.00  0.00    -0.504 OA
ATOM     78  H   UNL     1      23.996  20.442   2.996  1.00  0.00     0.293 HD
ENDBRANCH  74  77
BRANCH  75  79
ATOM     79  O   UNL     1      26.323  22.218   7.877  1.00  0.00    -0.504 OA
ATOM     80  H   UNL     1      26.997  22.966   7.848  1.00  0.00     0.293 HD
ENDBRANCH  75  79
BRANCH  76  81
ATOM     81  O   UNL     1      24.052  22.382   6.045  1.00  0.00    -0.502 OA
ATOM     82  H   UNL     1      23.183  22.359   5.539  1.00  0.00     0.293 HD
ENDBRANCH  76  81
ENDBRANCH  69  71
ENDBRANCH  68  69
ENDBRANCH   4  68
TORSDOF 31
ENDMDL
MODEL 2
REMARK VINA RESULT:     3.366      1.864      5.228
REMARK INTER + INTRA:          14.399
REMARK INTER:                  15.395
REMARK INTRA:                  -0.997
REMARK UNBOUND:                 6.408
REMARK SMILES O=C(OC[C@@H]1O[C@@H](OC(=O)c2cc(O)c(O)c(O)c2)[C@@H](OC(=O)c2cc(O)c(O)c(O)c2)[C@H](OC(=O)c2cc(O)c(O)c(O)c2)[C@@H]1OC(=O)c1cc(O)c(O)c(O)c1)c1cc(O)c(O)c(O)c1
REMARK SMILES IDX 5 1 46 2 33 3 20 4 7 5 6 6 4 7 3 8 2 9 1 10 59 11 60 12
REMARK SMILES IDX 61 13 67 14 63 15 65 16 62 17 64 19 66 21 47 23 48 24 49 25
REMARK SMILES IDX 50 26 58 27 51 28 56 29 52 30 54 31 57 32 53 34 55 36 34 38
REMARK SMILES IDX 35 39 36 40 37 41 45 42 38 43 43 44 39 45 41 46 44 47 40 49
REMARK SMILES IDX 42 51 8 53 9 54 10 55 11 56 19 57 12 58 17 59 13 60 15 61
REMARK SMILES IDX 18 62 14 64 16 66 21 68 22 69 23 70 24 71 32 72 25 73 30 74
REMARK SMILES IDX 26 75 28 76 31 77 27 79 29 81
REMARK H PARENT 62 18 64 20 66 22 57 33 53 35 55 37 44 48 40 50 42 52 18 63
REMARK H PARENT 14 65 16 67 31 78 27 80 29 82
REMARK Flexibility Score: inf
ROOT
ATOM      1  C   UNL     1      33.098  19.824   3.334  1.00  0.00     0.205 C 
ATOM      2  C   UNL     1      32.054  18.693   3.200  1.00  0.00     0.254 C 
ATOM      3  C   UNL     1      30.680  19.216   3.666  1.00  0.00     0.267 C 
ATOM      4  C   UNL     1      30.800  19.839   5.069  1.00  0.00     0.290 C 
ATOM      5  C   UNL     1      31.952  20.858   5.101  1.00  0.00     0.357 C 
ATOM      6  O   UNL     1      33.174  20.273   4.678  1.00  0.00    -0.329 OA
ENDROOT
BRANCH   1   7
ATOM      7  C   UNL     1      34.489  19.349   2.881  1.00  0.00     0.269 C 
BRANCH   7   8
ATOM      8  O   UNL     1      35.441  20.406   2.985  1.00  0.00    -0.459 OA
BRANCH   8   9
ATOM      9  C   UNL     1      36.212  20.659   4.125  1.00  0.00     0.338 C 
ATOM     10  O   UNL     1      36.679  19.702   4.800  1.00  0.00    -0.246 OA
BRANCH   9  11
ATOM     11  C   UNL     1      36.505  22.055   4.514  1.00  0.00     0.067 A 
ATOM     12  C   UNL     1      36.513  22.424   5.866  1.00  0.00     0.066 A 
ATOM     13  C   UNL     1      36.772  23.742   6.246  1.00  0.00     0.162 A 
ATOM     14  C   UNL     1      36.772  23.029   3.540  1.00  0.00     0.066 A 
ATOM     15  C   UNL     1      37.029  24.721   5.269  1.00  0.00     0.200 A 
ATOM     16  C   UNL     1      37.036  24.355   3.900  1.00  0.00     0.162 A 
BRANCH  13  17
ATOM     17  O   UNL     1      36.753  24.068   7.604  1.00  0.00    -0.504 OA
ATOM     18  H   UNL     1      37.406  24.725   8.014  1.00  0.00     0.293 HD
ENDBRANCH  13  17
BRANCH  15  19
ATOM     19  O   UNL     1      37.262  26.034   5.690  1.00  0.00    -0.502 OA
ATOM     20  H   UNL     1      38.158  26.494   5.635  1.00  0.00     0.293 HD
ENDBRANCH  15  19
BRANCH  16  21
ATOM     21  O   UNL     1      37.306  25.266   2.875  1.00  0.00    -0.504 OA
ATOM     22  H   UNL     1      38.037  25.152   2.192  1.00  0.00     0.293 HD
ENDBRANCH  16  21
ENDBRANCH   9  11
ENDBRANCH   8   9
ENDBRANCH   7   8
ENDBRANCH   1   7
BRANCH   2  23
ATOM     23  O   UNL     1      32.449  17.584   4.007  1.00  0.00    -0.452 OA
BRANCH  23  24
ATOM     24  C   UNL     1      32.724  16.306   3.502  1.00  0.00     0.338 C 
ATOM     25  O   UNL     1      31.782  15.542   3.153  1.00  0.00    -0.246 OA
BRANCH  24  26
ATOM     26  C   UNL     1      34.126  15.859   3.376  1.00  0.00     0.067 A 
ATOM     27  C   UNL     1      35.183  16.783   3.449  1.00  0.00     0.066 A 
ATOM     28  C   UNL     1      34.418  14.499   3.192  1.00  0.00     0.066 A 
ATOM     29  C   UNL     1      36.509  16.358   3.339  1.00  0.00     0.162 A 
ATOM     30  C   UNL     1      35.741  14.065   3.074  1.00  0.00     0.162 A 
ATOM     31  C   UNL     1      36.794  14.995   3.146  1.00  0.00     0.200 A 
BRANCH  29  32
ATOM     32  O   UNL     1      37.534  17.300   3.445  1.00  0.00    -0.504 OA
ATOM     33  H   UNL     1      38.505  17.052   3.296  1.00  0.00     0.293 HD
ENDBRANCH  29  32
BRANCH  30  34
ATOM     34  O   UNL     1      36.018  12.711   2.880  1.00  0.00    -0.504 OA
ATOM     35  H   UNL     1      35.460  11.991   3.327  1.00  0.00     0.293 HD
ENDBRANCH  30  34
BRANCH  31  36
ATOM     36  O   UNL     1      38.121  14.577   3.036  1.00  0.00    -0.502 OA
ATOM     37  H   UNL     1      38.400  13.612   3.193  1.00  0.00     0.293 HD
ENDBRANCH  31  36
ENDBRANCH  24  26
ENDBRANCH  23  24
ENDBRANCH   2  23
BRANCH   3  38
ATOM     38  O   UNL     1      29.722  18.159   3.707  1.00  0.00    -0.450 OA
BRANCH  38  39
ATOM     39  C   UNL     1      28.415  18.254   3.218  1.00  0.00     0.338 C 
ATOM     40  O   UNL     1      27.790  17.213   2.876  1.00  0.00    -0.246 OA
BRANCH  39  41
ATOM     41  C   UNL     1      27.776  19.585   3.096  1.00  0.00     0.067 A 
ATOM     42  C   UNL     1      28.545  20.759   3.019  1.00  0.00     0.066 A 
ATOM     43  C   UNL     1      26.376  19.688   3.065  1.00  0.00     0.066 A 
ATOM     44  C   UNL     1      27.930  22.016   2.945  1.00  0.00     0.162 A 
ATOM     45  C   UNL     1      25.753  20.936   2.993  1.00  0.00     0.162 A 
ATOM     46  C   UNL     1      26.527  22.107   2.939  1.00  0.00     0.200 A 
BRANCH  44  47
ATOM     47  O   UNL     1      28.705  23.178   2.880  1.00  0.00    -0.504 OA
ATOM     48  H   UNL     1      29.691  23.177   3.119  1.00  0.00     0.293 HD
ENDBRANCH  44  47
BRANCH  45  49
ATOM     49  O   UNL     1      24.359  20.998   2.973  1.00  0.00    -0.504 OA
ATOM     50  H   UNL     1      23.816  20.605   2.215  1.00  0.00     0.293 HD
ENDBRANCH  45  49
BRANCH  46  51
ATOM     51  O   UNL     1      25.893  23.347   2.875  1.00  0.00    -0.502 OA
ATOM     52  H   UNL     1      25.062  23.507   2.316  1.00  0.00     0.293 HD
ENDBRANCH  46  51
ENDBRANCH  39  41
ENDBRANCH  38  39
ENDBRANCH   3  38
BRANCH   5  53
ATOM     53  O   UNL     1      31.640  22.004   4.305  1.00  0.00    -0.428 OA
BRANCH  53  54
ATOM     54  C   UNL     1      32.266  23.247   4.464  1.00  0.00     0.340 C 
ATOM     55  O   UNL     1      33.524  23.321   4.511  1.00  0.00    -0.246 OA
BRANCH  54  56
ATOM     56  C   UNL     1      31.439  24.466   4.606  1.00  0.00     0.067 A 
ATOM     57  C   UNL     1      31.831  25.660   3.980  1.00  0.00     0.066 A 
ATOM     58  C   UNL     1      30.251  24.440   5.355  1.00  0.00     0.066 A 
ATOM     59  C   UNL     1      31.052  26.819   4.107  1.00  0.00     0.162 A 
ATOM     60  C   UNL     1      29.464  25.593   5.479  1.00  0.00     0.162 A 
ATOM     61  C   UNL     1      29.867  26.788   4.862  1.00  0.00     0.200 A 
BRANCH  59  62
ATOM     62  O   UNL     1      31.449  28.001   3.487  1.00  0.00    -0.504 OA
ATOM     63  H   UNL     1      32.314  28.468   3.736  1.00  0.00     0.293 HD
ENDBRANCH  59  62
BRANCH  60  64
ATOM     64  O   UNL     1      28.291  25.544   6.231  1.00  0.00    -0.504 OA
ATOM     65  H   UNL     1      27.388  25.372   5.804  1.00  0.00     0.293 HD
ENDBRANCH  60  64
BRANCH  61  66
ATOM     66  O   UNL     1      29.078  27.932   5.005  1.00  0.00    -0.502 OA
ATOM     67  H   UNL     1      29.380  28.727   5.567  1.00  0.00     0.293 HD
ENDBRANCH  61  66
ENDBRANCH  54  56
ENDBRANCH  53  54
ENDBRANCH   5  53
BRANCH   4  68
ATOM     68  O   UNL     1      29.578  20.492   5.427  1.00  0.00    -0.448 OA
BRANCH  68  69
ATOM     69  C   UNL     1      28.793  20.119   6.529  1.00  0.00     0.339 C 
ATOM     70  O   UNL     1      29.302  19.448   7.467  1.00  0.00    -0.246 OA
BRANCH  69  71
ATOM     71  C   UNL     1      27.381  20.547   6.611  1.00  0.00     0.067 A 
ATOM     72  C   UNL     1      26.960  21.746   6.008  1.00  0.00     0.066 A 
ATOM     73  C   UNL     1      26.438  19.757   7.288  1.00  0.00     0.066 A 
ATOM     74  C   UNL     1      25.613  22.132   6.054  1.00  0.00     0.162 A 
ATOM     75  C   UNL     1      25.092  20.138   7.356  1.00  0.00     0.162 A 
ATOM     76  C   UNL     1      24.671  21.330   6.715  1.00  0.00     0.200 A 
BRANCH  74  77
ATOM     77  O   UNL     1      25.196  23.309   5.432  1.00  0.00    -0.504 OA
ATOM     78  H   UNL     1      25.263  23.429   4.433  1.00  0.00     0.293 HD
ENDBRANCH  74  77
BRANCH  75  79
ATOM     79  O   UNL     1      24.221  19.314   8.074  1.00  0.00    -0.504 OA
ATOM     80  H   UNL     1      24.503  18.728   8.843  1.00  0.00     0.293 HD
ENDBRANCH  75  79
BRANCH  76  81
ATOM     81  O   UNL     1      23.335  21.739   6.703  1.00  0.00    -0.502 OA
ATOM     82  H   UNL     1      22.735  21.649   5.902  1.00  0.00     0.293 HD
ENDBRANCH  76  81
ENDBRANCH  69  71
ENDBRANCH  68  69
ENDBRANCH   4  68
TORSDOF 31
ENDMDL
MODEL 3
REMARK VINA RESULT:     4.276      1.791      7.346
REMARK INTER + INTRA:          16.559
REMARK INTER:                  13.344
REMARK INTRA:                   3.216
REMARK UNBOUND:                 6.408
REMARK SMILES O=C(OC[C@@H]1O[C@@H](OC(=O)c2cc(O)c(O)c(O)c2)[C@@H](OC(=O)c2cc(O)c(O)c(O)c2)[C@H](OC(=O)c2cc(O)c(O)c(O)c2)[C@@H]1OC(=O)c1cc(O)c(O)c(O)c1)c1cc(O)c(O)c(O)c1
REMARK SMILES IDX 5 1 46 2 33 3 20 4 7 5 6 6 4 7 3 8 2 9 1 10 59 11 60 12
REMARK SMILES IDX 61 13 67 14 63 15 65 16 62 17 64 19 66 21 47 23 48 24 49 25
REMARK SMILES IDX 50 26 58 27 51 28 56 29 52 30 54 31 57 32 53 34 55 36 34 38
REMARK SMILES IDX 35 39 36 40 37 41 45 42 38 43 43 44 39 45 41 46 44 47 40 49
REMARK SMILES IDX 42 51 8 53 9 54 10 55 11 56 19 57 12 58 17 59 13 60 15 61
REMARK SMILES IDX 18 62 14 64 16 66 21 68 22 69 23 70 24 71 32 72 25 73 30 74
REMARK SMILES IDX 26 75 28 76 31 77 27 79 29 81
REMARK H PARENT 62 18 64 20 66 22 57 33 53 35 55 37 44 48 40 50 42 52 18 63
REMARK H PARENT 14 65 16 67 31 78 27 80 29 82
REMARK Flexibility Score: inf
ROOT
ATOM      1  C   UNL     1      30.240  19.286   4.062  1.00  0.00     0.205 C 
ATOM      2  C   UNL     1      31.769  19.084   4.155  1.00  0.00     0.254 C 
ATOM      3  C   UNL     1      32.463  20.461   4.137  1.00  0.00     0.267 C 
ATOM      4  C   UNL     1      31.981  21.280   2.927  1.00  0.00     0.290 C 
ATOM      5  C   UNL     1      30.442  21.303   2.881  1.00  0.00     0.357 C 
ATOM      6  O   UNL     1      29.904  19.990   2.876  1.00  0.00    -0.329 OA
ENDROOT
BRANCH   1   7
ATOM      7  C   UNL     1      29.502  17.937   4.076  1.00  0.00     0.269 C 
BRANCH   7   8
ATOM      8  O   UNL     1      28.252  18.041   3.396  1.00  0.00    -0.459 OA
BRANCH   8   9
ATOM      9  C   UNL     1      27.044  18.376   4.020  1.00  0.00     0.338 C 
ATOM     10  O   UNL     1      25.957  18.280   3.390  1.00  0.00    -0.246 OA
BRANCH   9  11
ATOM     11  C   UNL     1      27.048  18.811   5.434  1.00  0.00     0.067 A 
ATOM     12  C   UNL     1      25.854  18.840   6.166  1.00  0.00     0.066 A 
ATOM     13  C   UNL     1      25.841  19.264   7.496  1.00  0.00     0.162 A 
ATOM     14  C   UNL     1      28.241  19.205   6.059  1.00  0.00     0.066 A 
ATOM     15  C   UNL     1      27.035  19.670   8.120  1.00  0.00     0.200 A 
ATOM     16  C   UNL     1      28.250  19.630   7.391  1.00  0.00     0.162 A 
BRANCH  13  17
ATOM     17  O   UNL     1      24.625  19.294   8.182  1.00  0.00    -0.504 OA
ATOM     18  H   UNL     1      24.039  18.473   8.282  1.00  0.00     0.293 HD
ENDBRANCH  13  17
BRANCH  15  19
ATOM     19  O   UNL     1      26.976  20.108   9.446  1.00  0.00    -0.502 OA
ATOM     20  H   UNL     1      26.782  19.506  10.232  1.00  0.00     0.293 HD
ENDBRANCH  15  19
BRANCH  16  21
ATOM     21  O   UNL     1      29.478  19.994   7.950  1.00  0.00    -0.504 OA
ATOM     22  H   UNL     1      29.807  20.943   8.031  1.00  0.00     0.293 HD
ENDBRANCH  16  21
ENDBRANCH   9  11
ENDBRANCH   8   9
ENDBRANCH   7   8
ENDBRANCH   1   7
BRANCH   2  23
ATOM     23  O   UNL     1      32.213  18.303   3.045  1.00  0.00    -0.452 OA
BRANCH  23  24
ATOM     24  C   UNL     1      32.602  16.960   3.139  1.00  0.00     0.338 C 
ATOM     25  O   UNL     1      31.735  16.053   3.275  1.00  0.00    -0.246 OA
BRANCH  24  26
ATOM     26  C   UNL     1      34.036  16.611   3.073  1.00  0.00     0.067 A 
ATOM     27  C   UNL     1      35.020  17.615   3.082  1.00  0.00     0.066 A 
ATOM     28  C   UNL     1      34.431  15.267   3.010  1.00  0.00     0.066 A 
ATOM     29  C   UNL     1      36.376  17.283   3.029  1.00  0.00     0.162 A 
ATOM     30  C   UNL     1      35.785  14.925   2.950  1.00  0.00     0.162 A 
ATOM     31  C   UNL     1      36.765  15.934   2.957  1.00  0.00     0.200 A 
BRANCH  29  32
ATOM     32  O   UNL     1      37.326  18.305   3.069  1.00  0.00    -0.504 OA
ATOM     33  H   UNL     1      38.226  18.217   2.613  1.00  0.00     0.293 HD
ENDBRANCH  29  32
BRANCH  30  34
ATOM     34  O   UNL     1      36.165  13.584   2.875  1.00  0.00    -0.504 OA
ATOM     35  H   UNL     1      36.250  13.015   3.711  1.00  0.00     0.293 HD
ENDBRANCH  30  34
BRANCH  31  36
ATOM     36  O   UNL     1      38.121  15.610   2.904  1.00  0.00    -0.502 OA
ATOM     37  H   UNL     1      38.452  14.729   2.521  1.00  0.00     0.293 HD
ENDBRANCH  31  36
ENDBRANCH  24  26
ENDBRANCH  23  24
ENDBRANCH   2  23
BRANCH   3  38
ATOM     38  O   UNL     1      33.881  20.313   4.063  1.00  0.00    -0.450 OA
BRANCH  38  39
ATOM     39  C   UNL     1      34.756  20.516   5.135  1.00  0.00     0.338 C 
ATOM     40  O   UNL     1      34.817  19.672   6.071  1.00  0.00    -0.246 OA
BRANCH  39  41
ATOM     41  C   UNL     1      35.602  21.731   5.168  1.00  0.00     0.067 A 
ATOM     42  C   UNL     1      35.582  22.661   4.114  1.00  0.00     0.066 A 
ATOM     43  C   UNL     1      36.450  21.964   6.262  1.00  0.00     0.066 A 
ATOM     44  C   UNL     1      36.418  23.788   4.136  1.00  0.00     0.162 A 
ATOM     45  C   UNL     1      37.288  23.082   6.293  1.00  0.00     0.162 A 
ATOM     46  C   UNL     1      37.279  23.996   5.227  1.00  0.00     0.200 A 
BRANCH  44  47
ATOM     47  O   UNL     1      36.397  24.700   3.078  1.00  0.00    -0.504 OA
ATOM     48  H   UNL     1      35.540  25.150   2.775  1.00  0.00     0.293 HD
ENDBRANCH  44  47
BRANCH  45  49
ATOM     49  O   UNL     1      38.122  23.274   7.395  1.00  0.00    -0.504 OA
ATOM     50  H   UNL     1      37.821  23.787   8.212  1.00  0.00     0.293 HD
ENDBRANCH  45  49
BRANCH  46  51
ATOM     51  O   UNL     1      38.125  25.104   5.266  1.00  0.00    -0.502 OA
ATOM     52  H   UNL     1      38.319  25.612   6.122  1.00  0.00     0.293 HD
ENDBRANCH  46  51
ENDBRANCH  39  41
ENDBRANCH  38  39
ENDBRANCH   3  38
BRANCH   5  53
ATOM     53  O   UNL     1      29.912  22.062   3.969  1.00  0.00    -0.428 OA
BRANCH  53  54
ATOM     54  C   UNL     1      28.816  22.926   3.846  1.00  0.00     0.340 C 
ATOM     55  O   UNL     1      28.918  23.986   3.171  1.00  0.00    -0.246 OA
BRANCH  54  56
ATOM     56  C   UNL     1      27.549  22.598   4.538  1.00  0.00     0.067 A 
ATOM     57  C   UNL     1      26.483  22.028   3.823  1.00  0.00     0.066 A 
ATOM     58  C   UNL     1      27.403  22.839   5.914  1.00  0.00     0.066 A 
ATOM     59  C   UNL     1      25.280  21.711   4.471  1.00  0.00     0.162 A 
ATOM     60  C   UNL     1      26.207  22.518   6.568  1.00  0.00     0.162 A 
ATOM     61  C   UNL     1      25.139  21.960   5.847  1.00  0.00     0.200 A 
BRANCH  59  62
ATOM     62  O   UNL     1      24.226  21.151   3.755  1.00  0.00    -0.504 OA
ATOM     63  H   UNL     1      24.381  20.449   3.041  1.00  0.00     0.293 HD
ENDBRANCH  59  62
BRANCH  60  64
ATOM     64  O   UNL     1      26.084  22.771   7.934  1.00  0.00    -0.504 OA
ATOM     65  H   UNL     1      25.376  22.318   8.501  1.00  0.00     0.293 HD
ENDBRANCH  60  64
BRANCH  61  66
ATOM     66  O   UNL     1      23.948  21.657   6.511  1.00  0.00    -0.502 OA
ATOM     67  H   UNL     1      23.450  22.351   7.067  1.00  0.00     0.293 HD
ENDBRANCH  61  66
ENDBRANCH  54  56
ENDBRANCH  53  54
ENDBRANCH   5  53
BRANCH   4  68
ATOM     68  O   UNL     1      32.473  22.622   3.008  1.00  0.00    -0.448 OA
BRANCH  68  69
ATOM     69  C   UNL     1      32.541  23.351   4.205  1.00  0.00     0.339 C 
ATOM     70  O   UNL     1      33.307  22.972   5.132  1.00  0.00    -0.246 OA
BRANCH  69  71
ATOM     71  C   UNL     1      31.747  24.587   4.365  1.00  0.00     0.067 A 
ATOM     72  C   UNL     1      30.587  24.594   5.160  1.00  0.00     0.066 A 
ATOM     73  C   UNL     1      32.144  25.773   3.728  1.00  0.00     0.066 A 
ATOM     74  C   UNL     1      29.855  25.776   5.342  1.00  0.00     0.162 A 
ATOM     75  C   UNL     1      31.413  26.958   3.888  1.00  0.00     0.162 A 
ATOM     76  C   UNL     1      30.266  26.964   4.720  1.00  0.00     0.200 A 
BRANCH  74  77
ATOM     77  O   UNL     1      28.720  25.784   6.153  1.00  0.00    -0.504 OA
ATOM     78  H   UNL     1      28.648  25.188   6.963  1.00  0.00     0.293 HD
ENDBRANCH  74  77
BRANCH  75  79
ATOM     79  O   UNL     1      31.856  28.090   3.197  1.00  0.00    -0.504 OA
ATOM     80  H   UNL     1      31.874  29.019   3.586  1.00  0.00     0.293 HD
ENDBRANCH  75  79
BRANCH  76  81
ATOM     81  O   UNL     1      29.525  28.123   4.959  1.00  0.00    -0.502 OA
ATOM     82  H   UNL     1      28.580  28.252   4.642  1.00  0.00     0.293 HD
ENDBRANCH  76  81
ENDBRANCH  69  71
ENDBRANCH  68  69
ENDBRANCH   4  68
TORSDOF 31
ENDMDL
MODEL 4
REMARK VINA RESULT:     4.791      1.825     10.499
REMARK INTER + INTRA:          17.781
REMARK INTER:                  12.202
REMARK INTRA:                   5.580
REMARK UNBOUND:                 6.408
REMARK SMILES O=C(OC[C@@H]1O[C@@H](OC(=O)c2cc(O)c(O)c(O)c2)[C@@H](OC(=O)c2cc(O)c(O)c(O)c2)[C@H](OC(=O)c2cc(O)c(O)c(O)c2)[C@@H]1OC(=O)c1cc(O)c(O)c(O)c1)c1cc(O)c(O)c(O)c1
REMARK SMILES IDX 5 1 46 2 33 3 20 4 7 5 6 6 4 7 3 8 2 9 1 10 59 11 60 12
REMARK SMILES IDX 61 13 67 14 63 15 65 16 62 17 64 19 66 21 47 23 48 24 49 25
REMARK SMILES IDX 50 26 58 27 51 28 56 29 52 30 54 31 57 32 53 34 55 36 34 38
REMARK SMILES IDX 35 39 36 40 37 41 45 42 38 43 43 44 39 45 41 46 44 47 40 49
REMARK SMILES IDX 42 51 8 53 9 54 10 55 11 56 19 57 12 58 17 59 13 60 15 61
REMARK SMILES IDX 18 62 14 64 16 66 21 68 22 69 23 70 24 71 32 72 25 73 30 74
REMARK SMILES IDX 26 75 28 76 31 77 27 79 29 81
REMARK H PARENT 62 18 64 20 66 22 57 33 53 35 55 37 44 48 40 50 42 52 18 63
REMARK H PARENT 14 65 16 67 31 78 27 80 29 82
REMARK Flexibility Score: inf
ROOT
ATOM      1  C   UNL     1      30.888  18.856   3.780  1.00  0.00     0.205 C 
ATOM      2  C   UNL     1      30.990  20.364   3.462  1.00  0.00     0.254 C 
ATOM      3  C   UNL     1      32.442  20.699   3.066  1.00  0.00     0.267 C 
ATOM      4  C   UNL     1      33.416  20.186   4.142  1.00  0.00     0.290 C 
ATOM      5  C   UNL     1      33.130  18.707   4.454  1.00  0.00     0.357 C 
ATOM      6  O   UNL     1      31.777  18.508   4.831  1.00  0.00    -0.329 OA
ENDROOT
BRANCH   1   7
ATOM      7  C   UNL     1      29.454  18.471   4.183  1.00  0.00     0.269 C 
BRANCH   7   8
ATOM      8  O   UNL     1      28.501  19.189   3.400  1.00  0.00    -0.459 OA
BRANCH   8   9
ATOM      9  C   UNL     1      27.151  18.838   3.290  1.00  0.00     0.338 C 
ATOM     10  O   UNL     1      26.824  17.691   2.879  1.00  0.00    -0.246 OA
BRANCH   9  11
ATOM     11  C   UNL     1      26.109  19.807   3.692  1.00  0.00     0.067 A 
ATOM     12  C   UNL     1      26.062  21.077   3.102  1.00  0.00     0.066 A 
ATOM     13  C   UNL     1      25.094  22.008   3.485  1.00  0.00     0.162 A 
ATOM     14  C   UNL     1      25.160  19.475   4.671  1.00  0.00     0.066 A 
ATOM     15  C   UNL     1      24.150  21.679   4.473  1.00  0.00     0.200 A 
ATOM     16  C   UNL     1      24.181  20.392   5.066  1.00  0.00     0.162 A 
BRANCH  13  17
ATOM     17  O   UNL     1      25.096  23.268   2.882  1.00  0.00    -0.504 OA
ATOM     18  H   UNL     1      24.892  23.399   1.898  1.00  0.00     0.293 HD
ENDBRANCH  13  17
BRANCH  15  19
ATOM     19  O   UNL     1      23.210  22.647   4.843  1.00  0.00    -0.502 OA
ATOM     20  H   UNL     1      22.412  22.903   4.283  1.00  0.00     0.293 HD
ENDBRANCH  15  19
BRANCH  16  21
ATOM     21  O   UNL     1      23.261  19.985   6.037  1.00  0.00    -0.504 OA
ATOM     22  H   UNL     1      22.420  19.467   5.841  1.00  0.00     0.293 HD
ENDBRANCH  16  21
ENDBRANCH   9  11
ENDBRANCH   8   9
ENDBRANCH   7   8
ENDBRANCH   1   7
BRANCH   2  23
ATOM     23  O   UNL     1      30.616  21.119   4.615  1.00  0.00    -0.452 OA
BRANCH  23  24
ATOM     24  C   UNL     1      29.399  21.803   4.742  1.00  0.00     0.338 C 
ATOM     25  O   UNL     1      29.164  22.820   4.034  1.00  0.00    -0.246 OA
BRANCH  24  26
ATOM     26  C   UNL     1      28.392  21.323   5.709  1.00  0.00     0.067 A 
ATOM     27  C   UNL     1      28.577  20.111   6.396  1.00  0.00     0.066 A 
ATOM     28  C   UNL     1      27.239  22.082   5.960  1.00  0.00     0.066 A 
ATOM     29  C   UNL     1      27.628  19.662   7.319  1.00  0.00     0.162 A 
ATOM     30  C   UNL     1      26.281  21.639   6.875  1.00  0.00     0.162 A 
ATOM     31  C   UNL     1      26.471  20.424   7.558  1.00  0.00     0.200 A 
BRANCH  29  32
ATOM     32  O   UNL     1      27.859  18.468   8.003  1.00  0.00    -0.504 OA
ATOM     33  H   UNL     1      28.226  18.455   8.947  1.00  0.00     0.293 HD
ENDBRANCH  29  32
BRANCH  30  34
ATOM     34  O   UNL     1      25.132  22.397   7.107  1.00  0.00    -0.504 OA
ATOM     35  H   UNL     1      25.149  23.410   7.043  1.00  0.00     0.293 HD
ENDBRANCH  30  34
BRANCH  31  36
ATOM     36  O   UNL     1      25.526  19.970   8.480  1.00  0.00    -0.502 OA
ATOM     37  H   UNL     1      25.562  20.225   9.462  1.00  0.00     0.293 HD
ENDBRANCH  31  36
ENDBRANCH  24  26
ENDBRANCH  23  24
ENDBRANCH   2  23
BRANCH   3  38
ATOM     38  O   UNL     1      32.614  22.109   2.917  1.00  0.00    -0.450 OA
BRANCH  38  39
ATOM     39  C   UNL     1      32.968  22.978   3.954  1.00  0.00     0.338 C 
ATOM     40  O   UNL     1      33.889  22.664   4.756  1.00  0.00    -0.246 OA
BRANCH  39  41
ATOM     41  C   UNL     1      32.246  24.263   4.109  1.00  0.00     0.067 A 
ATOM     42  C   UNL     1      30.988  24.321   4.732  1.00  0.00     0.066 A 
ATOM     43  C   UNL     1      32.818  25.448   3.621  1.00  0.00     0.066 A 
ATOM     44  C   UNL     1      30.295  25.536   4.836  1.00  0.00     0.162 A 
ATOM     45  C   UNL     1      32.135  26.664   3.718  1.00  0.00     0.162 A 
ATOM     46  C   UNL     1      30.868  26.712   4.322  1.00  0.00     0.200 A 
BRANCH  44  47
ATOM     47  O   UNL     1      29.039  25.581   5.448  1.00  0.00    -0.504 OA
ATOM     48  H   UNL     1      28.547  26.456   5.597  1.00  0.00     0.293 HD
ENDBRANCH  44  47
BRANCH  45  49
ATOM     49  O   UNL     1      32.733  27.819   3.213  1.00  0.00    -0.504 OA
ATOM     50  H   UNL     1      32.939  28.617   3.800  1.00  0.00     0.293 HD
ENDBRANCH  45  49
BRANCH  46  51
ATOM     51  O   UNL     1      30.194  27.930   4.406  1.00  0.00    -0.502 OA
ATOM     52  H   UNL     1      29.419  28.081   5.043  1.00  0.00     0.293 HD
ENDBRANCH  46  51
ENDBRANCH  39  41
ENDBRANCH  38  39
ENDBRANCH   3  38
BRANCH   5  53
ATOM     53  O   UNL     1      33.471  17.877   3.342  1.00  0.00    -0.428 OA
BRANCH  53  54
ATOM     54  C   UNL     1      34.772  17.423   3.087  1.00  0.00     0.340 C 
ATOM     55  O   UNL     1      35.702  18.250   2.882  1.00  0.00    -0.246 OA
BRANCH  54  56
ATOM     56  C   UNL     1      35.038  15.968   3.033  1.00  0.00     0.067 A 
ATOM     57  C   UNL     1      36.360  15.494   3.015  1.00  0.00     0.066 A 
ATOM     58  C   UNL     1      33.977  15.048   3.011  1.00  0.00     0.066 A 
ATOM     59  C   UNL     1      36.621  14.117   2.966  1.00  0.00     0.162 A 
ATOM     60  C   UNL     1      34.232  13.671   2.970  1.00  0.00     0.162 A 
ATOM     61  C   UNL     1      35.555  13.202   2.939  1.00  0.00     0.200 A 
BRANCH  59  62
ATOM     62  O   UNL     1      37.934  13.654   2.944  1.00  0.00    -0.504 OA
ATOM     63  H   UNL     1      38.389  13.387   2.079  1.00  0.00     0.293 HD
ENDBRANCH  59  62
BRANCH  60  64
ATOM     64  O   UNL     1      33.162  12.777   2.945  1.00  0.00    -0.504 OA
ATOM     65  H   UNL     1      32.865  12.320   2.090  1.00  0.00     0.293 HD
ENDBRANCH  60  64
BRANCH  61  66
ATOM     66  O   UNL     1      35.793  11.826   2.886  1.00  0.00    -0.502 OA
ATOM     67  H   UNL     1      35.766  11.243   3.722  1.00  0.00     0.293 HD
ENDBRANCH  61  66
ENDBRANCH  54  56
ENDBRANCH  53  54
ENDBRANCH   5  53
BRANCH   4  68
ATOM     68  O   UNL     1      34.768  20.324   3.694  1.00  0.00    -0.448 OA
BRANCH  68  69
ATOM     69  C   UNL     1      35.869  20.397   4.561  1.00  0.00     0.339 C 
ATOM     70  O   UNL     1      36.378  19.341   5.024  1.00  0.00    -0.246 OA
BRANCH  69  71
ATOM     71  C   UNL     1      36.458  21.709   4.900  1.00  0.00     0.067 A 
ATOM     72  C   UNL     1      36.785  22.630   3.889  1.00  0.00     0.066 A 
ATOM     73  C   UNL     1      36.696  22.055   6.240  1.00  0.00     0.066 A 
ATOM     74  C   UNL     1      37.309  23.889   4.214  1.00  0.00     0.162 A 
ATOM     75  C   UNL     1      37.234  23.304   6.579  1.00  0.00     0.162 A 
ATOM     76  C   UNL     1      37.526  24.239   5.555  1.00  0.00     0.200 A 
BRANCH  74  77
ATOM     77  O   UNL     1      37.606  24.810   3.209  1.00  0.00    -0.504 OA
ATOM     78  H   UNL     1      37.167  24.760   2.302  1.00  0.00     0.293 HD
ENDBRANCH  74  77
BRANCH  75  79
ATOM     79  O   UNL     1      37.469  23.562   7.933  1.00  0.00    -0.504 OA
ATOM     80  H   UNL     1      36.910  24.184   8.495  1.00  0.00     0.293 HD
ENDBRANCH  75  79
BRANCH  76  81
ATOM     81  O   UNL     1      38.017  25.517   5.831  1.00  0.00    -0.502 OA
ATOM     82  H   UNL     1      37.988  25.937   6.744  1.00  0.00     0.293 HD
ENDBRANCH  76  81
ENDBRANCH  69  71
ENDBRANCH  68  69
ENDBRANCH   4  68
TORSDOF 31
ENDMDL
