MODEL 1
REMARK VINA RESULT:    -3.963      0.000      0.000
REMARK INTER + INTRA:          -6.146
REMARK INTER:                  -5.816
REMARK INTRA:                  -0.330
REMARK UNBOUND:                -0.330
REMARK SMILES O=C([O-])CCCCCCCC(=O)[O-]
REMARK SMILES IDX 7 1 6 2 5 3 4 4 2 5 1 6 3 7 8 8 9 9 10 10 11 11 12 12 13 13
REMARK H PARENT
REMARK Flexibility Score: inf
ROOT
ATOM      1  C   UNL     1       5.898  -0.827  -3.208  1.00  0.00     0.000 C 
ENDROOT
BRANCH   1   2
ATOM      2  C   UNL     1       6.195  -1.259  -1.764  1.00  0.00     0.000 C 
BRANCH   2   3
ATOM      3  C   UNL     1       5.509  -0.321  -0.760  1.00  0.00     0.006 C 
BRANCH   3   4
ATOM      4  C   UNL     1       6.422   0.033   0.421  1.00  0.00     0.053 C 
BRANCH   4   5
ATOM      5  C   UNL     1       5.639   0.506   1.608  1.00  0.00     0.041 C 
ATOM      6  O   UNL     1       5.270   1.707   1.685  1.00  0.00    -0.550 OA
ATOM      7  O   UNL     1       5.344  -0.372   2.643  1.00  0.00    -0.550 OA
ENDBRANCH   4   5
ENDBRANCH   3   4
ENDBRANCH   2   3
ENDBRANCH   1   2
BRANCH   1   8
ATOM      8  C   UNL     1       5.213  -1.932  -4.028  1.00  0.00     0.000 C 
BRANCH   8   9
ATOM      9  C   UNL     1       3.899  -1.466  -4.674  1.00  0.00     0.006 C 
BRANCH   9  10
ATOM     10  C   UNL     1       2.706  -1.764  -3.763  1.00  0.00     0.053 C 
BRANCH  10  11
ATOM     11  C   UNL     1       2.023  -3.024  -4.189  1.00  0.00     0.041 C 
ATOM     12  O   UNL     1       2.239  -3.508  -5.332  1.00  0.00    -0.550 OA
ATOM     13  O   UNL     1       1.185  -3.694  -3.307  1.00  0.00    -0.550 OA
ENDBRANCH  10  11
ENDBRANCH   9  10
ENDBRANCH   8   9
ENDBRANCH   1   8
TORSDOF 8
ENDMDL
MODEL 2
REMARK VINA RESULT:    -3.926      0.689      6.487
REMARK INTER + INTRA:          -6.093
REMARK INTER:                  -5.753
REMARK INTRA:                  -0.340
REMARK UNBOUND:                -0.330
REMARK SMILES O=C([O-])CCCCCCCC(=O)[O-]
REMARK SMILES IDX 7 1 6 2 5 3 4 4 2 5 1 6 3 7 8 8 9 9 10 10 11 11 12 12 13 13
REMARK H PARENT
REMARK Flexibility Score: inf
ROOT
ATOM      1  C   UNL     1       5.414  -1.026  -2.479  1.00  0.00     0.000 C 
ENDROOT
BRANCH   1   2
ATOM      2  C   UNL     1       5.485  -1.370  -3.975  1.00  0.00     0.000 C 
BRANCH   2   3
ATOM      3  C   UNL     1       4.089  -1.326  -4.614  1.00  0.00     0.006 C 
BRANCH   3   4
ATOM      4  C   UNL     1       2.989  -1.766  -3.639  1.00  0.00     0.053 C 
BRANCH   4   5
ATOM      5  C   UNL     1       2.115  -2.829  -4.230  1.00  0.00     0.041 C 
ATOM      6  O   UNL     1       1.390  -3.540  -3.484  1.00  0.00    -0.550 OA
ATOM      7  O   UNL     1       2.124  -3.057  -5.600  1.00  0.00    -0.550 OA
ENDBRANCH   4   5
ENDBRANCH   3   4
ENDBRANCH   2   3
ENDBRANCH   1   2
BRANCH   1   8
ATOM      8  C   UNL     1       6.590  -1.610  -1.680  1.00  0.00     0.000 C 
BRANCH   8   9
ATOM      9  C   UNL     1       6.522  -1.263  -0.185  1.00  0.00     0.006 C 
BRANCH   9  10
ATOM     10  C   UNL     1       5.625  -0.046   0.054  1.00  0.00     0.053 C 
BRANCH  10  11
ATOM     11  C   UNL     1       5.745   0.423   1.470  1.00  0.00     0.041 C 
ATOM     12  O   UNL     1       5.328  -0.298   2.415  1.00  0.00    -0.550 OA
ATOM     13  O   UNL     1       6.362   1.636   1.751  1.00  0.00    -0.550 OA
ENDBRANCH  10  11
ENDBRANCH   9  10
ENDBRANCH   8   9
ENDBRANCH   1   8
TORSDOF 8
ENDMDL
MODEL 3
REMARK VINA RESULT:    -3.883      1.216      1.707
REMARK INTER + INTRA:          -6.029
REMARK INTER:                  -5.725
REMARK INTRA:                  -0.303
REMARK UNBOUND:                -0.330
REMARK SMILES O=C([O-])CCCCCCCC(=O)[O-]
REMARK SMILES IDX 7 1 6 2 5 3 4 4 2 5 1 6 3 7 8 8 9 9 10 10 11 11 12 12 13 13
REMARK H PARENT
REMARK Flexibility Score: inf
ROOT
ATOM      1  C   UNL     1       5.972  -0.408  -2.375  1.00  0.00     0.000 C 
ENDROOT
BRANCH   1   2
ATOM      2  C   UNL     1       5.549  -0.415  -0.899  1.00  0.00     0.000 C 
BRANCH   2   3
ATOM      3  C   UNL     1       6.672  -0.968  -0.009  1.00  0.00     0.006 C 
BRANCH   3   4
ATOM      4  C   UNL     1       7.093   0.027   1.080  1.00  0.00     0.053 C 
BRANCH   4   5
ATOM      5  C   UNL     1       5.933   0.444   1.932  1.00  0.00     0.041 C 
ATOM      6  O   UNL     1       5.367  -0.392   2.684  1.00  0.00    -0.550 OA
ATOM      7  O   UNL     1       5.456   1.747   1.870  1.00  0.00    -0.550 OA
ENDBRANCH   4   5
ENDBRANCH   3   4
ENDBRANCH   2   3
ENDBRANCH   1   2
BRANCH   1   8
ATOM      8  C   UNL     1       5.173  -1.409  -3.225  1.00  0.00     0.000 C 
BRANCH   8   9
ATOM      9  C   UNL     1       4.983  -0.938  -4.675  1.00  0.00     0.006 C 
BRANCH   9  10
ATOM     10  C   UNL     1       3.901  -1.760  -5.380  1.00  0.00     0.053 C 
BRANCH  10  11
ATOM     11  C   UNL     1       2.571  -1.545  -4.728  1.00  0.00     0.041 C 
ATOM     12  O   UNL     1       1.966  -0.449  -4.868  1.00  0.00    -0.550 OA
ATOM     13  O   UNL     1       1.977  -2.573  -4.007  1.00  0.00    -0.550 OA
ENDBRANCH  10  11
ENDBRANCH   9  10
ENDBRANCH   8   9
ENDBRANCH   1   8
TORSDOF 8
ENDMDL
MODEL 4
REMARK VINA RESULT:    -3.874      0.514      6.432
REMARK INTER + INTRA:          -6.016
REMARK INTER:                  -5.681
REMARK INTRA:                  -0.335
REMARK UNBOUND:                -0.330
REMARK SMILES O=C([O-])CCCCCCCC(=O)[O-]
REMARK SMILES IDX 7 1 6 2 5 3 4 4 2 5 1 6 3 7 8 8 9 9 10 10 11 11 12 12 13 13
REMARK H PARENT
REMARK Flexibility Score: inf
ROOT
ATOM      1  C   UNL     1       5.600  -0.736  -3.519  1.00  0.00     0.000 C 
ENDROOT
BRANCH   1   2
ATOM      2  C   UNL     1       5.041  -1.784  -4.492  1.00  0.00     0.000 C 
BRANCH   2   3
ATOM      3  C   UNL     1       3.602  -1.438  -4.902  1.00  0.00     0.006 C 
BRANCH   3   4
ATOM      4  C   UNL     1       2.584  -1.802  -3.813  1.00  0.00     0.053 C 
BRANCH   4   5
ATOM      5  C   UNL     1       1.913  -3.112  -4.094  1.00  0.00     0.041 C 
ATOM      6  O   UNL     1       1.144  -3.625  -3.240  1.00  0.00    -0.550 OA
ATOM      7  O   UNL     1       2.163  -3.782  -5.284  1.00  0.00    -0.550 OA
ENDBRANCH   4   5
ENDBRANCH   3   4
ENDBRANCH   2   3
ENDBRANCH   1   2
BRANCH   1   8
ATOM      8  C   UNL     1       5.969  -1.334  -2.151  1.00  0.00     0.000 C 
BRANCH   8   9
ATOM      9  C   UNL     1       5.579  -0.420  -0.979  1.00  0.00     0.006 C 
BRANCH   9  10
ATOM     10  C   UNL     1       6.363  -0.786   0.284  1.00  0.00     0.053 C 
BRANCH  10  11
ATOM     11  C   UNL     1       6.011   0.140   1.405  1.00  0.00     0.041 C 
ATOM     12  O   UNL     1       6.339   1.355   1.351  1.00  0.00    -0.550 OA
ATOM     13  O   UNL     1       5.277  -0.326   2.488  1.00  0.00    -0.550 OA
ENDBRANCH  10  11
ENDBRANCH   9  10
ENDBRANCH   8   9
ENDBRANCH   1   8
TORSDOF 8
ENDMDL
MODEL 5
REMARK VINA RESULT:    -3.507      4.633      6.192
REMARK INTER + INTRA:          -5.477
REMARK INTER:                  -5.033
REMARK INTRA:                  -0.444
REMARK UNBOUND:                -0.330
REMARK SMILES O=C([O-])CCCCCCCC(=O)[O-]
REMARK SMILES IDX 7 1 6 2 5 3 4 4 2 5 1 6 3 7 8 8 9 9 10 10 11 11 12 12 13 13
REMARK H PARENT
REMARK Flexibility Score: inf
ROOT
ATOM      1  C   UNL     1       6.524   2.833  -0.121  1.00  0.00     0.000 C 
ENDROOT
BRANCH   1   2
ATOM      2  C   UNL     1       6.443   1.586  -1.014  1.00  0.00     0.000 C 
BRANCH   2   3
ATOM      3  C   UNL     1       5.601   0.488  -0.346  1.00  0.00     0.006 C 
BRANCH   3   4
ATOM      4  C   UNL     1       6.444  -0.418   0.561  1.00  0.00     0.053 C 
BRANCH   4   5
ATOM      5  C   UNL     1       6.322  -0.029   2.003  1.00  0.00     0.041 C 
ATOM      6  O   UNL     1       5.260  -0.267   2.636  1.00  0.00    -0.550 OA
ATOM      7  O   UNL     1       7.369   0.626   2.639  1.00  0.00    -0.550 OA
ENDBRANCH   4   5
ENDBRANCH   3   4
ENDBRANCH   2   3
ENDBRANCH   1   2
BRANCH   1   8
ATOM      8  C   UNL     1       5.931   4.082  -0.794  1.00  0.00     0.000 C 
BRANCH   8   9
ATOM      9  C   UNL     1       4.900   4.799   0.091  1.00  0.00     0.006 C 
BRANCH   9  10
ATOM     10  C   UNL     1       4.570   3.967   1.332  1.00  0.00     0.053 C 
BRANCH  10  11
ATOM     11  C   UNL     1       3.098   3.980   1.596  1.00  0.00     0.041 C 
ATOM     12  O   UNL     1       2.644   3.532   2.682  1.00  0.00    -0.550 OA
ATOM     13  O   UNL     1       2.229   4.534   0.664  1.00  0.00    -0.550 OA
ENDBRANCH  10  11
ENDBRANCH   9  10
ENDBRANCH   8   9
ENDBRANCH   1   8
TORSDOF 8
ENDMDL
MODEL 6
REMARK VINA RESULT:    -3.499      1.303      1.844
REMARK INTER + INTRA:          -5.466
REMARK INTER:                  -5.076
REMARK INTRA:                  -0.390
REMARK UNBOUND:                -0.330
REMARK SMILES O=C([O-])CCCCCCCC(=O)[O-]
REMARK SMILES IDX 7 1 6 2 5 3 4 4 2 5 1 6 3 7 8 8 9 9 10 10 11 11 12 12 13 13
REMARK H PARENT
REMARK Flexibility Score: inf
ROOT
ATOM      1  C   UNL     1       6.825  -2.010  -2.110  1.00  0.00     0.000 C 
ENDROOT
BRANCH   1   2
ATOM      2  C   UNL     1       7.104  -1.882  -0.605  1.00  0.00     0.000 C 
BRANCH   2   3
ATOM      3  C   UNL     1       6.245  -0.772   0.019  1.00  0.00     0.006 C 
BRANCH   3   4
ATOM      4  C   UNL     1       7.024   0.053   1.051  1.00  0.00     0.053 C 
BRANCH   4   5
ATOM      5  C   UNL     1       6.162   0.450   2.211  1.00  0.00     0.041 C 
ATOM      6  O   UNL     1       6.253   1.606   2.701  1.00  0.00    -0.550 OA
ATOM      7  O   UNL     1       5.282  -0.467   2.771  1.00  0.00    -0.550 OA
ENDBRANCH   4   5
ENDBRANCH   3   4
ENDBRANCH   2   3
ENDBRANCH   1   2
BRANCH   1   8
ATOM      8  C   UNL     1       5.688  -1.090  -2.582  1.00  0.00     0.000 C 
BRANCH   8   9
ATOM      9  C   UNL     1       5.759  -0.781  -4.085  1.00  0.00     0.006 C 
BRANCH   9  10
ATOM     10  C   UNL     1       4.396  -0.986  -4.752  1.00  0.00     0.053 C 
BRANCH  10  11
ATOM     11  C   UNL     1       3.891  -2.371  -4.495  1.00  0.00     0.041 C 
ATOM     12  O   UNL     1       2.775  -2.545  -3.938  1.00  0.00    -0.550 OA
ATOM     13  O   UNL     1       4.630  -3.470  -4.915  1.00  0.00    -0.550 OA
ENDBRANCH  10  11
ENDBRANCH   9  10
ENDBRANCH   8   9
ENDBRANCH   1   8
TORSDOF 8
ENDMDL
MODEL 7
REMARK VINA RESULT:    -3.476      5.149      6.957
REMARK INTER + INTRA:          -5.431
REMARK INTER:                  -5.035
REMARK INTRA:                  -0.396
REMARK UNBOUND:                -0.330
REMARK SMILES O=C([O-])CCCCCCCC(=O)[O-]
REMARK SMILES IDX 7 1 6 2 5 3 4 4 2 5 1 6 3 7 8 8 9 9 10 10 11 11 12 12 13 13
REMARK H PARENT
REMARK Flexibility Score: inf
ROOT
ATOM      1  C   UNL     1       9.765  -0.365   3.020  1.00  0.00     0.000 C 
ENDROOT
BRANCH   1   2
ATOM      2  C   UNL     1       9.749  -0.853   4.476  1.00  0.00     0.000 C 
BRANCH   2   3
ATOM      3  C   UNL     1       9.029   0.156   5.384  1.00  0.00     0.006 C 
BRANCH   3   4
ATOM      4  C   UNL     1       8.077  -0.530   6.373  1.00  0.00     0.053 C 
BRANCH   4   5
ATOM      5  C   UNL     1       6.711   0.084   6.347  1.00  0.00     0.041 C 
ATOM      6  O   UNL     1       6.407   0.914   5.450  1.00  0.00    -0.550 OA
ATOM      7  O   UNL     1       5.784  -0.235   7.330  1.00  0.00    -0.550 OA
ENDBRANCH   4   5
ENDBRANCH   3   4
ENDBRANCH   2   3
ENDBRANCH   1   2
BRANCH   1   8
ATOM      8  C   UNL     1       8.491   0.406   2.639  1.00  0.00     0.000 C 
BRANCH   8   9
ATOM      9  C   UNL     1       8.195   0.357   1.132  1.00  0.00     0.006 C 
BRANCH   9  10
ATOM     10  C   UNL     1       6.824  -0.269   0.864  1.00  0.00     0.053 C 
BRANCH  10  11
ATOM     11  C   UNL     1       5.798   0.298   1.795  1.00  0.00     0.041 C 
ATOM     12  O   UNL     1       5.292  -0.422   2.696  1.00  0.00    -0.550 OA
ATOM     13  O   UNL     1       5.437   1.636   1.699  1.00  0.00    -0.550 OA
ENDBRANCH  10  11
ENDBRANCH   9  10
ENDBRANCH   8   9
ENDBRANCH   1   8
TORSDOF 8
ENDMDL
MODEL 8
REMARK VINA RESULT:    -3.425      4.269      6.905
REMARK INTER + INTRA:          -5.357
REMARK INTER:                  -4.893
REMARK INTRA:                  -0.464
REMARK UNBOUND:                -0.330
REMARK SMILES O=C([O-])CCCCCCCC(=O)[O-]
REMARK SMILES IDX 7 1 6 2 5 3 4 4 2 5 1 6 3 7 8 8 9 9 10 10 11 11 12 12 13 13
REMARK H PARENT
REMARK Flexibility Score: inf
ROOT
ATOM      1  C   UNL     1       1.592  -4.876  -3.917  1.00  0.00     0.000 C 
ENDROOT
BRANCH   1   2
ATOM      2  C   UNL     1       0.557  -4.322  -2.928  1.00  0.00     0.000 C 
BRANCH   2   3
ATOM      3  C   UNL     1       0.655  -5.039  -1.573  1.00  0.00     0.006 C 
BRANCH   3   4
ATOM      4  C   UNL     1       1.176  -6.475  -1.713  1.00  0.00     0.053 C 
BRANCH   4   5
ATOM      5  C   UNL     1       0.076  -7.483  -1.577  1.00  0.00     0.041 C 
ATOM      6  O   UNL     1      -0.163  -8.014  -0.461  1.00  0.00    -0.550 OA
ATOM      7  O   UNL     1      -0.666  -7.859  -2.690  1.00  0.00    -0.550 OA
ENDBRANCH   4   5
ENDBRANCH   3   4
ENDBRANCH   2   3
ENDBRANCH   1   2
BRANCH   1   8
ATOM      8  C   UNL     1       2.391  -3.768  -4.622  1.00  0.00     0.000 C 
BRANCH   8   9
ATOM      9  C   UNL     1       2.238  -2.400  -3.941  1.00  0.00     0.006 C 
BRANCH   9  10
ATOM     10  C   UNL     1       2.788  -1.281  -4.829  1.00  0.00     0.053 C 
BRANCH  10  11
ATOM     11  C   UNL     1       4.282  -1.335  -4.874  1.00  0.00     0.041 C 
ATOM     12  O   UNL     1       4.955  -1.172  -3.821  1.00  0.00    -0.550 OA
ATOM     13  O   UNL     1       4.932  -1.614  -6.069  1.00  0.00    -0.550 OA
ENDBRANCH  10  11
ENDBRANCH   9  10
ENDBRANCH   8   9
ENDBRANCH   1   8
TORSDOF 8
ENDMDL
MODEL 9
REMARK VINA RESULT:    -3.400      3.924      6.406
REMARK INTER + INTRA:          -5.321
REMARK INTER:                  -4.842
REMARK INTRA:                  -0.479
REMARK UNBOUND:                -0.330
REMARK SMILES O=C([O-])CCCCCCCC(=O)[O-]
REMARK SMILES IDX 7 1 6 2 5 3 4 4 2 5 1 6 3 7 8 8 9 9 10 10 11 11 12 12 13 13
REMARK H PARENT
REMARK Flexibility Score: inf
ROOT
ATOM      1  C   UNL     1       2.701  -3.831  -5.116  1.00  0.00     0.000 C 
ENDROOT
BRANCH   1   2
ATOM      2  C   UNL     1       1.484  -4.608  -4.592  1.00  0.00     0.000 C 
BRANCH   2   3
ATOM      3  C   UNL     1       1.012  -4.042  -3.244  1.00  0.00     0.006 C 
BRANCH   3   4
ATOM      4  C   UNL     1      -0.110  -4.884  -2.622  1.00  0.00     0.053 C 
BRANCH   4   5
ATOM      5  C   UNL     1       0.408  -6.174  -2.062  1.00  0.00     0.041 C 
ATOM      6  O   UNL     1       0.040  -7.271  -2.556  1.00  0.00    -0.550 OA
ATOM      7  O   UNL     1       1.271  -6.164  -0.973  1.00  0.00    -0.550 OA
ENDBRANCH   4   5
ENDBRANCH   3   4
ENDBRANCH   2   3
ENDBRANCH   1   2
BRANCH   1   8
ATOM      8  C   UNL     1       2.313  -2.501  -5.783  1.00  0.00     0.000 C 
BRANCH   8   9
ATOM      9  C   UNL     1       2.746  -1.277  -4.962  1.00  0.00     0.006 C 
BRANCH   9  10
ATOM     10  C   UNL     1       3.788  -1.665  -3.909  1.00  0.00     0.053 C 
BRANCH  10  11
ATOM     11  C   UNL     1       5.127  -1.101  -4.265  1.00  0.00     0.041 C 
ATOM     12  O   UNL     1       5.227  -0.219  -5.158  1.00  0.00    -0.550 OA
ATOM     13  O   UNL     1       6.260  -1.513  -3.575  1.00  0.00    -0.550 OA
ENDBRANCH  10  11
ENDBRANCH   9  10
ENDBRANCH   8   9
ENDBRANCH   1   8
TORSDOF 8
ENDMDL
