MODEL 1
REMARK VINA RESULT:    -4.421      0.000      0.000
REMARK INTER + INTRA:          -6.879
REMARK INTER:                  -6.489
REMARK INTRA:                  -0.390
REMARK UNBOUND:                -0.390
REMARK SMILES O=C([O-])CCCCCCCC(=O)[O-]
REMARK SMILES IDX 7 1 6 2 5 3 4 4 2 5 1 6 3 7 8 8 9 9 10 10 11 11 12 12 13 13
REMARK H PARENT
REMARK Flexibility Score: inf
ROOT
ATOM      1  C   UNL     1     -20.612 -24.276  13.895  1.00  0.00     0.000 C 
ENDROOT
BRANCH   1   2
ATOM      2  C   UNL     1     -20.678 -23.241  12.763  1.00  0.00     0.000 C 
BRANCH   2   3
ATOM      3  C   UNL     1     -19.282 -22.966  12.186  1.00  0.00     0.006 C 
BRANCH   3   4
ATOM      4  C   UNL     1     -19.148 -21.535  11.650  1.00  0.00     0.053 C 
BRANCH   4   5
ATOM      5  C   UNL     1     -19.579 -21.436  10.219  1.00  0.00     0.041 C 
ATOM      6  O   UNL     1     -19.988 -20.339   9.753  1.00  0.00    -0.550 OA
ATOM      7  O   UNL     1     -19.496 -22.547   9.389  1.00  0.00    -0.550 OA
ENDBRANCH   4   5
ENDBRANCH   3   4
ENDBRANCH   2   3
ENDBRANCH   1   2
BRANCH   1   8
ATOM      8  C   UNL     1     -19.278 -24.242  14.661  1.00  0.00     0.000 C 
BRANCH   8   9
ATOM      9  C   UNL     1     -18.687 -25.640  14.937  1.00  0.00     0.006 C 
BRANCH   9  10
ATOM     10  C   UNL     1     -17.217 -25.743  14.510  1.00  0.00     0.053 C 
BRANCH  10  11
ATOM     11  C   UNL     1     -16.391 -26.326  15.613  1.00  0.00     0.041 C 
ATOM     12  O   UNL     1     -16.430 -27.562  15.850  1.00  0.00    -0.550 OA
ATOM     13  O   UNL     1     -15.614 -25.496  16.412  1.00  0.00    -0.550 OA
ENDBRANCH  10  11
ENDBRANCH   9  10
ENDBRANCH   8   9
ENDBRANCH   1   8
TORSDOF 8
ENDMDL
MODEL 2
REMARK VINA RESULT:    -4.377      9.947     11.891
REMARK INTER + INTRA:          -6.813
REMARK INTER:                  -6.267
REMARK INTRA:                  -0.546
REMARK UNBOUND:                -0.390
REMARK SMILES O=C([O-])CCCCCCCC(=O)[O-]
REMARK SMILES IDX 7 1 6 2 5 3 4 4 2 5 1 6 3 7 8 8 9 9 10 10 11 11 12 12 13 13
REMARK H PARENT
REMARK Flexibility Score: inf
ROOT
ATOM      1  C   UNL     1     -29.984 -23.395  15.446  1.00  0.00     0.000 C 
ENDROOT
BRANCH   1   2
ATOM      2  C   UNL     1     -29.771 -24.506  14.410  1.00  0.00     0.000 C 
BRANCH   2   3
ATOM      3  C   UNL     1     -28.641 -25.452  14.840  1.00  0.00     0.006 C 
BRANCH   3   4
ATOM      4  C   UNL     1     -27.322 -24.707  15.087  1.00  0.00     0.053 C 
BRANCH   4   5
ATOM      5  C   UNL     1     -26.462 -25.417  16.087  1.00  0.00     0.041 C 
ATOM      6  O   UNL     1     -25.210 -25.292  16.049  1.00  0.00    -0.550 OA
ATOM      7  O   UNL     1     -27.047 -26.189  17.083  1.00  0.00    -0.550 OA
ENDBRANCH   4   5
ENDBRANCH   3   4
ENDBRANCH   2   3
ENDBRANCH   1   2
BRANCH   1   8
ATOM      8  C   UNL     1     -30.567 -23.915  16.772  1.00  0.00     0.000 C 
BRANCH   8   9
ATOM      9  C   UNL     1     -30.355 -22.955  17.960  1.00  0.00     0.006 C 
BRANCH   9  10
ATOM     10  C   UNL     1     -29.225 -21.950  17.700  1.00  0.00     0.053 C 
BRANCH  10  11
ATOM     11  C   UNL     1     -29.741 -20.548  17.787  1.00  0.00     0.041 C 
ATOM     12  O   UNL     1     -30.510 -20.099  16.898  1.00  0.00    -0.550 OA
ATOM     13  O   UNL     1     -29.332 -19.720  18.825  1.00  0.00    -0.550 OA
ENDBRANCH  10  11
ENDBRANCH   9  10
ENDBRANCH   8   9
ENDBRANCH   1   8
TORSDOF 8
ENDMDL
MODEL 3
REMARK VINA RESULT:    -4.370     11.079     12.338
REMARK INTER + INTRA:          -6.803
REMARK INTER:                  -6.265
REMARK INTRA:                  -0.538
REMARK UNBOUND:                -0.390
REMARK SMILES O=C([O-])CCCCCCCC(=O)[O-]
REMARK SMILES IDX 7 1 6 2 5 3 4 4 2 5 1 6 3 7 8 8 9 9 10 10 11 11 12 12 13 13
REMARK H PARENT
REMARK Flexibility Score: inf
ROOT
ATOM      1  C   UNL     1     -24.100 -28.259   4.563  1.00  0.00     0.000 C 
ENDROOT
BRANCH   1   2
ATOM      2  C   UNL     1     -24.055 -29.326   3.460  1.00  0.00     0.000 C 
BRANCH   2   3
ATOM      3  C   UNL     1     -22.611 -29.760   3.172  1.00  0.00     0.006 C 
BRANCH   3   4
ATOM      4  C   UNL     1     -21.975 -30.488   4.363  1.00  0.00     0.053 C 
BRANCH   4   5
ATOM      5  C   UNL     1     -22.573 -31.846   4.566  1.00  0.00     0.041 C 
ATOM      6  O   UNL     1     -22.498 -32.716   3.658  1.00  0.00    -0.550 OA
ATOM      7  O   UNL     1     -23.184 -32.163   5.773  1.00  0.00    -0.550 OA
ENDBRANCH   4   5
ENDBRANCH   3   4
ENDBRANCH   2   3
ENDBRANCH   1   2
BRANCH   1   8
ATOM      8  C   UNL     1     -25.413 -28.280   5.365  1.00  0.00     0.000 C 
BRANCH   8   9
ATOM      9  C   UNL     1     -25.626 -29.578   6.169  1.00  0.00     0.006 C 
BRANCH   9  10
ATOM     10  C   UNL     1     -26.992 -29.611   6.867  1.00  0.00     0.053 C 
BRANCH  10  11
ATOM     11  C   UNL     1     -26.931 -28.885   8.174  1.00  0.00     0.041 C 
ATOM     12  O   UNL     1     -26.009 -29.133   8.994  1.00  0.00    -0.550 OA
ATOM     13  O   UNL     1     -27.920 -27.969   8.507  1.00  0.00    -0.550 OA
ENDBRANCH  10  11
ENDBRANCH   9  10
ENDBRANCH   8   9
ENDBRANCH   1   8
TORSDOF 8
ENDMDL
MODEL 4
REMARK VINA RESULT:    -4.324     12.826     15.582
REMARK INTER + INTRA:          -6.735
REMARK INTER:                  -6.293
REMARK INTRA:                  -0.442
REMARK UNBOUND:                -0.390
REMARK SMILES O=C([O-])CCCCCCCC(=O)[O-]
REMARK SMILES IDX 7 1 6 2 5 3 4 4 2 5 1 6 3 7 8 8 9 9 10 10 11 11 12 12 13 13
REMARK H PARENT
REMARK Flexibility Score: inf
ROOT
ATOM      1  C   UNL     1     -24.695 -20.393   1.326  1.00  0.00     0.000 C 
ENDROOT
BRANCH   1   2
ATOM      2  C   UNL     1     -23.899 -20.590   2.623  1.00  0.00     0.000 C 
BRANCH   2   3
ATOM      3  C   UNL     1     -22.520 -21.201   2.335  1.00  0.00     0.006 C 
BRANCH   3   4
ATOM      4  C   UNL     1     -22.624 -22.594   1.701  1.00  0.00     0.053 C 
BRANCH   4   5
ATOM      5  C   UNL     1     -21.804 -22.698   0.452  1.00  0.00     0.041 C 
ATOM      6  O   UNL     1     -21.471 -23.827   0.003  1.00  0.00    -0.550 OA
ATOM      7  O   UNL     1     -21.436 -21.548  -0.236  1.00  0.00    -0.550 OA
ENDBRANCH   4   5
ENDBRANCH   3   4
ENDBRANCH   2   3
ENDBRANCH   1   2
BRANCH   1   8
ATOM      8  C   UNL     1     -24.036 -19.390   0.363  1.00  0.00     0.000 C 
BRANCH   8   9
ATOM      9  C   UNL     1     -25.019 -18.353  -0.219  1.00  0.00     0.006 C 
BRANCH   9  10
ATOM     10  C   UNL     1     -26.087 -19.003  -1.110  1.00  0.00     0.053 C 
BRANCH  10  11
ATOM     11  C   UNL     1     -27.434 -18.908  -0.466  1.00  0.00     0.041 C 
ATOM     12  O   UNL     1     -28.434 -19.449  -1.007  1.00  0.00    -0.550 OA
ATOM     13  O   UNL     1     -27.594 -18.180   0.705  1.00  0.00    -0.550 OA
ENDBRANCH  10  11
ENDBRANCH   9  10
ENDBRANCH   8   9
ENDBRANCH   1   8
TORSDOF 8
ENDMDL
MODEL 5
REMARK VINA RESULT:    -4.311      3.110      4.583
REMARK INTER + INTRA:          -6.717
REMARK INTER:                  -6.365
REMARK INTRA:                  -0.353
REMARK UNBOUND:                -0.390
REMARK SMILES O=C([O-])CCCCCCCC(=O)[O-]
REMARK SMILES IDX 7 1 6 2 5 3 4 4 2 5 1 6 3 7 8 8 9 9 10 10 11 11 12 12 13 13
REMARK H PARENT
REMARK Flexibility Score: inf
ROOT
ATOM      1  C   UNL     1     -19.731 -20.718  10.103  1.00  0.00     0.000 C 
ENDROOT
BRANCH   1   2
ATOM      2  C   UNL     1     -19.988 -21.916   9.180  1.00  0.00     0.000 C 
BRANCH   2   3
ATOM      3  C   UNL     1     -21.083 -21.595   8.153  1.00  0.00     0.006 C 
BRANCH   3   4
ATOM      4  C   UNL     1     -22.450 -22.152   8.568  1.00  0.00     0.053 C 
BRANCH   4   5
ATOM      5  C   UNL     1     -23.574 -21.306   8.054  1.00  0.00     0.041 C 
ATOM      6  O   UNL     1     -24.752 -21.751   8.044  1.00  0.00    -0.550 OA
ATOM      7  O   UNL     1     -23.325 -20.010   7.617  1.00  0.00    -0.550 OA
ENDBRANCH   4   5
ENDBRANCH   3   4
ENDBRANCH   2   3
ENDBRANCH   1   2
BRANCH   1   8
ATOM      8  C   UNL     1     -19.098 -21.121  11.446  1.00  0.00     0.000 C 
BRANCH   8   9
ATOM      9  C   UNL     1     -19.159 -22.636  11.730  1.00  0.00     0.006 C 
BRANCH   9  10
ATOM     10  C   UNL     1     -20.031 -22.963  12.950  1.00  0.00     0.053 C 
BRANCH  10  11
ATOM     11  C   UNL     1     -19.392 -24.033  13.778  1.00  0.00     0.041 C 
ATOM     12  O   UNL     1     -18.433 -24.705  13.316  1.00  0.00    -0.550 OA
ATOM     13  O   UNL     1     -19.888 -24.322  15.043  1.00  0.00    -0.550 OA
ENDBRANCH  10  11
ENDBRANCH   9  10
ENDBRANCH   8   9
ENDBRANCH   1   8
TORSDOF 8
ENDMDL
MODEL 6
REMARK VINA RESULT:    -4.299      9.682     10.992
REMARK INTER + INTRA:          -6.699
REMARK INTER:                  -6.123
REMARK INTRA:                  -0.575
REMARK UNBOUND:                -0.390
REMARK SMILES O=C([O-])CCCCCCCC(=O)[O-]
REMARK SMILES IDX 7 1 6 2 5 3 4 4 2 5 1 6 3 7 8 8 9 9 10 10 11 11 12 12 13 13
REMARK H PARENT
REMARK Flexibility Score: inf
ROOT
ATOM      1  C   UNL     1     -29.863 -23.482  15.405  1.00  0.00     0.000 C 
ENDROOT
BRANCH   1   2
ATOM      2  C   UNL     1     -30.763 -23.892  16.579  1.00  0.00     0.000 C 
BRANCH   2   3
ATOM      3  C   UNL     1     -30.525 -22.989  17.798  1.00  0.00     0.006 C 
BRANCH   3   4
ATOM      4  C   UNL     1     -29.404 -21.970  17.554  1.00  0.00     0.053 C 
BRANCH   4   5
ATOM      5  C   UNL     1     -29.918 -20.563  17.586  1.00  0.00     0.041 C 
ATOM      6  O   UNL     1     -29.611 -19.796  18.536  1.00  0.00    -0.550 OA
ATOM      7  O   UNL     1     -30.708 -20.088  16.546  1.00  0.00    -0.550 OA
ENDBRANCH   4   5
ENDBRANCH   3   4
ENDBRANCH   2   3
ENDBRANCH   1   2
BRANCH   1   8
ATOM      8  C   UNL     1     -29.279 -24.687  14.648  1.00  0.00     0.000 C 
BRANCH   8   9
ATOM      9  C   UNL     1     -28.100 -25.363  15.376  1.00  0.00     0.006 C 
BRANCH   9  10
ATOM     10  C   UNL     1     -26.992 -24.365  15.739  1.00  0.00     0.053 C 
BRANCH  10  11
ATOM     11  C   UNL     1     -25.693 -25.077  15.949  1.00  0.00     0.041 C 
ATOM     12  O   UNL     1     -24.727 -24.879  15.166  1.00  0.00    -0.550 OA
ATOM     13  O   UNL     1     -25.565 -25.997  16.981  1.00  0.00    -0.550 OA
ENDBRANCH  10  11
ENDBRANCH   9  10
ENDBRANCH   8   9
ENDBRANCH   1   8
TORSDOF 8
ENDMDL
MODEL 7
REMARK VINA RESULT:    -4.273      7.478      8.977
REMARK INTER + INTRA:          -6.661
REMARK INTER:                  -6.453
REMARK INTRA:                  -0.208
REMARK UNBOUND:                -0.390
REMARK SMILES O=C([O-])CCCCCCCC(=O)[O-]
REMARK SMILES IDX 7 1 6 2 5 3 4 4 2 5 1 6 3 7 8 8 9 9 10 10 11 11 12 12 13 13
REMARK H PARENT
REMARK Flexibility Score: inf
ROOT
ATOM      1  C   UNL     1     -21.457 -29.892  14.234  1.00  0.00     0.000 C 
ENDROOT
BRANCH   1   2
ATOM      2  C   UNL     1     -21.512 -31.228  13.479  1.00  0.00     0.000 C 
BRANCH   2   3
ATOM      3  C   UNL     1     -21.604 -31.001  11.964  1.00  0.00     0.006 C 
BRANCH   3   4
ATOM      4  C   UNL     1     -22.940 -31.484  11.385  1.00  0.00     0.053 C 
BRANCH   4   5
ATOM      5  C   UNL     1     -22.884 -32.929  10.994  1.00  0.00     0.041 C 
ATOM      6  O   UNL     1     -23.769 -33.730  11.397  1.00  0.00    -0.550 OA
ATOM      7  O   UNL     1     -21.875 -33.384  10.155  1.00  0.00    -0.550 OA
ENDBRANCH   4   5
ENDBRANCH   3   4
ENDBRANCH   2   3
ENDBRANCH   1   2
BRANCH   1   8
ATOM      8  C   UNL     1     -21.725 -30.043  15.741  1.00  0.00     0.000 C 
BRANCH   8   9
ATOM      9  C   UNL     1     -21.822 -28.698  16.490  1.00  0.00     0.006 C 
BRANCH   9  10
ATOM     10  C   UNL     1     -22.921 -28.709  17.562  1.00  0.00     0.053 C 
BRANCH  10  11
ATOM     11  C   UNL     1     -23.575 -27.367  17.655  1.00  0.00     0.041 C 
ATOM     12  O   UNL     1     -24.068 -26.976  18.746  1.00  0.00    -0.550 OA
ATOM     13  O   UNL     1     -23.685 -26.567  16.525  1.00  0.00    -0.550 OA
ENDBRANCH  10  11
ENDBRANCH   9  10
ENDBRANCH   8   9
ENDBRANCH   1   8
TORSDOF 8
ENDMDL
MODEL 8
REMARK VINA RESULT:    -4.250      3.178      7.742
REMARK INTER + INTRA:          -6.628
REMARK INTER:                  -6.284
REMARK INTRA:                  -0.343
REMARK UNBOUND:                -0.390
REMARK SMILES O=C([O-])CCCCCCCC(=O)[O-]
REMARK SMILES IDX 7 1 6 2 5 3 4 4 2 5 1 6 3 7 8 8 9 9 10 10 11 11 12 12 13 13
REMARK H PARENT
REMARK Flexibility Score: inf
ROOT
ATOM      1  C   UNL     1     -19.832 -20.577  10.084  1.00  0.00     0.000 C 
ENDROOT
BRANCH   1   2
ATOM      2  C   UNL     1     -19.108 -20.905  11.398  1.00  0.00     0.000 C 
BRANCH   2   3
ATOM      3  C   UNL     1     -19.091 -22.419  11.654  1.00  0.00     0.006 C 
BRANCH   3   4
ATOM      4  C   UNL     1     -19.984 -22.818  12.836  1.00  0.00     0.053 C 
BRANCH   4   5
ATOM      5  C   UNL     1     -19.379 -23.930  13.637  1.00  0.00     0.041 C 
ATOM      6  O   UNL     1     -18.470 -24.647  13.142  1.00  0.00    -0.550 OA
ATOM      7  O   UNL     1     -19.795 -24.151  14.943  1.00  0.00    -0.550 OA
ENDBRANCH   4   5
ENDBRANCH   3   4
ENDBRANCH   2   3
ENDBRANCH   1   2
BRANCH   1   8
ATOM      8  C   UNL     1     -20.020 -21.807   9.180  1.00  0.00     0.000 C 
BRANCH   8   9
ATOM      9  C   UNL     1     -21.497 -22.142   8.889  1.00  0.00     0.006 C 
BRANCH   9  10
ATOM     10  C   UNL     1     -22.028 -21.401   7.654  1.00  0.00     0.053 C 
BRANCH  10  11
ATOM     11  C   UNL     1     -23.496 -21.144   7.788  1.00  0.00     0.041 C 
ATOM     12  O   UNL     1     -24.313 -22.101   7.752  1.00  0.00    -0.550 OA
ATOM     13  O   UNL     1     -23.966 -19.842   7.904  1.00  0.00    -0.550 OA
ENDBRANCH  10  11
ENDBRANCH   9  10
ENDBRANCH   8   9
ENDBRANCH   1   8
TORSDOF 8
ENDMDL
MODEL 9
REMARK VINA RESULT:    -4.226      0.916      6.650
REMARK INTER + INTRA:          -6.593
REMARK INTER:                  -6.259
REMARK INTRA:                  -0.334
REMARK UNBOUND:                -0.390
REMARK SMILES O=C([O-])CCCCCCCC(=O)[O-]
REMARK SMILES IDX 7 1 6 2 5 3 4 4 2 5 1 6 3 7 8 8 9 9 10 10 11 11 12 12 13 13
REMARK H PARENT
REMARK Flexibility Score: inf
ROOT
ATOM      1  C   UNL     1     -19.267 -24.057  14.411  1.00  0.00     0.000 C 
ENDROOT
BRANCH   1   2
ATOM      2  C   UNL     1     -19.747 -25.360  15.064  1.00  0.00     0.000 C 
BRANCH   2   3
ATOM      3  C   UNL     1     -18.574 -26.320  15.305  1.00  0.00     0.006 C 
BRANCH   3   4
ATOM      4  C   UNL     1     -17.219 -25.671  14.992  1.00  0.00     0.053 C 
BRANCH   4   5
ATOM      5  C   UNL     1     -16.110 -26.291  15.786  1.00  0.00     0.041 C 
ATOM      6  O   UNL     1     -15.145 -25.588  16.184  1.00  0.00    -0.550 OA
ATOM      7  O   UNL     1     -16.162 -27.640  16.116  1.00  0.00    -0.550 OA
ENDBRANCH   4   5
ENDBRANCH   3   4
ENDBRANCH   2   3
ENDBRANCH   1   2
BRANCH   1   8
ATOM      8  C   UNL     1     -19.909 -23.803  13.036  1.00  0.00     0.000 C 
BRANCH   8   9
ATOM      9  C   UNL     1     -18.945 -23.169  12.010  1.00  0.00     0.006 C 
BRANCH   9  10
ATOM     10  C   UNL     1     -19.681 -22.642  10.772  1.00  0.00     0.053 C 
BRANCH  10  11
ATOM     11  C   UNL     1     -19.547 -21.155  10.677  1.00  0.00     0.041 C 
ATOM     12  O   UNL     1     -20.026 -20.536   9.690  1.00  0.00    -0.550 OA
ATOM     13  O   UNL     1     -18.849 -20.456  11.654  1.00  0.00    -0.550 OA
ENDBRANCH  10  11
ENDBRANCH   9  10
ENDBRANCH   8   9
ENDBRANCH   1   8
TORSDOF 8
ENDMDL
