MODEL 1
REMARK VINA RESULT:    -5.957      0.000      0.000
REMARK INTER + INTRA:          -9.162
REMARK INTER:                  -8.742
REMARK INTRA:                  -0.419
REMARK UNBOUND:                -0.419
REMARK SMILES O=C([O-])CCCCCCCC(=O)[O-]
REMARK SMILES IDX 7 1 6 2 5 3 4 4 2 5 1 6 3 7 8 8 9 9 10 10 11 11 12 12 13 13
REMARK H PARENT
REMARK Flexibility Score: inf
ROOT
ATOM      1  C   UNL     1      28.379  -0.678  41.240  1.00  0.00     0.000 C 
ENDROOT
BRANCH   1   2
ATOM      2  C   UNL     1      29.563  -0.787  40.266  1.00  0.00     0.000 C 
BRANCH   2   3
ATOM      3  C   UNL     1      30.900  -0.642  41.009  1.00  0.00     0.006 C 
BRANCH   3   4
ATOM      4  C   UNL     1      32.031  -0.172  40.085  1.00  0.00     0.053 C 
BRANCH   4   5
ATOM      5  C   UNL     1      31.666   1.084  39.354  1.00  0.00     0.041 C 
ATOM      6  O   UNL     1      31.454   2.150  39.993  1.00  0.00    -0.550 OA
ATOM      7  O   UNL     1      31.593   1.088  37.968  1.00  0.00    -0.550 OA
ENDBRANCH   4   5
ENDBRANCH   3   4
ENDBRANCH   2   3
ENDBRANCH   1   2
BRANCH   1   8
ATOM      8  C   UNL     1      28.452  -1.706  42.380  1.00  0.00     0.000 C 
BRANCH   8   9
ATOM      9  C   UNL     1      28.395  -1.051  43.772  1.00  0.00     0.006 C 
BRANCH   9  10
ATOM     10  C   UNL     1      28.849  -2.010  44.880  1.00  0.00     0.053 C 
BRANCH  10  11
ATOM     11  C   UNL     1      30.094  -1.527  45.559  1.00  0.00     0.041 C 
ATOM     12  O   UNL     1      30.306  -1.803  46.769  1.00  0.00    -0.550 OA
ATOM     13  O   UNL     1      31.007  -0.745  44.862  1.00  0.00    -0.550 OA
ENDBRANCH  10  11
ENDBRANCH   9  10
ENDBRANCH   8   9
ENDBRANCH   1   8
TORSDOF 8
ENDMDL
MODEL 2
REMARK VINA RESULT:    -5.912      0.420      5.759
REMARK INTER + INTRA:          -9.096
REMARK INTER:                  -8.642
REMARK INTRA:                  -0.455
REMARK UNBOUND:                -0.419
REMARK SMILES O=C([O-])CCCCCCCC(=O)[O-]
REMARK SMILES IDX 7 1 6 2 5 3 4 4 2 5 1 6 3 7 8 8 9 9 10 10 11 11 12 12 13 13
REMARK H PARENT
REMARK Flexibility Score: inf
ROOT
ATOM      1  C   UNL     1      28.536  -0.558  40.890  1.00  0.00     0.000 C 
ENDROOT
BRANCH   1   2
ATOM      2  C   UNL     1      28.129  -1.512  42.024  1.00  0.00     0.000 C 
BRANCH   2   3
ATOM      3  C   UNL     1      28.272  -0.830  43.394  1.00  0.00     0.006 C 
BRANCH   3   4
ATOM      4  C   UNL     1      28.830  -1.779  44.461  1.00  0.00     0.053 C 
BRANCH   4   5
ATOM      5  C   UNL     1      30.124  -1.280  45.028  1.00  0.00     0.041 C 
ATOM      6  O   UNL     1      30.971  -0.724  44.279  1.00  0.00    -0.550 OA
ATOM      7  O   UNL     1      30.381  -1.398  46.388  1.00  0.00    -0.550 OA
ENDBRANCH   4   5
ENDBRANCH   3   4
ENDBRANCH   2   3
ENDBRANCH   1   2
BRANCH   1   8
ATOM      8  C   UNL     1      29.797  -1.026  40.146  1.00  0.00     0.000 C 
BRANCH   8   9
ATOM      9  C   UNL     1      31.095  -0.620  40.866  1.00  0.00     0.006 C 
BRANCH   9  10
ATOM     10  C   UNL     1      32.125  -0.014  39.903  1.00  0.00     0.053 C 
BRANCH  10  11
ATOM     11  C   UNL     1      31.577   1.177  39.179  1.00  0.00     0.041 C 
ATOM     12  O   UNL     1      31.364   1.125  37.939  1.00  0.00    -0.550 OA
ATOM     13  O   UNL     1      31.329   2.357  39.870  1.00  0.00    -0.550 OA
ENDBRANCH  10  11
ENDBRANCH   9  10
ENDBRANCH   8   9
ENDBRANCH   1   8
TORSDOF 8
ENDMDL
MODEL 3
REMARK VINA RESULT:    -5.766      0.375      1.318
REMARK INTER + INTRA:          -8.883
REMARK INTER:                  -8.588
REMARK INTRA:                  -0.294
REMARK UNBOUND:                -0.419
REMARK SMILES O=C([O-])CCCCCCCC(=O)[O-]
REMARK SMILES IDX 7 1 6 2 5 3 4 4 2 5 1 6 3 7 8 8 9 9 10 10 11 11 12 12 13 13
REMARK H PARENT
REMARK Flexibility Score: inf
ROOT
ATOM      1  C   UNL     1      28.349  -0.876  40.706  1.00  0.00     0.000 C 
ENDROOT
BRANCH   1   2
ATOM      2  C   UNL     1      29.693  -0.857  39.962  1.00  0.00     0.000 C 
BRANCH   2   3
ATOM      3  C   UNL     1      30.862  -0.678  40.942  1.00  0.00     0.006 C 
BRANCH   3   4
ATOM      4  C   UNL     1      32.125  -0.148  40.251  1.00  0.00     0.053 C 
BRANCH   4   5
ATOM      5  C   UNL     1      31.835   1.061  39.415  1.00  0.00     0.041 C 
ATOM      6  O   UNL     1      31.952   1.006  38.161  1.00  0.00    -0.550 OA
ATOM      7  O   UNL     1      31.405   2.237  40.014  1.00  0.00    -0.550 OA
ENDBRANCH   4   5
ENDBRANCH   3   4
ENDBRANCH   2   3
ENDBRANCH   1   2
BRANCH   1   8
ATOM      8  C   UNL     1      28.385  -1.744  41.973  1.00  0.00     0.000 C 
BRANCH   8   9
ATOM      9  C   UNL     1      28.430  -0.908  43.264  1.00  0.00     0.006 C 
BRANCH   9  10
ATOM     10  C   UNL     1      28.751  -1.764  44.496  1.00  0.00     0.053 C 
BRANCH  10  11
ATOM     11  C   UNL     1      30.034  -1.346  45.146  1.00  0.00     0.041 C 
ATOM     12  O   UNL     1      30.868  -0.647  44.514  1.00  0.00    -0.550 OA
ATOM     13  O   UNL     1      30.322  -1.755  46.443  1.00  0.00    -0.550 OA
ENDBRANCH  10  11
ENDBRANCH   9  10
ENDBRANCH   8   9
ENDBRANCH   1   8
TORSDOF 8
ENDMDL
MODEL 4
REMARK VINA RESULT:    -5.662      1.072      1.699
REMARK INTER + INTRA:          -8.730
REMARK INTER:                  -8.392
REMARK INTRA:                  -0.338
REMARK UNBOUND:                -0.419
REMARK SMILES O=C([O-])CCCCCCCC(=O)[O-]
REMARK SMILES IDX 7 1 6 2 5 3 4 4 2 5 1 6 3 7 8 8 9 9 10 10 11 11 12 12 13 13
REMARK H PARENT
REMARK Flexibility Score: inf
ROOT
ATOM      1  C   UNL     1      28.137  -0.684  40.895  1.00  0.00     0.000 C 
ENDROOT
BRANCH   1   2
ATOM      2  C   UNL     1      28.765  -1.119  39.561  1.00  0.00     0.000 C 
BRANCH   2   3
ATOM      3  C   UNL     1      29.086   0.099  38.683  1.00  0.00     0.006 C 
BRANCH   3   4
ATOM      4  C   UNL     1      30.033   1.085  39.378  1.00  0.00     0.053 C 
BRANCH   4   5
ATOM      5  C   UNL     1      31.470   0.771  39.092  1.00  0.00     0.041 C 
ATOM      6  O   UNL     1      32.099   1.426  38.218  1.00  0.00    -0.550 OA
ATOM      7  O   UNL     1      32.125  -0.220  39.812  1.00  0.00    -0.550 OA
ENDBRANCH   4   5
ENDBRANCH   3   4
ENDBRANCH   2   3
ENDBRANCH   1   2
BRANCH   1   8
ATOM      8  C   UNL     1      28.562  -1.578  42.070  1.00  0.00     0.000 C 
BRANCH   8   9
ATOM      9  C   UNL     1      28.364  -0.896  43.435  1.00  0.00     0.006 C 
BRANCH   9  10
ATOM     10  C   UNL     1      28.700  -1.833  44.603  1.00  0.00     0.053 C 
BRANCH  10  11
ATOM     11  C   UNL     1      29.967  -1.429  45.294  1.00  0.00     0.041 C 
ATOM     12  O   UNL     1      30.817  -0.716  44.698  1.00  0.00    -0.550 OA
ATOM     13  O   UNL     1      30.222  -1.865  46.589  1.00  0.00    -0.550 OA
ENDBRANCH  10  11
ENDBRANCH   9  10
ENDBRANCH   8   9
ENDBRANCH   1   8
TORSDOF 8
ENDMDL
MODEL 5
REMARK VINA RESULT:    -5.276      1.495      2.173
REMARK INTER + INTRA:          -8.163
REMARK INTER:                  -8.206
REMARK INTRA:                   0.042
REMARK UNBOUND:                -0.419
REMARK SMILES O=C([O-])CCCCCCCC(=O)[O-]
REMARK SMILES IDX 7 1 6 2 5 3 4 4 2 5 1 6 3 7 8 8 9 9 10 10 11 11 12 12 13 13
REMARK H PARENT
REMARK Flexibility Score: inf
ROOT
ATOM      1  C   UNL     1      29.257  -0.825  39.644  1.00  0.00     0.000 C 
ENDROOT
BRANCH   1   2
ATOM      2  C   UNL     1      29.011   0.570  39.049  1.00  0.00     0.000 C 
BRANCH   2   3
ATOM      3  C   UNL     1      29.869   0.791  37.795  1.00  0.00     0.006 C 
BRANCH   3   4
ATOM      4  C   UNL     1      31.369   0.836  38.116  1.00  0.00     0.053 C 
BRANCH   4   5
ATOM      5  C   UNL     1      31.629   1.402  39.479  1.00  0.00     0.041 C 
ATOM      6  O   UNL     1      32.125   0.676  40.381  1.00  0.00    -0.550 OA
ATOM      7  O   UNL     1      31.356   2.738  39.742  1.00  0.00    -0.550 OA
ENDBRANCH   4   5
ENDBRANCH   3   4
ENDBRANCH   2   3
ENDBRANCH   1   2
BRANCH   1   8
ATOM      8  C   UNL     1      28.005  -1.415  40.311  1.00  0.00     0.000 C 
BRANCH   8   9
ATOM      9  C   UNL     1      28.071  -1.360  41.848  1.00  0.00     0.006 C 
BRANCH   9  10
ATOM     10  C   UNL     1      29.515  -1.380  42.365  1.00  0.00     0.053 C 
BRANCH  10  11
ATOM     11  C   UNL     1      29.571  -1.337  43.862  1.00  0.00     0.041 C 
ATOM     12  O   UNL     1      28.630  -1.815  44.547  1.00  0.00    -0.550 OA
ATOM     13  O   UNL     1      30.652  -0.741  44.500  1.00  0.00    -0.550 OA
ENDBRANCH  10  11
ENDBRANCH   9  10
ENDBRANCH   8   9
ENDBRANCH   1   8
TORSDOF 8
ENDMDL
MODEL 6
REMARK VINA RESULT:    -4.870      2.142      2.998
REMARK INTER + INTRA:          -7.567
REMARK INTER:                  -7.168
REMARK INTRA:                  -0.399
REMARK UNBOUND:                -0.419
REMARK SMILES O=C([O-])CCCCCCCC(=O)[O-]
REMARK SMILES IDX 7 1 6 2 5 3 4 4 2 5 1 6 3 7 8 8 9 9 10 10 11 11 12 12 13 13
REMARK H PARENT
REMARK Flexibility Score: inf
ROOT
ATOM      1  C   UNL     1      31.401   0.937  40.949  1.00  0.00     0.000 C 
ENDROOT
BRANCH   1   2
ATOM      2  C   UNL     1      31.881   1.468  39.589  1.00  0.00     0.000 C 
BRANCH   2   3
ATOM      3  C   UNL     1      31.688   0.414  38.488  1.00  0.00     0.006 C 
BRANCH   3   4
ATOM      4  C   UNL     1      30.447   0.690  37.630  1.00  0.00     0.053 C 
BRANCH   4   5
ATOM      5  C   UNL     1      29.180   0.508  38.409  1.00  0.00     0.041 C 
ATOM      6  O   UNL     1      28.493   1.510  38.743  1.00  0.00    -0.550 OA
ATOM      7  O   UNL     1      28.741  -0.768  38.737  1.00  0.00    -0.550 OA
ENDBRANCH   4   5
ENDBRANCH   3   4
ENDBRANCH   2   3
ENDBRANCH   1   2
BRANCH   1   8
ATOM      8  C   UNL     1      31.448  -0.596  41.037  1.00  0.00     0.000 C 
BRANCH   8   9
ATOM      9  C   UNL     1      30.221  -1.187  41.754  1.00  0.00     0.006 C 
BRANCH   9  10
ATOM     10  C   UNL     1      30.316  -1.038  43.278  1.00  0.00     0.053 C 
BRANCH  10  11
ATOM     11  C   UNL     1      28.985  -1.227  43.940  1.00  0.00     0.041 C 
ATOM     12  O   UNL     1      28.865  -2.024  44.907  1.00  0.00    -0.550 OA
ATOM     13  O   UNL     1      27.870  -0.545  43.468  1.00  0.00    -0.550 OA
ENDBRANCH  10  11
ENDBRANCH   9  10
ENDBRANCH   8   9
ENDBRANCH   1   8
TORSDOF 8
ENDMDL
MODEL 7
REMARK VINA RESULT:    -3.888      2.531      5.916
REMARK INTER + INTRA:          -6.126
REMARK INTER:                  -5.986
REMARK INTRA:                  -0.140
REMARK UNBOUND:                -0.419
REMARK SMILES O=C([O-])CCCCCCCC(=O)[O-]
REMARK SMILES IDX 7 1 6 2 5 3 4 4 2 5 1 6 3 7 8 8 9 9 10 10 11 11 12 12 13 13
REMARK H PARENT
REMARK Flexibility Score: inf
ROOT
ATOM      1  C   UNL     1      30.848  -0.940  41.059  1.00  0.00     0.000 C 
ENDROOT
BRANCH   1   2
ATOM      2  C   UNL     1      30.829  -1.336  42.544  1.00  0.00     0.000 C 
BRANCH   2   3
ATOM      3  C   UNL     1      30.054  -0.304  43.377  1.00  0.00     0.006 C 
BRANCH   3   4
ATOM      4  C   UNL     1      28.715  -0.853  43.885  1.00  0.00     0.053 C 
BRANCH   4   5
ATOM      5  C   UNL     1      27.637  -0.735  42.851  1.00  0.00     0.041 C 
ATOM      6  O   UNL     1      27.643  -1.491  41.843  1.00  0.00    -0.550 OA
ATOM      7  O   UNL     1      26.610   0.183  43.017  1.00  0.00    -0.550 OA
ENDBRANCH   4   5
ENDBRANCH   3   4
ENDBRANCH   2   3
ENDBRANCH   1   2
BRANCH   1   8
ATOM      8  C   UNL     1      32.125  -0.184  40.663  1.00  0.00     0.000 C 
BRANCH   8   9
ATOM      9  C   UNL     1      32.044   0.415  39.247  1.00  0.00     0.006 C 
BRANCH   9  10
ATOM     10  C   UNL     1      30.936   1.469  39.128  1.00  0.00     0.053 C 
BRANCH  10  11
ATOM     11  C   UNL     1      29.736   0.937  38.406  1.00  0.00     0.041 C 
ATOM     12  O   UNL     1      28.625   0.855  38.993  1.00  0.00    -0.550 OA
ATOM     13  O   UNL     1      29.852   0.503  37.091  1.00  0.00    -0.550 OA
ENDBRANCH  10  11
ENDBRANCH   9  10
ENDBRANCH   8   9
ENDBRANCH   1   8
TORSDOF 8
ENDMDL
MODEL 8
REMARK VINA RESULT:    -3.240     15.905     16.855
REMARK INTER + INTRA:          -5.175
REMARK INTER:                  -4.429
REMARK INTRA:                  -0.746
REMARK UNBOUND:                -0.419
REMARK SMILES O=C([O-])CCCCCCCC(=O)[O-]
REMARK SMILES IDX 7 1 6 2 5 3 4 4 2 5 1 6 3 7 8 8 9 9 10 10 11 11 12 12 13 13
REMARK H PARENT
REMARK Flexibility Score: inf
ROOT
ATOM      1  C   UNL     1      30.740  12.485  47.557  1.00  0.00     0.000 C 
ENDROOT
BRANCH   1   2
ATOM      2  C   UNL     1      29.687  12.429  48.674  1.00  0.00     0.000 C 
BRANCH   2   3
ATOM      3  C   UNL     1      28.334  12.963  48.180  1.00  0.00     0.006 C 
BRANCH   3   4
ATOM      4  C   UNL     1      27.447  13.454  49.332  1.00  0.00     0.053 C 
BRANCH   4   5
ATOM      5  C   UNL     1      26.152  14.021  48.835  1.00  0.00     0.041 C 
ATOM      6  O   UNL     1      26.033  15.262  48.651  1.00  0.00    -0.550 OA
ATOM      7  O   UNL     1      25.089  13.177  48.541  1.00  0.00    -0.550 OA
ENDBRANCH   4   5
ENDBRANCH   3   4
ENDBRANCH   2   3
ENDBRANCH   1   2
BRANCH   1   8
ATOM      8  C   UNL     1      31.995  13.272  47.964  1.00  0.00     0.000 C 
BRANCH   8   9
ATOM      9  C   UNL     1      31.744  14.212  49.156  1.00  0.00     0.006 C 
BRANCH   9  10
ATOM     10  C   UNL     1      31.575  15.672  48.715  1.00  0.00     0.053 C 
BRANCH  10  11
ATOM     11  C   UNL     1      30.135  16.085  48.695  1.00  0.00     0.041 C 
ATOM     12  O   UNL     1      29.517  16.288  49.773  1.00  0.00    -0.550 OA
ATOM     13  O   UNL     1      29.466  16.216  47.484  1.00  0.00    -0.550 OA
ENDBRANCH  10  11
ENDBRANCH   9  10
ENDBRANCH   8   9
ENDBRANCH   1   8
TORSDOF 8
ENDMDL
