MODEL 1
REMARK VINA RESULT:    -7.022      0.000      0.000
REMARK INTER + INTRA:          -8.996
REMARK INTER:                  -8.664
REMARK INTRA:                  -0.332
REMARK UNBOUND:                -0.332
REMARK SMILES O=c1c(O)c(-c2cc(O)c(O)c(O)c2)oc2cc(O)cc(O)c12
REMARK SMILES IDX 5 1 3 2 2 3 1 4 23 5 21 6 20 7 18 8 17 9 16 10 15 11 6 12
REMARK SMILES IDX 7 13 8 14 14 15 10 16 12 17 9 18 11 20 13 22 4 24 22 26
REMARK SMILES IDX 19 28
REMARK H PARENT 9 19 11 21 13 23 4 25 22 27 19 29
REMARK Flexibility Score: inf
ROOT
ATOM      1  C   UNL     1       4.487   0.235 -23.371  1.00  0.00     0.180 A 
ATOM      2  C   UNL     1       5.053  -0.454 -24.457  1.00  0.00     0.208 A 
ATOM      3  C   UNL     1       5.030  -1.858 -24.459  1.00  0.00     0.238 A 
ATOM      4  O   UNL     1       5.490  -2.469 -25.459  1.00  0.00    -0.285 OA
ATOM      5  C   UNL     1       4.455  -2.555 -23.370  1.00  0.00     0.111 A 
ATOM      6  C   UNL     1       4.414  -3.977 -23.248  1.00  0.00     0.134 A 
ATOM      7  C   UNL     1       3.705  -4.559 -22.190  1.00  0.00     0.093 A 
ATOM      8  C   UNL     1       3.091  -3.770 -21.213  1.00  0.00     0.123 A 
ATOM      9  C   UNL     1       3.177  -2.383 -21.291  1.00  0.00     0.094 A 
ATOM     10  C   UNL     1       3.847  -1.772 -22.354  1.00  0.00     0.146 A 
ATOM     11  O   UNL     1       3.897  -0.446 -22.395  1.00  0.00    -0.452 OA
ENDROOT
BRANCH   1  12
ATOM     12  C   UNL     1       4.495   1.713 -23.286  1.00  0.00     0.029 A 
ATOM     13  C   UNL     1       5.425   2.394 -22.482  1.00  0.00     0.062 A 
ATOM     14  C   UNL     1       5.403   3.793 -22.396  1.00  0.00     0.162 A 
ATOM     15  C   UNL     1       3.518   2.449 -23.972  1.00  0.00     0.062 A 
ATOM     16  C   UNL     1       4.434   4.524 -23.106  1.00  0.00     0.200 A 
ATOM     17  C   UNL     1       3.488   3.846 -23.893  1.00  0.00     0.162 A 
BRANCH  14  18
ATOM     18  O   UNL     1       6.335   4.458 -21.601  1.00  0.00    -0.504 OA
ATOM     19  H   UNL     1       6.272   4.451 -20.589  1.00  0.00     0.293 HD
ENDBRANCH  14  18
BRANCH  16  20
ATOM     20  O   UNL     1       4.400   5.917 -23.033  1.00  0.00    -0.502 OA
ATOM     21  H   UNL     1       5.219   6.487 -23.209  1.00  0.00     0.293 HD
ENDBRANCH  16  20
BRANCH  17  22
ATOM     22  O   UNL     1       2.510   4.542 -24.602  1.00  0.00    -0.504 OA
ATOM     23  H   UNL     1       2.547   4.649 -25.608  1.00  0.00     0.293 HD
ENDBRANCH  17  22
ENDBRANCH   1  12
BRANCH   2  24
ATOM     24  O   UNL     1       5.597   0.253 -25.533  1.00  0.00    -0.502 OA
ATOM     25  H   UNL     1       5.083   0.973 -26.026  1.00  0.00     0.293 HD
ENDBRANCH   2  24
BRANCH   6  26
ATOM     26  O   UNL     1       5.070  -4.854 -24.118  1.00  0.00    -0.507 OA
ATOM     27  H   UNL     1       5.578  -4.572 -24.942  1.00  0.00     0.293 HD
ENDBRANCH   6  26
BRANCH   8  28
ATOM     28  O   UNL     1       2.400  -4.358 -20.156  1.00  0.00    -0.508 OA
ATOM     29  H   UNL     1       2.547  -4.061 -19.197  1.00  0.00     0.293 HD
ENDBRANCH   8  28
TORSDOF 7
ENDMDL
MODEL 2
REMARK VINA RESULT:    -7.019      0.115      1.755
REMARK INTER + INTRA:          -8.992
REMARK INTER:                  -8.643
REMARK INTRA:                  -0.350
REMARK UNBOUND:                -0.332
REMARK SMILES O=c1c(O)c(-c2cc(O)c(O)c(O)c2)oc2cc(O)cc(O)c12
REMARK SMILES IDX 5 1 3 2 2 3 1 4 23 5 21 6 20 7 18 8 17 9 16 10 15 11 6 12
REMARK SMILES IDX 7 13 8 14 14 15 10 16 12 17 9 18 11 20 13 22 4 24 22 26
REMARK SMILES IDX 19 28
REMARK H PARENT 9 19 11 21 13 23 4 25 22 27 19 29
REMARK Flexibility Score: inf
ROOT
ATOM      1  C   UNL     1       4.496   0.203 -23.354  1.00  0.00     0.180 A 
ATOM      2  C   UNL     1       5.087  -0.468 -24.438  1.00  0.00     0.208 A 
ATOM      3  C   UNL     1       5.082  -1.872 -24.453  1.00  0.00     0.238 A 
ATOM      4  O   UNL     1       5.565  -2.467 -25.451  1.00  0.00    -0.285 OA
ATOM      5  C   UNL     1       4.501  -2.587 -23.378  1.00  0.00     0.111 A 
ATOM      6  C   UNL     1       4.476  -4.010 -23.270  1.00  0.00     0.134 A 
ATOM      7  C   UNL     1       3.759  -4.610 -22.228  1.00  0.00     0.093 A 
ATOM      8  C   UNL     1       3.121  -3.839 -21.253  1.00  0.00     0.123 A 
ATOM      9  C   UNL     1       3.191  -2.449 -21.317  1.00  0.00     0.094 A 
ATOM     10  C   UNL     1       3.868  -1.820 -22.365  1.00  0.00     0.146 A 
ATOM     11  O   UNL     1       3.901  -0.494 -22.393  1.00  0.00    -0.452 OA
ENDROOT
BRANCH   1  12
ATOM     12  C   UNL     1       4.483   1.681 -23.255  1.00  0.00     0.029 A 
ATOM     13  C   UNL     1       3.490   2.447 -23.888  1.00  0.00     0.062 A 
ATOM     14  C   UNL     1       3.507   3.846 -23.804  1.00  0.00     0.162 A 
ATOM     15  C   UNL     1       5.515   2.336 -22.567  1.00  0.00     0.062 A 
ATOM     16  C   UNL     1       4.533   4.493 -23.093  1.00  0.00     0.200 A 
ATOM     17  C   UNL     1       5.541   3.732 -22.476  1.00  0.00     0.162 A 
BRANCH  14  18
ATOM     18  O   UNL     1       2.513   4.596 -24.430  1.00  0.00    -0.504 OA
ATOM     19  H   UNL     1       2.157   5.452 -24.021  1.00  0.00     0.293 HD
ENDBRANCH  14  18
BRANCH  16  20
ATOM     20  O   UNL     1       4.564   5.885 -22.996  1.00  0.00    -0.502 OA
ATOM     21  H   UNL     1       3.838   6.409 -22.520  1.00  0.00     0.293 HD
ENDBRANCH  16  20
BRANCH  17  22
ATOM     22  O   UNL     1       6.575   4.344 -21.771  1.00  0.00    -0.504 OA
ATOM     23  H   UNL     1       6.711   5.348 -21.774  1.00  0.00     0.293 HD
ENDBRANCH  17  22
ENDBRANCH   1  12
BRANCH   2  24
ATOM     24  O   UNL     1       5.637   0.256 -25.499  1.00  0.00    -0.502 OA
ATOM     25  H   UNL     1       5.104   0.500 -26.325  1.00  0.00     0.293 HD
ENDBRANCH   2  24
BRANCH   6  26
ATOM     26  O   UNL     1       5.155  -4.870 -24.138  1.00  0.00    -0.507 OA
ATOM     27  H   UNL     1       5.546  -4.598 -25.027  1.00  0.00     0.293 HD
ENDBRANCH   6  26
BRANCH   8  28
ATOM     28  O   UNL     1       2.423  -4.445 -20.211  1.00  0.00    -0.508 OA
ATOM     29  H   UNL     1       1.467  -4.186 -19.993  1.00  0.00     0.293 HD
ENDBRANCH   8  28
TORSDOF 7
ENDMDL
MODEL 3
REMARK VINA RESULT:    -6.895      1.270      7.012
REMARK INTER + INTRA:          -8.839
REMARK INTER:                  -8.575
REMARK INTRA:                  -0.264
REMARK UNBOUND:                -0.332
REMARK SMILES O=c1c(O)c(-c2cc(O)c(O)c(O)c2)oc2cc(O)cc(O)c12
REMARK SMILES IDX 5 1 3 2 2 3 1 4 23 5 21 6 20 7 18 8 17 9 16 10 15 11 6 12
REMARK SMILES IDX 7 13 8 14 14 15 10 16 12 17 9 18 11 20 13 22 4 24 22 26
REMARK SMILES IDX 19 28
REMARK H PARENT 9 19 11 21 13 23 4 25 22 27 19 29
REMARK Flexibility Score: inf
ROOT
ATOM      1  C   UNL     1       3.976  -0.332 -23.432  1.00  0.00     0.180 A 
ATOM      2  C   UNL     1       3.287   0.102 -24.578  1.00  0.00     0.208 A 
ATOM      3  C   UNL     1       3.267   1.474 -24.881  1.00  0.00     0.238 A 
ATOM      4  O   UNL     1       2.694   1.851 -25.936  1.00  0.00    -0.285 OA
ATOM      5  C   UNL     1       3.924   2.393 -24.028  1.00  0.00     0.111 A 
ATOM      6  C   UNL     1       3.934   3.808 -24.215  1.00  0.00     0.134 A 
ATOM      7  C   UNL     1       4.724   4.609 -23.383  1.00  0.00     0.093 A 
ATOM      8  C   UNL     1       5.453   4.054 -22.327  1.00  0.00     0.123 A 
ATOM      9  C   UNL     1       5.401   2.681 -22.099  1.00  0.00     0.094 A 
ATOM     10  C   UNL     1       4.650   1.851 -22.935  1.00  0.00     0.146 A 
ATOM     11  O   UNL     1       4.637   0.547 -22.689  1.00  0.00    -0.452 OA
ENDROOT
BRANCH   1  12
ATOM     12  C   UNL     1       4.020  -1.758 -23.035  1.00  0.00     0.029 A 
ATOM     13  C   UNL     1       4.771  -2.697 -23.763  1.00  0.00     0.062 A 
ATOM     14  C   UNL     1       4.783  -4.047 -23.386  1.00  0.00     0.162 A 
ATOM     15  C   UNL     1       3.252  -2.196 -21.946  1.00  0.00     0.062 A 
ATOM     16  C   UNL     1       4.028  -4.472 -22.279  1.00  0.00     0.200 A 
ATOM     17  C   UNL     1       3.258  -3.541 -21.561  1.00  0.00     0.162 A 
BRANCH  14  18
ATOM     18  O   UNL     1       5.537  -4.968 -24.111  1.00  0.00    -0.504 OA
ATOM     19  H   UNL     1       6.200  -4.672 -24.818  1.00  0.00     0.293 HD
ENDBRANCH  14  18
BRANCH  16  20
ATOM     20  O   UNL     1       4.031  -5.811 -21.887  1.00  0.00    -0.502 OA
ATOM     21  H   UNL     1       4.841  -6.248 -21.463  1.00  0.00     0.293 HD
ENDBRANCH  16  20
BRANCH  17  22
ATOM     22  O   UNL     1       2.493  -3.933 -20.464  1.00  0.00    -0.504 OA
ATOM     23  H   UNL     1       2.878  -3.985 -19.528  1.00  0.00     0.293 HD
ENDBRANCH  17  22
ENDBRANCH   1  12
BRANCH   2  24
ATOM     24  O   UNL     1       2.663  -0.824 -25.418  1.00  0.00    -0.502 OA
ATOM     25  H   UNL     1       3.161  -1.598 -25.839  1.00  0.00     0.293 HD
ENDBRANCH   2  24
BRANCH   6  26
ATOM     26  O   UNL     1       3.171   4.472 -25.181  1.00  0.00    -0.507 OA
ATOM     27  H   UNL     1       3.082   5.474 -25.254  1.00  0.00     0.293 HD
ENDBRANCH   6  26
BRANCH   8  28
ATOM     28  O   UNL     1       6.225   4.860 -21.494  1.00  0.00    -0.508 OA
ATOM     29  H   UNL     1       6.229   5.870 -21.590  1.00  0.00     0.293 HD
ENDBRANCH   8  28
TORSDOF 7
ENDMDL
MODEL 4
REMARK VINA RESULT:    -6.736      1.338      7.147
REMARK INTER + INTRA:          -8.643
REMARK INTER:                  -8.311
REMARK INTRA:                  -0.332
REMARK UNBOUND:                -0.332
REMARK SMILES O=c1c(O)c(-c2cc(O)c(O)c(O)c2)oc2cc(O)cc(O)c12
REMARK SMILES IDX 5 1 3 2 2 3 1 4 23 5 21 6 20 7 18 8 17 9 16 10 15 11 6 12
REMARK SMILES IDX 7 13 8 14 14 15 10 16 12 17 9 18 11 20 13 22 4 24 22 26
REMARK SMILES IDX 19 28
REMARK H PARENT 9 19 11 21 13 23 4 25 22 27 19 29
REMARK Flexibility Score: inf
ROOT
ATOM      1  C   UNL     1       4.345  -0.170 -22.979  1.00  0.00     0.180 A 
ATOM      2  C   UNL     1       5.156   0.690 -22.218  1.00  0.00     0.208 A 
ATOM      3  C   UNL     1       5.179   2.059 -22.531  1.00  0.00     0.238 A 
ATOM      4  O   UNL     1       5.865   2.831 -21.813  1.00  0.00    -0.285 OA
ATOM      5  C   UNL     1       4.404   2.547 -23.610  1.00  0.00     0.111 A 
ATOM      6  C   UNL     1       4.383   3.908 -24.042  1.00  0.00     0.134 A 
ATOM      7  C   UNL     1       3.480   4.303 -25.036  1.00  0.00     0.093 A 
ATOM      8  C   UNL     1       2.644   3.374 -25.661  1.00  0.00     0.123 A 
ATOM      9  C   UNL     1       2.700   2.033 -25.288  1.00  0.00     0.094 A 
ATOM     10  C   UNL     1       3.565   1.615 -24.274  1.00  0.00     0.146 A 
ATOM     11  O   UNL     1       3.580   0.330 -23.942  1.00  0.00    -0.452 OA
ENDROOT
BRANCH   1  12
ATOM     12  C   UNL     1       4.287  -1.628 -22.725  1.00  0.00     0.029 A 
ATOM     13  C   UNL     1       4.999  -2.538 -23.524  1.00  0.00     0.062 A 
ATOM     14  C   UNL     1       4.913  -3.916 -23.283  1.00  0.00     0.162 A 
ATOM     15  C   UNL     1       3.460  -2.118 -21.704  1.00  0.00     0.062 A 
ATOM     16  C   UNL     1       4.099  -4.397 -22.243  1.00  0.00     0.200 A 
ATOM     17  C   UNL     1       3.368  -3.492 -21.455  1.00  0.00     0.162 A 
BRANCH  14  18
ATOM     18  O   UNL     1       5.629  -4.810 -24.078  1.00  0.00    -0.504 OA
ATOM     19  H   UNL     1       5.770  -5.774 -23.798  1.00  0.00     0.293 HD
ENDBRANCH  14  18
BRANCH  16  20
ATOM     20  O   UNL     1       4.005  -5.765 -21.987  1.00  0.00    -0.502 OA
ATOM     21  H   UNL     1       3.744  -6.432 -22.704  1.00  0.00     0.293 HD
ENDBRANCH  16  20
BRANCH  17  22
ATOM     22  O   UNL     1       2.546  -3.938 -20.421  1.00  0.00    -0.504 OA
ATOM     23  H   UNL     1       2.847  -4.641 -19.758  1.00  0.00     0.293 HD
ENDBRANCH  17  22
ENDBRANCH   1  12
BRANCH   2  24
ATOM     24  O   UNL     1       5.897   0.190 -21.144  1.00  0.00    -0.502 OA
ATOM     25  H   UNL     1       5.481  -0.012 -20.243  1.00  0.00     0.293 HD
ENDBRANCH   2  24
BRANCH   6  26
ATOM     26  O   UNL     1       5.240   4.896 -23.548  1.00  0.00    -0.507 OA
ATOM     27  H   UNL     1       6.237   4.791 -23.440  1.00  0.00     0.293 HD
ENDBRANCH   6  26
BRANCH   8  28
ATOM     28  O   UNL     1       1.759   3.772 -26.661  1.00  0.00    -0.508 OA
ATOM     29  H   UNL     1       2.035   4.430 -27.381  1.00  0.00     0.293 HD
ENDBRANCH   8  28
TORSDOF 7
ENDMDL
MODEL 5
REMARK VINA RESULT:    -6.674      5.453      8.678
REMARK INTER + INTRA:          -8.567
REMARK INTER:                  -8.213
REMARK INTRA:                  -0.353
REMARK UNBOUND:                -0.332
REMARK SMILES O=c1c(O)c(-c2cc(O)c(O)c(O)c2)oc2cc(O)cc(O)c12
REMARK SMILES IDX 5 1 3 2 2 3 1 4 23 5 21 6 20 7 18 8 17 9 16 10 15 11 6 12
REMARK SMILES IDX 7 13 8 14 14 15 10 16 12 17 9 18 11 20 13 22 4 24 22 26
REMARK SMILES IDX 19 28
REMARK H PARENT 9 19 11 21 13 23 4 25 22 27 19 29
REMARK Flexibility Score: inf
ROOT
ATOM      1  C   UNL     1       4.672   8.483 -24.570  1.00  0.00     0.180 A 
ATOM      2  C   UNL     1       3.476   8.219 -25.260  1.00  0.00     0.208 A 
ATOM      3  C   UNL     1       2.813   7.002 -25.031  1.00  0.00     0.238 A 
ATOM      4  O   UNL     1       1.716   6.793 -25.610  1.00  0.00    -0.285 OA
ATOM      5  C   UNL     1       3.362   6.060 -24.128  1.00  0.00     0.111 A 
ATOM      6  C   UNL     1       2.797   4.778 -23.851  1.00  0.00     0.134 A 
ATOM      7  C   UNL     1       3.354   3.982 -22.843  1.00  0.00     0.093 A 
ATOM      8  C   UNL     1       4.495   4.391 -22.148  1.00  0.00     0.123 A 
ATOM      9  C   UNL     1       5.088   5.614 -22.453  1.00  0.00     0.094 A 
ATOM     10  C   UNL     1       4.535   6.447 -23.429  1.00  0.00     0.146 A 
ATOM     11  O   UNL     1       5.126   7.608 -23.681  1.00  0.00    -0.452 OA
ENDROOT
BRANCH   1  12
ATOM     12  C   UNL     1       5.440   9.733 -24.776  1.00  0.00     0.029 A 
ATOM     13  C   UNL     1       5.229  10.862 -23.967  1.00  0.00     0.062 A 
ATOM     14  C   UNL     1       5.948  12.044 -24.192  1.00  0.00     0.162 A 
ATOM     15  C   UNL     1       6.353   9.815 -25.837  1.00  0.00     0.062 A 
ATOM     16  C   UNL     1       6.878  12.109 -25.244  1.00  0.00     0.200 A 
ATOM     17  C   UNL     1       7.077  10.990 -26.069  1.00  0.00     0.162 A 
BRANCH  14  18
ATOM     18  O   UNL     1       5.736  13.156 -23.378  1.00  0.00    -0.504 OA
ATOM     19  H   UNL     1       4.810  13.403 -23.047  1.00  0.00     0.293 HD
ENDBRANCH  14  18
BRANCH  16  20
ATOM     20  O   UNL     1       7.605  13.277 -25.479  1.00  0.00    -0.502 OA
ATOM     21  H   UNL     1       7.898  13.553 -26.409  1.00  0.00     0.293 HD
ENDBRANCH  16  20
BRANCH  17  22
ATOM     22  O   UNL     1       7.986  11.026 -27.125  1.00  0.00    -0.504 OA
ATOM     23  H   UNL     1       8.987  10.976 -26.977  1.00  0.00     0.293 HD
ENDBRANCH  17  22
ENDBRANCH   1  12
BRANCH   2  24
ATOM     24  O   UNL     1       2.940   9.172 -26.131  1.00  0.00    -0.502 OA
ATOM     25  H   UNL     1       2.456   9.997 -25.802  1.00  0.00     0.293 HD
ENDBRANCH   2  24
BRANCH   6  26
ATOM     26  O   UNL     1       1.715   4.236 -24.550  1.00  0.00    -0.507 OA
ATOM     27  H   UNL     1       1.668   3.288 -24.892  1.00  0.00     0.293 HD
ENDBRANCH   6  26
BRANCH   8  28
ATOM     28  O   UNL     1       5.051   3.586 -21.157  1.00  0.00    -0.508 OA
ATOM     29  H   UNL     1       4.893   3.771 -20.173  1.00  0.00     0.293 HD
ENDBRANCH   8  28
TORSDOF 7
ENDMDL
MODEL 6
REMARK VINA RESULT:    -6.640      6.029      9.137
REMARK INTER + INTRA:          -8.525
REMARK INTER:                  -8.253
REMARK INTRA:                  -0.272
REMARK UNBOUND:                -0.332
REMARK SMILES O=c1c(O)c(-c2cc(O)c(O)c(O)c2)oc2cc(O)cc(O)c12
REMARK SMILES IDX 5 1 3 2 2 3 1 4 23 5 21 6 20 7 18 8 17 9 16 10 15 11 6 12
REMARK SMILES IDX 7 13 8 14 14 15 10 16 12 17 9 18 11 20 13 22 4 24 22 26
REMARK SMILES IDX 19 28
REMARK H PARENT 9 19 11 21 13 23 4 25 22 27 19 29
REMARK Flexibility Score: inf
ROOT
ATOM      1  C   UNL     1       5.406   8.710 -24.051  1.00  0.00     0.180 A 
ATOM      2  C   UNL     1       5.790   8.058 -22.867  1.00  0.00     0.208 A 
ATOM      3  C   UNL     1       5.191   6.830 -22.541  1.00  0.00     0.238 A 
ATOM      4  O   UNL     1       5.577   6.226 -21.507  1.00  0.00    -0.285 OA
ATOM      5  C   UNL     1       4.205   6.279 -23.394  1.00  0.00     0.111 A 
ATOM      6  C   UNL     1       3.503   5.062 -23.141  1.00  0.00     0.134 A 
ATOM      7  C   UNL     1       2.644   4.545 -24.118  1.00  0.00     0.093 A 
ATOM      8  C   UNL     1       2.410   5.234 -25.311  1.00  0.00     0.123 A 
ATOM      9  C   UNL     1       3.045   6.452 -25.540  1.00  0.00     0.094 A 
ATOM     10  C   UNL     1       3.936   6.976 -24.600  1.00  0.00     0.146 A 
ATOM     11  O   UNL     1       4.527   8.135 -24.864  1.00  0.00    -0.452 OA
ENDROOT
BRANCH   1  12
ATOM     12  C   UNL     1       5.975  10.018 -24.450  1.00  0.00     0.029 A 
ATOM     13  C   UNL     1       5.664  11.195 -23.747  1.00  0.00     0.062 A 
ATOM     14  C   UNL     1       6.193  12.428 -24.153  1.00  0.00     0.162 A 
ATOM     15  C   UNL     1       6.793  10.098 -25.586  1.00  0.00     0.062 A 
ATOM     16  C   UNL     1       7.031  12.494 -25.280  1.00  0.00     0.200 A 
ATOM     17  C   UNL     1       7.327  11.323 -25.999  1.00  0.00     0.162 A 
BRANCH  14  18
ATOM     18  O   UNL     1       5.884  13.588 -23.445  1.00  0.00    -0.504 OA
ATOM     19  H   UNL     1       4.946  13.972 -23.438  1.00  0.00     0.293 HD
ENDBRANCH  14  18
BRANCH  16  20
ATOM     20  O   UNL     1       7.569  13.712 -25.696  1.00  0.00    -0.502 OA
ATOM     21  H   UNL     1       6.987  14.489 -25.988  1.00  0.00     0.293 HD
ENDBRANCH  16  20
BRANCH  17  22
ATOM     22  O   UNL     1       8.148  11.358 -27.125  1.00  0.00    -0.504 OA
ATOM     23  H   UNL     1       8.742  10.580 -27.384  1.00  0.00     0.293 HD
ENDBRANCH  17  22
ENDBRANCH   1  12
BRANCH   2  24
ATOM     24  O   UNL     1       6.780   8.610 -22.049  1.00  0.00    -0.502 OA
ATOM     25  H   UNL     1       7.308   9.432 -22.313  1.00  0.00     0.293 HD
ENDBRANCH   2  24
BRANCH   6  26
ATOM     26  O   UNL     1       3.595   4.343 -21.946  1.00  0.00    -0.507 OA
ATOM     27  H   UNL     1       4.093   4.653 -21.125  1.00  0.00     0.293 HD
ENDBRANCH   6  26
BRANCH   8  28
ATOM     28  O   UNL     1       1.542   4.720 -26.271  1.00  0.00    -0.508 OA
ATOM     29  H   UNL     1       0.537   4.746 -26.144  1.00  0.00     0.293 HD
ENDBRANCH   8  28
TORSDOF 7
ENDMDL
MODEL 7
REMARK VINA RESULT:    -6.623      4.358      7.381
REMARK INTER + INTRA:          -8.504
REMARK INTER:                  -8.158
REMARK INTRA:                  -0.346
REMARK UNBOUND:                -0.332
REMARK SMILES O=c1c(O)c(-c2cc(O)c(O)c(O)c2)oc2cc(O)cc(O)c12
REMARK SMILES IDX 5 1 3 2 2 3 1 4 23 5 21 6 20 7 18 8 17 9 16 10 15 11 6 12
REMARK SMILES IDX 7 13 8 14 14 15 10 16 12 17 9 18 11 20 13 22 4 24 22 26
REMARK SMILES IDX 19 28
REMARK H PARENT 9 19 11 21 13 23 4 25 22 27 19 29
REMARK Flexibility Score: inf
ROOT
ATOM      1  C   UNL     1       4.448   7.434 -24.295  1.00  0.00     0.180 A 
ATOM      2  C   UNL     1       3.980   6.871 -25.495  1.00  0.00     0.208 A 
ATOM      3  C   UNL     1       3.747   5.487 -25.551  1.00  0.00     0.238 A 
ATOM      4  O   UNL     1       3.278   4.996 -26.611  1.00  0.00    -0.285 OA
ATOM      5  C   UNL     1       3.998   4.683 -24.413  1.00  0.00     0.111 A 
ATOM      6  C   UNL     1       3.835   3.265 -24.370  1.00  0.00     0.134 A 
ATOM      7  C   UNL     1       3.987   2.590 -23.154  1.00  0.00     0.093 A 
ATOM      8  C   UNL     1       4.361   3.271 -21.992  1.00  0.00     0.123 A 
ATOM      9  C   UNL     1       4.581   4.646 -22.038  1.00  0.00     0.094 A 
ATOM     10  C   UNL     1       4.401   5.353 -23.229  1.00  0.00     0.146 A 
ATOM     11  O   UNL     1       4.611   6.664 -23.226  1.00  0.00    -0.452 OA
ENDROOT
BRANCH   1  12
ATOM     12  C   UNL     1       4.740   8.880 -24.166  1.00  0.00     0.029 A 
ATOM     13  C   UNL     1       5.944   9.427 -24.641  1.00  0.00     0.062 A 
ATOM     14  C   UNL     1       6.214  10.794 -24.489  1.00  0.00     0.162 A 
ATOM     15  C   UNL     1       3.826   9.713 -23.505  1.00  0.00     0.062 A 
ATOM     16  C   UNL     1       5.281  11.626 -23.845  1.00  0.00     0.200 A 
ATOM     17  C   UNL     1       4.086  11.079 -23.349  1.00  0.00     0.162 A 
BRANCH  14  18
ATOM     18  O   UNL     1       7.409  11.328 -24.970  1.00  0.00    -0.504 OA
ATOM     19  H   UNL     1       7.486  11.695 -25.912  1.00  0.00     0.293 HD
ENDBRANCH  14  18
BRANCH  16  20
ATOM     20  O   UNL     1       5.532  12.990 -23.689  1.00  0.00    -0.502 OA
ATOM     21  H   UNL     1       5.823  13.578 -24.462  1.00  0.00     0.293 HD
ENDBRANCH  16  20
BRANCH  17  22
ATOM     22  O   UNL     1       3.145  11.876 -22.699  1.00  0.00    -0.504 OA
ATOM     23  H   UNL     1       2.523  11.507 -21.990  1.00  0.00     0.293 HD
ENDBRANCH  17  22
ENDBRANCH   1  12
BRANCH   2  24
ATOM     24  O   UNL     1       3.719   7.685 -26.600  1.00  0.00    -0.502 OA
ATOM     25  H   UNL     1       4.305   8.473 -26.846  1.00  0.00     0.293 HD
ENDBRANCH   2  24
BRANCH   6  26
ATOM     26  O   UNL     1       3.552   2.479 -25.491  1.00  0.00    -0.507 OA
ATOM     27  H   UNL     1       4.184   2.329 -26.262  1.00  0.00     0.293 HD
ENDBRANCH   6  26
BRANCH   8  28
ATOM     28  O   UNL     1       4.525   2.589 -20.789  1.00  0.00    -0.508 OA
ATOM     29  H   UNL     1       4.939   3.036 -19.979  1.00  0.00     0.293 HD
ENDBRANCH   8  28
TORSDOF 7
ENDMDL
MODEL 8
REMARK VINA RESULT:    -6.550      4.196     10.092
REMARK INTER + INTRA:          -8.413
REMARK INTER:                  -8.066
REMARK INTRA:                  -0.347
REMARK UNBOUND:                -0.332
REMARK SMILES O=c1c(O)c(-c2cc(O)c(O)c(O)c2)oc2cc(O)cc(O)c12
REMARK SMILES IDX 5 1 3 2 2 3 1 4 23 5 21 6 20 7 18 8 17 9 16 10 15 11 6 12
REMARK SMILES IDX 7 13 8 14 14 15 10 16 12 17 9 18 11 20 13 22 4 24 22 26
REMARK SMILES IDX 19 28
REMARK H PARENT 9 19 11 21 13 23 4 25 22 27 19 29
REMARK Flexibility Score: inf
ROOT
ATOM      1  C   UNL     1       4.128   6.934 -23.536  1.00  0.00     0.180 A 
ATOM      2  C   UNL     1       2.940   7.597 -23.888  1.00  0.00     0.208 A 
ATOM      3  C   UNL     1       2.948   8.998 -23.993  1.00  0.00     0.238 A 
ATOM      4  O   UNL     1       1.895   9.582 -24.361  1.00  0.00    -0.285 OA
ATOM      5  C   UNL     1       4.138   9.717 -23.731  1.00  0.00     0.111 A 
ATOM      6  C   UNL     1       4.250  11.140 -23.769  1.00  0.00     0.134 A 
ATOM      7  C   UNL     1       5.507  11.738 -23.621  1.00  0.00     0.093 A 
ATOM      8  C   UNL     1       6.647  10.968 -23.371  1.00  0.00     0.123 A 
ATOM      9  C   UNL     1       6.537   9.583 -23.273  1.00  0.00     0.094 A 
ATOM     10  C   UNL     1       5.302   8.955 -23.452  1.00  0.00     0.146 A 
ATOM     11  O   UNL     1       5.244   7.632 -23.361  1.00  0.00    -0.452 OA
ENDROOT
BRANCH   1  12
ATOM     12  C   UNL     1       4.192   5.463 -23.381  1.00  0.00     0.029 A 
ATOM     13  C   UNL     1       4.092   4.856 -22.118  1.00  0.00     0.062 A 
ATOM     14  C   UNL     1       4.179   3.463 -21.988  1.00  0.00     0.162 A 
ATOM     15  C   UNL     1       4.417   4.659 -24.509  1.00  0.00     0.062 A 
ATOM     16  C   UNL     1       4.381   2.664 -23.127  1.00  0.00     0.200 A 
ATOM     17  C   UNL     1       4.504   3.268 -24.389  1.00  0.00     0.162 A 
BRANCH  14  18
ATOM     18  O   UNL     1       4.071   2.871 -20.731  1.00  0.00    -0.504 OA
ATOM     19  H   UNL     1       4.773   3.016 -20.013  1.00  0.00     0.293 HD
ENDBRANCH  14  18
BRANCH  16  20
ATOM     20  O   UNL     1       4.466   1.275 -23.016  1.00  0.00    -0.502 OA
ATOM     21  H   UNL     1       4.158   0.779 -22.187  1.00  0.00     0.293 HD
ENDBRANCH  16  20
BRANCH  17  22
ATOM     22  O   UNL     1       4.713   2.503 -25.536  1.00  0.00    -0.504 OA
ATOM     23  H   UNL     1       5.551   1.951 -25.671  1.00  0.00     0.293 HD
ENDBRANCH  17  22
ENDBRANCH   1  12
BRANCH   2  24
ATOM     24  O   UNL     1       1.781   6.866 -24.163  1.00  0.00    -0.502 OA
ATOM     25  H   UNL     1       1.615   5.945 -23.777  1.00  0.00     0.293 HD
ENDBRANCH   2  24
BRANCH   6  26
ATOM     26  O   UNL     1       3.161  12.004 -23.921  1.00  0.00    -0.507 OA
ATOM     27  H   UNL     1       2.635  12.120 -24.773  1.00  0.00     0.293 HD
ENDBRANCH   6  26
BRANCH   8  28
ATOM     28  O   UNL     1       7.891  11.572 -23.209  1.00  0.00    -0.508 OA
ATOM     29  H   UNL     1       8.309  11.687 -22.293  1.00  0.00     0.293 HD
ENDBRANCH   8  28
TORSDOF 7
ENDMDL
MODEL 9
REMARK VINA RESULT:    -6.414      4.550      7.564
REMARK INTER + INTRA:          -8.246
REMARK INTER:                  -7.979
REMARK INTRA:                  -0.267
REMARK UNBOUND:                -0.332
REMARK SMILES O=c1c(O)c(-c2cc(O)c(O)c(O)c2)oc2cc(O)cc(O)c12
REMARK SMILES IDX 5 1 3 2 2 3 1 4 23 5 21 6 20 7 18 8 17 9 16 10 15 11 6 12
REMARK SMILES IDX 7 13 8 14 14 15 10 16 12 17 9 18 11 20 13 22 4 24 22 26
REMARK SMILES IDX 19 28
REMARK H PARENT 9 19 11 21 13 23 4 25 22 27 19 29
REMARK Flexibility Score: inf
ROOT
ATOM      1  C   UNL     1       4.781   7.327 -23.352  1.00  0.00     0.180 A 
ATOM      2  C   UNL     1       5.478   6.555 -22.407  1.00  0.00     0.208 A 
ATOM      3  C   UNL     1       5.224   5.175 -22.333  1.00  0.00     0.238 A 
ATOM      4  O   UNL     1       5.889   4.481 -21.522  1.00  0.00    -0.285 OA
ATOM      5  C   UNL     1       4.266   4.589 -23.195  1.00  0.00     0.111 A 
ATOM      6  C   UNL     1       3.898   3.210 -23.179  1.00  0.00     0.134 A 
ATOM      7  C   UNL     1       3.035   2.714 -24.163  1.00  0.00     0.093 A 
ATOM      8  C   UNL     1       2.473   3.561 -25.123  1.00  0.00     0.123 A 
ATOM      9  C   UNL     1       2.779   4.920 -25.109  1.00  0.00     0.094 A 
ATOM     10  C   UNL     1       3.666   5.438 -24.161  1.00  0.00     0.146 A 
ATOM     11  O   UNL     1       3.937   6.736 -24.190  1.00  0.00    -0.452 OA
ENDROOT
BRANCH   1  12
ATOM     12  C   UNL     1       4.978   8.790 -23.473  1.00  0.00     0.029 A 
ATOM     13  C   UNL     1       6.159   9.326 -24.014  1.00  0.00     0.062 A 
ATOM     14  C   UNL     1       6.338  10.713 -24.098  1.00  0.00     0.162 A 
ATOM     15  C   UNL     1       3.994   9.661 -22.985  1.00  0.00     0.062 A 
ATOM     16  C   UNL     1       5.336  11.579 -23.627  1.00  0.00     0.200 A 
ATOM     17  C   UNL     1       4.163  11.048 -23.066  1.00  0.00     0.162 A 
BRANCH  14  18
ATOM     18  O   UNL     1       7.511  11.235 -24.643  1.00  0.00    -0.504 OA
ATOM     19  H   UNL     1       8.405  11.132 -24.176  1.00  0.00     0.293 HD
ENDBRANCH  14  18
BRANCH  16  20
ATOM     20  O   UNL     1       5.496  12.963 -23.708  1.00  0.00    -0.502 OA
ATOM     21  H   UNL     1       5.523  13.553 -22.884  1.00  0.00     0.293 HD
ENDBRANCH  16  20
BRANCH  17  22
ATOM     22  O   UNL     1       3.154  11.880 -22.583  1.00  0.00    -0.504 OA
ATOM     23  H   UNL     1       3.314  12.542 -21.833  1.00  0.00     0.293 HD
ENDBRANCH  17  22
ENDBRANCH   1  12
BRANCH   2  24
ATOM     24  O   UNL     1       6.436   7.150 -21.581  1.00  0.00    -0.502 OA
ATOM     25  H   UNL     1       6.215   7.915 -20.955  1.00  0.00     0.293 HD
ENDBRANCH   2  24
BRANCH   6  26
ATOM     26  O   UNL     1       4.330   2.299 -22.211  1.00  0.00    -0.507 OA
ATOM     27  H   UNL     1       3.832   1.464 -21.944  1.00  0.00     0.293 HD
ENDBRANCH   6  26
BRANCH   8  28
ATOM     28  O   UNL     1       1.603   3.062 -26.089  1.00  0.00    -0.508 OA
ATOM     29  H   UNL     1       1.051   3.680 -26.674  1.00  0.00     0.293 HD
ENDBRANCH   8  28
TORSDOF 7
ENDMDL
