MODEL 1
REMARK VINA RESULT:    -2.963      0.000      0.000
REMARK INTER + INTRA:          -3.376
REMARK INTER:                  -3.309
REMARK INTRA:                  -0.066
REMARK UNBOUND:                -0.066
REMARK SMILES CCCC(=O)[O-]
REMARK SMILES IDX 3 1 4 2 5 3 6 4 2 5 1 6
REMARK H PARENT
REMARK Flexibility Score: inf
ROOT
ATOM      1  C   UNL     1      50.481  11.682  -5.776  1.00  0.00     0.052 C 
ENDROOT
BRANCH   1   2
ATOM      2  C   UNL     1      50.036  11.374  -7.173  1.00  0.00     0.041 C 
ATOM      3  O   UNL     1      49.857  10.180  -7.531  1.00  0.00    -0.550 OA
ATOM      4  O   UNL     1      49.784  12.406  -8.068  1.00  0.00    -0.550 OA
ENDBRANCH   1   2
BRANCH   1   5
ATOM      5  C   UNL     1      49.417  11.296  -4.741  1.00  0.00     0.003 C 
ATOM      6  C   UNL     1      48.206  12.228  -4.776  1.00  0.00     0.004 C 
ENDBRANCH   1   5
TORSDOF 2
ENDMDL
MODEL 2
REMARK VINA RESULT:    -2.952     20.364     21.205
REMARK INTER + INTRA:          -3.363
REMARK INTER:                  -3.301
REMARK INTRA:                  -0.062
REMARK UNBOUND:                -0.066
REMARK SMILES CCCC(=O)[O-]
REMARK SMILES IDX 3 1 4 2 5 3 6 4 2 5 1 6
REMARK H PARENT
REMARK Flexibility Score: inf
ROOT
ATOM      1  C   UNL     1      35.378   4.593   8.443  1.00  0.00     0.052 C 
ENDROOT
BRANCH   1   2
ATOM      2  C   UNL     1      34.450   4.878   7.302  1.00  0.00     0.041 C 
ATOM      3  O   UNL     1      34.556   5.952   6.653  1.00  0.00    -0.550 OA
ATOM      4  O   UNL     1      33.491   3.943   6.934  1.00  0.00    -0.550 OA
ENDBRANCH   1   2
BRANCH   1   5
ATOM      5  C   UNL     1      36.848   4.629   8.004  1.00  0.00     0.003 C 
ATOM      6  C   UNL     1      37.256   3.372   7.235  1.00  0.00     0.004 C 
ENDBRANCH   1   5
TORSDOF 2
ENDMDL
MODEL 3
REMARK VINA RESULT:    -2.939     20.761     21.487
REMARK INTER + INTRA:          -3.349
REMARK INTER:                  -3.286
REMARK INTRA:                  -0.063
REMARK UNBOUND:                -0.066
REMARK SMILES CCCC(=O)[O-]
REMARK SMILES IDX 3 1 4 2 5 3 6 4 2 5 1 6
REMARK H PARENT
REMARK Flexibility Score: inf
ROOT
ATOM      1  C   UNL     1      34.767  -1.015   4.225  1.00  0.00     0.052 C 
ENDROOT
BRANCH   1   2
ATOM      2  C   UNL     1      36.083  -0.956   4.939  1.00  0.00     0.041 C 
ATOM      3  O   UNL     1      36.119  -0.774   6.185  1.00  0.00    -0.550 OA
ATOM      4  O   UNL     1      37.266  -1.135   4.235  1.00  0.00    -0.550 OA
ENDBRANCH   1   2
BRANCH   1   5
ATOM      5  C   UNL     1      34.682   0.025   3.100  1.00  0.00     0.003 C 
ATOM      6  C   UNL     1      34.503   1.446   3.634  1.00  0.00     0.004 C 
ENDBRANCH   1   5
TORSDOF 2
ENDMDL
MODEL 4
REMARK VINA RESULT:    -2.933     10.849     11.546
REMARK INTER + INTRA:          -3.342
REMARK INTER:                  -3.304
REMARK INTRA:                  -0.039
REMARK UNBOUND:                -0.066
REMARK SMILES CCCC(=O)[O-]
REMARK SMILES IDX 3 1 4 2 5 3 6 4 2 5 1 6
REMARK H PARENT
REMARK Flexibility Score: inf
ROOT
ATOM      1  C   UNL     1      39.242   7.730  -5.500  1.00  0.00     0.052 C 
ENDROOT
BRANCH   1   2
ATOM      2  C   UNL     1      38.005   8.048  -6.283  1.00  0.00     0.041 C 
ATOM      3  O   UNL     1      37.217   7.126  -6.625  1.00  0.00    -0.550 OA
ATOM      4  O   UNL     1      37.703   9.365  -6.606  1.00  0.00    -0.550 OA
ENDBRANCH   1   2
BRANCH   1   5
ATOM      5  C   UNL     1      40.005   9.000  -5.102  1.00  0.00     0.003 C 
ATOM      6  C   UNL     1      39.815   9.355  -3.628  1.00  0.00     0.004 C 
ENDBRANCH   1   5
TORSDOF 2
ENDMDL
MODEL 5
REMARK VINA RESULT:    -2.925     21.042     21.512
REMARK INTER + INTRA:          -3.333
REMARK INTER:                  -3.319
REMARK INTRA:                  -0.014
REMARK UNBOUND:                -0.066
REMARK SMILES CCCC(=O)[O-]
REMARK SMILES IDX 3 1 4 2 5 3 6 4 2 5 1 6
REMARK H PARENT
REMARK Flexibility Score: inf
ROOT
ATOM      1  C   UNL     1      34.132   2.014   4.934  1.00  0.00     0.052 C 
ENDROOT
BRANCH   1   2
ATOM      2  C   UNL     1      33.400   3.270   5.296  1.00  0.00     0.041 C 
ATOM      3  O   UNL     1      32.579   3.780   4.489  1.00  0.00    -0.550 OA
ATOM      4  O   UNL     1      33.598   3.858   6.538  1.00  0.00    -0.550 OA
ENDBRANCH   1   2
BRANCH   1   5
ATOM      5  C   UNL     1      34.298   1.870   3.415  1.00  0.00     0.003 C 
ATOM      6  C   UNL     1      34.525   0.420   2.989  1.00  0.00     0.004 C 
ENDBRANCH   1   5
TORSDOF 2
ENDMDL
MODEL 6
REMARK VINA RESULT:    -2.924      5.712      6.343
REMARK INTER + INTRA:          -3.332
REMARK INTER:                  -3.263
REMARK INTRA:                  -0.069
REMARK UNBOUND:                -0.066
REMARK SMILES CCCC(=O)[O-]
REMARK SMILES IDX 3 1 4 2 5 3 6 4 2 5 1 6
REMARK H PARENT
REMARK Flexibility Score: inf
ROOT
ATOM      1  C   UNL     1      45.008  10.415 -10.617  1.00  0.00     0.052 C 
ENDROOT
BRANCH   1   2
ATOM      2  C   UNL     1      44.752  11.517  -9.634  1.00  0.00     0.041 C 
ATOM      3  O   UNL     1      45.625  12.404  -9.437  1.00  0.00    -0.550 OA
ATOM      4  O   UNL     1      43.538  11.586  -8.964  1.00  0.00    -0.550 OA
ENDBRANCH   1   2
BRANCH   1   5
ATOM      5  C   UNL     1      44.959   9.035  -9.948  1.00  0.00     0.003 C 
ATOM      6  C   UNL     1      46.094   8.834  -8.944  1.00  0.00     0.004 C 
ENDBRANCH   1   5
TORSDOF 2
ENDMDL
MODEL 7
REMARK VINA RESULT:    -2.904      1.451      2.084
REMARK INTER + INTRA:          -3.310
REMARK INTER:                  -3.247
REMARK INTRA:                  -0.063
REMARK UNBOUND:                -0.066
REMARK SMILES CCCC(=O)[O-]
REMARK SMILES IDX 3 1 4 2 5 3 6 4 2 5 1 6
REMARK H PARENT
REMARK Flexibility Score: inf
ROOT
ATOM      1  C   UNL     1      50.183  11.561  -5.473  1.00  0.00     0.052 C 
ENDROOT
BRANCH   1   2
ATOM      2  C   UNL     1      50.232  10.131  -5.918  1.00  0.00     0.041 C 
ATOM      3  O   UNL     1      50.380   9.853  -7.138  1.00  0.00    -0.550 OA
ATOM      4  O   UNL     1      50.149   9.107  -4.984  1.00  0.00    -0.550 OA
ENDBRANCH   1   2
BRANCH   1   5
ATOM      5  C   UNL     1      48.898  11.871  -4.693  1.00  0.00     0.003 C 
ATOM      6  C   UNL     1      47.670  11.942  -5.601  1.00  0.00     0.004 C 
ENDBRANCH   1   5
TORSDOF 2
ENDMDL
MODEL 8
REMARK VINA RESULT:    -2.904      8.318      9.110
REMARK INTER + INTRA:          -3.310
REMARK INTER:                  -3.271
REMARK INTRA:                  -0.039
REMARK UNBOUND:                -0.066
REMARK SMILES CCCC(=O)[O-]
REMARK SMILES IDX 3 1 4 2 5 3 6 4 2 5 1 6
REMARK H PARENT
REMARK Flexibility Score: inf
ROOT
ATOM      1  C   UNL     1      46.250   7.314   0.162  1.00  0.00     0.052 C 
ENDROOT
BRANCH   1   2
ATOM      2  C   UNL     1      47.408   6.901   1.019  1.00  0.00     0.041 C 
ATOM      3  O   UNL     1      48.421   6.363   0.497  1.00  0.00    -0.550 OA
ATOM      4  O   UNL     1      47.384   7.141   2.386  1.00  0.00    -0.550 OA
ENDBRANCH   1   2
BRANCH   1   5
ATOM      5  C   UNL     1      46.338   6.707  -1.244  1.00  0.00     0.003 C 
ATOM      6  C   UNL     1      45.510   5.429  -1.380  1.00  0.00     0.004 C 
ENDBRANCH   1   5
TORSDOF 2
ENDMDL
MODEL 9
REMARK VINA RESULT:    -2.887     21.758     22.631
REMARK INTER + INTRA:          -3.291
REMARK INTER:                  -3.247
REMARK INTRA:                  -0.044
REMARK UNBOUND:                -0.066
REMARK SMILES CCCC(=O)[O-]
REMARK SMILES IDX 3 1 4 2 5 3 6 4 2 5 1 6
REMARK H PARENT
REMARK Flexibility Score: inf
ROOT
ATOM      1  C   UNL     1      35.063  -0.414   5.462  1.00  0.00     0.052 C 
ENDROOT
BRANCH   1   2
ATOM      2  C   UNL     1      33.937   0.284   6.162  1.00  0.00     0.041 C 
ATOM      3  O   UNL     1      33.075  -0.381   6.795  1.00  0.00    -0.550 OA
ATOM      4  O   UNL     1      33.859   1.671   6.146  1.00  0.00    -0.550 OA
ENDBRANCH   1   2
BRANCH   1   5
ATOM      5  C   UNL     1      34.649  -0.905   4.069  1.00  0.00     0.003 C 
ATOM      6  C   UNL     1      34.656   0.217   3.030  1.00  0.00     0.004 C 
ENDBRANCH   1   5
TORSDOF 2
ENDMDL
