MODEL 1
REMARK VINA RESULT:    -6.756      0.000      0.000
REMARK INTER + INTRA:         -13.051
REMARK INTER:                 -10.311
REMARK INTRA:                  -2.740
REMARK UNBOUND:                -2.740
REMARK SMILES CC(=O)CCC=C(C)CCC=C(C)CCC=C(C)C
REMARK SMILES IDX 10 1 11 2 12 3 13 4 14 5 15 6 16 7 18 8 17 9 19 10 9 11 7 12
REMARK SMILES IDX 6 13 8 14 5 15 4 16 2 17 3 18 1 19
REMARK H PARENT
REMARK Flexibility Score: inf
ROOT
ATOM      1  C   UNL     1      30.226  13.488  82.060  1.00  0.00     0.032 C 
ENDROOT
BRANCH   1   2
ATOM      2  C   UNL     1      28.770  13.622  82.419  1.00  0.00    -0.028 C 
ATOM      3  C   UNL     1      27.813  12.728  82.083  1.00  0.00    -0.077 C 
ATOM      4  C   UNL     1      28.140  11.423  81.400  1.00  0.00     0.039 C 
BRANCH   3   5
ATOM      5  C   UNL     1      26.361  13.080  82.335  1.00  0.00     0.034 C 
BRANCH   5   6
ATOM      6  C   UNL     1      26.209  14.518  82.856  1.00  0.00     0.032 C 
BRANCH   6   7
ATOM      7  C   UNL     1      25.602  15.446  81.827  1.00  0.00    -0.028 C 
ATOM      8  C   UNL     1      25.477  17.358  80.292  1.00  0.00     0.039 C 
ATOM      9  C   UNL     1      26.182  16.577  81.370  1.00  0.00    -0.080 C 
ATOM     10  C   UNL     1      27.496  17.082  81.917  1.00  0.00     0.039 C 
ENDBRANCH   6   7
ENDBRANCH   5   6
ENDBRANCH   3   5
ENDBRANCH   1   2
BRANCH   1  11
ATOM     11  C   UNL     1      30.550  14.352  80.835  1.00  0.00     0.034 C 
BRANCH  11  12
ATOM     12  C   UNL     1      30.451  13.536  79.562  1.00  0.00    -0.077 C 
ATOM     13  C   UNL     1      29.457  13.702  78.659  1.00  0.00    -0.028 C 
ATOM     14  C   UNL     1      31.543  12.546  79.252  1.00  0.00     0.039 C 
BRANCH  13  15
ATOM     15  C   UNL     1      28.294  14.652  78.822  1.00  0.00     0.035 C 
BRANCH  15  16
ATOM     16  C   UNL     1      26.945  13.919  78.789  1.00  0.00     0.079 C 
BRANCH  16  17
ATOM     17  C   UNL     1      26.307  14.000  77.427  1.00  0.00     0.130 C 
ATOM     18  O   UNL     1      25.648  14.984  77.125  1.00  0.00    -0.300 OA
ATOM     19  C   UNL     1      26.445  12.879  76.441  1.00  0.00     0.087 C 
ENDBRANCH  16  17
ENDBRANCH  15  16
ENDBRANCH  13  15
ENDBRANCH  11  12
ENDBRANCH   1  11
TORSDOF 9
ENDMDL
MODEL 2
REMARK VINA RESULT:    -6.743      2.151      4.727
REMARK INTER + INTRA:         -13.032
REMARK INTER:                 -10.572
REMARK INTRA:                  -2.460
REMARK UNBOUND:                -2.740
REMARK SMILES CC(=O)CCC=C(C)CCC=C(C)CCC=C(C)C
REMARK SMILES IDX 10 1 11 2 12 3 13 4 14 5 15 6 16 7 18 8 17 9 19 10 9 11 7 12
REMARK SMILES IDX 6 13 8 14 5 15 4 16 2 17 3 18 1 19
REMARK H PARENT
REMARK Flexibility Score: inf
ROOT
ATOM      1  C   UNL     1      26.502  14.881  78.433  1.00  0.00     0.032 C 
ENDROOT
BRANCH   1   2
ATOM      2  C   UNL     1      26.408  14.867  79.937  1.00  0.00    -0.028 C 
ATOM      3  C   UNL     1      26.059  15.933  80.692  1.00  0.00    -0.077 C 
ATOM      4  C   UNL     1      25.607  17.235  80.078  1.00  0.00     0.039 C 
BRANCH   3   5
ATOM      5  C   UNL     1      26.195  15.840  82.198  1.00  0.00     0.034 C 
BRANCH   5   6
ATOM      6  C   UNL     1      25.811  14.445  82.715  1.00  0.00     0.032 C 
BRANCH   6   7
ATOM      7  C   UNL     1      26.977  13.723  83.354  1.00  0.00    -0.028 C 
ATOM      8  C   UNL     1      28.741  12.032  83.594  1.00  0.00     0.039 C 
ATOM      9  C   UNL     1      27.539  12.591  82.878  1.00  0.00    -0.080 C 
ATOM     10  C   UNL     1      26.991  11.871  81.669  1.00  0.00     0.039 C 
ENDBRANCH   6   7
ENDBRANCH   5   6
ENDBRANCH   3   5
ENDBRANCH   1   2
BRANCH   1  11
ATOM     11  C   UNL     1      27.922  14.511  77.990  1.00  0.00     0.034 C 
BRANCH  11  12
ATOM     12  C   UNL     1      28.170  13.027  78.167  1.00  0.00    -0.077 C 
ATOM     13  C   UNL     1      29.311  12.531  78.698  1.00  0.00    -0.028 C 
ATOM     14  C   UNL     1      27.072  12.063  77.801  1.00  0.00     0.039 C 
BRANCH  13  15
ATOM     15  C   UNL     1      30.501  13.365  79.115  1.00  0.00     0.035 C 
BRANCH  15  16
ATOM     16  C   UNL     1      30.969  13.024  80.537  1.00  0.00     0.079 C 
BRANCH  16  17
ATOM     17  C   UNL     1      30.823  14.203  81.463  1.00  0.00     0.130 C 
ATOM     18  O   UNL     1      31.596  14.335  82.400  1.00  0.00    -0.300 OA
ATOM     19  C   UNL     1      29.725  15.206  81.270  1.00  0.00     0.087 C 
ENDBRANCH  16  17
ENDBRANCH  15  16
ENDBRANCH  13  15
ENDBRANCH  11  12
ENDBRANCH   1  11
TORSDOF 9
ENDMDL
MODEL 3
REMARK VINA RESULT:    -6.597      1.960      4.791
REMARK INTER + INTRA:         -12.808
REMARK INTER:                 -10.602
REMARK INTRA:                  -2.206
REMARK UNBOUND:                -2.740
REMARK SMILES CC(=O)CCC=C(C)CCC=C(C)CCC=C(C)C
REMARK SMILES IDX 10 1 11 2 12 3 13 4 14 5 15 6 16 7 18 8 17 9 19 10 9 11 7 12
REMARK SMILES IDX 6 13 8 14 5 15 4 16 2 17 3 18 1 19
REMARK H PARENT
REMARK Flexibility Score: inf
ROOT
ATOM      1  C   UNL     1      27.401  11.253  81.886  1.00  0.00     0.032 C 
ENDROOT
BRANCH   1   2
ATOM      2  C   UNL     1      27.120  12.179  80.732  1.00  0.00    -0.028 C 
ATOM      3  C   UNL     1      27.543  11.973  79.464  1.00  0.00    -0.077 C 
ATOM      4  C   UNL     1      28.254  10.707  79.054  1.00  0.00     0.039 C 
BRANCH   3   5
ATOM      5  C   UNL     1      27.361  13.077  78.443  1.00  0.00     0.034 C 
BRANCH   5   6
ATOM      6  C   UNL     1      28.633  13.928  78.299  1.00  0.00     0.032 C 
BRANCH   6   7
ATOM      7  C   UNL     1      29.232  14.305  79.635  1.00  0.00    -0.028 C 
ATOM      8  C   UNL     1      30.904  14.372  81.432  1.00  0.00     0.039 C 
ATOM      9  C   UNL     1      30.411  13.846  80.109  1.00  0.00    -0.080 C 
ATOM     10  C   UNL     1      31.231  12.821  79.363  1.00  0.00     0.039 C 
ENDBRANCH   6   7
ENDBRANCH   5   6
ENDBRANCH   3   5
ENDBRANCH   1   2
BRANCH   1  11
ATOM     11  C   UNL     1      28.643  11.724  82.651  1.00  0.00     0.034 C 
BRANCH  11  12
ATOM     12  C   UNL     1      28.264  12.246  84.021  1.00  0.00    -0.077 C 
ATOM     13  C   UNL     1      27.829  13.510  84.232  1.00  0.00    -0.028 C 
ATOM     14  C   UNL     1      28.304  11.299  85.192  1.00  0.00     0.039 C 
BRANCH  13  15
ATOM     15  C   UNL     1      27.731  14.576  83.165  1.00  0.00     0.035 C 
BRANCH  15  16
ATOM     16  C   UNL     1      26.280  15.017  82.926  1.00  0.00     0.079 C 
BRANCH  16  17
ATOM     17  C   UNL     1      26.178  15.974  81.767  1.00  0.00     0.130 C 
ATOM     18  O   UNL     1      26.592  17.117  81.889  1.00  0.00    -0.300 OA
ATOM     19  C   UNL     1      25.550  15.554  80.472  1.00  0.00     0.087 C 
ENDBRANCH  16  17
ENDBRANCH  15  16
ENDBRANCH  13  15
ENDBRANCH  11  12
ENDBRANCH   1  11
TORSDOF 9
ENDMDL
MODEL 4
REMARK VINA RESULT:    -6.544      1.750      3.762
REMARK INTER + INTRA:         -12.727
REMARK INTER:                 -10.345
REMARK INTRA:                  -2.382
REMARK UNBOUND:                -2.740
REMARK SMILES CC(=O)CCC=C(C)CCC=C(C)CCC=C(C)C
REMARK SMILES IDX 10 1 11 2 12 3 13 4 14 5 15 6 16 7 18 8 17 9 19 10 9 11 7 12
REMARK SMILES IDX 6 13 8 14 5 15 4 16 2 17 3 18 1 19
REMARK H PARENT
REMARK Flexibility Score: inf
ROOT
ATOM      1  C   UNL     1      30.786  12.114  79.703  1.00  0.00     0.032 C 
ENDROOT
BRANCH   1   2
ATOM      2  C   UNL     1      29.560  11.460  80.283  1.00  0.00    -0.028 C 
ATOM      3  C   UNL     1      28.389  11.308  79.625  1.00  0.00    -0.077 C 
ATOM      4  C   UNL     1      28.232  11.686  78.172  1.00  0.00     0.039 C 
BRANCH   3   5
ATOM      5  C   UNL     1      27.178  10.813  80.388  1.00  0.00     0.034 C 
BRANCH   5   6
ATOM      6  C   UNL     1      27.443  10.767  81.901  1.00  0.00     0.032 C 
BRANCH   6   7
ATOM      7  C   UNL     1      27.392  12.137  82.541  1.00  0.00    -0.028 C 
ATOM      8  C   UNL     1      27.837  13.875  84.217  1.00  0.00     0.039 C 
ATOM      9  C   UNL     1      27.910  12.444  83.749  1.00  0.00    -0.080 C 
ATOM     10  C   UNL     1      28.541  11.401  84.641  1.00  0.00     0.039 C 
ENDBRANCH   6   7
ENDBRANCH   5   6
ENDBRANCH   3   5
ENDBRANCH   1   2
BRANCH   1  11
ATOM     11  C   UNL     1      30.513  13.597  79.426  1.00  0.00     0.034 C 
BRANCH  11  12
ATOM     12  C   UNL     1      30.031  14.296  80.680  1.00  0.00    -0.077 C 
ATOM     13  C   UNL     1      28.832  14.919  80.760  1.00  0.00    -0.028 C 
ATOM     14  C   UNL     1      30.891  14.237  81.916  1.00  0.00     0.039 C 
BRANCH  13  15
ATOM     15  C   UNL     1      27.858  15.063  79.614  1.00  0.00     0.035 C 
BRANCH  15  16
ATOM     16  C   UNL     1      26.464  14.534  79.977  1.00  0.00     0.079 C 
BRANCH  16  17
ATOM     17  C   UNL     1      25.715  15.506  80.851  1.00  0.00     0.130 C 
ATOM     18  O   UNL     1      25.608  16.672  80.503  1.00  0.00    -0.300 OA
ATOM     19  C   UNL     1      25.121  15.071  82.157  1.00  0.00     0.087 C 
ENDBRANCH  16  17
ENDBRANCH  15  16
ENDBRANCH  13  15
ENDBRANCH  11  12
ENDBRANCH   1  11
TORSDOF 9
ENDMDL
MODEL 5
REMARK VINA RESULT:    -6.542      2.087      4.599
REMARK INTER + INTRA:         -12.724
REMARK INTER:                 -10.648
REMARK INTRA:                  -2.075
REMARK UNBOUND:                -2.740
REMARK SMILES CC(=O)CCC=C(C)CCC=C(C)CCC=C(C)C
REMARK SMILES IDX 10 1 11 2 12 3 13 4 14 5 15 6 16 7 18 8 17 9 19 10 9 11 7 12
REMARK SMILES IDX 6 13 8 14 5 15 4 16 2 17 3 18 1 19
REMARK H PARENT
REMARK Flexibility Score: inf
ROOT
ATOM      1  C   UNL     1      27.038  14.326  83.874  1.00  0.00     0.032 C 
ENDROOT
BRANCH   1   2
ATOM      2  C   UNL     1      26.184  14.555  82.654  1.00  0.00    -0.028 C 
ATOM      3  C   UNL     1      26.210  15.679  81.902  1.00  0.00    -0.077 C 
ATOM      4  C   UNL     1      27.202  16.788  82.152  1.00  0.00     0.039 C 
BRANCH   3   5
ATOM      5  C   UNL     1      25.163  15.861  80.822  1.00  0.00     0.034 C 
BRANCH   5   6
ATOM      6  C   UNL     1      25.805  16.130  79.452  1.00  0.00     0.032 C 
BRANCH   6   7
ATOM      7  C   UNL     1      26.044  14.861  78.665  1.00  0.00    -0.028 C 
ATOM      8  C   UNL     1      27.285  12.920  77.814  1.00  0.00     0.039 C 
ATOM      9  C   UNL     1      27.227  14.213  78.585  1.00  0.00    -0.080 C 
ATOM     10  C   UNL     1      28.482  14.754  79.228  1.00  0.00     0.039 C 
ENDBRANCH   6   7
ENDBRANCH   5   6
ENDBRANCH   3   5
ENDBRANCH   1   2
BRANCH   1  11
ATOM     11  C   UNL     1      28.368  13.677  83.473  1.00  0.00     0.034 C 
BRANCH  11  12
ATOM     12  C   UNL     1      28.296  12.171  83.623  1.00  0.00    -0.077 C 
ATOM     13  C   UNL     1      28.385  11.323  82.573  1.00  0.00    -0.028 C 
ATOM     14  C   UNL     1      28.190  11.588  85.008  1.00  0.00     0.039 C 
BRANCH  13  15
ATOM     15  C   UNL     1      28.495  11.751  81.128  1.00  0.00     0.035 C 
BRANCH  15  16
ATOM     16  C   UNL     1      29.748  11.174  80.453  1.00  0.00     0.079 C 
BRANCH  16  17
ATOM     17  C   UNL     1      30.773  12.245  80.185  1.00  0.00     0.130 C 
ATOM     18  O   UNL     1      31.205  12.914  81.111  1.00  0.00    -0.300 OA
ATOM     19  C   UNL     1      31.253  12.523  78.791  1.00  0.00     0.087 C 
ENDBRANCH  16  17
ENDBRANCH  15  16
ENDBRANCH  13  15
ENDBRANCH  11  12
ENDBRANCH   1  11
TORSDOF 9
ENDMDL
MODEL 6
REMARK VINA RESULT:    -6.526      1.290      4.547
REMARK INTER + INTRA:         -12.700
REMARK INTER:                 -10.535
REMARK INTRA:                  -2.165
REMARK UNBOUND:                -2.740
REMARK SMILES CC(=O)CCC=C(C)CCC=C(C)CCC=C(C)C
REMARK SMILES IDX 10 1 11 2 12 3 13 4 14 5 15 6 16 7 18 8 17 9 19 10 9 11 7 12
REMARK SMILES IDX 6 13 8 14 5 15 4 16 2 17 3 18 1 19
REMARK H PARENT
REMARK Flexibility Score: inf
ROOT
ATOM      1  C   UNL     1      29.019  12.986  83.104  1.00  0.00     0.032 C 
ENDROOT
BRANCH   1   2
ATOM      2  C   UNL     1      29.809  12.729  81.846  1.00  0.00    -0.028 C 
ATOM      3  C   UNL     1      30.210  13.691  80.985  1.00  0.00    -0.077 C 
ATOM      4  C   UNL     1      29.998  15.158  81.267  1.00  0.00     0.039 C 
BRANCH   3   5
ATOM      5  C   UNL     1      30.823  13.280  79.662  1.00  0.00     0.034 C 
BRANCH   5   6
ATOM      6  C   UNL     1      29.750  12.849  78.650  1.00  0.00     0.032 C 
BRANCH   6   7
ATOM      7  C   UNL     1      28.631  13.859  78.527  1.00  0.00    -0.028 C 
ATOM      8  C   UNL     1      26.374  14.695  78.040  1.00  0.00     0.039 C 
ATOM      9  C   UNL     1      27.403  13.594  78.031  1.00  0.00    -0.080 C 
ATOM     10  C   UNL     1      27.043  12.243  77.460  1.00  0.00     0.039 C 
ENDBRANCH   6   7
ENDBRANCH   5   6
ENDBRANCH   3   5
ENDBRANCH   1   2
BRANCH   1  11
ATOM     11  C   UNL     1      27.797  12.061  83.157  1.00  0.00     0.034 C 
BRANCH  11  12
ATOM     12  C   UNL     1      27.009  12.138  81.866  1.00  0.00    -0.077 C 
ATOM     13  C   UNL     1      26.327  13.243  81.487  1.00  0.00    -0.028 C 
ATOM     14  C   UNL     1      27.043  10.960  80.928  1.00  0.00     0.039 C 
BRANCH  13  15
ATOM     15  C   UNL     1      26.199  14.502  82.312  1.00  0.00     0.035 C 
BRANCH  15  16
ATOM     16  C   UNL     1      25.234  15.511  81.673  1.00  0.00     0.079 C 
BRANCH  16  17
ATOM     17  C   UNL     1      25.937  16.793  81.310  1.00  0.00     0.130 C 
ATOM     18  O   UNL     1      25.498  17.488  80.407  1.00  0.00    -0.300 OA
ATOM     19  C   UNL     1      27.186  17.218  82.024  1.00  0.00     0.087 C 
ENDBRANCH  16  17
ENDBRANCH  15  16
ENDBRANCH  13  15
ENDBRANCH  11  12
ENDBRANCH   1  11
TORSDOF 9
ENDMDL
MODEL 7
REMARK VINA RESULT:    -6.520      1.233      3.957
REMARK INTER + INTRA:         -12.691
REMARK INTER:                 -10.021
REMARK INTRA:                  -2.670
REMARK UNBOUND:                -2.740
REMARK SMILES CC(=O)CCC=C(C)CCC=C(C)CCC=C(C)C
REMARK SMILES IDX 10 1 11 2 12 3 13 4 14 5 15 6 16 7 18 8 17 9 19 10 9 11 7 12
REMARK SMILES IDX 6 13 8 14 5 15 4 16 2 17 3 18 1 19
REMARK H PARENT
REMARK Flexibility Score: inf
ROOT
ATOM      1  C   UNL     1      25.175  15.109  82.619  1.00  0.00     0.032 C 
ENDROOT
BRANCH   1   2
ATOM      2  C   UNL     1      25.776  13.753  82.358  1.00  0.00    -0.028 C 
ATOM      3  C   UNL     1      26.920  13.302  82.921  1.00  0.00    -0.077 C 
ATOM      4  C   UNL     1      27.658  14.089  83.977  1.00  0.00     0.039 C 
BRANCH   3   5
ATOM      5  C   UNL     1      27.518  12.002  82.424  1.00  0.00     0.034 C 
BRANCH   5   6
ATOM      6  C   UNL     1      29.027  12.135  82.167  1.00  0.00     0.032 C 
BRANCH   6   7
ATOM      7  C   UNL     1      29.346  12.402  80.714  1.00  0.00    -0.028 C 
ATOM      8  C   UNL     1      30.291  13.584  78.780  1.00  0.00     0.039 C 
ATOM      9  C   UNL     1      29.988  13.498  80.253  1.00  0.00    -0.080 C 
ATOM     10  C   UNL     1      30.390  14.634  81.164  1.00  0.00     0.039 C 
ENDBRANCH   6   7
ENDBRANCH   5   6
ENDBRANCH   3   5
ENDBRANCH   1   2
BRANCH   1  11
ATOM     11  C   UNL     1      25.192  15.949  81.336  1.00  0.00     0.034 C 
BRANCH  11  12
ATOM     12  C   UNL     1      26.609  16.128  80.832  1.00  0.00    -0.077 C 
ATOM     13  C   UNL     1      27.052  15.581  79.677  1.00  0.00    -0.028 C 
ATOM     14  C   UNL     1      27.548  17.010  81.613  1.00  0.00     0.039 C 
BRANCH  13  15
ATOM     15  C   UNL     1      26.236  14.677  78.783  1.00  0.00     0.035 C 
BRANCH  15  16
ATOM     16  C   UNL     1      26.898  14.476  77.412  1.00  0.00     0.079 C 
BRANCH  16  17
ATOM     17  C   UNL     1      26.703  13.070  76.907  1.00  0.00     0.130 C 
ATOM     18  O   UNL     1      26.043  12.877  75.897  1.00  0.00    -0.300 OA
ATOM     19  C   UNL     1      27.286  11.898  77.639  1.00  0.00     0.087 C 
ENDBRANCH  16  17
ENDBRANCH  15  16
ENDBRANCH  13  15
ENDBRANCH  11  12
ENDBRANCH   1  11
TORSDOF 9
ENDMDL
MODEL 8
REMARK VINA RESULT:    -6.457      1.930      3.396
REMARK INTER + INTRA:         -12.594
REMARK INTER:                 -10.291
REMARK INTRA:                  -2.303
REMARK UNBOUND:                -2.740
REMARK SMILES CC(=O)CCC=C(C)CCC=C(C)CCC=C(C)C
REMARK SMILES IDX 10 1 11 2 12 3 13 4 14 5 15 6 16 7 18 8 17 9 19 10 9 11 7 12
REMARK SMILES IDX 6 13 8 14 5 15 4 16 2 17 3 18 1 19
REMARK H PARENT
REMARK Flexibility Score: inf
ROOT
ATOM      1  C   UNL     1      27.994  10.334  81.620  1.00  0.00     0.032 C 
ENDROOT
BRANCH   1   2
ATOM      2  C   UNL     1      27.552  11.746  81.904  1.00  0.00    -0.028 C 
ATOM      3  C   UNL     1      27.708  12.372  83.092  1.00  0.00    -0.077 C 
ATOM      4  C   UNL     1      28.462  11.741  84.237  1.00  0.00     0.039 C 
BRANCH   3   5
ATOM      5  C   UNL     1      27.044  13.717  83.304  1.00  0.00     0.034 C 
BRANCH   5   6
ATOM      6  C   UNL     1      25.938  13.971  82.267  1.00  0.00     0.032 C 
BRANCH   6   7
ATOM      7  C   UNL     1      25.810  15.433  81.903  1.00  0.00    -0.028 C 
ATOM      8  C   UNL     1      25.616  17.398  80.443  1.00  0.00     0.039 C 
ATOM      9  C   UNL     1      25.824  15.919  80.643  1.00  0.00    -0.080 C 
ATOM     10  C   UNL     1      26.055  15.030  79.443  1.00  0.00     0.039 C 
ENDBRANCH   6   7
ENDBRANCH   5   6
ENDBRANCH   3   5
ENDBRANCH   1   2
BRANCH   1  11
ATOM     11  C   UNL     1      28.967  10.314  80.435  1.00  0.00     0.034 C 
BRANCH  11  12
ATOM     12  C   UNL     1      28.279  10.785  79.169  1.00  0.00    -0.077 C 
ATOM     13  C   UNL     1      28.765  11.784  78.397  1.00  0.00    -0.028 C 
ATOM     14  C   UNL     1      27.038  10.064  78.711  1.00  0.00     0.039 C 
BRANCH  13  15
ATOM     15  C   UNL     1      29.995  12.600  78.718  1.00  0.00     0.035 C 
BRANCH  15  16
ATOM     16  C   UNL     1      29.642  14.045  79.096  1.00  0.00     0.079 C 
BRANCH  16  17
ATOM     17  C   UNL     1      29.909  14.315  80.554  1.00  0.00     0.130 C 
ATOM     18  O   UNL     1      29.366  15.262  81.103  1.00  0.00    -0.300 OA
ATOM     19  C   UNL     1      30.853  13.453  81.339  1.00  0.00     0.087 C 
ENDBRANCH  16  17
ENDBRANCH  15  16
ENDBRANCH  13  15
ENDBRANCH  11  12
ENDBRANCH   1  11
TORSDOF 9
ENDMDL
MODEL 9
REMARK VINA RESULT:    -6.385      1.835      4.328
REMARK INTER + INTRA:         -12.484
REMARK INTER:                 -10.026
REMARK INTRA:                  -2.458
REMARK UNBOUND:                -2.740
REMARK SMILES CC(=O)CCC=C(C)CCC=C(C)CCC=C(C)C
REMARK SMILES IDX 10 1 11 2 12 3 13 4 14 5 15 6 16 7 18 8 17 9 19 10 9 11 7 12
REMARK SMILES IDX 6 13 8 14 5 15 4 16 2 17 3 18 1 19
REMARK H PARENT
REMARK Flexibility Score: inf
ROOT
ATOM      1  C   UNL     1      29.274  11.307  79.226  1.00  0.00     0.032 C 
ENDROOT
BRANCH   1   2
ATOM      2  C   UNL     1      28.902  12.761  79.097  1.00  0.00    -0.028 C 
ATOM      3  C   UNL     1      27.963  13.239  78.249  1.00  0.00    -0.077 C 
ATOM      4  C   UNL     1      27.098  12.326  77.416  1.00  0.00     0.039 C 
BRANCH   3   5
ATOM      5  C   UNL     1      27.826  14.738  78.077  1.00  0.00     0.034 C 
BRANCH   5   6
ATOM      6  C   UNL     1      26.410  15.221  78.427  1.00  0.00     0.032 C 
BRANCH   6   7
ATOM      7  C   UNL     1      25.992  14.825  79.826  1.00  0.00    -0.028 C 
ATOM      8  C   UNL     1      25.164  15.131  82.117  1.00  0.00     0.039 C 
ATOM      9  C   UNL     1      25.620  15.690  80.794  1.00  0.00    -0.080 C 
ATOM     10  C   UNL     1      25.662  17.186  80.593  1.00  0.00     0.039 C 
ENDBRANCH   6   7
ENDBRANCH   5   6
ENDBRANCH   3   5
ENDBRANCH   1   2
BRANCH   1  11
ATOM     11  C   UNL     1      29.278  10.892  80.702  1.00  0.00     0.034 C 
BRANCH  11  12
ATOM     12  C   UNL     1      27.888  11.003  81.294  1.00  0.00    -0.077 C 
ATOM     13  C   UNL     1      27.600  11.800  82.348  1.00  0.00    -0.028 C 
ATOM     14  C   UNL     1      26.762  10.247  80.639  1.00  0.00     0.039 C 
BRANCH  13  15
ATOM     15  C   UNL     1      28.614  12.620  83.111  1.00  0.00     0.035 C 
BRANCH  15  16
ATOM     16  C   UNL     1      28.406  14.127  82.904  1.00  0.00     0.079 C 
BRANCH  16  17
ATOM     17  C   UNL     1      29.458  14.709  81.996  1.00  0.00     0.130 C 
ATOM     18  O   UNL     1      29.164  15.621  81.238  1.00  0.00    -0.300 OA
ATOM     19  C   UNL     1      30.856  14.168  81.986  1.00  0.00     0.087 C 
ENDBRANCH  16  17
ENDBRANCH  15  16
ENDBRANCH  13  15
ENDBRANCH  11  12
ENDBRANCH   1  11
TORSDOF 9
ENDMDL
