MODEL 1
REMARK VINA RESULT:     0.699      0.000      0.000
REMARK INTER + INTRA:           3.721
REMARK INTER:                   1.026
REMARK INTRA:                   2.695
REMARK UNBOUND:                 2.695
REMARK SMILES C=C1CC=CC(C)(C)CC=C(C)CCC1
REMARK SMILES IDX 2 1 1 2 15 3 14 4 13 5 11 6 12 7 10 8 3 10 4 11 5 12 6 13
REMARK SMILES IDX 7 14 8 15 9 16
REMARK H PARENT
REMARK Flexibility Score: 60.00
ROOT
ATOM      1  C   UNL     1     152.670 134.930 161.778  1.00  0.00    -0.074 C 
ATOM      2  C   UNL     1     153.564 134.930 160.772  1.00  0.00     0.008 C 
ENDROOT
BRANCH   1   3
ATOM      3  C   UNL     1     151.203 135.183 161.467  1.00  0.00     0.031 C 
BRANCH   3   4
ATOM      4  C   UNL     1     150.927 135.419 159.973  1.00  0.00     0.009 C 
BRANCH   4   5
ATOM      5  C   UNL     1     151.524 136.736 159.437  1.00  0.00     0.030 C 
BRANCH   5   6
ATOM      6  C   UNL     1     151.230 137.896 160.377  1.00  0.00    -0.077 C 
ATOM      7  C   UNL     1     149.882 138.566 160.307  1.00  0.00     0.039 C 
ATOM      8  C   UNL     1     152.136 138.376 161.264  1.00  0.00    -0.027 CG0
ATOM      9  G   UNL     1     153.515 137.791 161.490  1.00  0.00     0.000 G0
ENDBRANCH   5   6
ENDBRANCH   4   5
ENDBRANCH   3   4
ENDBRANCH   1   3
BRANCH   1  10
ATOM     10  C   UNL     1     153.130 134.875 163.228  1.00  0.00     0.057 C 
BRANCH  10  11
ATOM     11  C   UNL     1     154.498 135.476 163.500  1.00  0.00    -0.026 C 
ATOM     12  C   UNL     1     154.912 136.762 163.365  1.00  0.00    -0.024 C 
BRANCH  12  13
ATOM     13  C   UNL     1     154.105 138.002 162.954  1.00  0.00    -0.014 C 
ATOM     14  C   UNL     1     152.919 138.140 163.941  1.00  0.00     0.016 C 
ATOM     15  C   UNL     1     154.961 139.285 163.100  1.00  0.00     0.016 C 
BRANCH  13  16
ATOM     16  C   UNL     1     153.521 137.794 161.523  1.00  0.00     0.038 CG0
ATOM     17  G   UNL     1     152.139 138.377 161.309  1.00  0.00     0.000 G0
ENDBRANCH  13  16
ENDBRANCH  12  13
ENDBRANCH  10  11
ENDBRANCH   1  10
TORSDOF 0
ENDMDL
MODEL 2
REMARK VINA RESULT:     0.820      1.164      3.835
REMARK INTER + INTRA:           3.899
REMARK INTER:                   3.074
REMARK INTRA:                   0.825
REMARK UNBOUND:                 2.695
REMARK SMILES C=C1CC=CC(C)(C)CC=C(C)CCC1
REMARK SMILES IDX 2 1 1 2 15 3 14 4 13 5 11 6 12 7 10 8 3 10 4 11 5 12 6 13
REMARK SMILES IDX 7 14 8 15 9 16
REMARK H PARENT
REMARK Flexibility Score: 60.00
ROOT
ATOM      1  C   UNL     1     153.147 135.854 163.161  1.00  0.00    -0.074 C 
ATOM      2  C   UNL     1     154.020 134.876 162.855  1.00  0.00     0.008 C 
ENDROOT
BRANCH   1   3
ATOM      3  C   UNL     1     153.552 136.924 164.162  1.00  0.00     0.031 C 
BRANCH   3   4
ATOM      4  C   UNL     1     154.767 137.753 163.714  1.00  0.00     0.009 C 
BRANCH   4   5
ATOM      5  C   UNL     1     154.734 138.136 162.220  1.00  0.00     0.030 C 
BRANCH   5   6
ATOM      6  C   UNL     1     153.513 138.984 161.897  1.00  0.00    -0.077 C 
ATOM      7  C   UNL     1     153.248 140.220 162.716  1.00  0.00     0.039 C 
ATOM      8  C   UNL     1     152.631 138.666 160.917  1.00  0.00    -0.027 CG0
ATOM      9  G   UNL     1     152.773 137.486 159.978  1.00  0.00     0.000 G0
ENDBRANCH   5   6
ENDBRANCH   4   5
ENDBRANCH   3   4
ENDBRANCH   1   3
BRANCH   1  10
ATOM     10  C   UNL     1     151.708 135.793 162.670  1.00  0.00     0.057 C 
BRANCH  10  11
ATOM     11  C   UNL     1     151.485 134.982 161.405  1.00  0.00    -0.026 C 
ATOM     12  C   UNL     1     151.330 135.412 160.127  1.00  0.00    -0.024 C 
BRANCH  12  13
ATOM     13  C   UNL     1     151.393 136.843 159.571  1.00  0.00    -0.014 C 
ATOM     14  C   UNL     1     151.343 136.748 158.026  1.00  0.00     0.016 C 
ATOM     15  C   UNL     1     150.150 137.655 160.011  1.00  0.00     0.016 C 
BRANCH  13  16
ATOM     16  C   UNL     1     152.749 137.500 159.971  1.00  0.00     0.038 CG0
ATOM     17  G   UNL     1     152.631 138.677 160.918  1.00  0.00     0.000 G0
ENDBRANCH  13  16
ENDBRANCH  12  13
ENDBRANCH  10  11
ENDBRANCH   1  10
TORSDOF 0
ENDMDL
MODEL 3
REMARK VINA RESULT:     2.198     20.438     22.173
REMARK INTER + INTRA:           5.921
REMARK INTER:                   4.643
REMARK INTRA:                   1.278
REMARK UNBOUND:                 2.695
REMARK SMILES C=C1CC=CC(C)(C)CC=C(C)CCC1
REMARK SMILES IDX 2 1 1 2 15 3 14 4 13 5 11 6 12 7 10 8 3 10 4 11 5 12 6 13
REMARK SMILES IDX 7 14 8 15 9 16
REMARK H PARENT
REMARK Flexibility Score: 60.00
ROOT
ATOM      1  C   UNL     1     136.300 154.229 163.333  1.00  0.00    -0.074 C 
ATOM      2  C   UNL     1     135.658 155.101 164.133  1.00  0.00     0.008 C 
ENDROOT
BRANCH   1   3
ATOM      3  C   UNL     1     135.489 153.241 162.511  1.00  0.00     0.031 C 
BRANCH   3   4
ATOM      4  C   UNL     1     135.635 151.786 162.986  1.00  0.00     0.009 C 
BRANCH   4   5
ATOM      5  C   UNL     1     137.081 151.256 162.912  1.00  0.00     0.030 C 
BRANCH   5   6
ATOM      6  C   UNL     1     137.425 150.788 161.506  1.00  0.00    -0.077 C 
ATOM      7  C   UNL     1     136.627 149.663 160.899  1.00  0.00     0.039 C 
ATOM      8  C   UNL     1     138.436 151.320 160.776  1.00  0.00    -0.027 CG0
ATOM      9  G   UNL     1     139.302 152.480 161.221  1.00  0.00     0.000 G0
ENDBRANCH   5   6
ENDBRANCH   4   5
ENDBRANCH   3   4
ENDBRANCH   1   3
BRANCH   1  10
ATOM     10  C   UNL     1     137.814 154.094 163.388  1.00  0.00     0.057 C 
BRANCH  10  11
ATOM     11  C   UNL     1     138.589 155.116 162.574  1.00  0.00    -0.026 C 
ATOM     12  C   UNL     1     139.143 154.989 161.341  1.00  0.00    -0.024 C 
BRANCH  12  13
ATOM     13  C   UNL     1     139.100 153.794 160.377  1.00  0.00    -0.014 C 
ATOM     14  C   UNL     1     137.687 153.753 159.744  1.00  0.00     0.016 C 
ATOM     15  C   UNL     1     140.106 153.992 159.216  1.00  0.00     0.016 C 
BRANCH  13  16
ATOM     16  C   UNL     1     139.311 152.471 161.176  1.00  0.00     0.038 CG0
ATOM     17  G   UNL     1     138.415 151.325 160.754  1.00  0.00     0.000 G0
ENDBRANCH  13  16
ENDBRANCH  12  13
ENDBRANCH  10  11
ENDBRANCH   1  10
TORSDOF 0
ENDMDL
MODEL 4
REMARK VINA RESULT:     2.281      1.250      3.357
REMARK INTER + INTRA:           6.042
REMARK INTER:                   3.179
REMARK INTRA:                   2.863
REMARK UNBOUND:                 2.695
REMARK SMILES C=C1CC=CC(C)(C)CC=C(C)CCC1
REMARK SMILES IDX 2 1 1 2 15 3 14 4 13 5 11 6 12 7 10 8 3 10 4 11 5 12 6 13
REMARK SMILES IDX 7 14 8 15 9 16
REMARK H PARENT
REMARK Flexibility Score: 60.00
ROOT
ATOM      1  C   UNL     1     151.124 136.714 159.619  1.00  0.00    -0.074 C 
ATOM      2  C   UNL     1     150.831 136.878 158.315  1.00  0.00     0.008 C 
ENDROOT
BRANCH   1   3
ATOM      3  C   UNL     1     150.877 137.861 160.586  1.00  0.00     0.031 C 
BRANCH   3   4
ATOM      4  C   UNL     1     152.045 138.857 160.664  1.00  0.00     0.009 C 
BRANCH   4   5
ATOM      5  C   UNL     1     152.527 139.130 162.103  1.00  0.00     0.030 C 
BRANCH   5   6
ATOM      6  C   UNL     1     154.032 138.940 162.224  1.00  0.00    -0.077 C 
ATOM      7  C   UNL     1     154.893 140.136 162.538  1.00  0.00     0.039 C 
ATOM      8  C   UNL     1     154.643 137.744 162.038  1.00  0.00    -0.027 CG0
ATOM      9  G   UNL     1     153.923 136.441 161.760  1.00  0.00     0.000 G0
ENDBRANCH   5   6
ENDBRANCH   4   5
ENDBRANCH   3   4
ENDBRANCH   1   3
BRANCH   1  10
ATOM     10  C   UNL     1     151.870 135.477 160.098  1.00  0.00     0.057 C 
BRANCH  10  11
ATOM     11  C   UNL     1     151.424 134.928 161.442  1.00  0.00    -0.026 C 
ATOM     12  C   UNL     1     152.021 135.039 162.656  1.00  0.00    -0.024 C 
BRANCH  12  13
ATOM     13  C   UNL     1     153.296 135.803 163.042  1.00  0.00    -0.014 C 
ATOM     14  C   UNL     1     152.889 136.923 164.032  1.00  0.00     0.016 C 
ATOM     15  C   UNL     1     154.283 134.877 163.794  1.00  0.00     0.016 C 
BRANCH  13  16
ATOM     16  C   UNL     1     153.906 136.477 161.774  1.00  0.00     0.038 CG0
ATOM     17  G   UNL     1     154.690 137.744 162.043  1.00  0.00     0.000 G0
ENDBRANCH  13  16
ENDBRANCH  12  13
ENDBRANCH  10  11
ENDBRANCH   1  10
TORSDOF 0
ENDMDL
MODEL 5
REMARK VINA RESULT:     2.928     20.493     22.443
REMARK INTER + INTRA:           6.993
REMARK INTER:                   5.675
REMARK INTRA:                   1.318
REMARK UNBOUND:                 2.695
REMARK SMILES C=C1CC=CC(C)(C)CC=C(C)CCC1
REMARK SMILES IDX 2 1 1 2 15 3 14 4 13 5 11 6 12 7 10 8 3 10 4 11 5 12 6 13
REMARK SMILES IDX 7 14 8 15 9 16
REMARK H PARENT
REMARK Flexibility Score: 60.00
ROOT
ATOM      1  C   UNL     1     139.464 154.201 160.000  1.00  0.00    -0.074 C 
ATOM      2  C   UNL     1     139.471 154.376 158.665  1.00  0.00     0.008 C 
ENDROOT
BRANCH   1   3
ATOM      3  C   UNL     1     140.126 152.966 160.590  1.00  0.00     0.031 C 
BRANCH   3   4
ATOM      4  C   UNL     1     139.198 151.741 160.644  1.00  0.00     0.009 C 
BRANCH   4   5
ATOM      5  C   UNL     1     138.545 151.524 162.024  1.00  0.00     0.030 C 
BRANCH   5   6
ATOM      6  C   UNL     1     137.094 151.086 161.883  1.00  0.00    -0.077 C 
ATOM      7  C   UNL     1     136.751 150.020 160.875  1.00  0.00     0.039 C 
ATOM      8  C   UNL     1     136.085 151.629 162.608  1.00  0.00    -0.027 CG0
ATOM      9  G   UNL     1     136.264 152.676 163.687  1.00  0.00     0.000 G0
ENDBRANCH   5   6
ENDBRANCH   4   5
ENDBRANCH   3   4
ENDBRANCH   1   3
BRANCH   1  10
ATOM     10  C   UNL     1     138.642 155.113 160.899  1.00  0.00     0.057 C 
BRANCH  10  11
ATOM     11  C   UNL     1     138.847 154.912 162.391  1.00  0.00    -0.026 C 
ATOM     12  C   UNL     1     137.951 154.531 163.336  1.00  0.00    -0.024 C 
BRANCH  12  13
ATOM     13  C   UNL     1     136.477 154.131 163.170  1.00  0.00    -0.014 C 
ATOM     14  C   UNL     1     135.630 155.081 164.053  1.00  0.00     0.016 C 
ATOM     15  C   UNL     1     136.013 154.346 161.707  1.00  0.00     0.016 C 
BRANCH  13  16
ATOM     16  C   UNL     1     136.269 152.675 163.689  1.00  0.00     0.038 CG0
ATOM     17  G   UNL     1     136.103 151.631 162.604  1.00  0.00     0.000 G0
ENDBRANCH  13  16
ENDBRANCH  12  13
ENDBRANCH  10  11
ENDBRANCH   1  10
TORSDOF 0
ENDMDL
