MODEL 1
REMARK VINA RESULT:    -4.487      0.000      0.000
REMARK INTER + INTRA:          -6.293
REMARK INTER:                  -5.799
REMARK INTRA:                  -0.495
REMARK UNBOUND:                -0.495
REMARK SMILES CO[C@@]1(CO)O[C@H](CO)[C@H](O)[C@H]1O
REMARK SMILES IDX 3 1 12 2 10 3 7 4 6 5 2 6 1 7 4 8 5 9 13 11 11 13 8 15 9 16
REMARK H PARENT 5 10 13 12 11 14 9 17
REMARK Flexibility Score: inf
ROOT
ATOM      1  C   UNL     1     -14.070  43.200  38.519  1.00  0.00     0.221 C 
ATOM      2  C   UNL     1     -13.604  43.594  39.941  1.00  0.00     0.207 C 
ATOM      3  C   UNL     1     -13.642  42.275  40.669  1.00  0.00     0.180 C 
ATOM      4  C   UNL     1     -14.778  41.537  39.965  1.00  0.00     0.179 C 
ATOM      5  O   UNL     1     -14.868  42.033  38.644  1.00  0.00    -0.337 OA
ENDROOT
BRANCH   1   6
ATOM      6  O   UNL     1     -12.958  42.824  37.700  1.00  0.00    -0.349 OA
ATOM      7  C   UNL     1     -13.289  42.381  36.398  1.00  0.00     0.198 C 
ENDBRANCH   1   6
BRANCH   1   8
ATOM      8  C   UNL     1     -15.001  44.284  37.902  1.00  0.00     0.224 C 
BRANCH   8   9
ATOM      9  O   UNL     1     -16.337  43.860  37.861  1.00  0.00    -0.391 OA
ATOM     10  H   UNL     1     -16.310  42.870  37.794  1.00  0.00     0.210 HD
ENDBRANCH   8   9
ENDBRANCH   1   8
BRANCH   2  11
ATOM     11  O   UNL     1     -12.309  44.134  39.957  1.00  0.00    -0.385 OA
ATOM     12  H   UNL     1     -11.827  43.691  40.704  1.00  0.00     0.211 HD
ENDBRANCH   2  11
BRANCH   3  13
ATOM     13  O   UNL     1     -13.804  42.395  42.065  1.00  0.00    -0.387 OA
ATOM     14  H   UNL     1     -13.305  41.662  42.511  1.00  0.00     0.211 HD
ENDBRANCH   3  13
BRANCH   4  15
ATOM     15  C   UNL     1     -16.147  41.687  40.652  1.00  0.00     0.191 C 
BRANCH  15  16
ATOM     16  O   UNL     1     -17.149  41.909  39.696  1.00  0.00    -0.394 OA
ATOM     17  H   UNL     1     -17.604  41.039  39.550  1.00  0.00     0.210 HD
ENDBRANCH  15  16
ENDBRANCH   4  15
TORSDOF 7
ENDMDL
MODEL 2
REMARK VINA RESULT:    -4.445      1.464      4.604
REMARK INTER + INTRA:          -6.239
REMARK INTER:                  -5.783
REMARK INTRA:                  -0.456
REMARK UNBOUND:                -0.495
REMARK SMILES CO[C@@]1(CO)O[C@H](CO)[C@H](O)[C@H]1O
REMARK SMILES IDX 3 1 12 2 10 3 7 4 6 5 2 6 1 7 4 8 5 9 13 11 11 13 8 15 9 16
REMARK H PARENT 5 10 13 12 11 14 9 17
REMARK Flexibility Score: inf
ROOT
ATOM      1  C   UNL     1     -14.016  43.486  38.477  1.00  0.00     0.221 C 
ATOM      2  C   UNL     1     -14.952  44.209  37.479  1.00  0.00     0.207 C 
ATOM      3  C   UNL     1     -14.653  43.497  36.184  1.00  0.00     0.180 C 
ATOM      4  C   UNL     1     -13.187  43.104  36.350  1.00  0.00     0.179 C 
ATOM      5  O   UNL     1     -12.926  42.964  37.733  1.00  0.00    -0.337 OA
ENDROOT
BRANCH   1   6
ATOM      6  O   UNL     1     -14.666  42.352  39.061  1.00  0.00    -0.349 OA
ATOM      7  C   UNL     1     -14.393  42.140  40.433  1.00  0.00     0.198 C 
ENDBRANCH   1   6
BRANCH   1   8
ATOM      8  C   UNL     1     -13.392  44.481  39.498  1.00  0.00     0.224 C 
BRANCH   8   9
ATOM      9  O   UNL     1     -11.996  44.369  39.546  1.00  0.00    -0.391 OA
ATOM     10  H   UNL     1     -11.777  44.036  40.455  1.00  0.00     0.210 HD
ENDBRANCH   8   9
ENDBRANCH   1   8
BRANCH   2  11
ATOM     11  O   UNL     1     -16.308  44.080  37.816  1.00  0.00    -0.385 OA
ATOM     12  H   UNL     1     -16.592  43.181  37.503  1.00  0.00     0.211 HD
ENDBRANCH   2  11
BRANCH   3  13
ATOM     13  O   UNL     1     -14.922  44.265  35.032  1.00  0.00    -0.387 OA
ATOM     14  H   UNL     1     -14.346  43.945  34.290  1.00  0.00     0.211 HD
ENDBRANCH   3  13
BRANCH   4  15
ATOM     15  C   UNL     1     -12.193  44.114  35.750  1.00  0.00     0.191 C 
BRANCH  15  16
ATOM     16  O   UNL     1     -11.174  44.398  36.671  1.00  0.00    -0.394 OA
ATOM     17  H   UNL     1     -10.659  45.163  36.303  1.00  0.00     0.210 HD
ENDBRANCH  15  16
ENDBRANCH   4  15
TORSDOF 7
ENDMDL
MODEL 3
REMARK VINA RESULT:    -4.402      1.847      2.311
REMARK INTER + INTRA:          -6.183
REMARK INTER:                  -5.857
REMARK INTRA:                  -0.326
REMARK UNBOUND:                -0.495
REMARK SMILES CO[C@@]1(CO)O[C@H](CO)[C@H](O)[C@H]1O
REMARK SMILES IDX 3 1 12 2 10 3 7 4 6 5 2 6 1 7 4 8 5 9 13 11 11 13 8 15 9 16
REMARK H PARENT 5 10 13 12 11 14 9 17
REMARK Flexibility Score: inf
ROOT
ATOM      1  C   UNL     1     -12.769  43.903  37.530  1.00  0.00     0.221 C 
ATOM      2  C   UNL     1     -13.231  44.162  38.984  1.00  0.00     0.207 C 
ATOM      3  C   UNL     1     -13.835  42.837  39.371  1.00  0.00     0.180 C 
ATOM      4  C   UNL     1     -14.372  42.314  38.040  1.00  0.00     0.179 C 
ATOM      5  O   UNL     1     -13.589  42.870  37.004  1.00  0.00    -0.337 OA
ENDROOT
BRANCH   1   6
ATOM      6  O   UNL     1     -11.432  43.392  37.499  1.00  0.00    -0.349 OA
ATOM      7  C   UNL     1     -10.523  44.128  36.703  1.00  0.00     0.198 C 
ENDBRANCH   1   6
BRANCH   1   8
ATOM      8  C   UNL     1     -13.018  45.143  36.622  1.00  0.00     0.224 C 
BRANCH   8   9
ATOM      9  O   UNL     1     -14.063  44.922  35.715  1.00  0.00    -0.391 OA
ATOM     10  H   UNL     1     -14.252  45.799  35.292  1.00  0.00     0.210 HD
ENDBRANCH   8   9
ENDBRANCH   1   8
BRANCH   2  11
ATOM     11  O   UNL     1     -12.169  44.492  39.839  1.00  0.00    -0.385 OA
ATOM     12  H   UNL     1     -11.667  43.651  40.005  1.00  0.00     0.211 HD
ENDBRANCH   2  11
BRANCH   3  13
ATOM     13  O   UNL     1     -14.802  42.924  40.394  1.00  0.00    -0.387 OA
ATOM     14  H   UNL     1     -15.340  42.090  40.401  1.00  0.00     0.211 HD
ENDBRANCH   3  13
BRANCH   4  15
ATOM     15  C   UNL     1     -15.853  42.647  37.785  1.00  0.00     0.191 C 
BRANCH  15  16
ATOM     16  O   UNL     1     -16.055  44.034  37.838  1.00  0.00    -0.394 OA
ATOM     17  H   UNL     1     -15.639  44.417  37.022  1.00  0.00     0.210 HD
ENDBRANCH  15  16
ENDBRANCH   4  15
TORSDOF 7
ENDMDL
MODEL 4
REMARK VINA RESULT:    -4.289      2.658      4.199
REMARK INTER + INTRA:          -6.037
REMARK INTER:                  -5.522
REMARK INTRA:                  -0.515
REMARK UNBOUND:                -0.495
REMARK SMILES CO[C@@]1(CO)O[C@H](CO)[C@H](O)[C@H]1O
REMARK SMILES IDX 3 1 12 2 10 3 7 4 6 5 2 6 1 7 4 8 5 9 13 11 11 13 8 15 9 16
REMARK H PARENT 5 10 13 12 11 14 9 17
REMARK Flexibility Score: inf
ROOT
ATOM      1  C   UNL     1     -14.552  43.987  35.888  1.00  0.00     0.221 C 
ATOM      2  C   UNL     1     -14.962  43.881  37.376  1.00  0.00     0.207 C 
ATOM      3  C   UNL     1     -13.928  44.740  38.057  1.00  0.00     0.180 C 
ATOM      4  C   UNL     1     -12.706  44.569  37.157  1.00  0.00     0.179 C 
ATOM      5  O   UNL     1     -13.163  44.277  35.851  1.00  0.00    -0.337 OA
ENDROOT
BRANCH   1   6
ATOM      6  O   UNL     1     -15.197  45.097  35.255  1.00  0.00    -0.349 OA
ATOM      7  C   UNL     1     -14.634  45.500  34.022  1.00  0.00     0.198 C 
ENDBRANCH   1   6
BRANCH   1   8
ATOM      8  C   UNL     1     -14.719  42.626  35.150  1.00  0.00     0.224 C 
BRANCH   8   9
ATOM      9  O   UNL     1     -15.984  42.066  35.373  1.00  0.00    -0.391 OA
ATOM     10  H   UNL     1     -16.145  42.127  36.350  1.00  0.00     0.210 HD
ENDBRANCH   8   9
ENDBRANCH   1   8
BRANCH   2  11
ATOM     11  O   UNL     1     -16.254  44.371  37.619  1.00  0.00    -0.385 OA
ATOM     12  H   UNL     1     -16.637  43.810  38.344  1.00  0.00     0.211 HD
ENDBRANCH   2  11
BRANCH   3  13
ATOM     13  O   UNL     1     -13.705  44.407  39.409  1.00  0.00    -0.387 OA
ATOM     14  H   UNL     1     -13.317  43.495  39.456  1.00  0.00     0.211 HD
ENDBRANCH   3  13
BRANCH   4  15
ATOM     15  C   UNL     1     -11.740  43.460  37.611  1.00  0.00     0.191 C 
BRANCH  15  16
ATOM     16  O   UNL     1     -10.827  43.965  38.548  1.00  0.00    -0.394 OA
ATOM     17  H   UNL     1     -10.061  44.331  38.033  1.00  0.00     0.210 HD
ENDBRANCH  15  16
ENDBRANCH   4  15
TORSDOF 7
ENDMDL
MODEL 5
REMARK VINA RESULT:    -4.273     12.227     13.578
REMARK INTER + INTRA:          -6.017
REMARK INTER:                  -5.485
REMARK INTRA:                  -0.531
REMARK UNBOUND:                -0.495
REMARK SMILES CO[C@@]1(CO)O[C@H](CO)[C@H](O)[C@H]1O
REMARK SMILES IDX 3 1 12 2 10 3 7 4 6 5 2 6 1 7 4 8 5 9 13 11 11 13 8 15 9 16
REMARK H PARENT 5 10 13 12 11 14 9 17
REMARK Flexibility Score: inf
ROOT
ATOM      1  C   UNL     1      -5.134  42.174  30.134  1.00  0.00     0.221 C 
ATOM      2  C   UNL     1      -4.847  41.262  28.918  1.00  0.00     0.207 C 
ATOM      3  C   UNL     1      -5.969  41.618  27.977  1.00  0.00     0.180 C 
ATOM      4  C   UNL     1      -7.102  41.985  28.932  1.00  0.00     0.179 C 
ATOM      5  O   UNL     1      -6.525  42.453  30.135  1.00  0.00    -0.337 OA
ENDROOT
BRANCH   1   6
ATOM      6  O   UNL     1      -4.483  43.441  29.991  1.00  0.00    -0.349 OA
ATOM      7  C   UNL     1      -5.018  44.487  30.779  1.00  0.00     0.198 C 
ENDBRANCH   1   6
BRANCH   1   8
ATOM      8  C   UNL     1      -4.850  41.441  31.478  1.00  0.00     0.224 C 
BRANCH   8   9
ATOM      9  O   UNL     1      -3.847  40.471  31.340  1.00  0.00    -0.391 OA
ATOM     10  H   UNL     1      -3.155  40.692  32.016  1.00  0.00     0.210 HD
ENDBRANCH   8   9
ENDBRANCH   1   8
BRANCH   2  11
ATOM     11  O   UNL     1      -3.601  41.521  28.328  1.00  0.00    -0.385 OA
ATOM     12  H   UNL     1      -3.009  41.857  29.051  1.00  0.00     0.211 HD
ENDBRANCH   2  11
BRANCH   3  13
ATOM     13  O   UNL     1      -6.291  40.598  27.057  1.00  0.00    -0.387 OA
ATOM     14  H   UNL     1      -7.230  40.314  27.206  1.00  0.00     0.211 HD
ENDBRANCH   3  13
BRANCH   4  15
ATOM     15  C   UNL     1      -8.057  40.820  29.253  1.00  0.00     0.191 C 
BRANCH  15  16
ATOM     16  O   UNL     1      -8.951  40.619  28.191  1.00  0.00    -0.394 OA
ATOM     17  H   UNL     1      -8.758  39.719  27.819  1.00  0.00     0.210 HD
ENDBRANCH  15  16
ENDBRANCH   4  15
TORSDOF 7
ENDMDL
MODEL 6
REMARK VINA RESULT:    -4.264     11.763     13.347
REMARK INTER + INTRA:          -6.005
REMARK INTER:                  -5.513
REMARK INTRA:                  -0.492
REMARK UNBOUND:                -0.495
REMARK SMILES CO[C@@]1(CO)O[C@H](CO)[C@H](O)[C@H]1O
REMARK SMILES IDX 3 1 12 2 10 3 7 4 6 5 2 6 1 7 4 8 5 9 13 11 11 13 8 15 9 16
REMARK H PARENT 5 10 13 12 11 14 9 17
REMARK Flexibility Score: inf
ROOT
ATOM      1  C   UNL     1      -7.211  41.643  29.252  1.00  0.00     0.221 C 
ATOM      2  C   UNL     1      -6.300  40.669  30.035  1.00  0.00     0.207 C 
ATOM      3  C   UNL     1      -5.155  40.459  29.078  1.00  0.00     0.180 C 
ATOM      4  C   UNL     1      -5.828  40.603  27.716  1.00  0.00     0.179 C 
ATOM      5  O   UNL     1      -6.952  41.446  27.871  1.00  0.00    -0.337 OA
ENDROOT
BRANCH   1   6
ATOM      6  O   UNL     1      -6.861  43.004  29.523  1.00  0.00    -0.349 OA
ATOM      7  C   UNL     1      -7.950  43.868  29.784  1.00  0.00     0.198 C 
ENDBRANCH   1   6
BRANCH   1   8
ATOM      8  C   UNL     1      -8.717  41.303  29.451  1.00  0.00     0.224 C 
BRANCH   8   9
ATOM      9  O   UNL     1      -9.276  40.727  28.302  1.00  0.00    -0.391 OA
ATOM     10  H   UNL     1      -9.823  41.437  27.875  1.00  0.00     0.210 HD
ENDBRANCH   8   9
ENDBRANCH   1   8
BRANCH   2  11
ATOM     11  O   UNL     1      -5.843  41.209  31.247  1.00  0.00    -0.385 OA
ATOM     12  H   UNL     1      -6.278  40.686  31.971  1.00  0.00     0.211 HD
ENDBRANCH   2  11
BRANCH   3  13
ATOM     13  O   UNL     1      -4.470  39.240  29.263  1.00  0.00    -0.387 OA
ATOM     14  H   UNL     1      -5.026  38.500  28.905  1.00  0.00     0.211 HD
ENDBRANCH   3  13
BRANCH   4  15
ATOM     15  C   UNL     1      -6.282  39.270  27.094  1.00  0.00     0.191 C 
BRANCH  15  16
ATOM     16  O   UNL     1      -7.473  39.450  26.375  1.00  0.00    -0.394 OA
ATOM     17  H   UNL     1      -7.999  38.613  26.477  1.00  0.00     0.210 HD
ENDBRANCH  15  16
ENDBRANCH   4  15
TORSDOF 7
ENDMDL
MODEL 7
REMARK VINA RESULT:    -4.261      2.618      4.444
REMARK INTER + INTRA:          -6.001
REMARK INTER:                  -5.514
REMARK INTRA:                  -0.487
REMARK UNBOUND:                -0.495
REMARK SMILES CO[C@@]1(CO)O[C@H](CO)[C@H](O)[C@H]1O
REMARK SMILES IDX 3 1 12 2 10 3 7 4 6 5 2 6 1 7 4 8 5 9 13 11 11 13 8 15 9 16
REMARK H PARENT 5 10 13 12 11 14 9 17
REMARK Flexibility Score: inf
ROOT
ATOM      1  C   UNL     1     -14.636  42.906  36.585  1.00  0.00     0.221 C 
ATOM      2  C   UNL     1     -14.310  44.334  36.086  1.00  0.00     0.207 C 
ATOM      3  C   UNL     1     -12.829  44.251  35.820  1.00  0.00     0.180 C 
ATOM      4  C   UNL     1     -12.360  43.230  36.853  1.00  0.00     0.179 C 
ATOM      5  O   UNL     1     -13.445  42.370  37.140  1.00  0.00    -0.337 OA
ENDROOT
BRANCH   1   6
ATOM      6  O   UNL     1     -14.977  42.045  35.493  1.00  0.00    -0.349 OA
ATOM      7  C   UNL     1     -16.004  41.110  35.759  1.00  0.00     0.198 C 
ENDBRANCH   1   6
BRANCH   1   8
ATOM      8  C   UNL     1     -15.671  42.929  37.747  1.00  0.00     0.224 C 
BRANCH   8   9
ATOM      9  O   UNL     1     -16.374  44.141  37.793  1.00  0.00    -0.391 OA
ATOM     10  H   UNL     1     -16.773  44.195  38.700  1.00  0.00     0.210 HD
ENDBRANCH   8   9
ENDBRANCH   1   8
BRANCH   2  11
ATOM     11  O   UNL     1     -15.007  44.672  34.916  1.00  0.00    -0.385 OA
ATOM     12  H   UNL     1     -15.738  44.006  34.820  1.00  0.00     0.211 HD
ENDBRANCH   2  11
BRANCH   3  13
ATOM     13  O   UNL     1     -12.164  45.493  35.887  1.00  0.00    -0.387 OA
ATOM     14  H   UNL     1     -11.189  45.344  35.778  1.00  0.00     0.211 HD
ENDBRANCH   3  13
BRANCH   4  15
ATOM     15  C   UNL     1     -11.850  43.851  38.166  1.00  0.00     0.191 C 
BRANCH  15  16
ATOM     16  O   UNL     1     -10.461  44.034  38.110  1.00  0.00    -0.394 OA
ATOM     17  H   UNL     1     -10.101  43.321  37.519  1.00  0.00     0.210 HD
ENDBRANCH  15  16
ENDBRANCH   4  15
TORSDOF 7
ENDMDL
MODEL 8
REMARK VINA RESULT:    -4.240      1.854      3.693
REMARK INTER + INTRA:          -5.974
REMARK INTER:                  -5.502
REMARK INTRA:                  -0.472
REMARK UNBOUND:                -0.495
REMARK SMILES CO[C@@]1(CO)O[C@H](CO)[C@H](O)[C@H]1O
REMARK SMILES IDX 3 1 12 2 10 3 7 4 6 5 2 6 1 7 4 8 5 9 13 11 11 13 8 15 9 16
REMARK H PARENT 5 10 13 12 11 14 9 17
REMARK Flexibility Score: inf
ROOT
ATOM      1  C   UNL     1     -12.723  44.070  37.440  1.00  0.00     0.221 C 
ATOM      2  C   UNL     1     -13.539  42.756  37.441  1.00  0.00     0.207 C 
ATOM      3  C   UNL     1     -14.547  43.004  38.534  1.00  0.00     0.180 C 
ATOM      4  C   UNL     1     -13.784  43.918  39.490  1.00  0.00     0.179 C 
ATOM      5  O   UNL     1     -12.823  44.631  38.739  1.00  0.00    -0.337 OA
ENDROOT
BRANCH   1   6
ATOM      6  O   UNL     1     -13.302  45.033  36.554  1.00  0.00    -0.349 OA
ATOM      7  C   UNL     1     -12.437  45.528  35.550  1.00  0.00     0.198 C 
ENDBRANCH   1   6
BRANCH   1   8
ATOM      8  C   UNL     1     -11.206  43.800  37.213  1.00  0.00     0.224 C 
BRANCH   8   9
ATOM      9  O   UNL     1     -10.454  44.060  38.366  1.00  0.00    -0.391 OA
ATOM     10  H   UNL     1     -10.322  45.043  38.394  1.00  0.00     0.210 HD
ENDBRANCH   8   9
ENDBRANCH   1   8
BRANCH   2  11
ATOM     11  O   UNL     1     -14.181  42.515  36.217  1.00  0.00    -0.385 OA
ATOM     12  H   UNL     1     -13.480  42.565  35.516  1.00  0.00     0.211 HD
ENDBRANCH   2  11
BRANCH   3  13
ATOM     13  O   UNL     1     -15.050  41.828  39.129  1.00  0.00    -0.387 OA
ATOM     14  H   UNL     1     -14.614  41.702  40.011  1.00  0.00     0.211 HD
ENDBRANCH   3  13
BRANCH   4  15
ATOM     15  C   UNL     1     -13.076  43.175  40.638  1.00  0.00     0.191 C 
BRANCH  15  16
ATOM     16  O   UNL     1     -11.931  43.880  41.039  1.00  0.00    -0.394 OA
ATOM     17  H   UNL     1     -11.158  43.273  40.901  1.00  0.00     0.210 HD
ENDBRANCH  15  16
ENDBRANCH   4  15
TORSDOF 7
ENDMDL
MODEL 9
REMARK VINA RESULT:    -4.192      2.090      3.323
REMARK INTER + INTRA:          -5.913
REMARK INTER:                  -5.499
REMARK INTRA:                  -0.414
REMARK UNBOUND:                -0.495
REMARK SMILES CO[C@@]1(CO)O[C@H](CO)[C@H](O)[C@H]1O
REMARK SMILES IDX 3 1 12 2 10 3 7 4 6 5 2 6 1 7 4 8 5 9 13 11 11 13 8 15 9 16
REMARK H PARENT 5 10 13 12 11 14 9 17
REMARK Flexibility Score: inf
ROOT
ATOM      1  C   UNL     1     -14.004  43.533  36.704  1.00  0.00     0.221 C 
ATOM      2  C   UNL     1     -12.606  44.195  36.666  1.00  0.00     0.207 C 
ATOM      3  C   UNL     1     -11.859  43.429  37.727  1.00  0.00     0.180 C 
ATOM      4  C   UNL     1     -12.963  43.066  38.717  1.00  0.00     0.179 C 
ATOM      5  O   UNL     1     -14.182  42.995  38.004  1.00  0.00    -0.337 OA
ENDROOT
BRANCH   1   6
ATOM      6  O   UNL     1     -14.069  42.418  35.809  1.00  0.00    -0.349 OA
ATOM      7  C   UNL     1     -15.258  41.654  35.881  1.00  0.00     0.198 C 
ENDBRANCH   1   6
BRANCH   1   8
ATOM      8  C   UNL     1     -15.138  44.584  36.524  1.00  0.00     0.224 C 
BRANCH   8   9
ATOM      9  O   UNL     1     -16.057  44.545  37.582  1.00  0.00    -0.391 OA
ATOM     10  H   UNL     1     -16.892  44.161  37.209  1.00  0.00     0.210 HD
ENDBRANCH   8   9
ENDBRANCH   1   8
BRANCH   2  11
ATOM     11  O   UNL     1     -11.976  44.061  35.419  1.00  0.00    -0.385 OA
ATOM     12  H   UNL     1     -12.046  43.102  35.169  1.00  0.00     0.211 HD
ENDBRANCH   2  11
BRANCH   3  13
ATOM     13  O   UNL     1     -10.780  44.138  38.294  1.00  0.00    -0.387 OA
ATOM     14  H   UNL     1     -10.974  44.309  39.252  1.00  0.00     0.211 HD
ENDBRANCH   3  13
BRANCH   4  15
ATOM     15  C   UNL     1     -13.118  44.062  39.880  1.00  0.00     0.191 C 
BRANCH  15  16
ATOM     16  O   UNL     1     -12.064  43.910  40.793  1.00  0.00    -0.394 OA
ATOM     17  H   UNL     1     -12.424  43.397  41.563  1.00  0.00     0.210 HD
ENDBRANCH  15  16
ENDBRANCH   4  15
TORSDOF 7
ENDMDL
