MODEL 1
REMARK VINA RESULT:    60.433      0.000      0.000
REMARK INTER + INTRA:          83.181
REMARK INTER:                  83.397
REMARK INTRA:                  -0.216
REMARK UNBOUND:                -0.216
REMARK SMILES O=C([O-])[C@H]1O[C@@H](Oc2cc3oc(-c4ccccc4)cc(=O)c3c(O)c2O)[C@H](O)[C@@H](O)[C@@H]1O
REMARK SMILES IDX 7 1 6 2 4 3 31 4 5 5 29 6 27 7 2 8 1 9 3 10 32 11 30 13
REMARK SMILES IDX 28 15 8 17 25 18 9 19 23 20 10 21 22 22 11 23 20 24 12 25
REMARK SMILES IDX 19 26 21 27 26 28 24 30 13 32 14 33 18 34 15 35 17 36 16 37
REMARK H PARENT 32 12 30 14 28 16 26 29 24 31
REMARK Flexibility Score: inf
ROOT
ATOM      1  O   UNL     1       8.094  10.013  31.683  1.00  0.00    -0.458 OA
ENDROOT
BRANCH   1   2
ATOM      2  C   UNL     1       7.359   9.065  30.900  1.00  0.00     0.339 C 
ATOM      3  C   UNL     1       5.840   8.487  32.646  1.00  0.00     0.199 C 
ATOM      4  C   UNL     1       6.441   7.069  32.797  1.00  0.00     0.180 C 
ATOM      5  O   UNL     1       6.003   9.010  31.332  1.00  0.00    -0.328 OA
ATOM      6  C   UNL     1       7.899   7.018  32.308  1.00  0.00     0.181 C 
ATOM      7  C   UNL     1       8.029   7.672  30.921  1.00  0.00     0.214 C 
BRANCH   3   8
ATOM      8  C   UNL     1       6.258   9.478  33.710  1.00  0.00     0.073 C 
ATOM      9  O   UNL     1       7.473   9.652  33.995  1.00  0.00    -0.547 OA
ATOM     10  O   UNL     1       5.285  10.137  34.453  1.00  0.00    -0.547 OA
ENDBRANCH   3   8
BRANCH   4  11
ATOM     11  O   UNL     1       5.658   6.168  32.054  1.00  0.00    -0.387 OA
ATOM     12  H   UNL     1       4.754   6.571  31.967  1.00  0.00     0.211 HD
ENDBRANCH   4  11
BRANCH   6  13
ATOM     13  O   UNL     1       8.735   7.672  33.232  1.00  0.00    -0.387 OA
ATOM     14  H   UNL     1       9.646   7.671  32.842  1.00  0.00     0.211 HD
ENDBRANCH   6  13
BRANCH   7  15
ATOM     15  O   UNL     1       7.421   6.860  29.947  1.00  0.00    -0.384 OA
ATOM     16  H   UNL     1       6.947   7.457  29.317  1.00  0.00     0.211 HD
ENDBRANCH   7  15
ENDBRANCH   1   2
BRANCH   1  17
ATOM     17  C   UNL     1       9.273  10.709  31.342  1.00  0.00     0.172 A 
ATOM     18  C   UNL     1      10.444  10.764  32.136  1.00  0.00     0.201 A 
ATOM     19  C   UNL     1       9.259  11.366  30.112  1.00  0.00     0.098 A 
ATOM     20  C   UNL     1      11.588  11.450  31.669  1.00  0.00     0.176 A 
ATOM     21  C   UNL     1      10.362  12.079  29.653  1.00  0.00     0.146 A 
ATOM     22  C   UNL     1      11.545  12.150  30.427  1.00  0.00     0.111 A 
ATOM     23  O   UNL     1      10.278  12.689  28.475  1.00  0.00    -0.456 OA
ATOM     24  C   UNL     1      12.597  12.945  29.908  1.00  0.00     0.197 A 
ATOM     25  C   UNL     1      11.262  13.409  27.943  1.00  0.00     0.138 A 
ATOM     26  C   UNL     1      12.462  13.549  28.659  1.00  0.00     0.100 A 
ATOM     27  O   UNL     1      13.658  13.151  30.550  1.00  0.00    -0.289 OA
BRANCH  18  28
ATOM     28  O   UNL     1      10.491  10.129  33.379  1.00  0.00    -0.502 OA
ATOM     29  H   UNL     1      11.139  10.390  34.111  1.00  0.00     0.293 HD
ENDBRANCH  18  28
BRANCH  20  30
ATOM     30  O   UNL     1      12.741  11.373  32.459  1.00  0.00    -0.504 OA
ATOM     31  H   UNL     1      13.116  10.526  32.854  1.00  0.00     0.293 HD
ENDBRANCH  20  30
BRANCH  25  32
ATOM     32  C   UNL     1      11.047  14.032  26.607  1.00  0.00     0.017 A 
ATOM     33  C   UNL     1      12.045  14.867  26.068  1.00  0.00     0.012 A 
ATOM     34  C   UNL     1       9.884  13.791  25.840  1.00  0.00     0.012 A 
ATOM     35  C   UNL     1      11.875  15.464  24.815  1.00  0.00     0.001 A 
ATOM     36  C   UNL     1       9.721  14.394  24.590  1.00  0.00     0.001 A 
ATOM     37  C   UNL     1      10.711  15.232  24.079  1.00  0.00     0.000 A 
ENDBRANCH  25  32
ENDBRANCH   1  17
TORSDOF 9
ENDMDL
MODEL 2
REMARK VINA RESULT:    61.736      0.956      2.296
REMARK INTER + INTRA:          84.978
REMARK INTER:                  84.565
REMARK INTRA:                   0.414
REMARK UNBOUND:                -0.216
REMARK SMILES O=C([O-])[C@H]1O[C@@H](Oc2cc3oc(-c4ccccc4)cc(=O)c3c(O)c2O)[C@H](O)[C@@H](O)[C@@H]1O
REMARK SMILES IDX 7 1 6 2 4 3 31 4 5 5 29 6 27 7 2 8 1 9 3 10 32 11 30 13
REMARK SMILES IDX 28 15 8 17 25 18 9 19 23 20 10 21 22 22 11 23 20 24 12 25
REMARK SMILES IDX 19 26 21 27 26 28 24 30 13 32 14 33 18 34 15 35 17 36 16 37
REMARK H PARENT 32 12 30 14 28 16 26 29 24 31
REMARK Flexibility Score: inf
ROOT
ATOM      1  O   UNL     1       8.217  10.249  31.613  1.00  0.00    -0.458 OA
ENDROOT
BRANCH   1   2
ATOM      2  C   UNL     1       7.863   9.758  32.911  1.00  0.00     0.339 C 
ATOM      3  C   UNL     1       8.724   7.564  32.546  1.00  0.00     0.199 C 
ATOM      4  C   UNL     1       7.309   6.935  32.528  1.00  0.00     0.180 C 
ATOM      5  O   UNL     1       8.781   8.752  33.329  1.00  0.00    -0.328 OA
ATOM      6  C   UNL     1       6.238   7.965  32.131  1.00  0.00     0.181 C 
ATOM      7  C   UNL     1       6.401   9.259  32.950  1.00  0.00     0.214 C 
BRANCH   3   8
ATOM      8  C   UNL     1       9.364   7.745  31.188  1.00  0.00     0.073 C 
ATOM      9  O   UNL     1       8.773   7.379  30.137  1.00  0.00    -0.547 OA
ATOM     10  O   UNL     1      10.663   8.232  31.102  1.00  0.00    -0.547 OA
ENDBRANCH   3   8
BRANCH   4  11
ATOM     11  O   UNL     1       7.029   6.424  33.808  1.00  0.00    -0.387 OA
ATOM     12  H   UNL     1       6.964   7.200  34.423  1.00  0.00     0.211 HD
ENDBRANCH   4  11
BRANCH   6  13
ATOM     13  O   UNL     1       6.333   8.247  30.756  1.00  0.00    -0.387 OA
ATOM     14  H   UNL     1       6.503   7.383  30.300  1.00  0.00     0.211 HD
ENDBRANCH   6  13
BRANCH   7  15
ATOM     15  O   UNL     1       6.032   9.032  34.287  1.00  0.00    -0.384 OA
ATOM     16  H   UNL     1       5.061   9.206  34.361  1.00  0.00     0.211 HD
ENDBRANCH   7  15
ENDBRANCH   1   2
BRANCH   1  17
ATOM     17  C   UNL     1       9.392  10.920  31.216  1.00  0.00     0.172 A 
ATOM     18  C   UNL     1      10.599  10.955  31.954  1.00  0.00     0.201 A 
ATOM     19  C   UNL     1       9.334  11.572  29.984  1.00  0.00     0.098 A 
ATOM     20  C   UNL     1      11.733  11.617  31.432  1.00  0.00     0.176 A 
ATOM     21  C   UNL     1      10.429  12.262  29.472  1.00  0.00     0.146 A 
ATOM     22  C   UNL     1      11.647  12.313  30.191  1.00  0.00     0.111 A 
ATOM     23  O   UNL     1      10.302  12.868  28.295  1.00  0.00    -0.456 OA
ATOM     24  C   UNL     1      12.689  13.084  29.620  1.00  0.00     0.197 A 
ATOM     25  C   UNL     1      11.276  13.567  27.716  1.00  0.00     0.138 A 
ATOM     26  C   UNL     1      12.509  13.686  28.375  1.00  0.00     0.100 A 
ATOM     27  O   UNL     1      13.782  13.272  30.212  1.00  0.00    -0.289 OA
BRANCH  18  28
ATOM     28  O   UNL     1      10.690  10.324  33.197  1.00  0.00    -0.502 OA
ATOM     29  H   UNL     1      10.485  10.791  34.072  1.00  0.00     0.293 HD
ENDBRANCH  18  28
BRANCH  20  30
ATOM     30  O   UNL     1      12.919  11.521  32.169  1.00  0.00    -0.504 OA
ATOM     31  H   UNL     1      13.432  10.669  32.332  1.00  0.00     0.293 HD
ENDBRANCH  20  30
BRANCH  25  32
ATOM     32  C   UNL     1      11.011  14.188  26.387  1.00  0.00     0.017 A 
ATOM     33  C   UNL     1      11.941  15.106  25.860  1.00  0.00     0.012 A 
ATOM     34  C   UNL     1       9.871  13.868  25.617  1.00  0.00     0.012 A 
ATOM     35  C   UNL     1      11.724  15.704  24.615  1.00  0.00     0.001 A 
ATOM     36  C   UNL     1       9.660  14.473  24.375  1.00  0.00     0.001 A 
ATOM     37  C   UNL     1      10.582  15.392  23.875  1.00  0.00     0.000 A 
ENDBRANCH  25  32
ENDBRANCH   1  17
TORSDOF 9
ENDMDL
