MODEL 1
REMARK VINA RESULT:    -4.673      0.000      0.000
REMARK INTER + INTRA:         -13.614
REMARK INTER:                 -10.138
REMARK INTRA:                  -3.476
REMARK UNBOUND:                -3.476
REMARK SMILES CCCCCCCCCCCCCCCCCCCCCC(=O)[O-]
REMARK SMILES IDX 12 1 11 2 10 3 9 4 8 5 7 6 6 7 5 8 4 9 3 10 2 11 1 12 13 13
REMARK SMILES IDX 14 14 15 15 16 16 17 17 18 18 19 19 20 20 21 21 22 22 23 23
REMARK SMILES IDX 24 24
REMARK H PARENT
REMARK Flexibility Score: inf
ROOT
ATOM      1  C   UNL     1     -18.761 -32.657  16.600  1.00  0.00     0.000 C 
ENDROOT
BRANCH   1   2
ATOM      2  C   UNL     1     -18.506 -33.731  17.674  1.00  0.00     0.000 C 
BRANCH   2   3
ATOM      3  C   UNL     1     -17.042 -33.879  18.131  1.00  0.00     0.000 C 
BRANCH   3   4
ATOM      4  C   UNL     1     -16.868 -33.739  19.652  1.00  0.00    -0.000 C 
BRANCH   4   5
ATOM      5  C   UNL     1     -18.200 -33.835  20.413  1.00  0.00    -0.000 C 
BRANCH   5   6
ATOM      6  C   UNL     1     -18.414 -32.687  21.424  1.00  0.00    -0.000 C 
BRANCH   6   7
ATOM      7  C   UNL     1     -18.587 -31.327  20.727  1.00  0.00    -0.000 C 
BRANCH   7   8
ATOM      8  C   UNL     1     -19.970 -31.169  20.074  1.00  0.00    -0.000 C 
BRANCH   8   9
ATOM      9  C   UNL     1     -19.983 -30.100  18.970  1.00  0.00    -0.000 C 
BRANCH   9  10
ATOM     10  C   UNL     1     -18.560 -29.611  18.664  1.00  0.00    -0.000 C 
BRANCH  10  11
ATOM     11  C   UNL     1     -18.391 -28.101  18.892  1.00  0.00    -0.003 C 
ATOM     12  C   UNL     1     -17.607 -27.417  17.772  1.00  0.00     0.004 C 
ENDBRANCH  10  11
ENDBRANCH   9  10
ENDBRANCH   8   9
ENDBRANCH   7   8
ENDBRANCH   6   7
ENDBRANCH   5   6
ENDBRANCH   4   5
ENDBRANCH   3   4
ENDBRANCH   2   3
ENDBRANCH   1   2
BRANCH   1  13
ATOM     13  C   UNL     1     -19.616 -33.169  15.428  1.00  0.00     0.000 C 
BRANCH  13  14
ATOM     14  C   UNL     1     -18.780 -33.506  14.180  1.00  0.00     0.000 C 
BRANCH  14  15
ATOM     15  C   UNL     1     -17.308 -33.057  14.235  1.00  0.00     0.000 C 
BRANCH  15  16
ATOM     16  C   UNL     1     -16.950 -32.039  13.142  1.00  0.00     0.000 C 
BRANCH  16  17
ATOM     17  C   UNL     1     -15.925 -31.019  13.653  1.00  0.00     0.000 C 
BRANCH  17  18
ATOM     18  C   UNL     1     -15.456 -31.374  15.072  1.00  0.00     0.000 C 
BRANCH  18  19
ATOM     19  C   UNL     1     -15.946 -30.368  16.127  1.00  0.00     0.000 C 
BRANCH  19  20
ATOM     20  C   UNL     1     -15.330 -30.620  17.514  1.00  0.00     0.006 C 
BRANCH  20  21
ATOM     21  C   UNL     1     -14.426 -29.464  17.966  1.00  0.00     0.053 C 
BRANCH  21  22
ATOM     22  C   UNL     1     -12.979 -29.851  17.956  1.00  0.00     0.041 C 
ATOM     23  O   UNL     1     -12.171 -29.267  17.185  1.00  0.00    -0.550 OA
ATOM     24  O   UNL     1     -12.525 -30.870  18.784  1.00  0.00    -0.550 OA
ENDBRANCH  21  22
ENDBRANCH  20  21
ENDBRANCH  19  20
ENDBRANCH  18  19
ENDBRANCH  17  18
ENDBRANCH  16  17
ENDBRANCH  15  16
ENDBRANCH  14  15
ENDBRANCH  13  14
ENDBRANCH   1  13
TORSDOF 20
ENDMDL
MODEL 2
REMARK VINA RESULT:    -4.394      1.332      2.600
REMARK INTER + INTRA:         -13.008
REMARK INTER:                  -9.468
REMARK INTRA:                  -3.540
REMARK UNBOUND:                -3.476
REMARK SMILES CCCCCCCCCCCCCCCCCCCCCC(=O)[O-]
REMARK SMILES IDX 12 1 11 2 10 3 9 4 8 5 7 6 6 7 5 8 4 9 3 10 2 11 1 12 13 13
REMARK SMILES IDX 14 14 15 15 16 16 17 17 18 18 19 19 20 20 21 21 22 22 23 23
REMARK SMILES IDX 24 24
REMARK H PARENT
REMARK Flexibility Score: inf
ROOT
ATOM      1  C   UNL     1     -17.519 -33.442  17.939  1.00  0.00     0.000 C 
ENDROOT
BRANCH   1   2
ATOM      2  C   UNL     1     -17.227 -33.871  19.388  1.00  0.00     0.000 C 
BRANCH   2   3
ATOM      3  C   UNL     1     -18.414 -33.763  20.365  1.00  0.00     0.000 C 
BRANCH   3   4
ATOM      4  C   UNL     1     -18.248 -32.635  21.394  1.00  0.00    -0.000 C 
BRANCH   4   5
ATOM      5  C   UNL     1     -18.576 -31.249  20.814  1.00  0.00    -0.000 C 
BRANCH   5   6
ATOM      6  C   UNL     1     -19.949 -31.188  20.108  1.00  0.00    -0.000 C 
BRANCH   6   7
ATOM      7  C   UNL     1     -19.933 -30.244  18.893  1.00  0.00    -0.000 C 
BRANCH   7   8
ATOM      8  C   UNL     1     -18.610 -29.472  18.762  1.00  0.00    -0.000 C 
BRANCH   8   9
ATOM      9  C   UNL     1     -17.878 -29.774  17.445  1.00  0.00    -0.000 C 
BRANCH   9  10
ATOM     10  C   UNL     1     -16.379 -30.002  17.690  1.00  0.00    -0.000 C 
BRANCH  10  11
ATOM     11  C   UNL     1     -15.861 -29.249  18.925  1.00  0.00    -0.003 C 
ATOM     12  C   UNL     1     -15.074 -27.990  18.563  1.00  0.00     0.004 C 
ENDBRANCH  10  11
ENDBRANCH   9  10
ENDBRANCH   8   9
ENDBRANCH   7   8
ENDBRANCH   6   7
ENDBRANCH   5   6
ENDBRANCH   4   5
ENDBRANCH   3   4
ENDBRANCH   2   3
ENDBRANCH   1   2
BRANCH   1  13
ATOM     13  C   UNL     1     -18.977 -33.694  17.518  1.00  0.00     0.000 C 
BRANCH  13  14
ATOM     14  C   UNL     1     -19.361 -32.960  16.221  1.00  0.00     0.000 C 
BRANCH  14  15
ATOM     15  C   UNL     1     -19.507 -33.857  14.978  1.00  0.00     0.000 C 
BRANCH  15  16
ATOM     16  C   UNL     1     -18.497 -33.517  13.871  1.00  0.00     0.000 C 
BRANCH  16  17
ATOM     17  C   UNL     1     -17.515 -32.434  14.334  1.00  0.00     0.000 C 
BRANCH  17  18
ATOM     18  C   UNL     1     -16.288 -32.374  13.410  1.00  0.00     0.000 C 
BRANCH  18  19
ATOM     19  C   UNL     1     -15.036 -33.000  14.047  1.00  0.00     0.000 C 
BRANCH  19  20
ATOM     20  C   UNL     1     -14.865 -32.606  15.524  1.00  0.00     0.006 C 
BRANCH  20  21
ATOM     21  C   UNL     1     -13.400 -32.323  15.884  1.00  0.00     0.053 C 
BRANCH  21  22
ATOM     22  C   UNL     1     -13.010 -30.911  15.566  1.00  0.00     0.041 C 
ATOM     23  O   UNL     1     -12.899 -30.539  14.367  1.00  0.00    -0.550 OA
ATOM     24  O   UNL     1     -12.752 -30.013  16.593  1.00  0.00    -0.550 OA
ENDBRANCH  21  22
ENDBRANCH  20  21
ENDBRANCH  19  20
ENDBRANCH  18  19
ENDBRANCH  17  18
ENDBRANCH  16  17
ENDBRANCH  15  16
ENDBRANCH  14  15
ENDBRANCH  13  14
ENDBRANCH   1  13
TORSDOF 20
ENDMDL
MODEL 3
REMARK VINA RESULT:    -4.361      2.474      6.370
REMARK INTER + INTRA:         -12.936
REMARK INTER:                  -9.264
REMARK INTRA:                  -3.671
REMARK UNBOUND:                -3.476
REMARK SMILES CCCCCCCCCCCCCCCCCCCCCC(=O)[O-]
REMARK SMILES IDX 12 1 11 2 10 3 9 4 8 5 7 6 6 7 5 8 4 9 3 10 2 11 1 12 13 13
REMARK SMILES IDX 14 14 15 15 16 16 17 17 18 18 19 19 20 20 21 21 22 22 23 23
REMARK SMILES IDX 24 24
REMARK H PARENT
REMARK Flexibility Score: inf
ROOT
ATOM      1  C   UNL     1     -15.288 -31.967  19.128  1.00  0.00     0.000 C 
ENDROOT
BRANCH   1   2
ATOM      2  C   UNL     1     -15.814 -32.718  17.892  1.00  0.00     0.000 C 
BRANCH   2   3
ATOM      3  C   UNL     1     -16.294 -31.829  16.729  1.00  0.00     0.000 C 
BRANCH   3   4
ATOM      4  C   UNL     1     -15.336 -30.667  16.422  1.00  0.00    -0.000 C 
BRANCH   4   5
ATOM      5  C   UNL     1     -14.334 -31.004  15.304  1.00  0.00    -0.000 C 
BRANCH   5   6
ATOM      6  C   UNL     1     -12.868 -30.693  15.679  1.00  0.00    -0.000 C 
BRANCH   6   7
ATOM      7  C   UNL     1     -12.369 -31.572  16.839  1.00  0.00    -0.000 C 
BRANCH   7   8
ATOM      8  C   UNL     1     -11.329 -30.856  17.716  1.00  0.00    -0.000 C 
BRANCH   8   9
ATOM      9  C   UNL     1     -11.898 -30.434  19.080  1.00  0.00    -0.000 C 
BRANCH   9  10
ATOM     10  C   UNL     1     -11.719 -28.925  19.304  1.00  0.00    -0.000 C 
BRANCH  10  11
ATOM     11  C   UNL     1     -12.517 -28.079  18.300  1.00  0.00    -0.003 C 
ATOM     12  C   UNL     1     -14.024 -28.128  18.550  1.00  0.00     0.004 C 
ENDBRANCH  10  11
ENDBRANCH   9  10
ENDBRANCH   8   9
ENDBRANCH   7   8
ENDBRANCH   6   7
ENDBRANCH   5   6
ENDBRANCH   4   5
ENDBRANCH   3   4
ENDBRANCH   2   3
ENDBRANCH   1   2
BRANCH   1  13
ATOM     13  C   UNL     1     -14.613 -32.894  20.154  1.00  0.00     0.000 C 
BRANCH  13  14
ATOM     14  C   UNL     1     -15.543 -33.270  21.323  1.00  0.00     0.000 C 
BRANCH  14  15
ATOM     15  C   UNL     1     -16.522 -32.167  21.762  1.00  0.00     0.000 C 
BRANCH  15  16
ATOM     16  C   UNL     1     -17.981 -32.645  21.817  1.00  0.00     0.000 C 
BRANCH  16  17
ATOM     17  C   UNL     1     -18.285 -33.618  20.671  1.00  0.00     0.000 C 
BRANCH  17  18
ATOM     18  C   UNL     1     -19.546 -33.189  19.906  1.00  0.00     0.000 C 
BRANCH  18  19
ATOM     19  C   UNL     1     -19.244 -32.178  18.787  1.00  0.00     0.000 C 
BRANCH  19  20
ATOM     20  C   UNL     1     -19.502 -30.725  19.218  1.00  0.00     0.006 C 
BRANCH  20  21
ATOM     21  C   UNL     1     -18.732 -29.717  18.354  1.00  0.00     0.053 C 
BRANCH  21  22
ATOM     22  C   UNL     1     -17.982 -28.724  19.188  1.00  0.00     0.041 C 
ATOM     23  O   UNL     1     -18.150 -27.489  19.007  1.00  0.00    -0.550 OA
ATOM     24  O   UNL     1     -17.085 -29.163  20.153  1.00  0.00    -0.550 OA
ENDBRANCH  21  22
ENDBRANCH  20  21
ENDBRANCH  19  20
ENDBRANCH  18  19
ENDBRANCH  17  18
ENDBRANCH  16  17
ENDBRANCH  15  16
ENDBRANCH  14  15
ENDBRANCH  13  14
ENDBRANCH   1  13
TORSDOF 20
ENDMDL
MODEL 4
REMARK VINA RESULT:    -4.333      2.812      5.899
REMARK INTER + INTRA:         -12.876
REMARK INTER:                  -9.150
REMARK INTRA:                  -3.726
REMARK UNBOUND:                -3.476
REMARK SMILES CCCCCCCCCCCCCCCCCCCCCC(=O)[O-]
REMARK SMILES IDX 12 1 11 2 10 3 9 4 8 5 7 6 6 7 5 8 4 9 3 10 2 11 1 12 13 13
REMARK SMILES IDX 14 14 15 15 16 16 17 17 18 18 19 19 20 20 21 21 22 22 23 23
REMARK SMILES IDX 24 24
REMARK H PARENT
REMARK Flexibility Score: inf
ROOT
ATOM      1  C   UNL     1     -16.541 -32.225  21.767  1.00  0.00     0.000 C 
ENDROOT
BRANCH   1   2
ATOM      2  C   UNL     1     -15.786 -33.378  21.081  1.00  0.00     0.000 C 
BRANCH   2   3
ATOM      3  C   UNL     1     -14.633 -32.956  20.150  1.00  0.00     0.000 C 
BRANCH   3   4
ATOM      4  C   UNL     1     -14.906 -33.269  18.671  1.00  0.00    -0.000 C 
BRANCH   4   5
ATOM      5  C   UNL     1     -13.674 -33.041  17.779  1.00  0.00    -0.000 C 
BRANCH   5   6
ATOM      6  C   UNL     1     -14.029 -32.607  16.340  1.00  0.00    -0.000 C 
BRANCH   6   7
ATOM      7  C   UNL     1     -13.237 -31.364  15.898  1.00  0.00    -0.000 C 
BRANCH   7   8
ATOM      8  C   UNL     1     -13.457 -30.161  16.831  1.00  0.00    -0.000 C 
BRANCH   8   9
ATOM      9  C   UNL     1     -12.140 -29.598  17.387  1.00  0.00    -0.000 C 
BRANCH   9  10
ATOM     10  C   UNL     1     -12.127 -29.650  18.922  1.00  0.00    -0.000 C 
BRANCH  10  11
ATOM     11  C   UNL     1     -11.336 -30.849  19.467  1.00  0.00    -0.003 C 
ATOM     12  C   UNL     1     -10.271 -31.348  18.490  1.00  0.00     0.004 C 
ENDBRANCH  10  11
ENDBRANCH   9  10
ENDBRANCH   8   9
ENDBRANCH   7   8
ENDBRANCH   6   7
ENDBRANCH   5   6
ENDBRANCH   4   5
ENDBRANCH   3   4
ENDBRANCH   2   3
ENDBRANCH   1   2
BRANCH   1  13
ATOM     13  C   UNL     1     -18.065 -32.428  21.784  1.00  0.00     0.000 C 
BRANCH  13  14
ATOM     14  C   UNL     1     -18.549 -33.410  20.700  1.00  0.00     0.000 C 
BRANCH  14  15
ATOM     15  C   UNL     1     -19.509 -32.813  19.656  1.00  0.00     0.000 C 
BRANCH  15  16
ATOM     16  C   UNL     1     -19.973 -31.392  20.010  1.00  0.00     0.000 C 
BRANCH  16  17
ATOM     17  C   UNL     1     -19.415 -30.365  19.017  1.00  0.00     0.000 C 
BRANCH  17  18
ATOM     18  C   UNL     1     -18.749 -31.063  17.820  1.00  0.00     0.000 C 
BRANCH  18  19
ATOM     19  C   UNL     1     -17.267 -30.687  17.665  1.00  0.00     0.000 C 
BRANCH  19  20
ATOM     20  C   UNL     1     -16.719 -29.927  18.885  1.00  0.00     0.006 C 
BRANCH  20  21
ATOM     21  C   UNL     1     -16.317 -28.486  18.538  1.00  0.00     0.053 C 
BRANCH  21  22
ATOM     22  C   UNL     1     -17.015 -27.487  19.409  1.00  0.00     0.041 C 
ATOM     23  O   UNL     1     -16.482 -27.101  20.484  1.00  0.00    -0.550 OA
ATOM     24  O   UNL     1     -18.262 -26.997  19.043  1.00  0.00    -0.550 OA
ENDBRANCH  21  22
ENDBRANCH  20  21
ENDBRANCH  19  20
ENDBRANCH  18  19
ENDBRANCH  17  18
ENDBRANCH  16  17
ENDBRANCH  15  16
ENDBRANCH  14  15
ENDBRANCH  13  14
ENDBRANCH   1  13
TORSDOF 20
ENDMDL
MODEL 5
REMARK VINA RESULT:    -4.327      2.088      5.703
REMARK INTER + INTRA:         -12.862
REMARK INTER:                  -9.501
REMARK INTRA:                  -3.361
REMARK UNBOUND:                -3.476
REMARK SMILES CCCCCCCCCCCCCCCCCCCCCC(=O)[O-]
REMARK SMILES IDX 12 1 11 2 10 3 9 4 8 5 7 6 6 7 5 8 4 9 3 10 2 11 1 12 13 13
REMARK SMILES IDX 14 14 15 15 16 16 17 17 18 18 19 19 20 20 21 21 22 22 23 23
REMARK SMILES IDX 24 24
REMARK H PARENT
REMARK Flexibility Score: inf
ROOT
ATOM      1  C   UNL     1     -19.235 -32.653  16.491  1.00  0.00     0.000 C 
ENDROOT
BRANCH   1   2
ATOM      2  C   UNL     1     -19.601 -33.757  15.483  1.00  0.00     0.000 C 
BRANCH   2   3
ATOM      3  C   UNL     1     -18.998 -33.596  14.074  1.00  0.00     0.000 C 
BRANCH   3   4
ATOM      4  C   UNL     1     -17.473 -33.407  14.088  1.00  0.00    -0.000 C 
BRANCH   4   5
ATOM      5  C   UNL     1     -17.032 -32.093  13.423  1.00  0.00    -0.000 C 
BRANCH   5   6
ATOM      6  C   UNL     1     -15.741 -31.500  14.030  1.00  0.00    -0.000 C 
BRANCH   6   7
ATOM      7  C   UNL     1     -16.013 -30.749  15.345  1.00  0.00    -0.000 C 
BRANCH   7   8
ATOM      8  C   UNL     1     -15.365 -31.432  16.560  1.00  0.00    -0.000 C 
BRANCH   8   9
ATOM      9  C   UNL     1     -14.553 -30.454  17.424  1.00  0.00    -0.000 C 
BRANCH   9  10
ATOM     10  C   UNL     1     -13.103 -30.360  16.928  1.00  0.00    -0.000 C 
BRANCH  10  11
ATOM     11  C   UNL     1     -12.580 -31.693  16.371  1.00  0.00    -0.003 C 
ATOM     12  C   UNL     1     -11.853 -32.529  17.424  1.00  0.00     0.004 C 
ENDBRANCH  10  11
ENDBRANCH   9  10
ENDBRANCH   8   9
ENDBRANCH   7   8
ENDBRANCH   6   7
ENDBRANCH   5   6
ENDBRANCH   4   5
ENDBRANCH   3   4
ENDBRANCH   2   3
ENDBRANCH   1   2
BRANCH   1  13
ATOM     13  C   UNL     1     -18.470 -33.186  17.715  1.00  0.00     0.000 C 
BRANCH  13  14
ATOM     14  C   UNL     1     -19.387 -33.456  18.922  1.00  0.00     0.000 C 
BRANCH  14  15
ATOM     15  C   UNL     1     -18.663 -33.646  20.267  1.00  0.00     0.000 C 
BRANCH  15  16
ATOM     16  C   UNL     1     -17.157 -33.904  20.107  1.00  0.00     0.000 C 
BRANCH  16  17
ATOM     17  C   UNL     1     -16.333 -32.826  20.821  1.00  0.00     0.000 C 
BRANCH  17  18
ATOM     18  C   UNL     1     -17.209 -31.616  21.186  1.00  0.00     0.000 C 
BRANCH  18  19
ATOM     19  C   UNL     1     -17.025 -30.438  20.215  1.00  0.00     0.000 C 
BRANCH  19  20
ATOM     20  C   UNL     1     -18.346 -30.002  19.559  1.00  0.00     0.006 C 
BRANCH  20  21
ATOM     21  C   UNL     1     -18.137 -29.458  18.138  1.00  0.00     0.053 C 
BRANCH  21  22
ATOM     22  C   UNL     1     -17.747 -28.012  18.146  1.00  0.00     0.041 C 
ATOM     23  O   UNL     1     -17.039 -27.541  17.217  1.00  0.00    -0.550 OA
ATOM     24  O   UNL     1     -18.151 -27.188  19.190  1.00  0.00    -0.550 OA
ENDBRANCH  21  22
ENDBRANCH  20  21
ENDBRANCH  19  20
ENDBRANCH  18  19
ENDBRANCH  17  18
ENDBRANCH  16  17
ENDBRANCH  15  16
ENDBRANCH  14  15
ENDBRANCH  13  14
ENDBRANCH   1  13
TORSDOF 20
ENDMDL
MODEL 6
REMARK VINA RESULT:    -4.317      1.192      2.035
REMARK INTER + INTRA:         -12.841
REMARK INTER:                  -9.479
REMARK INTRA:                  -3.362
REMARK UNBOUND:                -3.476
REMARK SMILES CCCCCCCCCCCCCCCCCCCCCC(=O)[O-]
REMARK SMILES IDX 12 1 11 2 10 3 9 4 8 5 7 6 6 7 5 8 4 9 3 10 2 11 1 12 13 13
REMARK SMILES IDX 14 14 15 15 16 16 17 17 18 18 19 19 20 20 21 21 22 22 23 23
REMARK SMILES IDX 24 24
REMARK H PARENT
REMARK Flexibility Score: inf
ROOT
ATOM      1  C   UNL     1     -18.661 -33.817  14.784  1.00  0.00     0.000 C 
ENDROOT
BRANCH   1   2
ATOM      2  C   UNL     1     -19.259 -32.932  15.892  1.00  0.00     0.000 C 
BRANCH   2   3
ATOM      3  C   UNL     1     -19.225 -33.531  17.311  1.00  0.00     0.000 C 
BRANCH   3   4
ATOM      4  C   UNL     1     -17.799 -33.774  17.830  1.00  0.00    -0.000 C 
BRANCH   4   5
ATOM      5  C   UNL     1     -17.651 -33.458  19.328  1.00  0.00    -0.000 C 
BRANCH   5   6
ATOM      6  C   UNL     1     -19.002 -33.272  20.053  1.00  0.00    -0.000 C 
BRANCH   6   7
ATOM      7  C   UNL     1     -19.174 -31.844  20.598  1.00  0.00    -0.000 C 
BRANCH   7   8
ATOM      8  C   UNL     1     -20.389 -31.123  19.990  1.00  0.00    -0.000 C 
BRANCH   8   9
ATOM      9  C   UNL     1     -19.989 -30.080  18.934  1.00  0.00    -0.000 C 
BRANCH   9  10
ATOM     10  C   UNL     1     -18.505 -29.708  19.067  1.00  0.00    -0.000 C 
BRANCH  10  11
ATOM     11  C   UNL     1     -17.718 -29.943  17.768  1.00  0.00    -0.003 C 
ATOM     12  C   UNL     1     -17.055 -28.671  17.240  1.00  0.00     0.004 C 
ENDBRANCH  10  11
ENDBRANCH   9  10
ENDBRANCH   8   9
ENDBRANCH   7   8
ENDBRANCH   6   7
ENDBRANCH   5   6
ENDBRANCH   4   5
ENDBRANCH   3   4
ENDBRANCH   2   3
ENDBRANCH   1   2
BRANCH   1  13
ATOM     13  C   UNL     1     -18.316 -33.033  13.506  1.00  0.00     0.000 C 
BRANCH  13  14
ATOM     14  C   UNL     1     -16.799 -32.906  13.274  1.00  0.00     0.000 C 
BRANCH  14  15
ATOM     15  C   UNL     1     -16.239 -31.475  13.366  1.00  0.00     0.000 C 
BRANCH  15  16
ATOM     16  C   UNL     1     -15.789 -31.097  14.785  1.00  0.00     0.000 C 
BRANCH  16  17
ATOM     17  C   UNL     1     -15.265 -32.323  15.543  1.00  0.00     0.000 C 
BRANCH  17  18
ATOM     18  C   UNL     1     -14.695 -31.920  16.912  1.00  0.00     0.000 C 
BRANCH  18  19
ATOM     19  C   UNL     1     -13.249 -32.401  17.116  1.00  0.00     0.000 C 
BRANCH  19  20
ATOM     20  C   UNL     1     -12.235 -31.246  17.101  1.00  0.00     0.006 C 
BRANCH  20  21
ATOM     21  C   UNL     1     -12.919 -29.872  17.056  1.00  0.00     0.053 C 
BRANCH  21  22
ATOM     22  C   UNL     1     -12.098 -28.817  17.730  1.00  0.00     0.041 C 
ATOM     23  O   UNL     1     -12.630 -27.733  18.090  1.00  0.00    -0.550 OA
ATOM     24  O   UNL     1     -10.741 -29.023  17.945  1.00  0.00    -0.550 OA
ENDBRANCH  21  22
ENDBRANCH  20  21
ENDBRANCH  19  20
ENDBRANCH  18  19
ENDBRANCH  17  18
ENDBRANCH  16  17
ENDBRANCH  15  16
ENDBRANCH  14  15
ENDBRANCH  13  14
ENDBRANCH   1  13
TORSDOF 20
ENDMDL
MODEL 7
REMARK VINA RESULT:    -4.304      1.588      2.230
REMARK INTER + INTRA:         -12.812
REMARK INTER:                  -9.013
REMARK INTRA:                  -3.799
REMARK UNBOUND:                -3.476
REMARK SMILES CCCCCCCCCCCCCCCCCCCCCC(=O)[O-]
REMARK SMILES IDX 12 1 11 2 10 3 9 4 8 5 7 6 6 7 5 8 4 9 3 10 2 11 1 12 13 13
REMARK SMILES IDX 14 14 15 15 16 16 17 17 18 18 19 19 20 20 21 21 22 22 23 23
REMARK SMILES IDX 24 24
REMARK H PARENT
REMARK Flexibility Score: inf
ROOT
ATOM      1  C   UNL     1     -19.226 -33.704  17.088  1.00  0.00     0.000 C 
ENDROOT
BRANCH   1   2
ATOM      2  C   UNL     1     -17.823 -34.124  17.562  1.00  0.00     0.000 C 
BRANCH   2   3
ATOM      3  C   UNL     1     -17.200 -33.240  18.659  1.00  0.00     0.000 C 
BRANCH   3   4
ATOM      4  C   UNL     1     -17.437 -33.782  20.078  1.00  0.00    -0.000 C 
BRANCH   4   5
ATOM      5  C   UNL     1     -18.725 -33.233  20.715  1.00  0.00    -0.000 C 
BRANCH   5   6
ATOM      6  C   UNL     1     -18.799 -31.691  20.719  1.00  0.00    -0.000 C 
BRANCH   6   7
ATOM      7  C   UNL     1     -20.056 -31.171  20.000  1.00  0.00    -0.000 C 
BRANCH   7   8
ATOM      8  C   UNL     1     -19.722 -30.380  18.725  1.00  0.00    -0.000 C 
BRANCH   8   9
ATOM      9  C   UNL     1     -18.341 -29.708  18.792  1.00  0.00    -0.000 C 
BRANCH   9  10
ATOM     10  C   UNL     1     -17.763 -29.504  17.384  1.00  0.00    -0.000 C 
BRANCH  10  11
ATOM     11  C   UNL     1     -16.229 -29.602  17.355  1.00  0.00    -0.003 C 
ATOM     12  C   UNL     1     -15.645 -30.134  18.663  1.00  0.00     0.004 C 
ENDBRANCH  10  11
ENDBRANCH   9  10
ENDBRANCH   8   9
ENDBRANCH   7   8
ENDBRANCH   6   7
ENDBRANCH   5   6
ENDBRANCH   4   5
ENDBRANCH   3   4
ENDBRANCH   2   3
ENDBRANCH   1   2
BRANCH   1  13
ATOM     13  C   UNL     1     -19.195 -32.776  15.861  1.00  0.00     0.000 C 
BRANCH  13  14
ATOM     14  C   UNL     1     -18.862 -33.521  14.556  1.00  0.00     0.000 C 
BRANCH  14  15
ATOM     15  C   UNL     1     -17.702 -32.926  13.738  1.00  0.00     0.000 C 
BRANCH  15  16
ATOM     16  C   UNL     1     -16.683 -32.170  14.604  1.00  0.00     0.000 C 
BRANCH  16  17
ATOM     17  C   UNL     1     -15.351 -32.927  14.676  1.00  0.00     0.000 C 
BRANCH  17  18
ATOM     18  C   UNL     1     -14.582 -32.566  15.957  1.00  0.00     0.000 C 
BRANCH  18  19
ATOM     19  C   UNL     1     -13.395 -31.626  15.689  1.00  0.00     0.000 C 
BRANCH  19  20
ATOM     20  C   UNL     1     -12.503 -31.434  16.927  1.00  0.00     0.006 C 
BRANCH  20  21
ATOM     21  C   UNL     1     -11.894 -32.756  17.416  1.00  0.00     0.053 C 
BRANCH  21  22
ATOM     22  C   UNL     1     -11.907 -32.858  18.910  1.00  0.00     0.041 C 
ATOM     23  O   UNL     1     -12.459 -31.961  19.602  1.00  0.00    -0.550 OA
ATOM     24  O   UNL     1     -11.292 -33.933  19.540  1.00  0.00    -0.550 OA
ENDBRANCH  21  22
ENDBRANCH  20  21
ENDBRANCH  19  20
ENDBRANCH  18  19
ENDBRANCH  17  18
ENDBRANCH  16  17
ENDBRANCH  15  16
ENDBRANCH  14  15
ENDBRANCH  13  14
ENDBRANCH   1  13
TORSDOF 20
ENDMDL
MODEL 8
REMARK VINA RESULT:    -4.149      2.358      4.473
REMARK INTER + INTRA:         -12.477
REMARK INTER:                  -9.080
REMARK INTRA:                  -3.396
REMARK UNBOUND:                -3.476
REMARK SMILES CCCCCCCCCCCCCCCCCCCCCC(=O)[O-]
REMARK SMILES IDX 12 1 11 2 10 3 9 4 8 5 7 6 6 7 5 8 4 9 3 10 2 11 1 12 13 13
REMARK SMILES IDX 14 14 15 15 16 16 17 17 18 18 19 19 20 20 21 21 22 22 23 23
REMARK SMILES IDX 24 24
REMARK H PARENT
REMARK Flexibility Score: inf
ROOT
ATOM      1  C   UNL     1     -15.247 -32.584  20.080  1.00  0.00     0.000 C 
ENDROOT
BRANCH   1   2
ATOM      2  C   UNL     1     -15.904 -33.003  21.407  1.00  0.00     0.000 C 
BRANCH   2   3
ATOM      3  C   UNL     1     -17.279 -33.688  21.279  1.00  0.00     0.000 C 
BRANCH   3   4
ATOM      4  C   UNL     1     -17.745 -33.840  19.823  1.00  0.00    -0.000 C 
BRANCH   4   5
ATOM      5  C   UNL     1     -19.116 -33.192  19.567  1.00  0.00    -0.000 C 
BRANCH   5   6
ATOM      6  C   UNL     1     -19.331 -31.879  20.352  1.00  0.00    -0.000 C 
BRANCH   6   7
ATOM      7  C   UNL     1     -20.096 -30.830  19.527  1.00  0.00    -0.000 C 
BRANCH   7   8
ATOM      8  C   UNL     1     -19.164 -29.784  18.893  1.00  0.00    -0.000 C 
BRANCH   8   9
ATOM      9  C   UNL     1     -17.815 -29.677  19.622  1.00  0.00    -0.000 C 
BRANCH   9  10
ATOM     10  C   UNL     1     -16.647 -29.801  18.633  1.00  0.00    -0.000 C 
BRANCH  10  11
ATOM     11  C   UNL     1     -16.963 -30.739  17.458  1.00  0.00    -0.003 C 
ATOM     12  C   UNL     1     -16.192 -30.378  16.189  1.00  0.00     0.004 C 
ENDBRANCH  10  11
ENDBRANCH   9  10
ENDBRANCH   8   9
ENDBRANCH   7   8
ENDBRANCH   6   7
ENDBRANCH   5   6
ENDBRANCH   4   5
ENDBRANCH   3   4
ENDBRANCH   2   3
ENDBRANCH   1   2
BRANCH   1  13
ATOM     13  C   UNL     1     -13.871 -33.234  19.858  1.00  0.00     0.000 C 
BRANCH  13  14
ATOM     14  C   UNL     1     -12.840 -32.263  19.253  1.00  0.00     0.000 C 
BRANCH  14  15
ATOM     15  C   UNL     1     -12.988 -32.006  17.743  1.00  0.00     0.000 C 
BRANCH  15  16
ATOM     16  C   UNL     1     -12.763 -30.536  17.359  1.00  0.00     0.000 C 
BRANCH  16  17
ATOM     17  C   UNL     1     -12.979 -29.612  18.564  1.00  0.00     0.000 C 
BRANCH  17  18
ATOM     18  C   UNL     1     -12.747 -28.142  18.178  1.00  0.00     0.000 C 
BRANCH  18  19
ATOM     19  C   UNL     1     -11.265 -27.827  17.913  1.00  0.00     0.000 C 
BRANCH  19  20
ATOM     20  C   UNL     1     -10.366 -28.156  19.117  1.00  0.00     0.006 C 
BRANCH  20  21
ATOM     21  C   UNL     1      -9.234 -29.125  18.748  1.00  0.00     0.053 C 
BRANCH  21  22
ATOM     22  C   UNL     1      -9.514 -30.517  19.225  1.00  0.00     0.041 C 
ATOM     23  O   UNL     1      -9.478 -31.483  18.417  1.00  0.00    -0.550 OA
ATOM     24  O   UNL     1      -9.832 -30.745  20.558  1.00  0.00    -0.550 OA
ENDBRANCH  21  22
ENDBRANCH  20  21
ENDBRANCH  19  20
ENDBRANCH  18  19
ENDBRANCH  17  18
ENDBRANCH  16  17
ENDBRANCH  15  16
ENDBRANCH  14  15
ENDBRANCH  13  14
ENDBRANCH   1  13
TORSDOF 20
ENDMDL
MODEL 9
REMARK VINA RESULT:    -4.130      1.678      2.873
REMARK INTER + INTRA:         -12.436
REMARK INTER:                  -8.397
REMARK INTRA:                  -4.038
REMARK UNBOUND:                -3.476
REMARK SMILES CCCCCCCCCCCCCCCCCCCCCC(=O)[O-]
REMARK SMILES IDX 12 1 11 2 10 3 9 4 8 5 7 6 6 7 5 8 4 9 3 10 2 11 1 12 13 13
REMARK SMILES IDX 14 14 15 15 16 16 17 17 18 18 19 19 20 20 21 21 22 22 23 23
REMARK SMILES IDX 24 24
REMARK H PARENT
REMARK Flexibility Score: inf
ROOT
ATOM      1  C   UNL     1     -15.023 -32.682  19.641  1.00  0.00     0.000 C 
ENDROOT
BRANCH   1   2
ATOM      2  C   UNL     1     -15.674 -33.064  20.982  1.00  0.00     0.000 C 
BRANCH   2   3
ATOM      3  C   UNL     1     -16.664 -32.032  21.558  1.00  0.00     0.000 C 
BRANCH   3   4
ATOM      4  C   UNL     1     -18.101 -32.566  21.660  1.00  0.00    -0.000 C 
BRANCH   4   5
ATOM      5  C   UNL     1     -18.441 -33.571  20.546  1.00  0.00    -0.000 C 
BRANCH   5   6
ATOM      6  C   UNL     1     -19.584 -33.098  19.621  1.00  0.00    -0.000 C 
BRANCH   6   7
ATOM      7  C   UNL     1     -19.089 -32.114  18.547  1.00  0.00    -0.000 C 
BRANCH   7   8
ATOM      8  C   UNL     1     -19.578 -30.678  18.792  1.00  0.00    -0.000 C 
BRANCH   8   9
ATOM      9  C   UNL     1     -18.438 -29.725  19.182  1.00  0.00    -0.000 C 
BRANCH   9  10
ATOM     10  C   UNL     1     -17.150 -30.070  18.419  1.00  0.00    -0.000 C 
BRANCH  10  11
ATOM     11  C   UNL     1     -16.298 -28.830  18.104  1.00  0.00    -0.003 C 
ATOM     12  C   UNL     1     -17.049 -27.793  17.269  1.00  0.00     0.004 C 
ENDBRANCH  10  11
ENDBRANCH   9  10
ENDBRANCH   8   9
ENDBRANCH   7   8
ENDBRANCH   6   7
ENDBRANCH   5   6
ENDBRANCH   4   5
ENDBRANCH   3   4
ENDBRANCH   2   3
ENDBRANCH   1   2
BRANCH   1  13
ATOM     13  C   UNL     1     -14.902 -33.869  18.670  1.00  0.00     0.000 C 
BRANCH  13  14
ATOM     14  C   UNL     1     -16.100 -33.979  17.709  1.00  0.00     0.000 C 
BRANCH  14  15
ATOM     15  C   UNL     1     -15.795 -33.635  16.240  1.00  0.00     0.000 C 
BRANCH  15  16
ATOM     16  C   UNL     1     -16.649 -32.476  15.705  1.00  0.00     0.000 C 
BRANCH  16  17
ATOM     17  C   UNL     1     -15.769 -31.306  15.249  1.00  0.00     0.000 C 
BRANCH  17  18
ATOM     18  C   UNL     1     -14.324 -31.768  15.005  1.00  0.00     0.000 C 
BRANCH  18  19
ATOM     19  C   UNL     1     -13.286 -30.814  15.617  1.00  0.00     0.000 C 
BRANCH  19  20
ATOM     20  C   UNL     1     -12.697 -31.348  16.934  1.00  0.00     0.006 C 
BRANCH  20  21
ATOM     21  C   UNL     1     -12.805 -30.326  18.075  1.00  0.00     0.053 C 
BRANCH  21  22
ATOM     22  C   UNL     1     -11.530 -30.224  18.855  1.00  0.00     0.041 C 
ATOM     23  O   UNL     1     -11.388 -30.875  19.925  1.00  0.00    -0.550 OA
ATOM     24  O   UNL     1     -10.506 -29.398  18.410  1.00  0.00    -0.550 OA
ENDBRANCH  21  22
ENDBRANCH  20  21
ENDBRANCH  19  20
ENDBRANCH  18  19
ENDBRANCH  17  18
ENDBRANCH  16  17
ENDBRANCH  15  16
ENDBRANCH  14  15
ENDBRANCH  13  14
ENDBRANCH   1  13
TORSDOF 20
ENDMDL
