MODEL 1
REMARK VINA RESULT:    -7.372      0.000      0.000
REMARK INTER + INTRA:          -9.420
REMARK INTER:                  -9.096
REMARK INTRA:                  -0.324
REMARK UNBOUND:                -0.324
REMARK SMILES Oc1cc(O)c2cc(O)c(-c3cc(O)c(O)c(O)c3)[o+]c2c1
REMARK SMILES IDX 10 1 20 2 21 3 22 4 2 5 3 6 4 7 6 8 7 9 8 10 11 11 12 12
REMARK SMILES IDX 13 13 19 14 15 15 17 16 14 17 16 19 18 21 9 23 1 25 5 27
REMARK H PARENT 14 18 16 20 18 22 9 24 1 26 5 28
REMARK Flexibility Score: inf
ROOT
ATOM      1  C   UNL     1     -18.388  12.391 -35.459  1.00  0.00     0.402 A 
ATOM      2  O   UNL     1     -19.216  11.350 -35.498  1.00  0.00    -0.202 OA
ATOM      3  C   UNL     1     -19.916  11.015 -36.579  1.00  0.00     0.368 A 
ATOM      4  C   UNL     1     -20.758   9.902 -36.524  1.00  0.00     0.162 A 
ATOM      5  C   UNL     1     -21.501   9.525 -37.643  1.00  0.00     0.128 A 
ATOM      6  C   UNL     1     -21.402  10.264 -38.827  1.00  0.00     0.093 A 
ATOM      7  C   UNL     1     -20.564  11.383 -38.907  1.00  0.00     0.136 A 
ATOM      8  C   UNL     1     -19.809  11.772 -37.770  1.00  0.00     0.125 A 
ATOM      9  C   UNL     1     -18.954  12.886 -37.755  1.00  0.00     0.078 A 
ATOM     10  C   UNL     1     -18.245  13.210 -36.594  1.00  0.00     0.223 A 
ENDROOT
BRANCH   1  11
ATOM     11  C   UNL     1     -17.658  12.657 -34.199  1.00  0.00     0.091 A 
ATOM     12  C   UNL     1     -18.042  13.695 -33.336  1.00  0.00     0.068 A 
ATOM     13  C   UNL     1     -17.324  13.945 -32.160  1.00  0.00     0.162 A 
ATOM     14  C   UNL     1     -16.523  11.895 -33.885  1.00  0.00     0.068 A 
ATOM     15  C   UNL     1     -16.204  13.166 -31.835  1.00  0.00     0.200 A 
ATOM     16  C   UNL     1     -15.796  12.133 -32.712  1.00  0.00     0.162 A 
BRANCH  13  17
ATOM     17  O   UNL     1     -17.717  14.973 -31.305  1.00  0.00    -0.504 OA
ATOM     18  H   UNL     1     -17.539  14.933 -30.308  1.00  0.00     0.293 HD
ENDBRANCH  13  17
BRANCH  15  19
ATOM     19  O   UNL     1     -15.528  13.452 -30.647  1.00  0.00    -0.502 OA
ATOM     20  H   UNL     1     -15.756  13.042 -29.753  1.00  0.00     0.293 HD
ENDBRANCH  15  19
BRANCH  16  21
ATOM     21  O   UNL     1     -14.685  11.324 -32.461  1.00  0.00    -0.504 OA
ATOM     22  H   UNL     1     -14.290  10.682 -33.132  1.00  0.00     0.293 HD
ENDBRANCH  16  21
ENDBRANCH   1  11
BRANCH  10  23
ATOM     23  O   UNL     1     -17.435  14.345 -36.563  1.00  0.00    -0.500 OA
ATOM     24  H   UNL     1     -16.530  14.340 -36.106  1.00  0.00     0.294 HD
ENDBRANCH  10  23
BRANCH   5  25
ATOM     25  O   UNL     1     -22.336   8.412 -37.569  1.00  0.00    -0.507 OA
ATOM     26  H   UNL     1     -23.132   8.305 -38.188  1.00  0.00     0.293 HD
ENDBRANCH   5  25
BRANCH   7  27
ATOM     27  O   UNL     1     -20.517  12.067 -40.126  1.00  0.00    -0.507 OA
ATOM     28  H   UNL     1     -20.775  13.036 -40.247  1.00  0.00     0.293 HD
ENDBRANCH   7  27
TORSDOF 7
ENDMDL
MODEL 2
REMARK VINA RESULT:    -6.984      1.209      7.216
REMARK INTER + INTRA:          -8.940
REMARK INTER:                  -8.571
REMARK INTRA:                  -0.370
REMARK UNBOUND:                -0.324
REMARK SMILES Oc1cc(O)c2cc(O)c(-c3cc(O)c(O)c(O)c3)[o+]c2c1
REMARK SMILES IDX 10 1 20 2 21 3 22 4 2 5 3 6 4 7 6 8 7 9 8 10 11 11 12 12
REMARK SMILES IDX 13 13 19 14 15 15 17 16 14 17 16 19 18 21 9 23 1 25 5 27
REMARK H PARENT 14 18 16 20 18 22 9 24 1 26 5 28
REMARK Flexibility Score: inf
ROOT
ATOM      1  C   UNL     1     -19.286  12.023 -35.142  1.00  0.00     0.402 A 
ATOM      2  O   UNL     1     -17.984  11.750 -35.113  1.00  0.00    -0.202 OA
ATOM      3  C   UNL     1     -17.167  12.190 -34.160  1.00  0.00     0.368 A 
ATOM      4  C   UNL     1     -15.815  11.849 -34.213  1.00  0.00     0.162 A 
ATOM      5  C   UNL     1     -14.935  12.294 -33.226  1.00  0.00     0.128 A 
ATOM      6  C   UNL     1     -15.411  13.086 -32.175  1.00  0.00     0.093 A 
ATOM      7  C   UNL     1     -16.763  13.441 -32.099  1.00  0.00     0.136 A 
ATOM      8  C   UNL     1     -17.660  12.993 -33.103  1.00  0.00     0.125 A 
ATOM      9  C   UNL     1     -19.028  13.311 -33.114  1.00  0.00     0.078 A 
ATOM     10  C   UNL     1     -19.849  12.836 -34.141  1.00  0.00     0.223 A 
ENDROOT
BRANCH   1  11
ATOM     11  C   UNL     1     -20.093  11.466 -36.252  1.00  0.00     0.091 A 
ATOM     12  C   UNL     1     -20.876  10.314 -36.080  1.00  0.00     0.068 A 
ATOM     13  C   UNL     1     -21.614   9.790 -37.149  1.00  0.00     0.162 A 
ATOM     14  C   UNL     1     -20.030  12.065 -37.518  1.00  0.00     0.068 A 
ATOM     15  C   UNL     1     -21.570  10.405 -38.408  1.00  0.00     0.200 A 
ATOM     16  C   UNL     1     -20.764  11.553 -38.596  1.00  0.00     0.162 A 
BRANCH  13  17
ATOM     17  O   UNL     1     -22.396   8.651 -36.967  1.00  0.00    -0.504 OA
ATOM     18  H   UNL     1     -22.618   8.299 -36.043  1.00  0.00     0.293 HD
ENDBRANCH  13  17
BRANCH  15  19
ATOM     19  O   UNL     1     -22.331   9.847 -39.438  1.00  0.00    -0.502 OA
ATOM     20  H   UNL     1     -22.142   9.983 -40.420  1.00  0.00     0.293 HD
ENDBRANCH  15  19
BRANCH  16  21
ATOM     21  O   UNL     1     -20.661  12.211 -39.823  1.00  0.00    -0.504 OA
ATOM     22  H   UNL     1     -19.949  12.891 -40.041  1.00  0.00     0.293 HD
ENDBRANCH  16  21
ENDBRANCH   1  11
BRANCH  10  23
ATOM     23  O   UNL     1     -21.198  13.192 -34.181  1.00  0.00    -0.500 OA
ATOM     24  H   UNL     1     -21.538  13.921 -34.799  1.00  0.00     0.294 HD
ENDBRANCH  10  23
BRANCH   5  25
ATOM     25  O   UNL     1     -13.589  11.943 -33.296  1.00  0.00    -0.507 OA
ATOM     26  H   UNL     1     -13.075  11.985 -34.169  1.00  0.00     0.293 HD
ENDBRANCH   5  25
BRANCH   7  27
ATOM     27  O   UNL     1     -17.161  14.232 -31.016  1.00  0.00    -0.507 OA
ATOM     28  H   UNL     1     -18.039  14.728 -30.964  1.00  0.00     0.293 HD
ENDBRANCH   7  27
TORSDOF 7
ENDMDL
MODEL 3
REMARK VINA RESULT:    -6.964      1.477      2.421
REMARK INTER + INTRA:          -8.917
REMARK INTER:                  -8.634
REMARK INTRA:                  -0.283
REMARK UNBOUND:                -0.324
REMARK SMILES Oc1cc(O)c2cc(O)c(-c3cc(O)c(O)c(O)c3)[o+]c2c1
REMARK SMILES IDX 10 1 20 2 21 3 22 4 2 5 3 6 4 7 6 8 7 9 8 10 11 11 12 12
REMARK SMILES IDX 13 13 19 14 15 15 17 16 14 17 16 19 18 21 9 23 1 25 5 27
REMARK H PARENT 14 18 16 20 18 22 9 24 1 26 5 28
REMARK Flexibility Score: inf
ROOT
ATOM      1  C   UNL     1     -19.175  12.466 -34.567  1.00  0.00     0.402 A 
ATOM      2  O   UNL     1     -18.828  12.314 -35.843  1.00  0.00    -0.202 OA
ATOM      3  C   UNL     1     -19.698  12.029 -36.807  1.00  0.00     0.368 A 
ATOM      4  C   UNL     1     -19.238  11.893 -38.118  1.00  0.00     0.162 A 
ATOM      5  C   UNL     1     -20.129  11.597 -39.151  1.00  0.00     0.128 A 
ATOM      6  C   UNL     1     -21.490  11.437 -38.872  1.00  0.00     0.093 A 
ATOM      7  C   UNL     1     -21.976  11.569 -37.565  1.00  0.00     0.136 A 
ATOM      8  C   UNL     1     -21.073  11.867 -36.512  1.00  0.00     0.125 A 
ATOM      9  C   UNL     1     -21.469  12.005 -35.171  1.00  0.00     0.078 A 
ATOM     10  C   UNL     1     -20.519  12.295 -34.187  1.00  0.00     0.223 A 
ENDROOT
BRANCH   1  11
ATOM     11  C   UNL     1     -18.114  12.792 -33.587  1.00  0.00     0.091 A 
ATOM     12  C   UNL     1     -18.079  14.035 -32.936  1.00  0.00     0.068 A 
ATOM     13  C   UNL     1     -17.054  14.333 -32.029  1.00  0.00     0.162 A 
ATOM     14  C   UNL     1     -17.090  11.866 -33.345  1.00  0.00     0.068 A 
ATOM     15  C   UNL     1     -16.043  13.396 -31.769  1.00  0.00     0.200 A 
ATOM     16  C   UNL     1     -16.059  12.150 -32.440  1.00  0.00     0.162 A 
BRANCH  13  17
ATOM     17  O   UNL     1     -17.030  15.567 -31.380  1.00  0.00    -0.504 OA
ATOM     18  H   UNL     1     -16.676  16.400 -31.835  1.00  0.00     0.293 HD
ENDBRANCH  13  17
BRANCH  15  19
ATOM     19  O   UNL     1     -15.049  13.741 -30.850  1.00  0.00    -0.502 OA
ATOM     20  H   UNL     1     -14.562  14.625 -30.848  1.00  0.00     0.293 HD
ENDBRANCH  15  19
BRANCH  16  21
ATOM     21  O   UNL     1     -15.081  11.173 -32.241  1.00  0.00    -0.504 OA
ATOM     22  H   UNL     1     -14.195  11.154 -32.723  1.00  0.00     0.293 HD
ENDBRANCH  16  21
ENDBRANCH   1  11
BRANCH  10  23
ATOM     23  O   UNL     1     -20.903  12.383 -32.849  1.00  0.00    -0.500 OA
ATOM     24  H   UNL     1     -20.227  12.319 -32.096  1.00  0.00     0.294 HD
ENDBRANCH  10  23
BRANCH   5  25
ATOM     25  O   UNL     1     -19.651  11.464 -40.453  1.00  0.00    -0.507 OA
ATOM     26  H   UNL     1     -18.888  12.034 -40.799  1.00  0.00     0.293 HD
ENDBRANCH   5  25
BRANCH   7  27
ATOM     27  O   UNL     1     -23.350  11.398 -37.368  1.00  0.00    -0.507 OA
ATOM     28  H   UNL     1     -23.857  11.732 -36.562  1.00  0.00     0.293 HD
ENDBRANCH   7  27
TORSDOF 7
ENDMDL
MODEL 4
REMARK VINA RESULT:    -6.942      1.464      1.518
REMARK INTER + INTRA:          -8.889
REMARK INTER:                  -9.052
REMARK INTRA:                   0.162
REMARK UNBOUND:                -0.324
REMARK SMILES Oc1cc(O)c2cc(O)c(-c3cc(O)c(O)c(O)c3)[o+]c2c1
REMARK SMILES IDX 10 1 20 2 21 3 22 4 2 5 3 6 4 7 6 8 7 9 8 10 11 11 12 12
REMARK SMILES IDX 13 13 19 14 15 15 17 16 14 17 16 19 18 21 9 23 1 25 5 27
REMARK H PARENT 14 18 16 20 18 22 9 24 1 26 5 28
REMARK Flexibility Score: inf
ROOT
ATOM      1  C   UNL     1     -18.491  12.122 -35.482  1.00  0.00     0.402 A 
ATOM      2  O   UNL     1     -19.812  12.267 -35.536  1.00  0.00    -0.202 OA
ATOM      3  C   UNL     1     -20.533  11.990 -36.618  1.00  0.00     0.368 A 
ATOM      4  C   UNL     1     -21.917  12.172 -36.577  1.00  0.00     0.162 A 
ATOM      5  C   UNL     1     -22.699  11.886 -37.697  1.00  0.00     0.128 A 
ATOM      6  C   UNL     1     -22.095  11.415 -38.867  1.00  0.00     0.093 A 
ATOM      7  C   UNL     1     -20.709  11.225 -38.933  1.00  0.00     0.136 A 
ATOM      8  C   UNL     1     -19.910  11.516 -37.797  1.00  0.00     0.125 A 
ATOM      9  C   UNL     1     -18.513  11.368 -37.777  1.00  0.00     0.078 A 
ATOM     10  C   UNL     1     -17.792  11.680 -36.620  1.00  0.00     0.223 A 
ENDROOT
BRANCH   1  11
ATOM     11  C   UNL     1     -17.801  12.455 -34.214  1.00  0.00     0.091 A 
ATOM     12  C   UNL     1     -18.214  13.536 -33.420  1.00  0.00     0.068 A 
ATOM     13  C   UNL     1     -17.534  13.848 -32.236  1.00  0.00     0.162 A 
ATOM     14  C   UNL     1     -16.676  11.714 -33.826  1.00  0.00     0.068 A 
ATOM     15  C   UNL     1     -16.424  13.091 -31.835  1.00  0.00     0.200 A 
ATOM     16  C   UNL     1     -15.987  12.014 -32.644  1.00  0.00     0.162 A 
BRANCH  13  17
ATOM     17  O   UNL     1     -17.956  14.918 -31.448  1.00  0.00    -0.504 OA
ATOM     18  H   UNL     1     -18.304  14.780 -30.506  1.00  0.00     0.293 HD
ENDBRANCH  13  17
BRANCH  15  19
ATOM     19  O   UNL     1     -15.787  13.439 -30.642  1.00  0.00    -0.502 OA
ATOM     20  H   UNL     1     -15.832  12.893 -29.795  1.00  0.00     0.293 HD
ENDBRANCH  15  19
BRANCH  16  21
ATOM     21  O   UNL     1     -14.883  11.223 -32.316  1.00  0.00    -0.504 OA
ATOM     22  H   UNL     1     -14.039  11.579 -31.894  1.00  0.00     0.293 HD
ENDBRANCH  16  21
ENDBRANCH   1  11
BRANCH  10  23
ATOM     23  O   UNL     1     -16.401  11.581 -36.615  1.00  0.00    -0.500 OA
ATOM     24  H   UNL     1     -15.808  12.403 -36.650  1.00  0.00     0.294 HD
ENDBRANCH  10  23
BRANCH   5  25
ATOM     25  O   UNL     1     -24.079  12.074 -37.637  1.00  0.00    -0.507 OA
ATOM     26  H   UNL     1     -24.481  12.952 -37.328  1.00  0.00     0.293 HD
ENDBRANCH   5  25
BRANCH   7  27
ATOM     27  O   UNL     1     -20.181  10.748 -40.137  1.00  0.00    -0.507 OA
ATOM     28  H   UNL     1     -20.729  10.329 -40.874  1.00  0.00     0.293 HD
ENDBRANCH   7  27
TORSDOF 7
ENDMDL
MODEL 5
REMARK VINA RESULT:    -6.739      1.756      7.005
REMARK INTER + INTRA:          -8.639
REMARK INTER:                  -8.279
REMARK INTRA:                  -0.360
REMARK UNBOUND:                -0.324
REMARK SMILES Oc1cc(O)c2cc(O)c(-c3cc(O)c(O)c(O)c3)[o+]c2c1
REMARK SMILES IDX 10 1 20 2 21 3 22 4 2 5 3 6 4 7 6 8 7 9 8 10 11 11 12 12
REMARK SMILES IDX 13 13 19 14 15 15 17 16 14 17 16 19 18 21 9 23 1 25 5 27
REMARK H PARENT 14 18 16 20 18 22 9 24 1 26 5 28
REMARK Flexibility Score: inf
ROOT
ATOM      1  C   UNL     1     -18.832  12.021 -35.442  1.00  0.00     0.402 A 
ATOM      2  O   UNL     1     -18.777  12.593 -34.243  1.00  0.00    -0.202 OA
ATOM      3  C   UNL     1     -17.658  12.689 -33.531  1.00  0.00     0.368 A 
ATOM      4  C   UNL     1     -17.699  13.310 -32.281  1.00  0.00     0.162 A 
ATOM      5  C   UNL     1     -16.540  13.427 -31.514  1.00  0.00     0.128 A 
ATOM      6  C   UNL     1     -15.329  12.920 -31.998  1.00  0.00     0.093 A 
ATOM      7  C   UNL     1     -15.262  12.293 -33.248  1.00  0.00     0.136 A 
ATOM      8  C   UNL     1     -16.440  12.169 -34.030  1.00  0.00     0.125 A 
ATOM      9  C   UNL     1     -16.469  11.545 -35.288  1.00  0.00     0.078 A 
ATOM     10  C   UNL     1     -17.670  11.457 -35.999  1.00  0.00     0.223 A 
ENDROOT
BRANCH   1  11
ATOM     11  C   UNL     1     -20.138  11.985 -36.141  1.00  0.00     0.091 A 
ATOM     12  C   UNL     1     -20.434  12.878 -37.182  1.00  0.00     0.068 A 
ATOM     13  C   UNL     1     -21.683  12.843 -37.815  1.00  0.00     0.162 A 
ATOM     14  C   UNL     1     -21.122  11.080 -35.718  1.00  0.00     0.068 A 
ATOM     15  C   UNL     1     -22.658  11.921 -37.408  1.00  0.00     0.200 A 
ATOM     16  C   UNL     1     -22.375  11.033 -36.342  1.00  0.00     0.162 A 
BRANCH  13  17
ATOM     17  O   UNL     1     -21.967  13.728 -38.854  1.00  0.00    -0.504 OA
ATOM     18  H   UNL     1     -22.622  14.492 -38.738  1.00  0.00     0.293 HD
ENDBRANCH  13  17
BRANCH  15  19
ATOM     19  O   UNL     1     -23.884  11.922 -38.077  1.00  0.00    -0.502 OA
ATOM     20  H   UNL     1     -24.519  11.138 -38.097  1.00  0.00     0.293 HD
ENDBRANCH  15  19
BRANCH  16  21
ATOM     21  O   UNL     1     -23.299  10.096 -35.874  1.00  0.00    -0.504 OA
ATOM     22  H   UNL     1     -24.265  10.308 -35.673  1.00  0.00     0.293 HD
ENDBRANCH  16  21
ENDBRANCH   1  11
BRANCH  10  23
ATOM     23  O   UNL     1     -17.710  10.793 -37.225  1.00  0.00    -0.500 OA
ATOM     24  H   UNL     1     -17.557  11.281 -38.100  1.00  0.00     0.294 HD
ENDBRANCH  10  23
BRANCH   5  25
ATOM     25  O   UNL     1     -16.600  14.051 -30.269  1.00  0.00    -0.507 OA
ATOM     26  H   UNL     1     -16.148  14.942 -30.100  1.00  0.00     0.293 HD
ENDBRANCH   5  25
BRANCH   7  27
ATOM     27  O   UNL     1     -14.015  11.815 -33.663  1.00  0.00    -0.507 OA
ATOM     28  H   UNL     1     -13.162  11.908 -33.131  1.00  0.00     0.293 HD
ENDBRANCH   7  27
TORSDOF 7
ENDMDL
MODEL 6
REMARK VINA RESULT:    -6.709      8.501     10.141
REMARK INTER + INTRA:          -8.602
REMARK INTER:                  -8.251
REMARK INTRA:                  -0.351
REMARK UNBOUND:                -0.324
REMARK SMILES Oc1cc(O)c2cc(O)c(-c3cc(O)c(O)c(O)c3)[o+]c2c1
REMARK SMILES IDX 10 1 20 2 21 3 22 4 2 5 3 6 4 7 6 8 7 9 8 10 11 11 12 12
REMARK SMILES IDX 13 13 19 14 15 15 17 16 14 17 16 19 18 21 9 23 1 25 5 27
REMARK H PARENT 14 18 16 20 18 22 9 24 1 26 5 28
REMARK Flexibility Score: inf
ROOT
ATOM      1  C   UNL     1     -24.563  17.883 -39.092  1.00  0.00     0.402 A 
ATOM      2  O   UNL     1     -24.555  16.572 -39.318  1.00  0.00    -0.202 OA
ATOM      3  C   UNL     1     -25.382  15.723 -38.715  1.00  0.00     0.368 A 
ATOM      4  C   UNL     1     -25.301  14.362 -39.020  1.00  0.00     0.162 A 
ATOM      5  C   UNL     1     -26.157  13.449 -38.405  1.00  0.00     0.128 A 
ATOM      6  C   UNL     1     -27.104  13.897 -37.478  1.00  0.00     0.093 A 
ATOM      7  C   UNL     1     -27.206  15.256 -37.155  1.00  0.00     0.136 A 
ATOM      8  C   UNL     1     -26.334  16.188 -37.777  1.00  0.00     0.125 A 
ATOM      9  C   UNL     1     -26.356  17.566 -37.505  1.00  0.00     0.078 A 
ATOM     10  C   UNL     1     -25.462  18.422 -38.154  1.00  0.00     0.223 A 
ENDROOT
BRANCH   1  11
ATOM     11  C   UNL     1     -23.598  18.726 -39.835  1.00  0.00     0.091 A 
ATOM     12  C   UNL     1     -22.263  18.847 -39.420  1.00  0.00     0.068 A 
ATOM     13  C   UNL     1     -21.372  19.668 -40.122  1.00  0.00     0.162 A 
ATOM     14  C   UNL     1     -24.038  19.467 -40.941  1.00  0.00     0.068 A 
ATOM     15  C   UNL     1     -21.807  20.389 -41.243  1.00  0.00     0.200 A 
ATOM     16  C   UNL     1     -23.158  20.291 -41.654  1.00  0.00     0.162 A 
BRANCH  13  17
ATOM     17  O   UNL     1     -20.045  19.777 -39.708  1.00  0.00    -0.504 OA
ATOM     18  H   UNL     1     -19.288  19.350 -40.231  1.00  0.00     0.293 HD
ENDBRANCH  13  17
BRANCH  15  19
ATOM     19  O   UNL     1     -20.876  21.187 -41.912  1.00  0.00    -0.502 OA
ATOM     20  H   UNL     1     -20.176  21.749 -41.451  1.00  0.00     0.293 HD
ENDBRANCH  15  19
BRANCH  16  21
ATOM     21  O   UNL     1     -23.666  20.988 -42.753  1.00  0.00    -0.504 OA
ATOM     22  H   UNL     1     -23.266  20.951 -43.678  1.00  0.00     0.293 HD
ENDBRANCH  16  21
ENDBRANCH   1  11
BRANCH  10  23
ATOM     23  O   UNL     1     -25.449  19.783 -37.848  1.00  0.00    -0.500 OA
ATOM     24  H   UNL     1     -25.293  20.488 -38.561  1.00  0.00     0.294 HD
ENDBRANCH  10  23
BRANCH   5  25
ATOM     25  O   UNL     1     -26.060  12.095 -38.722  1.00  0.00    -0.507 OA
ATOM     26  H   UNL     1     -26.099  11.379 -38.006  1.00  0.00     0.293 HD
ENDBRANCH   5  25
BRANCH   7  27
ATOM     27  O   UNL     1     -28.180  15.625 -36.222  1.00  0.00    -0.507 OA
ATOM     28  H   UNL     1     -28.868  14.996 -35.836  1.00  0.00     0.293 HD
ENDBRANCH   7  27
TORSDOF 7
ENDMDL
MODEL 7
REMARK VINA RESULT:    -6.705      8.433     10.051
REMARK INTER + INTRA:          -8.597
REMARK INTER:                  -8.224
REMARK INTRA:                  -0.373
REMARK UNBOUND:                -0.324
REMARK SMILES Oc1cc(O)c2cc(O)c(-c3cc(O)c(O)c(O)c3)[o+]c2c1
REMARK SMILES IDX 10 1 20 2 21 3 22 4 2 5 3 6 4 7 6 8 7 9 8 10 11 11 12 12
REMARK SMILES IDX 13 13 19 14 15 15 17 16 14 17 16 19 18 21 9 23 1 25 5 27
REMARK H PARENT 14 18 16 20 18 22 9 24 1 26 5 28
REMARK Flexibility Score: inf
ROOT
ATOM      1  C   UNL     1     -24.582  17.922 -39.073  1.00  0.00     0.402 A 
ATOM      2  O   UNL     1     -24.526  16.612 -39.298  1.00  0.00    -0.202 OA
ATOM      3  C   UNL     1     -25.325  15.734 -38.700  1.00  0.00     0.368 A 
ATOM      4  C   UNL     1     -25.193  14.377 -39.004  1.00  0.00     0.162 A 
ATOM      5  C   UNL     1     -26.020  13.434 -38.394  1.00  0.00     0.128 A 
ATOM      6  C   UNL     1     -26.988  13.848 -37.473  1.00  0.00     0.093 A 
ATOM      7  C   UNL     1     -27.141  15.203 -37.151  1.00  0.00     0.136 A 
ATOM      8  C   UNL     1     -26.300  16.165 -37.768  1.00  0.00     0.125 A 
ATOM      9  C   UNL     1     -26.373  17.541 -37.497  1.00  0.00     0.078 A 
ATOM     10  C   UNL     1     -25.506  18.429 -38.141  1.00  0.00     0.223 A 
ENDROOT
BRANCH   1  11
ATOM     11  C   UNL     1     -23.643  18.799 -39.809  1.00  0.00     0.091 A 
ATOM     12  C   UNL     1     -24.045  19.499 -40.957  1.00  0.00     0.068 A 
ATOM     13  C   UNL     1     -23.136  20.307 -41.652  1.00  0.00     0.162 A 
ATOM     14  C   UNL     1     -22.309  18.890 -39.388  1.00  0.00     0.068 A 
ATOM     15  C   UNL     1     -21.808  20.416 -41.216  1.00  0.00     0.200 A 
ATOM     16  C   UNL     1     -21.389  19.694 -40.072  1.00  0.00     0.162 A 
BRANCH  13  17
ATOM     17  O   UNL     1     -23.545  21.005 -42.787  1.00  0.00    -0.504 OA
ATOM     18  H   UNL     1     -23.754  20.530 -43.658  1.00  0.00     0.293 HD
ENDBRANCH  13  17
BRANCH  15  19
ATOM     19  O   UNL     1     -20.944  21.240 -41.940  1.00  0.00    -0.502 OA
ATOM     20  H   UNL     1     -20.006  20.981 -42.209  1.00  0.00     0.293 HD
ENDBRANCH  15  19
BRANCH  16  21
ATOM     21  O   UNL     1     -20.081  19.745 -39.585  1.00  0.00    -0.504 OA
ATOM     22  H   UNL     1     -19.496  20.566 -39.622  1.00  0.00     0.293 HD
ENDBRANCH  16  21
ENDBRANCH   1  11
BRANCH  10  23
ATOM     23  O   UNL     1     -25.544  19.790 -37.835  1.00  0.00    -0.500 OA
ATOM     24  H   UNL     1     -26.275  20.395 -38.191  1.00  0.00     0.294 HD
ENDBRANCH  10  23
BRANCH   5  25
ATOM     25  O   UNL     1     -25.872  12.085 -38.709  1.00  0.00    -0.507 OA
ATOM     26  H   UNL     1     -25.305  11.466 -38.141  1.00  0.00     0.293 HD
ENDBRANCH   5  25
BRANCH   7  27
ATOM     27  O   UNL     1     -28.133  15.537 -36.224  1.00  0.00    -0.507 OA
ATOM     28  H   UNL     1     -29.110  15.302 -36.325  1.00  0.00     0.293 HD
ENDBRANCH   7  27
TORSDOF 7
ENDMDL
MODEL 8
REMARK VINA RESULT:    -6.691      1.769      7.400
REMARK INTER + INTRA:          -8.580
REMARK INTER:                  -8.533
REMARK INTRA:                  -0.047
REMARK UNBOUND:                -0.324
REMARK SMILES Oc1cc(O)c2cc(O)c(-c3cc(O)c(O)c(O)c3)[o+]c2c1
REMARK SMILES IDX 10 1 20 2 21 3 22 4 2 5 3 6 4 7 6 8 7 9 8 10 11 11 12 12
REMARK SMILES IDX 13 13 19 14 15 15 17 16 14 17 16 19 18 21 9 23 1 25 5 27
REMARK H PARENT 14 18 16 20 18 22 9 24 1 26 5 28
REMARK Flexibility Score: inf
ROOT
ATOM      1  C   UNL     1     -19.572  11.716 -36.828  1.00  0.00     0.402 A 
ATOM      2  O   UNL     1     -19.741  12.410 -35.706  1.00  0.00    -0.202 OA
ATOM      3  C   UNL     1     -18.771  12.604 -34.816  1.00  0.00     0.368 A 
ATOM      4  C   UNL     1     -19.043  13.350 -33.668  1.00  0.00     0.162 A 
ATOM      5  C   UNL     1     -18.045  13.573 -32.719  1.00  0.00     0.128 A 
ATOM      6  C   UNL     1     -16.764  13.047 -32.918  1.00  0.00     0.093 A 
ATOM      7  C   UNL     1     -16.467  12.295 -34.062  1.00  0.00     0.136 A 
ATOM      8  C   UNL     1     -17.480  12.065 -35.028  1.00  0.00     0.125 A 
ATOM      9  C   UNL     1     -17.275  11.313 -36.197  1.00  0.00     0.078 A 
ATOM     10  C   UNL     1     -18.325  11.125 -37.101  1.00  0.00     0.223 A 
ENDROOT
BRANCH   1  11
ATOM     11  C   UNL     1     -20.727  11.578 -37.745  1.00  0.00     0.091 A 
ATOM     12  C   UNL     1     -21.124  10.325 -38.237  1.00  0.00     0.068 A 
ATOM     13  C   UNL     1     -22.205  10.218 -39.121  1.00  0.00     0.162 A 
ATOM     14  C   UNL     1     -21.404  12.726 -38.180  1.00  0.00     0.068 A 
ATOM     15  C   UNL     1     -22.897  11.365 -39.536  1.00  0.00     0.200 A 
ATOM     16  C   UNL     1     -22.487  12.635 -39.063  1.00  0.00     0.162 A 
BRANCH  13  17
ATOM     17  O   UNL     1     -22.599   8.969 -39.599  1.00  0.00    -0.504 OA
ATOM     18  H   UNL     1     -23.231   8.875 -40.385  1.00  0.00     0.293 HD
ENDBRANCH  13  17
BRANCH  15  19
ATOM     19  O   UNL     1     -23.972  11.203 -40.413  1.00  0.00    -0.502 OA
ATOM     20  H   UNL     1     -23.942  10.635 -41.247  1.00  0.00     0.293 HD
ENDBRANCH  15  19
BRANCH  16  21
ATOM     21  O   UNL     1     -23.120  13.822 -39.441  1.00  0.00    -0.504 OA
ATOM     22  H   UNL     1     -23.340  14.065 -40.395  1.00  0.00     0.293 HD
ENDBRANCH  16  21
ENDBRANCH   1  11
BRANCH  10  23
ATOM     23  O   UNL     1     -18.137  10.337 -38.237  1.00  0.00    -0.500 OA
ATOM     24  H   UNL     1     -17.324  10.446 -38.832  1.00  0.00     0.294 HD
ENDBRANCH  10  23
BRANCH   5  25
ATOM     25  O   UNL     1     -18.336  14.319 -31.578  1.00  0.00    -0.507 OA
ATOM     26  H   UNL     1     -19.106  14.977 -31.558  1.00  0.00     0.293 HD
ENDBRANCH   5  25
BRANCH   7  27
ATOM     27  O   UNL     1     -15.163  11.807 -34.190  1.00  0.00    -0.507 OA
ATOM     28  H   UNL     1     -14.876  10.872 -33.937  1.00  0.00     0.293 HD
ENDBRANCH   7  27
TORSDOF 7
ENDMDL
MODEL 9
REMARK VINA RESULT:    -6.576      6.178      9.326
REMARK INTER + INTRA:          -8.438
REMARK INTER:                  -8.077
REMARK INTRA:                  -0.360
REMARK UNBOUND:                -0.324
REMARK SMILES Oc1cc(O)c2cc(O)c(-c3cc(O)c(O)c(O)c3)[o+]c2c1
REMARK SMILES IDX 10 1 20 2 21 3 22 4 2 5 3 6 4 7 6 8 7 9 8 10 11 11 12 12
REMARK SMILES IDX 13 13 19 14 15 15 17 16 14 17 16 19 18 21 9 23 1 25 5 27
REMARK H PARENT 14 18 16 20 18 22 9 24 1 26 5 28
REMARK Flexibility Score: inf
ROOT
ATOM      1  C   UNL     1     -23.810  15.151 -38.748  1.00  0.00     0.402 A 
ATOM      2  O   UNL     1     -23.861  16.032 -39.744  1.00  0.00    -0.202 OA
ATOM      3  C   UNL     1     -24.225  17.300 -39.578  1.00  0.00     0.368 A 
ATOM      4  C   UNL     1     -24.246  18.152 -40.684  1.00  0.00     0.162 A 
ATOM      5  C   UNL     1     -24.620  19.488 -40.539  1.00  0.00     0.128 A 
ATOM      6  C   UNL     1     -24.978  19.978 -39.279  1.00  0.00     0.093 A 
ATOM      7  C   UNL     1     -24.965  19.144 -38.153  1.00  0.00     0.136 A 
ATOM      8  C   UNL     1     -24.587  17.784 -38.298  1.00  0.00     0.125 A 
ATOM      9  C   UNL     1     -24.558  16.874 -37.228  1.00  0.00     0.078 A 
ATOM     10  C   UNL     1     -24.179  15.546 -37.449  1.00  0.00     0.223 A 
ENDROOT
BRANCH   1  11
ATOM     11  C   UNL     1     -23.379  13.768 -39.059  1.00  0.00     0.091 A 
ATOM     12  C   UNL     1     -22.083  13.323 -38.759  1.00  0.00     0.068 A 
ATOM     13  C   UNL     1     -21.687  12.018 -39.082  1.00  0.00     0.162 A 
ATOM     14  C   UNL     1     -24.263  12.902 -39.718  1.00  0.00     0.068 A 
ATOM     15  C   UNL     1     -22.580  11.144 -39.719  1.00  0.00     0.200 A 
ATOM     16  C   UNL     1     -23.882  11.595 -40.046  1.00  0.00     0.162 A 
BRANCH  13  17
ATOM     17  O   UNL     1     -20.400  11.580 -38.774  1.00  0.00    -0.504 OA
ATOM     18  H   UNL     1     -19.757  12.152 -38.239  1.00  0.00     0.293 HD
ENDBRANCH  13  17
BRANCH  15  19
ATOM     19  O   UNL     1     -22.138   9.852 -40.011  1.00  0.00    -0.502 OA
ATOM     20  H   UNL     1     -21.173   9.606 -40.171  1.00  0.00     0.293 HD
ENDBRANCH  15  19
BRANCH  16  21
ATOM     21  O   UNL     1     -24.821  10.786 -40.690  1.00  0.00    -0.504 OA
ATOM     22  H   UNL     1     -25.333  11.062 -41.514  1.00  0.00     0.293 HD
ENDBRANCH  16  21
ENDBRANCH   1  11
BRANCH  10  23
ATOM     23  O   UNL     1     -24.198  14.629 -36.398  1.00  0.00    -0.500 OA
ATOM     24  H   UNL     1     -23.735  13.730 -36.468  1.00  0.00     0.294 HD
ENDBRANCH  10  23
BRANCH   5  25
ATOM     25  O   UNL     1     -24.635  20.322 -41.655  1.00  0.00    -0.507 OA
ATOM     26  H   UNL     1     -24.855  21.308 -41.577  1.00  0.00     0.293 HD
ENDBRANCH   5  25
BRANCH   7  27
ATOM     27  O   UNL     1     -25.332  19.710 -36.928  1.00  0.00    -0.507 OA
ATOM     28  H   UNL     1     -24.690  19.899 -36.172  1.00  0.00     0.293 HD
ENDBRANCH   7  27
TORSDOF 7
ENDMDL
