MODEL 1
REMARK VINA RESULT:    -7.980      0.000      0.000
REMARK INTER + INTRA:         -12.023
REMARK INTER:                 -11.013
REMARK INTRA:                  -1.010
REMARK UNBOUND:                -1.010
REMARK SMILES O=C([O-])[C@H]1O[C@H](Oc2cc3oc(-c4ccccc4)cc(=O)c3c(O)c2O)[C@H](O)[C@H](O)[C@H]1O
REMARK SMILES IDX 7 1 6 2 4 3 31 4 5 5 29 6 27 7 2 8 1 9 3 10 32 11 30 13
REMARK SMILES IDX 28 15 8 17 25 18 9 19 23 20 10 21 22 22 11 23 20 24 12 25
REMARK SMILES IDX 19 26 21 27 26 28 24 30 13 32 14 33 18 34 15 35 17 36 16 37
REMARK H PARENT 32 12 30 14 28 16 26 29 24 31
REMARK Flexibility Score: inf
ROOT
ATOM      1  O   UNL     1      88.098  81.425 110.236  1.00  0.00    -0.458 OA
ENDROOT
BRANCH   1   2
ATOM      2  C   UNL     1      89.205  80.529 110.070  1.00  0.00     0.339 C 
ATOM      3  C   UNL     1      89.568  81.248 107.862  1.00  0.00     0.199 C 
ATOM      4  C   UNL     1      90.931  81.899 108.191  1.00  0.00     0.180 C 
ATOM      5  O   UNL     1      89.314  80.135 108.711  1.00  0.00    -0.328 OA
ATOM      6  C   UNL     1      90.955  82.331 109.665  1.00  0.00     0.181 C 
ATOM      7  C   UNL     1      90.536  81.152 110.563  1.00  0.00     0.214 C 
BRANCH   3   8
ATOM      8  C   UNL     1      89.532  80.798 106.430  1.00  0.00     0.073 C 
ATOM      9  O   UNL     1      88.838  81.418 105.581  1.00  0.00    -0.547 OA
ATOM     10  O   UNL     1      90.227  79.658 106.046  1.00  0.00    -0.547 OA
ENDBRANCH   3   8
BRANCH   4  11
ATOM     11  O   UNL     1      91.980  80.989 107.961  1.00  0.00    -0.387 OA
ATOM     12  H   UNL     1      92.534  80.967 108.785  1.00  0.00     0.211 HD
ENDBRANCH   4  11
BRANCH   6  13
ATOM     13  O   UNL     1      90.092  83.427 109.844  1.00  0.00    -0.387 OA
ATOM     14  H   UNL     1      90.089  83.640 110.814  1.00  0.00     0.211 HD
ENDBRANCH   6  13
BRANCH   7  15
ATOM     15  O   UNL     1      90.435  81.580 111.897  1.00  0.00    -0.384 OA
ATOM     16  H   UNL     1      90.337  82.567 111.874  1.00  0.00     0.211 HD
ENDBRANCH   7  15
ENDBRANCH   1   2
BRANCH   1  17
ATOM     17  C   UNL     1      86.731  81.092 110.236  1.00  0.00     0.172 A 
ATOM     18  C   UNL     1      85.904  81.672 111.214  1.00  0.00     0.201 A 
ATOM     19  C   UNL     1      86.168  80.220 109.288  1.00  0.00     0.098 A 
ATOM     20  C   UNL     1      84.529  81.373 111.257  1.00  0.00     0.176 A 
ATOM     21  C   UNL     1      84.806  79.916 109.321  1.00  0.00     0.146 A 
ATOM     22  C   UNL     1      83.971  80.487 110.308  1.00  0.00     0.111 A 
ATOM     23  O   UNL     1      84.309  79.083 108.413  1.00  0.00    -0.456 OA
ATOM     24  C   UNL     1      82.606  80.133 110.291  1.00  0.00     0.197 A 
ATOM     25  C   UNL     1      83.025  78.736 108.363  1.00  0.00     0.138 A 
ATOM     26  C   UNL     1      82.134  79.252 109.316  1.00  0.00     0.100 A 
ATOM     27  O   UNL     1      81.797  80.590 111.143  1.00  0.00    -0.289 OA
BRANCH  18  28
ATOM     28  O   UNL     1      86.440  82.548 112.161  1.00  0.00    -0.502 OA
ATOM     29  H   UNL     1      86.721  83.492 111.930  1.00  0.00     0.293 HD
ENDBRANCH  18  28
BRANCH  20  30
ATOM     30  O   UNL     1      83.721  81.954 112.238  1.00  0.00    -0.504 OA
ATOM     31  H   UNL     1      82.721  81.805 112.279  1.00  0.00     0.293 HD
ENDBRANCH  20  30
BRANCH  25  32
ATOM     32  C   UNL     1      82.581  77.796 107.302  1.00  0.00     0.017 A 
ATOM     33  C   UNL     1      82.593  76.411 107.555  1.00  0.00     0.012 A 
ATOM     34  C   UNL     1      82.176  78.249 106.031  1.00  0.00     0.012 A 
ATOM     35  C   UNL     1      82.188  75.506 106.570  1.00  0.00     0.001 A 
ATOM     36  C   UNL     1      81.772  77.339 105.049  1.00  0.00     0.001 A 
ATOM     37  C   UNL     1      81.776  75.969 105.319  1.00  0.00     0.000 A 
ENDBRANCH  25  32
ENDBRANCH   1  17
TORSDOF 9
ENDMDL
MODEL 2
REMARK VINA RESULT:    -7.926      3.737      7.130
REMARK INTER + INTRA:         -11.949
REMARK INTER:                 -10.959
REMARK INTRA:                  -0.990
REMARK UNBOUND:                -1.010
REMARK SMILES O=C([O-])[C@H]1O[C@H](Oc2cc3oc(-c4ccccc4)cc(=O)c3c(O)c2O)[C@H](O)[C@H](O)[C@H]1O
REMARK SMILES IDX 7 1 6 2 4 3 31 4 5 5 29 6 27 7 2 8 1 9 3 10 32 11 30 13
REMARK SMILES IDX 28 15 8 17 25 18 9 19 23 20 10 21 22 22 11 23 20 24 12 25
REMARK SMILES IDX 19 26 21 27 26 28 24 30 13 32 14 33 18 34 15 35 17 36 16 37
REMARK H PARENT 32 12 30 14 28 16 26 29 24 31
REMARK Flexibility Score: inf
ROOT
ATOM      1  O   UNL     1      81.543  81.708 106.928  1.00  0.00    -0.458 OA
ENDROOT
BRANCH   1   2
ATOM      2  C   UNL     1      81.265  81.577 108.329  1.00  0.00     0.339 C 
ATOM      3  C   UNL     1      83.550  81.617 108.875  1.00  0.00     0.199 C 
ATOM      4  C   UNL     1      83.456  82.976 109.605  1.00  0.00     0.180 C 
ATOM      5  O   UNL     1      82.329  80.895 108.975  1.00  0.00    -0.328 OA
ATOM      6  C   UNL     1      82.296  83.797 109.021  1.00  0.00     0.181 C 
ATOM      7  C   UNL     1      81.011  82.949 109.002  1.00  0.00     0.214 C 
BRANCH   3   8
ATOM      8  C   UNL     1      84.664  80.789 109.447  1.00  0.00     0.073 C 
ATOM      9  O   UNL     1      84.606  79.531 109.423  1.00  0.00    -0.547 OA
ATOM     10  O   UNL     1      85.747  81.413 110.056  1.00  0.00    -0.547 OA
ENDBRANCH   3   8
BRANCH   4  11
ATOM     11  O   UNL     1      83.232  82.781 110.982  1.00  0.00    -0.387 OA
ATOM     12  H   UNL     1      82.316  82.412 111.080  1.00  0.00     0.211 HD
ENDBRANCH   4  11
BRANCH   6  13
ATOM     13  O   UNL     1      82.634  84.221 107.722  1.00  0.00    -0.387 OA
ATOM     14  H   UNL     1      82.739  83.404 107.168  1.00  0.00     0.211 HD
ENDBRANCH   6  13
BRANCH   7  15
ATOM     15  O   UNL     1      79.984  83.653 108.353  1.00  0.00    -0.384 OA
ATOM     16  H   UNL     1      79.134  83.192 108.576  1.00  0.00     0.211 HD
ENDBRANCH   7  15
ENDBRANCH   1   2
BRANCH   1  17
ATOM     17  C   UNL     1      81.637  80.671 105.983  1.00  0.00     0.172 A 
ATOM     18  C   UNL     1      81.635  81.010 104.619  1.00  0.00     0.201 A 
ATOM     19  C   UNL     1      81.749  79.320 106.355  1.00  0.00     0.098 A 
ATOM     20  C   UNL     1      81.729  80.011 103.632  1.00  0.00     0.176 A 
ATOM     21  C   UNL     1      81.842  78.320 105.386  1.00  0.00     0.146 A 
ATOM     22  C   UNL     1      81.830  78.653 104.013  1.00  0.00     0.111 A 
ATOM     23  O   UNL     1      81.941  77.052 105.774  1.00  0.00    -0.456 OA
ATOM     24  C   UNL     1      81.920  77.595 103.084  1.00  0.00     0.197 A 
ATOM     25  C   UNL     1      82.036  76.032 104.925  1.00  0.00     0.138 A 
ATOM     26  C   UNL     1      82.021  76.281 103.543  1.00  0.00     0.100 A 
ATOM     27  O   UNL     1      81.905  77.808 101.842  1.00  0.00    -0.289 OA
BRANCH  18  28
ATOM     28  O   UNL     1      81.534  82.347 104.225  1.00  0.00    -0.502 OA
ATOM     29  H   UNL     1      81.635  82.640 103.262  1.00  0.00     0.293 HD
ENDBRANCH  18  28
BRANCH  20  30
ATOM     30  O   UNL     1      81.722  80.364 102.280  1.00  0.00    -0.504 OA
ATOM     31  H   UNL     1      82.052  81.263 101.950  1.00  0.00     0.293 HD
ENDBRANCH  20  30
BRANCH  25  32
ATOM     32  C   UNL     1      82.141  74.656 105.472  1.00  0.00     0.017 A 
ATOM     33  C   UNL     1      81.753  73.562 104.676  1.00  0.00     0.012 A 
ATOM     34  C   UNL     1      82.592  74.412 106.786  1.00  0.00     0.012 A 
ATOM     35  C   UNL     1      81.834  72.258 105.173  1.00  0.00     0.001 A 
ATOM     36  C   UNL     1      82.671  73.105 107.277  1.00  0.00     0.001 A 
ATOM     37  C   UNL     1      82.296  72.029 106.471  1.00  0.00     0.000 A 
ENDBRANCH  25  32
ENDBRANCH   1  17
TORSDOF 9
ENDMDL
MODEL 3
REMARK VINA RESULT:    -7.925      2.577      5.792
REMARK INTER + INTRA:         -11.947
REMARK INTER:                 -10.545
REMARK INTRA:                  -1.402
REMARK UNBOUND:                -1.010
REMARK SMILES O=C([O-])[C@H]1O[C@H](Oc2cc3oc(-c4ccccc4)cc(=O)c3c(O)c2O)[C@H](O)[C@H](O)[C@H]1O
REMARK SMILES IDX 7 1 6 2 4 3 31 4 5 5 29 6 27 7 2 8 1 9 3 10 32 11 30 13
REMARK SMILES IDX 28 15 8 17 25 18 9 19 23 20 10 21 22 22 11 23 20 24 12 25
REMARK SMILES IDX 19 26 21 27 26 28 24 30 13 32 14 33 18 34 15 35 17 36 16 37
REMARK H PARENT 32 12 30 14 28 16 26 29 24 31
REMARK Flexibility Score: inf
ROOT
ATOM      1  O   UNL     1      87.578  80.110 109.191  1.00  0.00    -0.458 OA
ENDROOT
BRANCH   1   2
ATOM      2  C   UNL     1      88.317  81.230 108.686  1.00  0.00     0.339 C 
ATOM      3  C   UNL     1      90.255  80.587 109.850  1.00  0.00     0.199 C 
ATOM      4  C   UNL     1      91.044  80.262 108.560  1.00  0.00     0.180 C 
ATOM      5  O   UNL     1      89.308  81.623 109.623  1.00  0.00    -0.328 OA
ATOM      6  C   UNL     1      90.067  79.863 107.444  1.00  0.00     0.181 C 
ATOM      7  C   UNL     1      88.962  80.928 107.310  1.00  0.00     0.214 C 
BRANCH   3   8
ATOM      8  C   UNL     1      91.190  81.001 110.948  1.00  0.00     0.073 C 
ATOM      9  O   UNL     1      91.585  80.164 111.803  1.00  0.00    -0.547 OA
ATOM     10  O   UNL     1      91.585  82.330 111.056  1.00  0.00    -0.547 OA
ENDBRANCH   3   8
BRANCH   4  11
ATOM     11  O   UNL     1      91.787  81.382 108.142  1.00  0.00    -0.387 OA
ATOM     12  H   UNL     1      91.594  82.117 108.782  1.00  0.00     0.211 HD
ENDBRANCH   4  11
BRANCH   6  13
ATOM     13  O   UNL     1      89.514  78.603 107.736  1.00  0.00    -0.387 OA
ATOM     14  H   UNL     1      89.947  77.947 107.130  1.00  0.00     0.211 HD
ENDBRANCH   6  13
BRANCH   7  15
ATOM     15  O   UNL     1      88.000  80.502 106.379  1.00  0.00    -0.384 OA
ATOM     16  H   UNL     1      87.506  79.752 106.800  1.00  0.00     0.211 HD
ENDBRANCH   7  15
ENDBRANCH   1   2
BRANCH   1  17
ATOM     17  C   UNL     1      86.250  80.111 109.656  1.00  0.00     0.172 A 
ATOM     18  C   UNL     1      85.233  79.724 108.766  1.00  0.00     0.201 A 
ATOM     19  C   UNL     1      85.913  80.467 110.973  1.00  0.00     0.098 A 
ATOM     20  C   UNL     1      83.888  79.705 109.181  1.00  0.00     0.176 A 
ATOM     21  C   UNL     1      84.583  80.453 111.396  1.00  0.00     0.146 A 
ATOM     22  C   UNL     1      83.555  80.075 110.505  1.00  0.00     0.111 A 
ATOM     23  O   UNL     1      84.301  80.801 112.647  1.00  0.00    -0.456 OA
ATOM     24  C   UNL     1      82.231  80.090 110.992  1.00  0.00     0.197 A 
ATOM     25  C   UNL     1      83.065  80.817 113.142  1.00  0.00     0.138 A 
ATOM     26  C   UNL     1      81.987  80.465 112.314  1.00  0.00     0.100 A 
ATOM     27  O   UNL     1      81.256  79.777 110.257  1.00  0.00    -0.289 OA
BRANCH  18  28
ATOM     28  O   UNL     1      85.545  79.358 107.455  1.00  0.00    -0.502 OA
ATOM     29  H   UNL     1      84.913  78.821 106.875  1.00  0.00     0.293 HD
ENDBRANCH  18  28
BRANCH  20  30
ATOM     30  O   UNL     1      82.888  79.322 108.284  1.00  0.00    -0.504 OA
ATOM     31  H   UNL     1      81.926  79.180 108.568  1.00  0.00     0.293 HD
ENDBRANCH  20  30
BRANCH  25  32
ATOM     32  C   UNL     1      82.868  81.224 114.556  1.00  0.00     0.017 A 
ATOM     33  C   UNL     1      81.832  80.637 115.307  1.00  0.00     0.012 A 
ATOM     34  C   UNL     1      83.672  82.209 115.164  1.00  0.00     0.012 A 
ATOM     35  C   UNL     1      81.621  81.010 116.638  1.00  0.00     0.001 A 
ATOM     36  C   UNL     1      83.455  82.578 116.496  1.00  0.00     0.001 A 
ATOM     37  C   UNL     1      82.433  81.978 117.232  1.00  0.00     0.000 A 
ENDBRANCH  25  32
ENDBRANCH   1  17
TORSDOF 9
ENDMDL
MODEL 4
REMARK VINA RESULT:    -7.814      2.225      4.592
REMARK INTER + INTRA:         -11.794
REMARK INTER:                 -10.672
REMARK INTRA:                  -1.122
REMARK UNBOUND:                -1.010
REMARK SMILES O=C([O-])[C@H]1O[C@H](Oc2cc3oc(-c4ccccc4)cc(=O)c3c(O)c2O)[C@H](O)[C@H](O)[C@H]1O
REMARK SMILES IDX 7 1 6 2 4 3 31 4 5 5 29 6 27 7 2 8 1 9 3 10 32 11 30 13
REMARK SMILES IDX 28 15 8 17 25 18 9 19 23 20 10 21 22 22 11 23 20 24 12 25
REMARK SMILES IDX 19 26 21 27 26 28 24 30 13 32 14 33 18 34 15 35 17 36 16 37
REMARK H PARENT 32 12 30 14 28 16 26 29 24 31
REMARK Flexibility Score: inf
ROOT
ATOM      1  O   UNL     1      83.483  80.796 110.278  1.00  0.00    -0.458 OA
ENDROOT
BRANCH   1   2
ATOM      2  C   UNL     1      84.630  80.376 111.030  1.00  0.00     0.339 C 
ATOM      3  C   UNL     1      86.108  81.183 109.392  1.00  0.00     0.199 C 
ATOM      4  C   UNL     1      86.675  82.294 110.305  1.00  0.00     0.180 C 
ATOM      5  O   UNL     1      85.697  80.054 110.152  1.00  0.00    -0.328 OA
ATOM      6  C   UNL     1      85.616  82.700 111.342  1.00  0.00     0.181 C 
ATOM      7  C   UNL     1      85.075  81.447 112.057  1.00  0.00     0.214 C 
BRANCH   3   8
ATOM      8  C   UNL     1      87.136  80.756 108.384  1.00  0.00     0.073 C 
ATOM      9  O   UNL     1      87.983  79.868 108.670  1.00  0.00    -0.547 OA
ATOM     10  O   UNL     1      87.189  81.379 107.143  1.00  0.00    -0.547 OA
ENDBRANCH   3   8
BRANCH   4  11
ATOM     11  O   UNL     1      87.825  81.840 110.977  1.00  0.00    -0.387 OA
ATOM     12  H   UNL     1      88.605  82.050 110.399  1.00  0.00     0.211 HD
ENDBRANCH   4  11
BRANCH   6  13
ATOM     13  O   UNL     1      84.577  83.396 110.699  1.00  0.00    -0.387 OA
ATOM     14  H   UNL     1      84.851  84.349 110.649  1.00  0.00     0.211 HD
ENDBRANCH   6  13
BRANCH   7  15
ATOM     15  O   UNL     1      84.020  81.805 112.912  1.00  0.00    -0.384 OA
ATOM     16  H   UNL     1      84.236  81.432 113.805  1.00  0.00     0.211 HD
ENDBRANCH   7  15
ENDBRANCH   1   2
BRANCH   1  17
ATOM     17  C   UNL     1      83.032  80.266 109.055  1.00  0.00     0.172 A 
ATOM     18  C   UNL     1      82.610  81.161 108.056  1.00  0.00     0.201 A 
ATOM     19  C   UNL     1      83.007  78.884 108.796  1.00  0.00     0.098 A 
ATOM     20  C   UNL     1      82.152  80.682 106.814  1.00  0.00     0.176 A 
ATOM     21  C   UNL     1      82.554  78.398 107.569  1.00  0.00     0.146 A 
ATOM     22  C   UNL     1      82.119  79.291 106.564  1.00  0.00     0.111 A 
ATOM     23  O   UNL     1      82.538  77.086 107.361  1.00  0.00    -0.456 OA
ATOM     24  C   UNL     1      81.666  78.735 105.350  1.00  0.00     0.197 A 
ATOM     25  C   UNL     1      82.126  76.529 106.225  1.00  0.00     0.138 A 
ATOM     26  C   UNL     1      81.668  77.350 105.182  1.00  0.00     0.100 A 
ATOM     27  O   UNL     1      81.251  79.463 104.408  1.00  0.00    -0.289 OA
BRANCH  18  28
ATOM     28  O   UNL     1      82.635  82.538 108.288  1.00  0.00    -0.502 OA
ATOM     29  H   UNL     1      83.366  82.986 108.825  1.00  0.00     0.293 HD
ENDBRANCH  18  28
BRANCH  20  30
ATOM     30  O   UNL     1      81.732  81.584 105.833  1.00  0.00    -0.504 OA
ATOM     31  H   UNL     1      80.762  81.677 105.557  1.00  0.00     0.293 HD
ENDBRANCH  20  30
BRANCH  25  32
ATOM     32  C   UNL     1      82.152  75.050 106.104  1.00  0.00     0.017 A 
ATOM     33  C   UNL     1      81.714  74.444 104.912  1.00  0.00     0.012 A 
ATOM     34  C   UNL     1      82.576  74.226 107.167  1.00  0.00     0.012 A 
ATOM     35  C   UNL     1      81.721  73.052 104.778  1.00  0.00     0.001 A 
ATOM     36  C   UNL     1      82.580  72.834 107.027  1.00  0.00     0.001 A 
ATOM     37  C   UNL     1      82.156  72.248 105.833  1.00  0.00     0.000 A 
ENDBRANCH  25  32
ENDBRANCH   1  17
TORSDOF 9
ENDMDL
MODEL 5
REMARK VINA RESULT:    -7.711      6.246      8.057
REMARK INTER + INTRA:         -11.652
REMARK INTER:                 -10.598
REMARK INTRA:                  -1.054
REMARK UNBOUND:                -1.010
REMARK SMILES O=C([O-])[C@H]1O[C@H](Oc2cc3oc(-c4ccccc4)cc(=O)c3c(O)c2O)[C@H](O)[C@H](O)[C@H]1O
REMARK SMILES IDX 7 1 6 2 4 3 31 4 5 5 29 6 27 7 2 8 1 9 3 10 32 11 30 13
REMARK SMILES IDX 28 15 8 17 25 18 9 19 23 20 10 21 22 22 11 23 20 24 12 25
REMARK SMILES IDX 19 26 21 27 26 28 24 30 13 32 14 33 18 34 15 35 17 36 16 37
REMARK H PARENT 32 12 30 14 28 16 26 29 24 31
REMARK Flexibility Score: inf
ROOT
ATOM      1  O   UNL     1      82.900  86.834 106.799  1.00  0.00    -0.458 OA
ENDROOT
BRANCH   1   2
ATOM      2  C   UNL     1      83.964  87.532 106.139  1.00  0.00     0.339 C 
ATOM      3  C   UNL     1      83.061  87.080 104.018  1.00  0.00     0.199 C 
ATOM      4  C   UNL     1      82.729  88.562 103.731  1.00  0.00     0.180 C 
ATOM      5  O   UNL     1      84.200  86.963 104.860  1.00  0.00    -0.328 OA
ATOM      6  C   UNL     1      82.496  89.305 105.056  1.00  0.00     0.181 C 
ATOM      7  C   UNL     1      83.674  89.049 106.014  1.00  0.00     0.214 C 
BRANCH   3   8
ATOM      8  C   UNL     1      83.314  86.341 102.736  1.00  0.00     0.073 C 
ATOM      9  O   UNL     1      82.610  85.346 102.420  1.00  0.00    -0.547 OA
ATOM     10  O   UNL     1      84.368  86.723 101.913  1.00  0.00    -0.547 OA
ENDBRANCH   3   8
BRANCH   4  11
ATOM     11  O   UNL     1      83.788  89.179 103.039  1.00  0.00    -0.387 OA
ATOM     12  H   UNL     1      83.411  89.548 102.197  1.00  0.00     0.211 HD
ENDBRANCH   4  11
BRANCH   6  13
ATOM     13  O   UNL     1      81.285  88.871 105.626  1.00  0.00    -0.387 OA
ATOM     14  H   UNL     1      81.313  89.115 106.588  1.00  0.00     0.211 HD
ENDBRANCH   6  13
BRANCH   7  15
ATOM     15  O   UNL     1      83.403  89.621 107.267  1.00  0.00    -0.384 OA
ATOM     16  H   UNL     1      84.213  89.490 107.824  1.00  0.00     0.211 HD
ENDBRANCH   7  15
ENDBRANCH   1   2
BRANCH   1  17
ATOM     17  C   UNL     1      83.020  85.742 107.678  1.00  0.00     0.172 A 
ATOM     18  C   UNL     1      81.923  85.420 108.496  1.00  0.00     0.201 A 
ATOM     19  C   UNL     1      84.185  84.957 107.750  1.00  0.00     0.098 A 
ATOM     20  C   UNL     1      81.991  84.336 109.391  1.00  0.00     0.176 A 
ATOM     21  C   UNL     1      84.264  83.880 108.634  1.00  0.00     0.146 A 
ATOM     22  C   UNL     1      83.169  83.558 109.467  1.00  0.00     0.111 A 
ATOM     23  O   UNL     1      85.383  83.164 108.680  1.00  0.00    -0.456 OA
ATOM     24  C   UNL     1      83.316  82.462 110.343  1.00  0.00     0.197 A 
ATOM     25  C   UNL     1      85.551  82.119 109.487  1.00  0.00     0.138 A 
ATOM     26  C   UNL     1      84.512  81.744 110.353  1.00  0.00     0.100 A 
ATOM     27  O   UNL     1      82.390  82.117 111.126  1.00  0.00    -0.289 OA
BRANCH  18  28
ATOM     28  O   UNL     1      80.752  86.180 108.435  1.00  0.00    -0.502 OA
ATOM     29  H   UNL     1      79.925  85.949 108.971  1.00  0.00     0.293 HD
ENDBRANCH  18  28
BRANCH  20  30
ATOM     30  O   UNL     1      80.893  84.032 110.201  1.00  0.00    -0.504 OA
ATOM     31  H   UNL     1      80.193  84.720 110.451  1.00  0.00     0.293 HD
ENDBRANCH  20  30
BRANCH  25  32
ATOM     32  C   UNL     1      86.846  81.393 109.453  1.00  0.00     0.017 A 
ATOM     33  C   UNL     1      87.890  81.801 110.303  1.00  0.00     0.012 A 
ATOM     34  C   UNL     1      87.072  80.320 108.567  1.00  0.00     0.012 A 
ATOM     35  C   UNL     1      89.122  81.139 110.283  1.00  0.00     0.001 A 
ATOM     36  C   UNL     1      88.306  79.662 108.552  1.00  0.00     0.001 A 
ATOM     37  C   UNL     1      89.328  80.068 109.410  1.00  0.00     0.000 A 
ENDBRANCH  25  32
ENDBRANCH   1  17
TORSDOF 9
ENDMDL
MODEL 6
REMARK VINA RESULT:    -7.607      3.557      5.886
REMARK INTER + INTRA:         -11.508
REMARK INTER:                 -10.731
REMARK INTRA:                  -0.776
REMARK UNBOUND:                -1.010
REMARK SMILES O=C([O-])[C@H]1O[C@H](Oc2cc3oc(-c4ccccc4)cc(=O)c3c(O)c2O)[C@H](O)[C@H](O)[C@H]1O
REMARK SMILES IDX 7 1 6 2 4 3 31 4 5 5 29 6 27 7 2 8 1 9 3 10 32 11 30 13
REMARK SMILES IDX 28 15 8 17 25 18 9 19 23 20 10 21 22 22 11 23 20 24 12 25
REMARK SMILES IDX 19 26 21 27 26 28 24 30 13 32 14 33 18 34 15 35 17 36 16 37
REMARK H PARENT 32 12 30 14 28 16 26 29 24 31
REMARK Flexibility Score: inf
ROOT
ATOM      1  O   UNL     1      84.635  81.785 108.800  1.00  0.00    -0.458 OA
ENDROOT
BRANCH   1   2
ATOM      2  C   UNL     1      84.147  82.610 109.867  1.00  0.00     0.339 C 
ATOM      3  C   UNL     1      83.047  80.798 110.881  1.00  0.00     0.199 C 
ATOM      4  C   UNL     1      83.973  80.799 112.120  1.00  0.00     0.180 C 
ATOM      5  O   UNL     1      82.909  82.107 110.345  1.00  0.00    -0.328 OA
ATOM      6  C   UNL     1      85.346  81.372 111.738  1.00  0.00     0.181 C 
ATOM      7  C   UNL     1      85.169  82.726 111.026  1.00  0.00     0.214 C 
BRANCH   3   8
ATOM      8  C   UNL     1      81.691  80.262 111.239  1.00  0.00     0.073 C 
ATOM      9  O   UNL     1      81.496  79.701 112.349  1.00  0.00    -0.547 OA
ATOM     10  O   UNL     1      80.653  80.337 110.317  1.00  0.00    -0.547 OA
ENDBRANCH   3   8
BRANCH   4  11
ATOM     11  O   UNL     1      83.418  81.583 113.149  1.00  0.00    -0.387 OA
ATOM     12  H   UNL     1      83.665  82.527 112.963  1.00  0.00     0.211 HD
ENDBRANCH   4  11
BRANCH   6  13
ATOM     13  O   UNL     1      86.019  80.456 110.910  1.00  0.00    -0.387 OA
ATOM     14  H   UNL     1      86.989  80.545 111.104  1.00  0.00     0.211 HD
ENDBRANCH   6  13
BRANCH   7  15
ATOM     15  O   UNL     1      86.412  83.189 110.565  1.00  0.00    -0.384 OA
ATOM     16  H   UNL     1      87.089  82.908 111.235  1.00  0.00     0.211 HD
ENDBRANCH   7  15
ENDBRANCH   1   2
BRANCH   1  17
ATOM     17  C   UNL     1      83.867  81.096 107.844  1.00  0.00     0.172 A 
ATOM     18  C   UNL     1      83.166  81.848 106.885  1.00  0.00     0.201 A 
ATOM     19  C   UNL     1      83.794  79.693 107.805  1.00  0.00     0.098 A 
ATOM     20  C   UNL     1      82.385  81.207 105.904  1.00  0.00     0.176 A 
ATOM     21  C   UNL     1      83.022  79.046 106.839  1.00  0.00     0.146 A 
ATOM     22  C   UNL     1      82.307  79.795 105.878  1.00  0.00     0.111 A 
ATOM     23  O   UNL     1      82.972  77.718 106.836  1.00  0.00    -0.456 OA
ATOM     24  C   UNL     1      81.540  79.082 104.934  1.00  0.00     0.197 A 
ATOM     25  C   UNL     1      82.267  77.014 105.954  1.00  0.00     0.138 A 
ATOM     26  C   UNL     1      81.519  77.687 104.975  1.00  0.00     0.100 A 
ATOM     27  O   UNL     1      80.865  79.677 104.051  1.00  0.00    -0.289 OA
BRANCH  18  28
ATOM     28  O   UNL     1      83.231  83.243 106.898  1.00  0.00    -0.502 OA
ATOM     29  H   UNL     1      84.104  83.748 106.804  1.00  0.00     0.293 HD
ENDBRANCH  18  28
BRANCH  20  30
ATOM     30  O   UNL     1      81.691  81.968 104.961  1.00  0.00    -0.504 OA
ATOM     31  H   UNL     1      82.026  82.865 104.630  1.00  0.00     0.293 HD
ENDBRANCH  20  30
BRANCH  25  32
ATOM     32  C   UNL     1      82.283  75.532 106.047  1.00  0.00     0.017 A 
ATOM     33  C   UNL     1      82.960  74.913 107.115  1.00  0.00     0.012 A 
ATOM     34  C   UNL     1      81.665  74.720 105.075  1.00  0.00     0.012 A 
ATOM     35  C   UNL     1      82.997  73.520 107.219  1.00  0.00     0.001 A 
ATOM     36  C   UNL     1      81.706  73.327 105.185  1.00  0.00     0.001 A 
ATOM     37  C   UNL     1      82.368  72.727 106.257  1.00  0.00     0.000 A 
ENDBRANCH  25  32
ENDBRANCH   1  17
TORSDOF 9
ENDMDL
MODEL 7
REMARK VINA RESULT:    -7.582      3.406      6.764
REMARK INTER + INTRA:         -11.473
REMARK INTER:                 -10.261
REMARK INTRA:                  -1.212
REMARK UNBOUND:                -1.010
REMARK SMILES O=C([O-])[C@H]1O[C@H](Oc2cc3oc(-c4ccccc4)cc(=O)c3c(O)c2O)[C@H](O)[C@H](O)[C@H]1O
REMARK SMILES IDX 7 1 6 2 4 3 31 4 5 5 29 6 27 7 2 8 1 9 3 10 32 11 30 13
REMARK SMILES IDX 28 15 8 17 25 18 9 19 23 20 10 21 22 22 11 23 20 24 12 25
REMARK SMILES IDX 19 26 21 27 26 28 24 30 13 32 14 33 18 34 15 35 17 36 16 37
REMARK H PARENT 32 12 30 14 28 16 26 29 24 31
REMARK Flexibility Score: inf
ROOT
ATOM      1  O   UNL     1      83.654  81.470 108.279  1.00  0.00    -0.458 OA
ENDROOT
BRANCH   1   2
ATOM      2  C   UNL     1      82.804  82.350 107.529  1.00  0.00     0.339 C 
ATOM      3  C   UNL     1      81.378  82.680 109.368  1.00  0.00     0.199 C 
ATOM      4  C   UNL     1      81.758  84.170 109.523  1.00  0.00     0.180 C 
ATOM      5  O   UNL     1      81.472  82.266 108.010  1.00  0.00    -0.328 OA
ATOM      6  C   UNL     1      83.180  84.400 108.988  1.00  0.00     0.181 C 
ATOM      7  C   UNL     1      83.305  83.815 107.568  1.00  0.00     0.214 C 
BRANCH   3   8
ATOM      8  C   UNL     1      79.983  82.438 109.865  1.00  0.00     0.073 C 
ATOM      9  O   UNL     1      79.163  83.390 109.962  1.00  0.00    -0.547 OA
ATOM     10  O   UNL     1      79.605  81.164 110.273  1.00  0.00    -0.547 OA
ENDBRANCH   3   8
BRANCH   4  11
ATOM     11  O   UNL     1      80.861  84.985 108.808  1.00  0.00    -0.387 OA
ATOM     12  H   UNL     1      81.336  85.832 108.601  1.00  0.00     0.211 HD
ENDBRANCH   4  11
BRANCH   6  13
ATOM     13  O   UNL     1      84.108  83.801 109.858  1.00  0.00    -0.387 OA
ATOM     14  H   UNL     1      84.696  83.222 109.305  1.00  0.00     0.211 HD
ENDBRANCH   6  13
BRANCH   7  15
ATOM     15  O   UNL     1      84.636  83.911 107.129  1.00  0.00    -0.384 OA
ATOM     16  H   UNL     1      84.839  84.878 107.038  1.00  0.00     0.211 HD
ENDBRANCH   7  15
ENDBRANCH   1   2
BRANCH   1  17
ATOM     17  C   UNL     1      84.348  80.346 107.794  1.00  0.00     0.172 A 
ATOM     18  C   UNL     1      85.730  80.464 107.566  1.00  0.00     0.201 A 
ATOM     19  C   UNL     1      83.713  79.116 107.551  1.00  0.00     0.098 A 
ATOM     20  C   UNL     1      86.472  79.368 107.085  1.00  0.00     0.176 A 
ATOM     21  C   UNL     1      84.437  78.024 107.072  1.00  0.00     0.146 A 
ATOM     22  C   UNL     1      85.824  78.137 106.831  1.00  0.00     0.111 A 
ATOM     23  O   UNL     1      83.803  76.877 106.847  1.00  0.00    -0.456 OA
ATOM     24  C   UNL     1      86.497  76.999 106.340  1.00  0.00     0.197 A 
ATOM     25  C   UNL     1      84.408  75.782 106.394  1.00  0.00     0.138 A 
ATOM     26  C   UNL     1      85.784  75.819 106.120  1.00  0.00     0.100 A 
ATOM     27  O   UNL     1      87.732  77.021 106.089  1.00  0.00    -0.289 OA
BRANCH  18  28
ATOM     28  O   UNL     1      86.384  81.674 107.810  1.00  0.00    -0.502 OA
ATOM     29  H   UNL     1      86.773  82.241 107.068  1.00  0.00     0.293 HD
ENDBRANCH  18  28
BRANCH  20  30
ATOM     30  O   UNL     1      87.844  79.503 106.859  1.00  0.00    -0.504 OA
ATOM     31  H   UNL     1      88.220  79.904 106.009  1.00  0.00     0.293 HD
ENDBRANCH  20  30
BRANCH  25  32
ATOM     32  C   UNL     1      83.598  74.557 106.179  1.00  0.00     0.017 A 
ATOM     33  C   UNL     1      83.192  74.215 104.876  1.00  0.00     0.012 A 
ATOM     34  C   UNL     1      83.194  73.736 107.252  1.00  0.00     0.012 A 
ATOM     35  C   UNL     1      82.421  73.071 104.649  1.00  0.00     0.001 A 
ATOM     36  C   UNL     1      82.423  72.593 107.019  1.00  0.00     0.001 A 
ATOM     37  C   UNL     1      82.039  72.259 105.719  1.00  0.00     0.000 A 
ENDBRANCH  25  32
ENDBRANCH   1  17
TORSDOF 9
ENDMDL
MODEL 8
REMARK VINA RESULT:    -7.576      4.961      5.917
REMARK INTER + INTRA:         -11.465
REMARK INTER:                 -10.034
REMARK INTRA:                  -1.431
REMARK UNBOUND:                -1.010
REMARK SMILES O=C([O-])[C@H]1O[C@H](Oc2cc3oc(-c4ccccc4)cc(=O)c3c(O)c2O)[C@H](O)[C@H](O)[C@H]1O
REMARK SMILES IDX 7 1 6 2 4 3 31 4 5 5 29 6 27 7 2 8 1 9 3 10 32 11 30 13
REMARK SMILES IDX 28 15 8 17 25 18 9 19 23 20 10 21 22 22 11 23 20 24 12 25
REMARK SMILES IDX 19 26 21 27 26 28 24 30 13 32 14 33 18 34 15 35 17 36 16 37
REMARK H PARENT 32 12 30 14 28 16 26 29 24 31
REMARK Flexibility Score: inf
ROOT
ATOM      1  O   UNL     1      83.242  84.605 106.758  1.00  0.00    -0.458 OA
ENDROOT
BRANCH   1   2
ATOM      2  C   UNL     1      84.487  85.040 106.194  1.00  0.00     0.339 C 
ATOM      3  C   UNL     1      83.415  85.953 104.313  1.00  0.00     0.199 C 
ATOM      4  C   UNL     1      83.777  87.409 104.688  1.00  0.00     0.180 C 
ATOM      5  O   UNL     1      84.404  85.044 104.777  1.00  0.00    -0.328 OA
ATOM      6  C   UNL     1      83.941  87.524 106.211  1.00  0.00     0.181 C 
ATOM      7  C   UNL     1      84.906  86.436 106.717  1.00  0.00     0.214 C 
BRANCH   3   8
ATOM      8  C   UNL     1      83.271  85.814 102.825  1.00  0.00     0.073 C 
ATOM      9  O   UNL     1      83.218  86.834 102.088  1.00  0.00    -0.547 OA
ATOM     10  O   UNL     1      83.144  84.551 102.258  1.00  0.00    -0.547 OA
ENDBRANCH   3   8
BRANCH   4  11
ATOM     11  O   UNL     1      84.979  87.794 104.065  1.00  0.00    -0.387 OA
ATOM     12  H   UNL     1      85.141  87.156 103.321  1.00  0.00     0.211 HD
ENDBRANCH   4  11
BRANCH   6  13
ATOM     13  O   UNL     1      82.682  87.401 106.826  1.00  0.00    -0.387 OA
ATOM     14  H   UNL     1      82.805  86.830 107.629  1.00  0.00     0.211 HD
ENDBRANCH   6  13
BRANCH   7  15
ATOM     15  O   UNL     1      84.958  86.460 108.121  1.00  0.00    -0.384 OA
ATOM     16  H   UNL     1      85.571  87.198 108.372  1.00  0.00     0.211 HD
ENDBRANCH   7  15
ENDBRANCH   1   2
BRANCH   1  17
ATOM     17  C   UNL     1      83.000  83.408 107.457  1.00  0.00     0.172 A 
ATOM     18  C   UNL     1      82.891  83.465 108.857  1.00  0.00     0.201 A 
ATOM     19  C   UNL     1      82.848  82.172 106.804  1.00  0.00     0.098 A 
ATOM     20  C   UNL     1      82.647  82.297 109.604  1.00  0.00     0.176 A 
ATOM     21  C   UNL     1      82.607  81.007 107.534  1.00  0.00     0.146 A 
ATOM     22  C   UNL     1      82.506  81.055 108.942  1.00  0.00     0.111 A 
ATOM     23  O   UNL     1      82.475  79.855 106.884  1.00  0.00    -0.456 OA
ATOM     24  C   UNL     1      82.269  79.841 109.620  1.00  0.00     0.197 A 
ATOM     25  C   UNL     1      82.241  78.695 107.492  1.00  0.00     0.138 A 
ATOM     26  C   UNL     1      82.139  78.658 108.892  1.00  0.00     0.100 A 
ATOM     27  O   UNL     1      82.177  79.797 110.877  1.00  0.00    -0.289 OA
BRANCH  18  28
ATOM     28  O   UNL     1      83.029  84.683 109.526  1.00  0.00    -0.502 OA
ATOM     29  H   UNL     1      83.209  85.553 109.040  1.00  0.00     0.293 HD
ENDBRANCH  18  28
BRANCH  20  30
ATOM     30  O   UNL     1      82.545  82.369 110.995  1.00  0.00    -0.504 OA
ATOM     31  H   UNL     1      82.908  83.149 111.528  1.00  0.00     0.293 HD
ENDBRANCH  20  30
BRANCH  25  32
ATOM     32  C   UNL     1      82.111  77.469 106.664  1.00  0.00     0.017 A 
ATOM     33  C   UNL     1      82.235  76.206 107.272  1.00  0.00     0.012 A 
ATOM     34  C   UNL     1      81.898  77.533 105.272  1.00  0.00     0.012 A 
ATOM     35  C   UNL     1      82.125  75.038 106.512  1.00  0.00     0.001 A 
ATOM     36  C   UNL     1      81.789  76.361 104.517  1.00  0.00     0.001 A 
ATOM     37  C   UNL     1      81.900  75.115 105.136  1.00  0.00     0.000 A 
ENDBRANCH  25  32
ENDBRANCH   1  17
TORSDOF 9
ENDMDL
MODEL 9
REMARK VINA RESULT:    -7.558      5.341      8.453
REMARK INTER + INTRA:         -11.441
REMARK INTER:                  -9.884
REMARK INTRA:                  -1.556
REMARK UNBOUND:                -1.010
REMARK SMILES O=C([O-])[C@H]1O[C@H](Oc2cc3oc(-c4ccccc4)cc(=O)c3c(O)c2O)[C@H](O)[C@H](O)[C@H]1O
REMARK SMILES IDX 7 1 6 2 4 3 31 4 5 5 29 6 27 7 2 8 1 9 3 10 32 11 30 13
REMARK SMILES IDX 28 15 8 17 25 18 9 19 23 20 10 21 22 22 11 23 20 24 12 25
REMARK SMILES IDX 19 26 21 27 26 28 24 30 13 32 14 33 18 34 15 35 17 36 16 37
REMARK H PARENT 32 12 30 14 28 16 26 29 24 31
REMARK Flexibility Score: inf
ROOT
ATOM      1  O   UNL     1      82.197  77.169 105.888  1.00  0.00    -0.458 OA
ENDROOT
BRANCH   1   2
ATOM      2  C   UNL     1      83.318  76.291 105.715  1.00  0.00     0.339 C 
ATOM      3  C   UNL     1      81.946  74.554 104.925  1.00  0.00     0.199 C 
ATOM      4  C   UNL     1      82.538  74.599 103.497  1.00  0.00     0.180 C 
ATOM      5  O   UNL     1      82.912  74.942 105.893  1.00  0.00    -0.328 OA
ATOM      6  C   UNL     1      83.060  76.013 103.199  1.00  0.00     0.181 C 
ATOM      7  C   UNL     1      83.994  76.476 104.333  1.00  0.00     0.214 C 
BRANCH   3   8
ATOM      8  C   UNL     1      81.449  73.174 105.245  1.00  0.00     0.073 C 
ATOM      9  O   UNL     1      82.228  72.308 105.723  1.00  0.00    -0.547 OA
ATOM     10  O   UNL     1      80.132  72.831 104.963  1.00  0.00    -0.547 OA
ENDBRANCH   3   8
BRANCH   4  11
ATOM     11  O   UNL     1      83.599  73.682 103.375  1.00  0.00    -0.387 OA
ATOM     12  H   UNL     1      84.059  73.648 104.254  1.00  0.00     0.211 HD
ENDBRANCH   4  11
BRANCH   6  13
ATOM     13  O   UNL     1      81.971  76.892 103.058  1.00  0.00    -0.387 OA
ATOM     14  H   UNL     1      81.163  76.409 103.375  1.00  0.00     0.211 HD
ENDBRANCH   6  13
BRANCH   7  15
ATOM     15  O   UNL     1      84.369  77.814 104.125  1.00  0.00    -0.384 OA
ATOM     16  H   UNL     1      85.148  77.800 103.510  1.00  0.00     0.211 HD
ENDBRANCH   7  15
ENDBRANCH   1   2
BRANCH   1  17
ATOM     17  C   UNL     1      82.153  78.345 106.658  1.00  0.00     0.172 A 
ATOM     18  C   UNL     1      82.049  79.577 105.988  1.00  0.00     0.201 A 
ATOM     19  C   UNL     1      82.192  78.328 108.063  1.00  0.00     0.098 A 
ATOM     20  C   UNL     1      82.000  80.784 106.711  1.00  0.00     0.176 A 
ATOM     21  C   UNL     1      82.145  79.518 108.791  1.00  0.00     0.146 A 
ATOM     22  C   UNL     1      82.051  80.759 108.124  1.00  0.00     0.111 A 
ATOM     23  O   UNL     1      82.190  79.464 110.118  1.00  0.00    -0.456 OA
ATOM     24  C   UNL     1      82.014  81.925 108.917  1.00  0.00     0.197 A 
ATOM     25  C   UNL     1      82.148  80.543 110.897  1.00  0.00     0.138 A 
ATOM     26  C   UNL     1      82.066  81.815 110.308  1.00  0.00     0.100 A 
ATOM     27  O   UNL     1      81.942  83.072 108.399  1.00  0.00    -0.289 OA
BRANCH  18  28
ATOM     28  O   UNL     1      82.000  79.618 104.592  1.00  0.00    -0.502 OA
ATOM     29  H   UNL     1      82.828  79.741 104.022  1.00  0.00     0.293 HD
ENDBRANCH  18  28
BRANCH  20  30
ATOM     30  O   UNL     1      81.901  81.999 106.030  1.00  0.00    -0.504 OA
ATOM     31  H   UNL     1      81.167  82.671 106.218  1.00  0.00     0.293 HD
ENDBRANCH  20  30
BRANCH  25  32
ATOM     32  C   UNL     1      82.205  80.363 112.369  1.00  0.00     0.017 A 
ATOM     33  C   UNL     1      81.433  79.353 112.974  1.00  0.00     0.012 A 
ATOM     34  C   UNL     1      82.991  81.198 113.189  1.00  0.00     0.012 A 
ATOM     35  C   UNL     1      81.464  79.169 114.359  1.00  0.00     0.001 A 
ATOM     36  C   UNL     1      83.017  81.009 114.575  1.00  0.00     0.001 A 
ATOM     37  C   UNL     1      82.257  79.995 115.159  1.00  0.00     0.000 A 
ENDBRANCH  25  32
ENDBRANCH   1  17
TORSDOF 9
ENDMDL
