MODEL 1
REMARK VINA RESULT:    -5.903      0.000      0.000
REMARK INTER + INTRA:          -6.337
REMARK INTER:                  -6.248
REMARK INTRA:                  -0.088
REMARK UNBOUND:                -0.088
REMARK SMILES C=C(C)[C@H]1CC=C(C)C(=O)C1
REMARK SMILES IDX 8 1 7 2 6 3 5 4 4 5 11 6 9 7 10 8 2 9 1 10 3 11
REMARK H PARENT
REMARK Flexibility Score: inf
ROOT
ATOM      1  C   UNL     1     -11.916  73.019  32.674  1.00  0.00     0.048 C 
ATOM      2  C   UNL     1     -11.334  73.241  31.305  1.00  0.00    -0.012 C 
ATOM      3  C   UNL     1     -11.644  72.404  30.301  1.00  0.00    -0.019 C 
ATOM      4  C   UNL     1     -11.074  72.570  28.917  1.00  0.00     0.036 C 
ATOM      5  C   UNL     1     -10.845  74.056  28.588  1.00  0.00     0.025 C 
ATOM      6  C   UNL     1      -9.961  74.713  29.664  1.00  0.00     0.089 C 
ATOM      7  C   UNL     1     -10.519  74.453  31.036  1.00  0.00     0.158 C 
ATOM      8  O   UNL     1     -10.256  75.260  31.969  1.00  0.00    -0.295 OA
ENDROOT
BRANCH   5   9
ATOM      9  C   UNL     1     -10.251  74.233  27.197  1.00  0.00    -0.077 C 
ATOM     10  C   UNL     1     -10.754  75.158  26.362  1.00  0.00     0.008 C 
ATOM     11  C   UNL     1      -9.095  73.389  26.722  1.00  0.00     0.039 C 
ENDBRANCH   5   9
TORSDOF 1
ENDMDL
MODEL 2
REMARK VINA RESULT:    -5.706      1.965      4.584
REMARK INTER + INTRA:          -6.128
REMARK INTER:                  -6.041
REMARK INTRA:                  -0.087
REMARK UNBOUND:                -0.088
REMARK SMILES C=C(C)[C@H]1CC=C(C)C(=O)C1
REMARK SMILES IDX 8 1 7 2 6 3 5 4 4 5 11 6 9 7 10 8 2 9 1 10 3 11
REMARK H PARENT
REMARK Flexibility Score: inf
ROOT
ATOM      1  C   UNL     1     -10.536  74.957  26.239  1.00  0.00     0.048 C 
ATOM      2  C   UNL     1     -10.588  74.436  27.649  1.00  0.00    -0.012 C 
ATOM      3  C   UNL     1      -9.529  74.598  28.462  1.00  0.00    -0.019 C 
ATOM      4  C   UNL     1      -9.521  74.080  29.875  1.00  0.00     0.036 C 
ATOM      5  C   UNL     1     -10.932  74.126  30.490  1.00  0.00     0.025 C 
ATOM      6  C   UNL     1     -11.930  73.367  29.598  1.00  0.00     0.089 C 
ATOM      7  C   UNL     1     -11.848  73.857  28.178  1.00  0.00     0.158 C 
ATOM      8  O   UNL     1     -12.854  73.737  27.428  1.00  0.00    -0.295 OA
ENDROOT
BRANCH   5   9
ATOM      9  C   UNL     1     -10.937  73.587  31.914  1.00  0.00    -0.077 C 
ATOM     10  C   UNL     1     -11.260  74.393  32.939  1.00  0.00     0.008 C 
ATOM     11  C   UNL     1     -10.587  72.150  32.212  1.00  0.00     0.039 C 
ENDBRANCH   5   9
TORSDOF 1
ENDMDL
MODEL 3
REMARK VINA RESULT:    -5.672      1.732      4.788
REMARK INTER + INTRA:          -6.092
REMARK INTER:                  -6.004
REMARK INTRA:                  -0.087
REMARK UNBOUND:                -0.088
REMARK SMILES C=C(C)[C@H]1CC=C(C)C(=O)C1
REMARK SMILES IDX 8 1 7 2 6 3 5 4 4 5 11 6 9 7 10 8 2 9 1 10 3 11
REMARK H PARENT
REMARK Flexibility Score: inf
ROOT
ATOM      1  C   UNL     1     -10.122  74.911  27.543  1.00  0.00     0.048 C 
ATOM      2  C   UNL     1     -10.334  74.299  28.900  1.00  0.00    -0.012 C 
ATOM      3  C   UNL     1      -9.648  74.764  29.959  1.00  0.00    -0.019 C 
ATOM      4  C   UNL     1      -9.807  74.175  31.335  1.00  0.00     0.036 C 
ATOM      5  C   UNL     1     -11.244  73.669  31.557  1.00  0.00     0.025 C 
ATOM      6  C   UNL     1     -11.640  72.675  30.450  1.00  0.00     0.089 C 
ATOM      7  C   UNL     1     -11.387  73.270  29.092  1.00  0.00     0.158 C 
ATOM      8  O   UNL     1     -12.057  72.858  28.107  1.00  0.00    -0.295 OA
ENDROOT
BRANCH   5   9
ATOM      9  C   UNL     1     -11.411  73.055  32.941  1.00  0.00    -0.077 C 
ATOM     10  C   UNL     1     -12.359  73.517  33.773  1.00  0.00     0.008 C 
ATOM     11  C   UNL     1     -10.530  71.924  33.410  1.00  0.00     0.039 C 
ENDBRANCH   5   9
TORSDOF 1
ENDMDL
MODEL 4
REMARK VINA RESULT:    -5.473      2.035      5.205
REMARK INTER + INTRA:          -5.881
REMARK INTER:                  -5.793
REMARK INTRA:                  -0.088
REMARK UNBOUND:                -0.088
REMARK SMILES C=C(C)[C@H]1CC=C(C)C(=O)C1
REMARK SMILES IDX 8 1 7 2 6 3 5 4 4 5 11 6 9 7 10 8 2 9 1 10 3 11
REMARK H PARENT
REMARK Flexibility Score: inf
ROOT
ATOM      1  C   UNL     1     -11.340  74.246  28.451  1.00  0.00     0.048 C 
ATOM      2  C   UNL     1     -11.139  73.859  29.890  1.00  0.00    -0.012 C 
ATOM      3  C   UNL     1     -10.861  74.805  30.805  1.00  0.00    -0.019 C 
ATOM      4  C   UNL     1     -10.632  74.471  32.255  1.00  0.00     0.036 C 
ATOM      5  C   UNL     1     -11.482  73.261  32.685  1.00  0.00     0.025 C 
ATOM      6  C   UNL     1     -11.211  72.060  31.760  1.00  0.00     0.089 C 
ATOM      7  C   UNL     1     -11.368  72.456  30.318  1.00  0.00     0.158 C 
ATOM      8  O   UNL     1     -11.664  71.575  29.468  1.00  0.00    -0.295 OA
ENDROOT
BRANCH   5   9
ATOM      9  C   UNL     1     -11.244  72.903  34.146  1.00  0.00    -0.077 C 
ATOM     10  C   UNL     1     -11.997  73.461  35.107  1.00  0.00     0.008 C 
ATOM     11  C   UNL     1     -10.170  71.923  34.550  1.00  0.00     0.039 C 
ENDBRANCH   5   9
TORSDOF 1
ENDMDL
MODEL 5
REMARK VINA RESULT:    -5.445      1.683      1.888
REMARK INTER + INTRA:          -5.852
REMARK INTER:                  -5.757
REMARK INTRA:                  -0.095
REMARK UNBOUND:                -0.088
REMARK SMILES C=C(C)[C@H]1CC=C(C)C(=O)C1
REMARK SMILES IDX 8 1 7 2 6 3 5 4 4 5 11 6 9 7 10 8 2 9 1 10 3 11
REMARK H PARENT
REMARK Flexibility Score: inf
ROOT
ATOM      1  C   UNL     1     -10.848  72.493  32.219  1.00  0.00     0.048 C 
ATOM      2  C   UNL     1     -10.720  72.826  30.759  1.00  0.00    -0.012 C 
ATOM      3  C   UNL     1     -11.586  73.682  30.188  1.00  0.00    -0.019 C 
ATOM      4  C   UNL     1     -11.515  74.035  28.727  1.00  0.00     0.036 C 
ATOM      5  C   UNL     1     -10.059  74.021  28.224  1.00  0.00     0.025 C 
ATOM      6  C   UNL     1      -9.400  72.664  28.528  1.00  0.00     0.089 C 
ATOM      7  C   UNL     1      -9.566  72.309  29.980  1.00  0.00     0.158 C 
ATOM      8  O   UNL     1      -8.732  71.535  30.522  1.00  0.00    -0.295 OA
ENDROOT
BRANCH   5   9
ATOM      9  C   UNL     1      -9.978  74.360  26.742  1.00  0.00    -0.077 C 
ATOM     10  C   UNL     1     -10.709  75.369  26.240  1.00  0.00     0.008 C 
ATOM     11  C   UNL     1      -9.085  73.584  25.806  1.00  0.00     0.039 C 
ENDBRANCH   5   9
TORSDOF 1
ENDMDL
MODEL 6
REMARK VINA RESULT:    -5.437      2.930      5.367
REMARK INTER + INTRA:          -5.843
REMARK INTER:                  -5.748
REMARK INTRA:                  -0.096
REMARK UNBOUND:                -0.088
REMARK SMILES C=C(C)[C@H]1CC=C(C)C(=O)C1
REMARK SMILES IDX 8 1 7 2 6 3 5 4 4 5 11 6 9 7 10 8 2 9 1 10 3 11
REMARK H PARENT
REMARK Flexibility Score: inf
ROOT
ATOM      1  C   UNL     1     -10.154  74.444  23.629  1.00  0.00     0.048 C 
ATOM      2  C   UNL     1      -9.888  74.299  25.102  1.00  0.00    -0.012 C 
ATOM      3  C   UNL     1     -10.526  75.093  25.979  1.00  0.00    -0.019 C 
ATOM      4  C   UNL     1     -10.283  75.002  27.462  1.00  0.00     0.036 C 
ATOM      5  C   UNL     1      -9.959  73.557  27.882  1.00  0.00     0.025 C 
ATOM      6  C   UNL     1      -8.773  73.014  27.064  1.00  0.00     0.089 C 
ATOM      7  C   UNL     1      -9.018  73.199  25.592  1.00  0.00     0.158 C 
ATOM      8  O   UNL     1      -8.447  72.431  24.773  1.00  0.00    -0.295 OA
ENDROOT
BRANCH   5   9
ATOM      9  C   UNL     1      -9.694  73.458  29.379  1.00  0.00    -0.077 C 
ATOM     10  C   UNL     1      -9.403  72.271  29.935  1.00  0.00     0.008 C 
ATOM     11  C   UNL     1      -9.747  74.676  30.268  1.00  0.00     0.039 C 
ENDBRANCH   5   9
TORSDOF 1
ENDMDL
MODEL 7
REMARK VINA RESULT:    -5.425      1.949      4.474
REMARK INTER + INTRA:          -5.831
REMARK INTER:                  -5.743
REMARK INTRA:                  -0.088
REMARK UNBOUND:                -0.088
REMARK SMILES C=C(C)[C@H]1CC=C(C)C(=O)C1
REMARK SMILES IDX 8 1 7 2 6 3 5 4 4 5 11 6 9 7 10 8 2 9 1 10 3 11
REMARK H PARENT
REMARK Flexibility Score: inf
ROOT
ATOM      1  C   UNL     1     -10.896  73.858  25.284  1.00  0.00     0.048 C 
ATOM      2  C   UNL     1     -10.968  74.017  26.778  1.00  0.00    -0.012 C 
ATOM      3  C   UNL     1     -12.148  73.886  27.409  1.00  0.00    -0.019 C 
ATOM      4  C   UNL     1     -12.280  74.053  28.899  1.00  0.00     0.036 C 
ATOM      5  C   UNL     1     -11.005  73.584  29.624  1.00  0.00     0.025 C 
ATOM      6  C   UNL     1      -9.771  74.314  29.063  1.00  0.00     0.089 C 
ATOM      7  C   UNL     1      -9.721  74.194  27.565  1.00  0.00     0.158 C 
ATOM      8  O   UNL     1      -8.609  74.280  26.978  1.00  0.00    -0.295 OA
ENDROOT
BRANCH   5   9
ATOM      9  C   UNL     1     -11.122  73.767  31.131  1.00  0.00    -0.077 C 
ATOM     10  C   UNL     1     -11.548  72.753  31.902  1.00  0.00     0.008 C 
ATOM     11  C   UNL     1     -10.764  75.074  31.795  1.00  0.00     0.039 C 
ENDBRANCH   5   9
TORSDOF 1
ENDMDL
MODEL 8
REMARK VINA RESULT:    -5.307      2.250      3.290
REMARK INTER + INTRA:          -5.706
REMARK INTER:                  -5.608
REMARK INTRA:                  -0.098
REMARK UNBOUND:                -0.088
REMARK SMILES C=C(C)[C@H]1CC=C(C)C(=O)C1
REMARK SMILES IDX 8 1 7 2 6 3 5 4 4 5 11 6 9 7 10 8 2 9 1 10 3 11
REMARK H PARENT
REMARK Flexibility Score: inf
ROOT
ATOM      1  C   UNL     1     -11.515  73.909  30.167  1.00  0.00     0.048 C 
ATOM      2  C   UNL     1     -10.984  73.988  28.763  1.00  0.00    -0.012 C 
ATOM      3  C   UNL     1      -9.656  74.002  28.549  1.00  0.00    -0.019 C 
ATOM      4  C   UNL     1      -9.072  74.098  27.165  1.00  0.00     0.036 C 
ATOM      5  C   UNL     1      -9.974  73.398  26.132  1.00  0.00     0.025 C 
ATOM      6  C   UNL     1     -11.404  73.963  26.201  1.00  0.00     0.089 C 
ATOM      7  C   UNL     1     -11.921  73.926  27.613  1.00  0.00     0.158 C 
ATOM      8  O   UNL     1     -13.164  73.877  27.811  1.00  0.00    -0.295 OA
ENDROOT
BRANCH   5   9
ATOM      9  C   UNL     1      -9.400  73.507  24.726  1.00  0.00    -0.077 C 
ATOM     10  C   UNL     1      -9.862  74.441  23.879  1.00  0.00     0.008 C 
ATOM     11  C   UNL     1      -8.307  72.582  24.250  1.00  0.00     0.039 C 
ENDBRANCH   5   9
TORSDOF 1
ENDMDL
MODEL 9
REMARK VINA RESULT:    -5.288      1.707      2.671
REMARK INTER + INTRA:          -5.686
REMARK INTER:                  -5.589
REMARK INTRA:                  -0.097
REMARK UNBOUND:                -0.088
REMARK SMILES C=C(C)[C@H]1CC=C(C)C(=O)C1
REMARK SMILES IDX 8 1 7 2 6 3 5 4 4 5 11 6 9 7 10 8 2 9 1 10 3 11
REMARK H PARENT
REMARK Flexibility Score: inf
ROOT
ATOM      1  C   UNL     1     -10.883  73.548  34.567  1.00  0.00     0.048 C 
ATOM      2  C   UNL     1     -11.094  73.680  33.084  1.00  0.00    -0.012 C 
ATOM      3  C   UNL     1     -11.057  74.895  32.508  1.00  0.00    -0.019 C 
ATOM      4  C   UNL     1     -11.280  75.086  31.032  1.00  0.00     0.036 C 
ATOM      5  C   UNL     1     -10.758  73.878  30.232  1.00  0.00     0.025 C 
ATOM      6  C   UNL     1     -11.392  72.576  30.753  1.00  0.00     0.089 C 
ATOM      7  C   UNL     1     -11.220  72.463  32.243  1.00  0.00     0.158 C 
ATOM      8  O   UNL     1     -11.220  71.322  32.776  1.00  0.00    -0.295 OA
ENDROOT
BRANCH   5   9
ATOM      9  C   UNL     1     -10.996  74.054  28.738  1.00  0.00    -0.077 C 
ATOM     10  C   UNL     1     -12.138  73.619  28.182  1.00  0.00     0.008 C 
ATOM     11  C   UNL     1      -9.969  74.715  27.851  1.00  0.00     0.039 C 
ENDBRANCH   5   9
TORSDOF 1
ENDMDL
