MODEL 1
REMARK VINA RESULT:    -2.653      0.000      0.000
REMARK INTER + INTRA:          -3.486
REMARK INTER:                  -3.118
REMARK INTRA:                  -0.367
REMARK UNBOUND:                -0.367
REMARK SMILES [NH3+][C@@H](CO)C(=O)[O-]
REMARK SMILES IDX 3 1 2 2 1 3 5 7 6 8 7 9 4 10
REMARK H PARENT 1 4 1 5 1 6 4 11
REMARK Flexibility Score: inf
ROOT
ATOM      1  C   UNL     1      22.228  18.659  38.957  1.00  0.00     0.227 C 
ENDROOT
BRANCH   1   2
ATOM      2  C   UNL     1      23.372  17.796  39.519  1.00  0.00     0.253 C 
BRANCH   2   3
ATOM      3  N   UNL     1      23.259  16.413  39.042  1.00  0.00    -0.348 N 
ATOM      4  H   UNL     1      22.277  16.200  38.752  1.00  0.00     0.345 HD
ATOM      5  H   UNL     1      23.896  16.269  38.225  1.00  0.00     0.345 HD
ATOM      6  H   UNL     1      23.546  15.752  39.801  1.00  0.00     0.345 HD
ENDBRANCH   2   3
BRANCH   2   7
ATOM      7  C   UNL     1      23.368  17.830  41.025  1.00  0.00     0.102 C 
ATOM      8  O   UNL     1      22.915  16.854  41.679  1.00  0.00    -0.544 OA
ATOM      9  O   UNL     1      23.873  18.934  41.703  1.00  0.00    -0.544 OA
ENDBRANCH   2   7
ENDBRANCH   1   2
BRANCH   1  10
ATOM     10  O   UNL     1      21.263  18.913  39.943  1.00  0.00    -0.390 OA
ATOM     11  H   UNL     1      21.456  18.292  40.695  1.00  0.00     0.210 HD
ENDBRANCH   1  10
TORSDOF 4
ENDMDL
MODEL 2
REMARK VINA RESULT:    -2.638      9.965     10.339
REMARK INTER + INTRA:          -3.468
REMARK INTER:                  -3.463
REMARK INTRA:                  -0.005
REMARK UNBOUND:                -0.367
REMARK SMILES [NH3+][C@@H](CO)C(=O)[O-]
REMARK SMILES IDX 3 1 2 2 1 3 5 7 6 8 7 9 4 10
REMARK H PARENT 1 4 1 5 1 6 4 11
REMARK Flexibility Score: inf
ROOT
ATOM      1  C   UNL     1      14.703  16.367  45.784  1.00  0.00     0.227 C 
ENDROOT
BRANCH   1   2
ATOM      2  C   UNL     1      15.347  17.706  46.184  1.00  0.00     0.253 C 
BRANCH   2   3
ATOM      3  N   UNL     1      16.786  17.538  46.418  1.00  0.00    -0.348 N 
ATOM      4  H   UNL     1      17.051  17.894  47.366  1.00  0.00     0.345 HD
ATOM      5  H   UNL     1      17.039  16.525  46.350  1.00  0.00     0.345 HD
ATOM      6  H   UNL     1      17.327  18.060  45.690  1.00  0.00     0.345 HD
ENDBRANCH   2   3
BRANCH   2   7
ATOM      7  C   UNL     1      14.681  18.267  47.412  1.00  0.00     0.102 C 
ATOM      8  O   UNL     1      15.316  18.347  48.496  1.00  0.00    -0.544 OA
ATOM      9  O   UNL     1      13.364  18.709  47.356  1.00  0.00    -0.544 OA
ENDBRANCH   2   7
ENDBRANCH   1   2
BRANCH   1  10
ATOM     10  O   UNL     1      15.525  15.664  44.891  1.00  0.00    -0.390 OA
ATOM     11  H   UNL     1      14.922  15.231  44.231  1.00  0.00     0.210 HD
ENDBRANCH   1  10
TORSDOF 4
ENDMDL
MODEL 3
REMARK VINA RESULT:    -2.603      2.632      3.860
REMARK INTER + INTRA:          -3.426
REMARK INTER:                  -3.417
REMARK INTRA:                  -0.009
REMARK UNBOUND:                -0.367
REMARK SMILES [NH3+][C@@H](CO)C(=O)[O-]
REMARK SMILES IDX 3 1 2 2 1 3 5 7 6 8 7 9 4 10
REMARK H PARENT 1 4 1 5 1 6 4 11
REMARK Flexibility Score: inf
ROOT
ATOM      1  C   UNL     1      23.514  17.461  44.193  1.00  0.00     0.227 C 
ENDROOT
BRANCH   1   2
ATOM      2  C   UNL     1      22.684  16.775  43.093  1.00  0.00     0.253 C 
BRANCH   2   3
ATOM      3  N   UNL     1      22.917  15.327  43.097  1.00  0.00    -0.348 N 
ATOM      4  H   UNL     1      22.246  14.841  42.459  1.00  0.00     0.345 HD
ATOM      5  H   UNL     1      23.895  15.126  42.782  1.00  0.00     0.345 HD
ATOM      6  H   UNL     1      22.803  14.952  44.068  1.00  0.00     0.345 HD
ENDBRANCH   2   3
BRANCH   2   7
ATOM      7  C   UNL     1      23.016  17.353  41.743  1.00  0.00     0.102 C 
ATOM      8  O   UNL     1      23.051  16.610  40.727  1.00  0.00    -0.544 OA
ATOM      9  O   UNL     1      23.276  18.712  41.606  1.00  0.00    -0.544 OA
ENDBRANCH   2   7
ENDBRANCH   1   2
BRANCH   1  10
ATOM     10  O   UNL     1      24.251  16.517  44.925  1.00  0.00    -0.390 OA
ATOM     11  H   UNL     1      23.674  16.232  45.681  1.00  0.00     0.210 HD
ENDBRANCH   1  10
TORSDOF 4
ENDMDL
MODEL 4
REMARK VINA RESULT:    -2.587      3.452      4.247
REMARK INTER + INTRA:          -3.408
REMARK INTER:                  -3.181
REMARK INTRA:                  -0.227
REMARK UNBOUND:                -0.367
REMARK SMILES [NH3+][C@@H](CO)C(=O)[O-]
REMARK SMILES IDX 3 1 2 2 1 3 5 7 6 8 7 9 4 10
REMARK H PARENT 1 4 1 5 1 6 4 11
REMARK Flexibility Score: inf
ROOT
ATOM      1  C   UNL     1      23.707  18.820  43.770  1.00  0.00     0.227 C 
ENDROOT
BRANCH   1   2
ATOM      2  C   UNL     1      23.231  17.389  44.080  1.00  0.00     0.253 C 
BRANCH   2   3
ATOM      3  N   UNL     1      24.235  16.671  44.873  1.00  0.00    -0.348 N 
ATOM      4  H   UNL     1      25.074  17.273  45.043  1.00  0.00     0.345 HD
ATOM      5  H   UNL     1      23.823  16.391  45.794  1.00  0.00     0.345 HD
ATOM      6  H   UNL     1      24.530  15.802  44.369  1.00  0.00     0.345 HD
ENDBRANCH   2   3
BRANCH   2   7
ATOM      7  C   UNL     1      22.942  16.641  42.805  1.00  0.00     0.102 C 
ATOM      8  O   UNL     1      22.866  17.261  41.711  1.00  0.00    -0.544 OA
ATOM      9  O   UNL     1      22.766  15.262  42.824  1.00  0.00    -0.544 OA
ENDBRANCH   2   7
ENDBRANCH   1   2
BRANCH   1  10
ATOM     10  O   UNL     1      24.965  18.803  43.148  1.00  0.00    -0.390 OA
ATOM     11  H   UNL     1      25.601  19.225  43.784  1.00  0.00     0.210 HD
ENDBRANCH   1  10
TORSDOF 4
ENDMDL
MODEL 5
REMARK VINA RESULT:    -2.566     20.877     21.564
REMARK INTER + INTRA:          -3.383
REMARK INTER:                  -3.377
REMARK INTRA:                  -0.005
REMARK UNBOUND:                -0.367
REMARK SMILES [NH3+][C@@H](CO)C(=O)[O-]
REMARK SMILES IDX 3 1 2 2 1 3 5 7 6 8 7 9 4 10
REMARK H PARENT 1 4 1 5 1 6 4 11
REMARK Flexibility Score: inf
ROOT
ATOM      1  C   UNL     1      21.021  30.951  59.006  1.00  0.00     0.227 C 
ENDROOT
BRANCH   1   2
ATOM      2  C   UNL     1      21.440  29.972  57.894  1.00  0.00     0.253 C 
BRANCH   2   3
ATOM      3  N   UNL     1      21.944  30.702  56.726  1.00  0.00    -0.348 N 
ATOM      4  H   UNL     1      21.189  30.829  56.013  1.00  0.00     0.345 HD
ATOM      5  H   UNL     1      22.297  31.642  57.022  1.00  0.00     0.345 HD
ATOM      6  H   UNL     1      22.740  30.175  56.295  1.00  0.00     0.345 HD
ENDBRANCH   2   3
BRANCH   2   7
ATOM      7  C   UNL     1      20.281  29.095  57.500  1.00  0.00     0.102 C 
ATOM      8  O   UNL     1      19.696  28.393  58.367  1.00  0.00    -0.544 OA
ATOM      9  O   UNL     1      19.843  29.060  56.181  1.00  0.00    -0.544 OA
ENDBRANCH   2   7
ENDBRANCH   1   2
BRANCH   1  10
ATOM     10  O   UNL     1      21.677  32.183  58.859  1.00  0.00    -0.390 OA
ATOM     11  H   UNL     1      22.467  32.017  58.281  1.00  0.00     0.210 HD
ENDBRANCH   1  10
TORSDOF 4
ENDMDL
MODEL 6
REMARK VINA RESULT:    -2.481      2.334      3.065
REMARK INTER + INTRA:          -3.283
REMARK INTER:                  -2.891
REMARK INTRA:                  -0.392
REMARK UNBOUND:                -0.367
REMARK SMILES [NH3+][C@@H](CO)C(=O)[O-]
REMARK SMILES IDX 3 1 2 2 1 3 5 7 6 8 7 9 4 10
REMARK H PARENT 1 4 1 5 1 6 4 11
REMARK Flexibility Score: inf
ROOT
ATOM      1  C   UNL     1      25.009  19.466  40.751  1.00  0.00     0.227 C 
ENDROOT
BRANCH   1   2
ATOM      2  C   UNL     1      23.908  19.187  41.790  1.00  0.00     0.253 C 
BRANCH   2   3
ATOM      3  N   UNL     1      24.489  18.663  43.030  1.00  0.00    -0.348 N 
ATOM      4  H   UNL     1      25.469  19.008  43.155  1.00  0.00     0.345 HD
ATOM      5  H   UNL     1      23.912  18.969  43.848  1.00  0.00     0.345 HD
ATOM      6  H   UNL     1      24.492  17.617  43.006  1.00  0.00     0.345 HD
ENDBRANCH   2   3
BRANCH   2   7
ATOM      7  C   UNL     1      22.895  18.219  41.238  1.00  0.00     0.102 C 
ATOM      8  O   UNL     1      21.929  18.638  40.546  1.00  0.00    -0.544 OA
ATOM      9  O   UNL     1      23.023  16.855  41.479  1.00  0.00    -0.544 OA
ENDBRANCH   2   7
ENDBRANCH   1   2
BRANCH   1  10
ATOM     10  O   UNL     1      24.890  18.600  39.653  1.00  0.00    -0.390 OA
ATOM     11  H   UNL     1      23.978  18.733  39.284  1.00  0.00     0.210 HD
ENDBRANCH   1  10
TORSDOF 4
ENDMDL
MODEL 7
REMARK VINA RESULT:    -2.474      8.642      9.338
REMARK INTER + INTRA:          -3.275
REMARK INTER:                  -3.050
REMARK INTRA:                  -0.225
REMARK UNBOUND:                -0.367
REMARK SMILES [NH3+][C@@H](CO)C(=O)[O-]
REMARK SMILES IDX 3 1 2 2 1 3 5 7 6 8 7 9 4 10
REMARK H PARENT 1 4 1 5 1 6 4 11
REMARK Flexibility Score: inf
ROOT
ATOM      1  C   UNL     1      32.852  16.373  39.124  1.00  0.00     0.227 C 
ENDROOT
BRANCH   1   2
ATOM      2  C   UNL     1      32.524  17.792  39.622  1.00  0.00     0.253 C 
BRANCH   2   3
ATOM      3  N   UNL     1      32.719  17.888  41.073  1.00  0.00    -0.348 N 
ATOM      4  H   UNL     1      32.343  17.039  41.555  1.00  0.00     0.345 HD
ATOM      5  H   UNL     1      33.739  17.980  41.287  1.00  0.00     0.345 HD
ATOM      6  H   UNL     1      32.230  18.738  41.441  1.00  0.00     0.345 HD
ENDBRANCH   2   3
BRANCH   2   7
ATOM      7  C   UNL     1      31.111  18.165  39.260  1.00  0.00     0.102 C 
ATOM      8  O   UNL     1      30.301  17.279  38.877  1.00  0.00    -0.544 OA
ATOM      9  O   UNL     1      30.687  19.486  39.355  1.00  0.00    -0.544 OA
ENDBRANCH   2   7
ENDBRANCH   1   2
BRANCH   1  10
ATOM     10  O   UNL     1      32.328  15.405  39.994  1.00  0.00    -0.390 OA
ATOM     11  H   UNL     1      32.002  15.892  40.796  1.00  0.00     0.210 HD
ENDBRANCH   1  10
TORSDOF 4
ENDMDL
MODEL 8
REMARK VINA RESULT:    -1.137      1.704      2.159
REMARK INTER + INTRA:          -1.704
REMARK INTER:                  -1.346
REMARK INTRA:                  -0.358
REMARK UNBOUND:                -0.367
REMARK SMILES [NH3+][C@@H](CO)C(=O)[O-]
REMARK SMILES IDX 3 1 2 2 1 3 5 7 6 8 7 9 4 10
REMARK H PARENT 1 4 1 5 1 6 4 11
REMARK Flexibility Score: inf
ROOT
ATOM      1  C   UNL     1      23.523  17.481  38.875  1.00  0.00     0.227 C 
ENDROOT
BRANCH   1   2
ATOM      2  C   UNL     1      23.725  18.751  39.722  1.00  0.00     0.253 C 
BRANCH   2   3
ATOM      3  N   UNL     1      25.153  18.999  39.947  1.00  0.00    -0.348 N 
ATOM      4  H   UNL     1      25.376  20.015  39.828  1.00  0.00     0.345 HD
ATOM      5  H   UNL     1      25.415  18.703  40.916  1.00  0.00     0.345 HD
ATOM      6  H   UNL     1      25.721  18.440  39.269  1.00  0.00     0.345 HD
ENDBRANCH   2   3
BRANCH   2   7
ATOM      7  C   UNL     1      23.003  18.628  41.038  1.00  0.00     0.102 C 
ATOM      8  O   UNL     1      21.774  18.892  41.112  1.00  0.00    -0.544 OA
ATOM      9  O   UNL     1      23.685  18.213  42.176  1.00  0.00    -0.544 OA
ENDBRANCH   2   7
ENDBRANCH   1   2
BRANCH   1  10
ATOM     10  O   UNL     1      23.169  16.392  39.686  1.00  0.00    -0.390 OA
ATOM     11  H   UNL     1      23.697  15.615  39.362  1.00  0.00     0.210 HD
ENDBRANCH   1  10
TORSDOF 4
ENDMDL
MODEL 9
REMARK VINA RESULT:    -0.214      1.509      2.604
REMARK INTER + INTRA:          -0.618
REMARK INTER:                  -0.590
REMARK INTRA:                  -0.029
REMARK UNBOUND:                -0.367
REMARK SMILES [NH3+][C@@H](CO)C(=O)[O-]
REMARK SMILES IDX 3 1 2 2 1 3 5 7 6 8 7 9 4 10
REMARK H PARENT 1 4 1 5 1 6 4 11
REMARK Flexibility Score: inf
ROOT
ATOM      1  C   UNL     1      23.001  17.158  41.635  1.00  0.00     0.227 C 
ENDROOT
BRANCH   1   2
ATOM      2  C   UNL     1      22.997  17.577  40.153  1.00  0.00     0.253 C 
BRANCH   2   3
ATOM      3  N   UNL     1      23.373  16.448  39.296  1.00  0.00    -0.348 N 
ATOM      4  H   UNL     1      24.105  15.860  39.757  1.00  0.00     0.345 HD
ATOM      5  H   UNL     1      22.532  15.857  39.102  1.00  0.00     0.345 HD
ATOM      6  H   UNL     1      23.741  16.803  38.383  1.00  0.00     0.345 HD
ENDBRANCH   2   3
BRANCH   2   7
ATOM      7  C   UNL     1      23.933  18.736  39.930  1.00  0.00     0.102 C 
ATOM      8  O   UNL     1      23.855  19.419  38.875  1.00  0.00    -0.544 OA
ATOM      9  O   UNL     1      24.883  19.066  40.891  1.00  0.00    -0.544 OA
ENDBRANCH   2   7
ENDBRANCH   1   2
BRANCH   1  10
ATOM     10  O   UNL     1      23.372  15.812  41.771  1.00  0.00    -0.390 OA
ATOM     11  H   UNL     1      23.786  15.543  40.909  1.00  0.00     0.210 HD
ENDBRANCH   1  10
TORSDOF 4
ENDMDL
