MODEL 1
REMARK VINA RESULT:    -6.594      0.000      0.000
REMARK INTER + INTRA:         -11.297
REMARK INTER:                 -10.063
REMARK INTRA:                  -1.235
REMARK UNBOUND:                -1.235
REMARK SMILES OC[C@@H]1O[C@H](O[C@]2(CO)O[C@@H](CO)[C@@H](O)[C@H]2O)[C@@H](O)[C@H](O)[C@H]1O
REMARK SMILES IDX 6 1 5 2 3 3 22 4 4 5 20 6 18 7 2 8 1 9 23 11 21 13 19 15
REMARK SMILES IDX 7 17 16 18 10 19 14 20 11 21 8 22 9 23 17 25 15 27 12 29
REMARK SMILES IDX 13 30
REMARK H PARENT 1 10 23 12 21 14 19 16 9 24 17 26 15 28 13 31
REMARK Flexibility Score: inf
ROOT
ATOM      1  O   UNL     1       9.959 -11.168  36.156  1.00  0.00    -0.313 OA
ENDROOT
BRANCH   1   2
ATOM      2  C   UNL     1       9.662 -11.946  37.311  1.00  0.00     0.285 C 
ATOM      3  C   UNL     1       7.249 -12.049  37.158  1.00  0.00     0.178 C 
ATOM      4  C   UNL     1       7.289 -13.536  36.713  1.00  0.00     0.177 C 
ATOM      5  O   UNL     1       8.399 -11.598  37.868  1.00  0.00    -0.341 OA
ATOM      6  C   UNL     1       8.634 -13.916  36.074  1.00  0.00     0.179 C 
ATOM      7  C   UNL     1       9.787 -13.444  36.970  1.00  0.00     0.202 C 
BRANCH   3   8
ATOM      8  C   UNL     1       6.752 -11.059  36.081  1.00  0.00     0.191 C 
BRANCH   8   9
ATOM      9  O   UNL     1       7.233 -11.363  34.805  1.00  0.00    -0.394 OA
ATOM     10  H   UNL     1       7.853 -12.131  34.920  1.00  0.00     0.210 HD
ENDBRANCH   8   9
ENDBRANCH   3   8
BRANCH   4  11
ATOM     11  O   UNL     1       7.080 -14.361  37.834  1.00  0.00    -0.387 OA
ATOM     12  H   UNL     1       6.513 -15.124  37.544  1.00  0.00     0.211 HD
ENDBRANCH   4  11
BRANCH   6  13
ATOM     13  O   UNL     1       8.768 -13.361  34.789  1.00  0.00    -0.387 OA
ATOM     14  H   UNL     1       9.537 -13.809  34.351  1.00  0.00     0.211 HD
ENDBRANCH   6  13
BRANCH   7  15
ATOM     15  O   UNL     1       9.812 -14.190  38.163  1.00  0.00    -0.385 OA
ATOM     16  H   UNL     1      10.170 -13.592  38.871  1.00  0.00     0.211 HD
ENDBRANCH   7  15
ENDBRANCH   1   2
BRANCH   1  17
ATOM     17  C   UNL     1      11.334 -10.813  35.980  1.00  0.00     0.224 C 
ATOM     18  C   UNL     1      12.108 -10.845  37.323  1.00  0.00     0.208 C 
ATOM     19  O   UNL     1      11.998 -11.675  35.064  1.00  0.00    -0.337 OA
ATOM     20  C   UNL     1      13.464 -11.370  36.925  1.00  0.00     0.180 C 
ATOM     21  C   UNL     1      13.100 -12.252  35.733  1.00  0.00     0.179 C 
BRANCH  17  22
ATOM     22  C   UNL     1      11.352  -9.408  35.329  1.00  0.00     0.225 C 
BRANCH  22  23
ATOM     23  O   UNL     1      10.605  -8.486  36.081  1.00  0.00    -0.391 OA
ATOM     24  H   UNL     1      10.176  -8.986  36.819  1.00  0.00     0.210 HD
ENDBRANCH  22  23
ENDBRANCH  17  22
BRANCH  18  25
ATOM     25  O   UNL     1      12.196  -9.594  37.960  1.00  0.00    -0.385 OA
ATOM     26  H   UNL     1      12.627  -9.751  38.843  1.00  0.00     0.211 HD
ENDBRANCH  18  25
BRANCH  20  27
ATOM     27  O   UNL     1      14.311 -10.316  36.535  1.00  0.00    -0.387 OA
ATOM     28  H   UNL     1      14.932 -10.686  35.853  1.00  0.00     0.211 HD
ENDBRANCH  20  27
BRANCH  21  29
ATOM     29  C   UNL     1      14.260 -12.487  34.754  1.00  0.00     0.191 C 
BRANCH  29  30
ATOM     30  O   UNL     1      14.459 -11.357  33.947  1.00  0.00    -0.394 OA
ATOM     31  H   UNL     1      13.594 -11.167  33.502  1.00  0.00     0.210 HD
ENDBRANCH  29  30
ENDBRANCH  21  29
ENDBRANCH   1  17
TORSDOF 13
ENDMDL
MODEL 2
REMARK VINA RESULT:    -6.380      1.078      2.126
REMARK INTER + INTRA:         -10.971
REMARK INTER:                  -9.625
REMARK INTRA:                  -1.346
REMARK UNBOUND:                -1.235
REMARK SMILES OC[C@@H]1O[C@H](O[C@]2(CO)O[C@@H](CO)[C@@H](O)[C@H]2O)[C@@H](O)[C@H](O)[C@H]1O
REMARK SMILES IDX 6 1 5 2 3 3 22 4 4 5 20 6 18 7 2 8 1 9 23 11 21 13 19 15
REMARK SMILES IDX 7 17 16 18 10 19 14 20 11 21 8 22 9 23 17 25 15 27 12 29
REMARK SMILES IDX 13 30
REMARK H PARENT 1 10 23 12 21 14 19 16 9 24 17 26 15 28 13 31
REMARK Flexibility Score: inf
ROOT
ATOM      1  O   UNL     1       9.899 -10.903  35.999  1.00  0.00    -0.313 OA
ENDROOT
BRANCH   1   2
ATOM      2  C   UNL     1       9.428 -12.075  35.343  1.00  0.00     0.285 C 
ATOM      3  C   UNL     1       8.446 -13.257  37.212  1.00  0.00     0.178 C 
ATOM      4  C   UNL     1       7.006 -12.942  36.721  1.00  0.00     0.177 C 
ATOM      5  O   UNL     1       9.453 -13.207  36.206  1.00  0.00    -0.341 OA
ATOM      6  C   UNL     1       6.958 -11.699  35.820  1.00  0.00     0.179 C 
ATOM      7  C   UNL     1       8.038 -11.802  34.733  1.00  0.00     0.202 C 
BRANCH   3   8
ATOM      8  C   UNL     1       8.849 -12.568  38.535  1.00  0.00     0.191 C 
BRANCH   8   9
ATOM      9  O   UNL     1       8.637 -11.188  38.512  1.00  0.00    -0.394 OA
ATOM     10  H   UNL     1       8.611 -10.928  37.552  1.00  0.00     0.210 HD
ENDBRANCH   8   9
ENDBRANCH   3   8
BRANCH   4  11
ATOM     11  O   UNL     1       6.515 -14.041  35.993  1.00  0.00    -0.387 OA
ATOM     12  H   UNL     1       6.067 -13.687  35.179  1.00  0.00     0.211 HD
ENDBRANCH   4  11
BRANCH   6  13
ATOM     13  O   UNL     1       7.136 -10.518  36.561  1.00  0.00    -0.387 OA
ATOM     14  H   UNL     1       8.076 -10.228  36.436  1.00  0.00     0.211 HD
ENDBRANCH   6  13
BRANCH   7  15
ATOM     15  O   UNL     1       7.719 -12.831  33.828  1.00  0.00    -0.385 OA
ATOM     16  H   UNL     1       7.373 -12.395  33.004  1.00  0.00     0.211 HD
ENDBRANCH   7  15
ENDBRANCH   1   2
BRANCH   1  17
ATOM     17  C   UNL     1      11.312 -10.686  35.951  1.00  0.00     0.224 C 
ATOM     18  C   UNL     1      11.968 -10.897  37.341  1.00  0.00     0.208 C 
ATOM     19  O   UNL     1      11.957 -11.546  35.021  1.00  0.00    -0.337 OA
ATOM     20  C   UNL     1      13.291 -11.535  37.001  1.00  0.00     0.180 C 
ATOM     21  C   UNL     1      12.937 -12.285  35.720  1.00  0.00     0.179 C 
BRANCH  17  22
ATOM     22  C   UNL     1      11.526  -9.248  35.418  1.00  0.00     0.225 C 
BRANCH  22  23
ATOM     23  O   UNL     1      10.711  -8.325  36.096  1.00  0.00    -0.391 OA
ATOM     24  H   UNL     1      11.141  -8.135  36.967  1.00  0.00     0.210 HD
ENDBRANCH  22  23
ENDBRANCH  17  22
BRANCH  18  25
ATOM     25  O   UNL     1      12.132  -9.712  38.081  1.00  0.00    -0.385 OA
ATOM     26  H   UNL     1      11.546  -9.027  37.659  1.00  0.00     0.211 HD
ENDBRANCH  18  25
BRANCH  20  27
ATOM     27  O   UNL     1      14.270 -10.553  36.759  1.00  0.00    -0.387 OA
ATOM     28  H   UNL     1      14.889 -10.927  36.078  1.00  0.00     0.211 HD
ENDBRANCH  20  27
BRANCH  21  29
ATOM     29  C   UNL     1      14.142 -12.572  34.811  1.00  0.00     0.191 C 
BRANCH  29  30
ATOM     30  O   UNL     1      14.437 -11.454  34.017  1.00  0.00    -0.394 OA
ATOM     31  H   UNL     1      14.036 -10.668  34.469  1.00  0.00     0.210 HD
ENDBRANCH  29  30
ENDBRANCH  21  29
ENDBRANCH   1  17
TORSDOF 13
ENDMDL
MODEL 3
REMARK VINA RESULT:    -6.153      1.506      5.717
REMARK INTER + INTRA:         -10.625
REMARK INTER:                  -9.250
REMARK INTRA:                  -1.375
REMARK UNBOUND:                -1.235
REMARK SMILES OC[C@@H]1O[C@H](O[C@]2(CO)O[C@@H](CO)[C@@H](O)[C@H]2O)[C@@H](O)[C@H](O)[C@H]1O
REMARK SMILES IDX 6 1 5 2 3 3 22 4 4 5 20 6 18 7 2 8 1 9 23 11 21 13 19 15
REMARK SMILES IDX 7 17 16 18 10 19 14 20 11 21 8 22 9 23 17 25 15 27 12 29
REMARK SMILES IDX 13 30
REMARK H PARENT 1 10 23 12 21 14 19 16 9 24 17 26 15 28 13 31
REMARK Flexibility Score: inf
ROOT
ATOM      1  O   UNL     1      10.438 -11.925  37.336  1.00  0.00    -0.313 OA
ENDROOT
BRANCH   1   2
ATOM      2  C   UNL     1      11.004 -11.032  36.384  1.00  0.00     0.285 C 
ATOM      3  C   UNL     1      12.507  -9.775  37.803  1.00  0.00     0.178 C 
ATOM      4  C   UNL     1      13.750 -10.491  37.208  1.00  0.00     0.177 C 
ATOM      5  O   UNL     1      11.349  -9.783  36.974  1.00  0.00    -0.341 OA
ATOM      6  C   UNL     1      13.399 -11.858  36.602  1.00  0.00     0.179 C 
ATOM      7  C   UNL     1      12.186 -11.718  35.671  1.00  0.00     0.202 C 
BRANCH   3   8
ATOM      8  C   UNL     1      12.217 -10.098  39.286  1.00  0.00     0.191 C 
BRANCH   8   9
ATOM      9  O   UNL     1      13.244 -10.825  39.891  1.00  0.00    -0.394 OA
ATOM     10  H   UNL     1      12.805 -11.573  40.377  1.00  0.00     0.210 HD
ENDBRANCH   8   9
ENDBRANCH   3   8
BRANCH   4  11
ATOM     11  O   UNL     1      14.309  -9.685  36.198  1.00  0.00    -0.387 OA
ATOM     12  H   UNL     1      14.712 -10.290  35.519  1.00  0.00     0.211 HD
ENDBRANCH   4  11
BRANCH   6  13
ATOM     13  O   UNL     1      13.130 -12.810  37.600  1.00  0.00    -0.387 OA
ATOM     14  H   UNL     1      12.519 -13.486  37.208  1.00  0.00     0.211 HD
ENDBRANCH   6  13
BRANCH   7  15
ATOM     15  O   UNL     1      12.534 -10.974  34.529  1.00  0.00    -0.385 OA
ATOM     16  H   UNL     1      11.772 -10.365  34.337  1.00  0.00     0.211 HD
ENDBRANCH   7  15
ENDBRANCH   1   2
BRANCH   1  17
ATOM     17  C   UNL     1       9.426 -12.808  36.841  1.00  0.00     0.224 C 
ATOM     18  C   UNL     1       8.038 -12.482  37.451  1.00  0.00     0.208 C 
ATOM     19  O   UNL     1       9.313 -12.754  35.425  1.00  0.00    -0.337 OA
ATOM     20  C   UNL     1       7.093 -12.736  36.304  1.00  0.00     0.180 C 
ATOM     21  C   UNL     1       7.982 -12.402  35.109  1.00  0.00     0.179 C 
BRANCH  17  22
ATOM     22  C   UNL     1       9.887 -14.248  37.175  1.00  0.00     0.225 C 
BRANCH  22  23
ATOM     23  O   UNL     1      10.661 -14.278  38.347  1.00  0.00    -0.391 OA
ATOM     24  H   UNL     1      10.503 -15.152  38.783  1.00  0.00     0.210 HD
ENDBRANCH  22  23
ENDBRANCH  17  22
BRANCH  18  25
ATOM     25  O   UNL     1       7.714 -13.258  38.578  1.00  0.00    -0.385 OA
ATOM     26  H   UNL     1       7.930 -14.201  38.349  1.00  0.00     0.211 HD
ENDBRANCH  18  25
BRANCH  20  27
ATOM     27  O   UNL     1       6.693 -14.085  36.276  1.00  0.00    -0.387 OA
ATOM     28  H   UNL     1       6.828 -14.404  35.345  1.00  0.00     0.211 HD
ENDBRANCH  20  27
BRANCH  21  29
ATOM     29  C   UNL     1       7.545 -13.074  33.799  1.00  0.00     0.191 C 
BRANCH  29  30
ATOM     30  O   UNL     1       8.266 -14.259  33.589  1.00  0.00    -0.394 OA
ATOM     31  H   UNL     1       7.703 -14.838  33.015  1.00  0.00     0.210 HD
ENDBRANCH  29  30
ENDBRANCH  21  29
ENDBRANCH   1  17
TORSDOF 13
ENDMDL
MODEL 4
REMARK VINA RESULT:    -6.135      1.428      5.526
REMARK INTER + INTRA:         -10.598
REMARK INTER:                  -9.760
REMARK INTRA:                  -0.838
REMARK UNBOUND:                -1.235
REMARK SMILES OC[C@@H]1O[C@H](O[C@]2(CO)O[C@@H](CO)[C@@H](O)[C@H]2O)[C@@H](O)[C@H](O)[C@H]1O
REMARK SMILES IDX 6 1 5 2 3 3 22 4 4 5 20 6 18 7 2 8 1 9 23 11 21 13 19 15
REMARK SMILES IDX 7 17 16 18 10 19 14 20 11 21 8 22 9 23 17 25 15 27 12 29
REMARK SMILES IDX 13 30
REMARK H PARENT 1 10 23 12 21 14 19 16 9 24 17 26 15 28 13 31
REMARK Flexibility Score: inf
ROOT
ATOM      1  O   UNL     1      10.913 -12.420  36.819  1.00  0.00    -0.313 OA
ENDROOT
BRANCH   1   2
ATOM      2  C   UNL     1      11.721 -12.616  35.664  1.00  0.00     0.285 C 
ATOM      3  C   UNL     1      12.281 -10.325  35.128  1.00  0.00     0.178 C 
ATOM      4  C   UNL     1      13.738 -10.508  35.633  1.00  0.00     0.177 C 
ATOM      5  O   UNL     1      11.613 -11.526  34.755  1.00  0.00    -0.341 OA
ATOM      6  C   UNL     1      13.862 -11.657  36.644  1.00  0.00     0.179 C 
ATOM      7  C   UNL     1      13.172 -12.913  36.093  1.00  0.00     0.202 C 
BRANCH   3   8
ATOM      8  C   UNL     1      11.415  -9.364  35.973  1.00  0.00     0.191 C 
BRANCH   8   9
ATOM      9  O   UNL     1      11.447  -9.666  37.336  1.00  0.00    -0.394 OA
ATOM     10  H   UNL     1      10.966  -8.927  37.795  1.00  0.00     0.210 HD
ENDBRANCH   8   9
ENDBRANCH   3   8
BRANCH   4  11
ATOM     11  O   UNL     1      14.576 -10.786  34.537  1.00  0.00    -0.387 OA
ATOM     12  H   UNL     1      13.994 -11.013  33.763  1.00  0.00     0.211 HD
ENDBRANCH   4  11
BRANCH   6  13
ATOM     13  O   UNL     1      13.306 -11.311  37.887  1.00  0.00    -0.387 OA
ATOM     14  H   UNL     1      13.631 -11.972  38.553  1.00  0.00     0.211 HD
ENDBRANCH   6  13
BRANCH   7  15
ATOM     15  O   UNL     1      13.887 -13.416  34.992  1.00  0.00    -0.385 OA
ATOM     16  H   UNL     1      13.226 -13.849  34.389  1.00  0.00     0.211 HD
ENDBRANCH   7  15
ENDBRANCH   1   2
BRANCH   1  17
ATOM     17  C   UNL     1       9.544 -12.817  36.697  1.00  0.00     0.224 C 
ATOM     18  C   UNL     1       8.584 -11.610  36.859  1.00  0.00     0.208 C 
ATOM     19  O   UNL     1       9.273 -13.437  35.447  1.00  0.00    -0.337 OA
ATOM     20  C   UNL     1       7.482 -11.915  35.875  1.00  0.00     0.180 C 
ATOM     21  C   UNL     1       8.245 -12.703  34.813  1.00  0.00     0.179 C 
BRANCH  17  22
ATOM     22  C   UNL     1       9.298 -13.906  37.771  1.00  0.00     0.225 C 
BRANCH  22  23
ATOM     23  O   UNL     1      10.492 -14.264  38.418  1.00  0.00    -0.391 OA
ATOM     24  H   UNL     1      11.053 -13.451  38.476  1.00  0.00     0.210 HD
ENDBRANCH  22  23
ENDBRANCH  17  22
BRANCH  18  25
ATOM     25  O   UNL     1       8.089 -11.445  38.164  1.00  0.00    -0.385 OA
ATOM     26  H   UNL     1       8.834 -11.671  38.784  1.00  0.00     0.211 HD
ENDBRANCH  18  25
BRANCH  20  27
ATOM     27  O   UNL     1       6.484 -12.707  36.474  1.00  0.00    -0.387 OA
ATOM     28  H   UNL     1       5.947 -13.097  35.735  1.00  0.00     0.211 HD
ENDBRANCH  20  27
BRANCH  21  29
ATOM     29  C   UNL     1       7.360 -13.636  33.972  1.00  0.00     0.191 C 
BRANCH  29  30
ATOM     30  O   UNL     1       8.041 -14.054  32.820  1.00  0.00    -0.394 OA
ATOM     31  H   UNL     1       9.002 -14.108  33.060  1.00  0.00     0.210 HD
ENDBRANCH  29  30
ENDBRANCH  21  29
ENDBRANCH   1  17
TORSDOF 13
ENDMDL
MODEL 5
REMARK VINA RESULT:    -6.124      1.352      5.540
REMARK INTER + INTRA:         -10.580
REMARK INTER:                  -9.517
REMARK INTRA:                  -1.063
REMARK UNBOUND:                -1.235
REMARK SMILES OC[C@@H]1O[C@H](O[C@]2(CO)O[C@@H](CO)[C@@H](O)[C@H]2O)[C@@H](O)[C@H](O)[C@H]1O
REMARK SMILES IDX 6 1 5 2 3 3 22 4 4 5 20 6 18 7 2 8 1 9 23 11 21 13 19 15
REMARK SMILES IDX 7 17 16 18 10 19 14 20 11 21 8 22 9 23 17 25 15 27 12 29
REMARK SMILES IDX 13 30
REMARK H PARENT 1 10 23 12 21 14 19 16 9 24 17 26 15 28 13 31
REMARK Flexibility Score: inf
ROOT
ATOM      1  O   UNL     1       9.968 -10.988  36.584  1.00  0.00    -0.313 OA
ENDROOT
BRANCH   1   2
ATOM      2  C   UNL     1      10.884 -11.399  35.575  1.00  0.00     0.285 C 
ATOM      3  C   UNL     1      12.564  -9.670  35.779  1.00  0.00     0.178 C 
ATOM      4  C   UNL     1      13.561 -10.647  36.459  1.00  0.00     0.177 C 
ATOM      5  O   UNL     1      11.554 -10.289  34.988  1.00  0.00    -0.341 OA
ATOM      6  C   UNL     1      12.849 -11.830  37.131  1.00  0.00     0.179 C 
ATOM      7  C   UNL     1      11.846 -12.458  36.153  1.00  0.00     0.202 C 
BRANCH   3   8
ATOM      8  C   UNL     1      12.039  -8.537  36.688  1.00  0.00     0.191 C 
BRANCH   8   9
ATOM      9  O   UNL     1      11.713  -8.981  37.972  1.00  0.00    -0.394 OA
ATOM     10  H   UNL     1      12.377  -9.687  38.197  1.00  0.00     0.210 HD
ENDBRANCH   8   9
ENDBRANCH   3   8
BRANCH   4  11
ATOM     11  O   UNL     1      14.448 -11.152  35.490  1.00  0.00    -0.387 OA
ATOM     12  H   UNL     1      15.034 -10.403  35.200  1.00  0.00     0.211 HD
ENDBRANCH   4  11
BRANCH   6  13
ATOM     13  O   UNL     1      12.188 -11.434  38.306  1.00  0.00    -0.387 OA
ATOM     14  H   UNL     1      11.739 -10.570  38.117  1.00  0.00     0.211 HD
ENDBRANCH   6  13
BRANCH   7  15
ATOM     15  O   UNL     1      12.527 -13.089  35.097  1.00  0.00    -0.385 OA
ATOM     16  H   UNL     1      12.062 -12.834  34.257  1.00  0.00     0.211 HD
ENDBRANCH   7  15
ENDBRANCH   1   2
BRANCH   1  17
ATOM     17  C   UNL     1       8.931 -11.920  36.904  1.00  0.00     0.224 C 
ATOM     18  C   UNL     1       8.640 -12.878  35.719  1.00  0.00     0.208 C 
ATOM     19  O   UNL     1       9.251 -12.708  38.043  1.00  0.00    -0.337 OA
ATOM     20  C   UNL     1       8.344 -14.188  36.403  1.00  0.00     0.180 C 
ATOM     21  C   UNL     1       9.204 -14.067  37.659  1.00  0.00     0.179 C 
BRANCH  17  22
ATOM     22  C   UNL     1       7.687 -11.087  37.300  1.00  0.00     0.225 C 
BRANCH  22  23
ATOM     23  O   UNL     1       7.346 -10.168  36.293  1.00  0.00    -0.391 OA
ATOM     24  H   UNL     1       6.366 -10.036  36.333  1.00  0.00     0.210 HD
ENDBRANCH  22  23
ENDBRANCH  17  22
BRANCH  18  25
ATOM     25  O   UNL     1       7.576 -12.463  34.899  1.00  0.00    -0.385 OA
ATOM     26  H   UNL     1       6.762 -12.449  35.469  1.00  0.00     0.211 HD
ENDBRANCH  18  25
BRANCH  20  27
ATOM     27  O   UNL     1       6.979 -14.282  36.731  1.00  0.00    -0.387 OA
ATOM     28  H   UNL     1       6.473 -13.908  35.962  1.00  0.00     0.211 HD
ENDBRANCH  20  27
BRANCH  21  29
ATOM     29  C   UNL     1       8.727 -14.940  38.829  1.00  0.00     0.191 C 
BRANCH  29  30
ATOM     30  O   UNL     1       7.639 -14.339  39.480  1.00  0.00    -0.394 OA
ATOM     31  H   UNL     1       6.865 -14.406  38.864  1.00  0.00     0.210 HD
ENDBRANCH  29  30
ENDBRANCH  21  29
ENDBRANCH   1  17
TORSDOF 13
ENDMDL
MODEL 6
REMARK VINA RESULT:    -6.091      1.494      5.724
REMARK INTER + INTRA:         -10.530
REMARK INTER:                  -9.365
REMARK INTRA:                  -1.165
REMARK UNBOUND:                -1.235
REMARK SMILES OC[C@@H]1O[C@H](O[C@]2(CO)O[C@@H](CO)[C@@H](O)[C@H]2O)[C@@H](O)[C@H](O)[C@H]1O
REMARK SMILES IDX 6 1 5 2 3 3 22 4 4 5 20 6 18 7 2 8 1 9 23 11 21 13 19 15
REMARK SMILES IDX 7 17 16 18 10 19 14 20 11 21 8 22 9 23 17 25 15 27 12 29
REMARK SMILES IDX 13 30
REMARK H PARENT 1 10 23 12 21 14 19 16 9 24 17 26 15 28 13 31
REMARK Flexibility Score: inf
ROOT
ATOM      1  O   UNL     1      10.900 -11.905  35.413  1.00  0.00    -0.313 OA
ENDROOT
BRANCH   1   2
ATOM      2  C   UNL     1      11.560 -12.131  36.654  1.00  0.00     0.285 C 
ATOM      3  C   UNL     1      13.743 -11.210  36.162  1.00  0.00     0.178 C 
ATOM      4  C   UNL     1      13.470  -9.960  37.043  1.00  0.00     0.177 C 
ATOM      5  O   UNL     1      12.955 -12.355  36.475  1.00  0.00    -0.341 OA
ATOM      6  C   UNL     1      11.969  -9.684  37.213  1.00  0.00     0.179 C 
ATOM      7  C   UNL     1      11.246 -10.975  37.624  1.00  0.00     0.202 C 
BRANCH   3   8
ATOM      8  C   UNL     1      13.861 -10.927  34.648  1.00  0.00     0.191 C 
BRANCH   8   9
ATOM      9  O   UNL     1      14.314 -12.033  33.925  1.00  0.00    -0.394 OA
ATOM     10  H   UNL     1      13.619 -12.736  34.031  1.00  0.00     0.210 HD
ENDBRANCH   8   9
ENDBRANCH   3   8
BRANCH   4  11
ATOM     11  O   UNL     1      14.034 -10.160  38.317  1.00  0.00    -0.387 OA
ATOM     12  H   UNL     1      14.982 -10.431  38.187  1.00  0.00     0.211 HD
ENDBRANCH   4  11
BRANCH   6  13
ATOM     13  O   UNL     1      11.403  -9.174  36.032  1.00  0.00    -0.387 OA
ATOM     14  H   UNL     1      10.455  -8.954  36.228  1.00  0.00     0.211 HD
ENDBRANCH   6  13
BRANCH   7  15
ATOM     15  O   UNL     1      11.622 -11.348  38.927  1.00  0.00    -0.385 OA
ATOM     16  H   UNL     1      12.188 -12.161  38.844  1.00  0.00     0.211 HD
ENDBRANCH   7  15
ENDBRANCH   1   2
BRANCH   1  17
ATOM     17  C   UNL     1       9.490 -12.149  35.402  1.00  0.00     0.224 C 
ATOM     18  C   UNL     1       9.127 -13.425  36.206  1.00  0.00     0.208 C 
ATOM     19  O   UNL     1       8.753 -11.059  35.941  1.00  0.00    -0.337 OA
ATOM     20  C   UNL     1       7.818 -13.056  36.858  1.00  0.00     0.180 C 
ATOM     21  C   UNL     1       7.983 -11.548  37.020  1.00  0.00     0.179 C 
BRANCH  17  22
ATOM     22  C   UNL     1       9.067 -12.254  33.917  1.00  0.00     0.225 C 
BRANCH  22  23
ATOM     23  O   UNL     1       7.873 -11.554  33.674  1.00  0.00    -0.391 OA
ATOM     24  H   UNL     1       8.059 -10.594  33.823  1.00  0.00     0.210 HD
ENDBRANCH  22  23
ENDBRANCH  17  22
BRANCH  18  25
ATOM     25  O   UNL     1       9.011 -14.582  35.416  1.00  0.00    -0.385 OA
ATOM     26  H   UNL     1       8.683 -14.290  34.524  1.00  0.00     0.211 HD
ENDBRANCH  18  25
BRANCH  20  27
ATOM     27  O   UNL     1       6.736 -13.359  36.010  1.00  0.00    -0.387 OA
ATOM     28  H   UNL     1       5.933 -12.930  36.407  1.00  0.00     0.211 HD
ENDBRANCH  20  27
BRANCH  21  29
ATOM     29  C   UNL     1       6.656 -10.782  37.123  1.00  0.00     0.191 C 
BRANCH  29  30
ATOM     30  O   UNL     1       6.220 -10.380  35.851  1.00  0.00    -0.394 OA
ATOM     31  H   UNL     1       5.541 -11.041  35.560  1.00  0.00     0.210 HD
ENDBRANCH  29  30
ENDBRANCH  21  29
ENDBRANCH   1  17
TORSDOF 13
ENDMDL
MODEL 7
REMARK VINA RESULT:    -6.011      1.634      2.859
REMARK INTER + INTRA:         -10.409
REMARK INTER:                  -9.150
REMARK INTRA:                  -1.259
REMARK UNBOUND:                -1.235
REMARK SMILES OC[C@@H]1O[C@H](O[C@]2(CO)O[C@@H](CO)[C@@H](O)[C@H]2O)[C@@H](O)[C@H](O)[C@H]1O
REMARK SMILES IDX 6 1 5 2 3 3 22 4 4 5 20 6 18 7 2 8 1 9 23 11 21 13 19 15
REMARK SMILES IDX 7 17 16 18 10 19 14 20 11 21 8 22 9 23 17 25 15 27 12 29
REMARK SMILES IDX 13 30
REMARK H PARENT 1 10 23 12 21 14 19 16 9 24 17 26 15 28 13 31
REMARK Flexibility Score: inf
ROOT
ATOM      1  O   UNL     1      10.428 -11.915  35.746  1.00  0.00    -0.313 OA
ENDROOT
BRANCH   1   2
ATOM      2  C   UNL     1       9.312 -11.775  36.618  1.00  0.00     0.285 C 
ATOM      3  C   UNL     1       7.521 -12.486  35.155  1.00  0.00     0.178 C 
ATOM      4  C   UNL     1       7.374 -13.837  35.907  1.00  0.00     0.177 C 
ATOM      5  O   UNL     1       8.126 -11.438  35.906  1.00  0.00    -0.341 OA
ATOM      6  C   UNL     1       8.660 -14.233  36.649  1.00  0.00     0.179 C 
ATOM      7  C   UNL     1       9.167 -13.046  37.480  1.00  0.00     0.202 C 
BRANCH   3   8
ATOM      8  C   UNL     1       8.046 -12.601  33.706  1.00  0.00     0.191 C 
BRANCH   8   9
ATOM      9  O   UNL     1       8.025 -13.912  33.226  1.00  0.00    -0.394 OA
ATOM     10  H   UNL     1       8.780 -14.381  33.671  1.00  0.00     0.210 HD
ENDBRANCH   8   9
ENDBRANCH   3   8
BRANCH   4  11
ATOM     11  O   UNL     1       6.331 -13.733  36.845  1.00  0.00    -0.387 OA
ATOM     12  H   UNL     1       5.544 -13.344  36.379  1.00  0.00     0.211 HD
ENDBRANCH   4  11
BRANCH   6  13
ATOM     13  O   UNL     1       9.660 -14.655  35.756  1.00  0.00    -0.387 OA
ATOM     14  H   UNL     1       9.221 -14.854  34.890  1.00  0.00     0.211 HD
ENDBRANCH   6  13
BRANCH   7  15
ATOM     15  O   UNL     1       8.285 -12.786  38.544  1.00  0.00    -0.385 OA
ATOM     16  H   UNL     1       7.561 -13.464  38.493  1.00  0.00     0.211 HD
ENDBRANCH   7  15
ENDBRANCH   1   2
BRANCH   1  17
ATOM     17  C   UNL     1      11.709 -11.643  36.322  1.00  0.00     0.224 C 
ATOM     18  C   UNL     1      12.424 -10.474  35.596  1.00  0.00     0.208 C 
ATOM     19  O   UNL     1      11.618 -11.319  37.704  1.00  0.00    -0.337 OA
ATOM     20  C   UNL     1      13.131  -9.756  36.718  1.00  0.00     0.180 C 
ATOM     21  C   UNL     1      12.195 -10.042  37.888  1.00  0.00     0.179 C 
BRANCH  17  22
ATOM     22  C   UNL     1      12.521 -12.959  36.248  1.00  0.00     0.225 C 
BRANCH  22  23
ATOM     23  O   UNL     1      13.141 -13.248  37.475  1.00  0.00    -0.391 OA
ATOM     24  H   UNL     1      12.717 -14.067  37.835  1.00  0.00     0.210 HD
ENDBRANCH  22  23
ENDBRANCH  17  22
BRANCH  18  25
ATOM     25  O   UNL     1      13.317 -10.887  34.592  1.00  0.00    -0.385 OA
ATOM     26  H   UNL     1      13.223 -10.242  33.841  1.00  0.00     0.211 HD
ENDBRANCH  18  25
BRANCH  20  27
ATOM     27  O   UNL     1      14.405 -10.313  36.940  1.00  0.00    -0.387 OA
ATOM     28  H   UNL     1      15.049  -9.557  36.955  1.00  0.00     0.211 HD
ENDBRANCH  20  27
BRANCH  21  29
ATOM     29  C   UNL     1      12.871  -9.954  39.265  1.00  0.00     0.191 C 
BRANCH  29  30
ATOM     30  O   UNL     1      13.381 -11.204  39.645  1.00  0.00    -0.394 OA
ATOM     31  H   UNL     1      13.248 -11.812  38.874  1.00  0.00     0.210 HD
ENDBRANCH  29  30
ENDBRANCH  21  29
ENDBRANCH   1  17
TORSDOF 13
ENDMDL
MODEL 8
REMARK VINA RESULT:    -5.962      1.614      3.596
REMARK INTER + INTRA:         -10.333
REMARK INTER:                  -9.565
REMARK INTRA:                  -0.768
REMARK UNBOUND:                -1.235
REMARK SMILES OC[C@@H]1O[C@H](O[C@]2(CO)O[C@@H](CO)[C@@H](O)[C@H]2O)[C@@H](O)[C@H](O)[C@H]1O
REMARK SMILES IDX 6 1 5 2 3 3 22 4 4 5 20 6 18 7 2 8 1 9 23 11 21 13 19 15
REMARK SMILES IDX 7 17 16 18 10 19 14 20 11 21 8 22 9 23 17 25 15 27 12 29
REMARK SMILES IDX 13 30
REMARK H PARENT 1 10 23 12 21 14 19 16 9 24 17 26 15 28 13 31
REMARK Flexibility Score: inf
ROOT
ATOM      1  O   UNL     1      10.876 -13.078  37.191  1.00  0.00    -0.313 OA
ENDROOT
BRANCH   1   2
ATOM      2  C   UNL     1       9.926 -13.260  36.147  1.00  0.00     0.285 C 
ATOM      3  C   UNL     1       8.095 -14.239  37.389  1.00  0.00     0.178 C 
ATOM      4  C   UNL     1       7.270 -12.926  37.307  1.00  0.00     0.177 C 
ATOM      5  O   UNL     1       9.094 -14.390  36.385  1.00  0.00    -0.341 OA
ATOM      6  C   UNL     1       8.159 -11.693  37.090  1.00  0.00     0.179 C 
ATOM      7  C   UNL     1       9.136 -11.953  35.935  1.00  0.00     0.202 C 
BRANCH   3   8
ATOM      8  C   UNL     1       8.572 -14.622  38.808  1.00  0.00     0.191 C 
BRANCH   8   9
ATOM      9  O   UNL     1       9.768 -15.343  38.800  1.00  0.00    -0.394 OA
ATOM     10  H   UNL     1       9.812 -15.815  39.674  1.00  0.00     0.210 HD
ENDBRANCH   8   9
ENDBRANCH   3   8
BRANCH   4  11
ATOM     11  O   UNL     1       6.362 -13.016  36.235  1.00  0.00    -0.387 OA
ATOM     12  H   UNL     1       6.384 -13.952  35.901  1.00  0.00     0.211 HD
ENDBRANCH   4  11
BRANCH   6  13
ATOM     13  O   UNL     1       8.872 -11.360  38.254  1.00  0.00    -0.387 OA
ATOM     14  H   UNL     1       9.565 -12.058  38.388  1.00  0.00     0.211 HD
ENDBRANCH   6  13
BRANCH   7  15
ATOM     15  O   UNL     1       8.439 -12.027  34.716  1.00  0.00    -0.385 OA
ATOM     16  H   UNL     1       7.470 -11.978  34.932  1.00  0.00     0.211 HD
ENDBRANCH   7  15
ENDBRANCH   1   2
BRANCH   1  17
ATOM     17  C   UNL     1      11.946 -12.170  36.911  1.00  0.00     0.224 C 
ATOM     18  C   UNL     1      12.279 -12.133  35.397  1.00  0.00     0.208 C 
ATOM     19  O   UNL     1      11.652 -10.846  37.334  1.00  0.00    -0.337 OA
ATOM     20  C   UNL     1      12.621 -10.684  35.158  1.00  0.00     0.180 C 
ATOM     21  C   UNL     1      11.752  -9.998  36.208  1.00  0.00     0.179 C 
BRANCH  17  22
ATOM     22  C   UNL     1      13.156 -12.629  37.763  1.00  0.00     0.225 C 
BRANCH  22  23
ATOM     23  O   UNL     1      13.200 -14.028  37.877  1.00  0.00    -0.391 OA
ATOM     24  H   UNL     1      14.119 -14.315  37.650  1.00  0.00     0.210 HD
ENDBRANCH  22  23
ENDBRANCH  17  22
BRANCH  18  25
ATOM     25  O   UNL     1      13.330 -12.988  35.022  1.00  0.00    -0.385 OA
ATOM     26  H   UNL     1      14.041 -12.888  35.710  1.00  0.00     0.211 HD
ENDBRANCH  18  25
BRANCH  20  27
ATOM     27  O   UNL     1      13.988 -10.448  35.399  1.00  0.00    -0.387 OA
ATOM     28  H   UNL     1      14.044  -9.613  35.934  1.00  0.00     0.211 HD
ENDBRANCH  20  27
BRANCH  21  29
ATOM     29  C   UNL     1      12.257  -8.609  36.626  1.00  0.00     0.191 C 
BRANCH  29  30
ATOM     30  O   UNL     1      11.306  -7.625  36.315  1.00  0.00    -0.394 OA
ATOM     31  H   UNL     1      10.891  -7.349  37.172  1.00  0.00     0.210 HD
ENDBRANCH  29  30
ENDBRANCH  21  29
ENDBRANCH   1  17
TORSDOF 13
ENDMDL
MODEL 9
REMARK VINA RESULT:    -5.931      1.314      5.743
REMARK INTER + INTRA:         -10.286
REMARK INTER:                  -9.516
REMARK INTRA:                  -0.770
REMARK UNBOUND:                -1.235
REMARK SMILES OC[C@@H]1O[C@H](O[C@]2(CO)O[C@@H](CO)[C@@H](O)[C@H]2O)[C@@H](O)[C@H](O)[C@H]1O
REMARK SMILES IDX 6 1 5 2 3 3 22 4 4 5 20 6 18 7 2 8 1 9 23 11 21 13 19 15
REMARK SMILES IDX 7 17 16 18 10 19 14 20 11 21 8 22 9 23 17 25 15 27 12 29
REMARK SMILES IDX 13 30
REMARK H PARENT 1 10 23 12 21 14 19 16 9 24 17 26 15 28 13 31
REMARK Flexibility Score: inf
ROOT
ATOM      1  O   UNL     1      11.400 -13.098  36.437  1.00  0.00    -0.313 OA
ENDROOT
BRANCH   1   2
ATOM      2  C   UNL     1      11.916 -12.118  37.330  1.00  0.00     0.285 C 
ATOM      3  C   UNL     1      13.835 -11.349  36.074  1.00  0.00     0.178 C 
ATOM      4  C   UNL     1      13.131 -10.010  35.719  1.00  0.00     0.177 C 
ATOM      5  O   UNL     1      13.332 -12.009  37.231  1.00  0.00    -0.341 OA
ATOM      6  C   UNL     1      11.601 -10.123  35.784  1.00  0.00     0.179 C 
ATOM      7  C   UNL     1      11.184 -10.779  37.108  1.00  0.00     0.202 C 
BRANCH   3   8
ATOM      8  C   UNL     1      14.086 -12.291  34.875  1.00  0.00     0.191 C 
BRANCH   8   9
ATOM      9  O   UNL     1      14.042 -11.626  33.647  1.00  0.00    -0.394 OA
ATOM     10  H   UNL     1      14.957 -11.695  33.263  1.00  0.00     0.210 HD
ENDBRANCH   8   9
ENDBRANCH   3   8
BRANCH   4  11
ATOM     11  O   UNL     1      13.544  -9.016  36.624  1.00  0.00    -0.387 OA
ATOM     12  H   UNL     1      13.843  -8.230  36.092  1.00  0.00     0.211 HD
ENDBRANCH   4  11
BRANCH   6  13
ATOM     13  O   UNL     1      11.092 -10.863  34.703  1.00  0.00    -0.387 OA
ATOM     14  H   UNL     1      11.190 -11.824  34.927  1.00  0.00     0.211 HD
ENDBRANCH   6  13
BRANCH   7  15
ATOM     15  O   UNL     1      11.458  -9.917  38.185  1.00  0.00    -0.385 OA
ATOM     16  H   UNL     1      11.900 -10.462  38.888  1.00  0.00     0.211 HD
ENDBRANCH   7  15
ENDBRANCH   1   2
BRANCH   1  17
ATOM     17  C   UNL     1      10.050 -13.510  36.675  1.00  0.00     0.224 C 
ATOM     18  C   UNL     1       9.682 -13.416  38.178  1.00  0.00     0.208 C 
ATOM     19  O   UNL     1       9.114 -12.734  35.938  1.00  0.00    -0.337 OA
ATOM     20  C   UNL     1       8.244 -12.965  38.150  1.00  0.00     0.180 C 
ATOM     21  C   UNL     1       8.214 -12.152  36.859  1.00  0.00     0.179 C 
BRANCH  17  22
ATOM     22  C   UNL     1       9.923 -14.955  36.132  1.00  0.00     0.225 C 
BRANCH  22  23
ATOM     23  O   UNL     1      11.012 -15.748  36.530  1.00  0.00    -0.391 OA
ATOM     24  H   UNL     1      11.815 -15.401  36.068  1.00  0.00     0.210 HD
ENDBRANCH  22  23
ENDBRANCH  17  22
BRANCH  18  25
ATOM     25  O   UNL     1       9.839 -14.624  38.881  1.00  0.00    -0.385 OA
ATOM     26  H   UNL     1       9.425 -14.491  39.776  1.00  0.00     0.211 HD
ENDBRANCH  18  25
BRANCH  20  27
ATOM     27  O   UNL     1       7.376 -14.070  38.073  1.00  0.00    -0.387 OA
ATOM     28  H   UNL     1       6.683 -13.939  38.772  1.00  0.00     0.211 HD
ENDBRANCH  20  27
BRANCH  21  29
ATOM     29  C   UNL     1       6.817 -12.022  36.235  1.00  0.00     0.191 C 
BRANCH  29  30
ATOM     30  O   UNL     1       6.874 -11.270  35.052  1.00  0.00    -0.394 OA
ATOM     31  H   UNL     1       6.945 -10.319  35.321  1.00  0.00     0.210 HD
ENDBRANCH  29  30
ENDBRANCH  21  29
ENDBRANCH   1  17
TORSDOF 13
ENDMDL
