MODEL 1
REMARK VINA RESULT:    -3.869      0.000      0.000
REMARK INTER + INTRA:          -5.391
REMARK INTER:                  -5.000
REMARK INTRA:                  -0.391
REMARK UNBOUND:                -0.391
REMARK SMILES CCCCCCC(=O)[O-]
REMARK SMILES IDX 5 1 6 2 7 3 8 4 9 5 4 6 3 7 2 8 1 9
REMARK H PARENT
REMARK Flexibility Score: inf
ROOT
ATOM      1  C   UNL     1      59.013  38.477  37.853  1.00  0.00     0.006 C 
ENDROOT
BRANCH   1   2
ATOM      2  C   UNL     1      60.420  38.270  38.429  1.00  0.00     0.053 C 
BRANCH   2   3
ATOM      3  C   UNL     1      61.308  39.446  38.157  1.00  0.00     0.041 C 
ATOM      4  O   UNL     1      62.348  39.628  38.844  1.00  0.00    -0.550 OA
ATOM      5  O   UNL     1      61.006  40.321  37.121  1.00  0.00    -0.550 OA
ENDBRANCH   2   3
ENDBRANCH   1   2
BRANCH   1   6
ATOM      6  C   UNL     1      58.619  37.361  36.870  1.00  0.00     0.000 C 
BRANCH   6   7
ATOM      7  C   UNL     1      59.834  36.583  36.341  1.00  0.00    -0.000 C 
BRANCH   7   8
ATOM      8  C   UNL     1      60.163  36.923  34.880  1.00  0.00    -0.003 C 
ATOM      9  C   UNL     1      61.497  37.656  34.775  1.00  0.00     0.004 C 
ENDBRANCH   7   8
ENDBRANCH   6   7
ENDBRANCH   1   6
TORSDOF 5
ENDMDL
MODEL 2
REMARK VINA RESULT:    -3.846     18.493     19.625
REMARK INTER + INTRA:          -5.361
REMARK INTER:                  -5.105
REMARK INTRA:                  -0.256
REMARK UNBOUND:                -0.391
REMARK SMILES CCCCCCC(=O)[O-]
REMARK SMILES IDX 5 1 6 2 7 3 8 4 9 5 4 6 3 7 2 8 1 9
REMARK H PARENT
REMARK Flexibility Score: inf
ROOT
ATOM      1  C   UNL     1      46.447  36.457  51.588  1.00  0.00     0.006 C 
ENDROOT
BRANCH   1   2
ATOM      2  C   UNL     1      45.793  36.360  50.203  1.00  0.00     0.053 C 
BRANCH   2   3
ATOM      3  C   UNL     1      44.433  36.987  50.188  1.00  0.00     0.041 C 
ATOM      4  O   UNL     1      43.544  36.555  49.408  1.00  0.00    -0.550 OA
ATOM      5  O   UNL     1      44.136  38.026  51.062  1.00  0.00    -0.550 OA
ENDBRANCH   2   3
ENDBRANCH   1   2
BRANCH   1   6
ATOM      6  C   UNL     1      47.970  36.244  51.526  1.00  0.00     0.000 C 
BRANCH   6   7
ATOM      7  C   UNL     1      48.357  34.933  50.825  1.00  0.00    -0.000 C 
BRANCH   7   8
ATOM      8  C   UNL     1      49.562  35.097  49.888  1.00  0.00    -0.003 C 
ATOM      9  C   UNL     1      49.397  36.320  48.990  1.00  0.00     0.004 C 
ENDBRANCH   7   8
ENDBRANCH   6   7
ENDBRANCH   1   6
TORSDOF 5
ENDMDL
MODEL 3
REMARK VINA RESULT:    -3.833     11.477     12.495
REMARK INTER + INTRA:          -5.344
REMARK INTER:                  -5.052
REMARK INTRA:                  -0.292
REMARK UNBOUND:                -0.391
REMARK SMILES CCCCCCC(=O)[O-]
REMARK SMILES IDX 5 1 6 2 7 3 8 4 9 5 4 6 3 7 2 8 1 9
REMARK H PARENT
REMARK Flexibility Score: inf
ROOT
ATOM      1  C   UNL     1      53.409  29.651  43.212  1.00  0.00     0.006 C 
ENDROOT
BRANCH   1   2
ATOM      2  C   UNL     1      52.444  29.826  42.032  1.00  0.00     0.053 C 
BRANCH   2   3
ATOM      3  C   UNL     1      51.175  30.503  42.449  1.00  0.00     0.041 C 
ATOM      4  O   UNL     1      50.370  29.921  43.223  1.00  0.00    -0.550 OA
ATOM      5  O   UNL     1      50.898  31.793  42.012  1.00  0.00    -0.550 OA
ENDBRANCH   2   3
ENDBRANCH   1   2
BRANCH   1   6
ATOM      6  C   UNL     1      54.826  30.152  42.883  1.00  0.00     0.000 C 
BRANCH   6   7
ATOM      7  C   UNL     1      55.265  31.319  43.782  1.00  0.00    -0.000 C 
BRANCH   7   8
ATOM      8  C   UNL     1      55.260  32.666  43.046  1.00  0.00    -0.003 C 
ATOM      9  C   UNL     1      53.943  33.405  43.261  1.00  0.00     0.004 C 
ENDBRANCH   7   8
ENDBRANCH   6   7
ENDBRANCH   1   6
TORSDOF 5
ENDMDL
MODEL 4
REMARK VINA RESULT:    -3.794     18.723     19.961
REMARK INTER + INTRA:          -5.294
REMARK INTER:                  -5.124
REMARK INTRA:                  -0.170
REMARK UNBOUND:                -0.391
REMARK SMILES CCCCCCC(=O)[O-]
REMARK SMILES IDX 5 1 6 2 7 3 8 4 9 5 4 6 3 7 2 8 1 9
REMARK H PARENT
REMARK Flexibility Score: inf
ROOT
ATOM      1  C   UNL     1      48.665  35.103  50.728  1.00  0.00     0.006 C 
ENDROOT
BRANCH   1   2
ATOM      2  C   UNL     1      47.932  34.065  51.588  1.00  0.00     0.053 C 
BRANCH   2   3
ATOM      3  C   UNL     1      48.781  33.593  52.728  1.00  0.00     0.041 C 
ATOM      4  O   UNL     1      48.407  32.621  53.437  1.00  0.00    -0.550 OA
ATOM      5  O   UNL     1      50.001  34.204  52.987  1.00  0.00    -0.550 OA
ENDBRANCH   2   3
ENDBRANCH   1   2
BRANCH   1   6
ATOM      6  C   UNL     1      47.710  36.171  50.167  1.00  0.00     0.000 C 
BRANCH   6   7
ATOM      7  C   UNL     1      46.358  36.196  50.896  1.00  0.00    -0.000 C 
BRANCH   7   8
ATOM      8  C   UNL     1      45.165  36.178  49.930  1.00  0.00    -0.003 C 
ATOM      9  C   UNL     1      44.147  37.254  50.294  1.00  0.00     0.004 C 
ENDBRANCH   7   8
ENDBRANCH   6   7
ENDBRANCH   1   6
TORSDOF 5
ENDMDL
MODEL 5
REMARK VINA RESULT:    -3.769     19.445     20.298
REMARK INTER + INTRA:          -5.262
REMARK INTER:                  -5.078
REMARK INTRA:                  -0.184
REMARK UNBOUND:                -0.391
REMARK SMILES CCCCCCC(=O)[O-]
REMARK SMILES IDX 5 1 6 2 7 3 8 4 9 5 4 6 3 7 2 8 1 9
REMARK H PARENT
REMARK Flexibility Score: inf
ROOT
ATOM      1  C   UNL     1      46.602  36.339  51.382  1.00  0.00     0.006 C 
ENDROOT
BRANCH   1   2
ATOM      2  C   UNL     1      45.701  35.922  50.212  1.00  0.00     0.053 C 
BRANCH   2   3
ATOM      3  C   UNL     1      44.453  36.749  50.153  1.00  0.00     0.041 C 
ATOM      4  O   UNL     1      43.514  36.426  49.378  1.00  0.00    -0.550 OA
ATOM      5  O   UNL     1      44.312  37.857  50.980  1.00  0.00    -0.550 OA
ENDBRANCH   2   3
ENDBRANCH   1   2
BRANCH   1   6
ATOM      6  C   UNL     1      48.096  36.192  51.045  1.00  0.00     0.000 C 
BRANCH   6   7
ATOM      7  C   UNL     1      48.559  34.727  51.034  1.00  0.00    -0.000 C 
BRANCH   7   8
ATOM      8  C   UNL     1      49.204  34.302  52.361  1.00  0.00    -0.003 C 
ATOM      9  C   UNL     1      48.389  33.205  53.040  1.00  0.00     0.004 C 
ENDBRANCH   7   8
ENDBRANCH   6   7
ENDBRANCH   1   6
TORSDOF 5
ENDMDL
MODEL 6
REMARK VINA RESULT:    -3.748     18.863     20.078
REMARK INTER + INTRA:          -5.234
REMARK INTER:                  -4.956
REMARK INTRA:                  -0.278
REMARK UNBOUND:                -0.391
REMARK SMILES CCCCCCC(=O)[O-]
REMARK SMILES IDX 5 1 6 2 7 3 8 4 9 5 4 6 3 7 2 8 1 9
REMARK H PARENT
REMARK Flexibility Score: inf
ROOT
ATOM      1  C   UNL     1      45.616  36.068  51.850  1.00  0.00     0.006 C 
ENDROOT
BRANCH   1   2
ATOM      2  C   UNL     1      47.134  36.239  51.992  1.00  0.00     0.053 C 
BRANCH   2   3
ATOM      3  C   UNL     1      47.876  35.538  50.895  1.00  0.00     0.041 C 
ATOM      4  O   UNL     1      48.158  36.147  49.830  1.00  0.00    -0.550 OA
ATOM      5  O   UNL     1      48.286  34.221  51.064  1.00  0.00    -0.550 OA
ENDBRANCH   2   3
ENDBRANCH   1   2
BRANCH   1   6
ATOM      6  C   UNL     1      44.950  37.301  51.215  1.00  0.00     0.000 C 
BRANCH   6   7
ATOM      7  C   UNL     1      44.062  36.942  50.014  1.00  0.00    -0.000 C 
BRANCH   7   8
ATOM      8  C   UNL     1      44.552  35.690  49.271  1.00  0.00    -0.003 C 
ATOM      9  C   UNL     1      43.465  35.135  48.356  1.00  0.00     0.004 C 
ENDBRANCH   7   8
ENDBRANCH   6   7
ENDBRANCH   1   6
TORSDOF 5
ENDMDL
MODEL 7
REMARK VINA RESULT:    -3.740      2.186      3.709
REMARK INTER + INTRA:          -5.225
REMARK INTER:                  -4.839
REMARK INTRA:                  -0.386
REMARK UNBOUND:                -0.391
REMARK SMILES CCCCCCC(=O)[O-]
REMARK SMILES IDX 5 1 6 2 7 3 8 4 9 5 4 6 3 7 2 8 1 9
REMARK H PARENT
REMARK Flexibility Score: inf
ROOT
ATOM      1  C   UNL     1      58.689  37.384  36.850  1.00  0.00     0.006 C 
ENDROOT
BRANCH   1   2
ATOM      2  C   UNL     1      59.846  36.577  36.246  1.00  0.00     0.053 C 
BRANCH   2   3
ATOM      3  C   UNL     1      60.160  37.019  34.850  1.00  0.00     0.041 C 
ATOM      4  O   UNL     1      59.242  37.114  33.993  1.00  0.00    -0.550 OA
ATOM      5  O   UNL     1      61.461  37.361  34.505  1.00  0.00    -0.550 OA
ENDBRANCH   2   3
ENDBRANCH   1   2
BRANCH   1   6
ATOM      6  C   UNL     1      59.189  38.541  37.734  1.00  0.00     0.000 C 
BRANCH   6   7
ATOM      7  C   UNL     1      60.474  38.188  38.498  1.00  0.00    -0.000 C 
BRANCH   7   8
ATOM      8  C   UNL     1      61.549  39.279  38.381  1.00  0.00    -0.003 C 
ATOM      9  C   UNL     1      61.507  39.946  37.010  1.00  0.00     0.004 C 
ENDBRANCH   7   8
ENDBRANCH   6   7
ENDBRANCH   1   6
TORSDOF 5
ENDMDL
MODEL 8
REMARK VINA RESULT:    -3.734      1.362      3.243
REMARK INTER + INTRA:          -5.217
REMARK INTER:                  -4.754
REMARK INTRA:                  -0.462
REMARK UNBOUND:                -0.391
REMARK SMILES CCCCCCC(=O)[O-]
REMARK SMILES IDX 5 1 6 2 7 3 8 4 9 5 4 6 3 7 2 8 1 9
REMARK H PARENT
REMARK Flexibility Score: inf
ROOT
ATOM      1  C   UNL     1      60.196  37.002  34.762  1.00  0.00     0.006 C 
ENDROOT
BRANCH   1   2
ATOM      2  C   UNL     1      61.607  37.603  34.721  1.00  0.00     0.053 C 
BRANCH   2   3
ATOM      3  C   UNL     1      61.605  39.049  35.112  1.00  0.00     0.041 C 
ATOM      4  O   UNL     1      60.660  39.801  34.756  1.00  0.00    -0.550 OA
ATOM      5  O   UNL     1      62.630  39.557  35.900  1.00  0.00    -0.550 OA
ENDBRANCH   2   3
ENDBRANCH   1   2
BRANCH   1   6
ATOM      6  C   UNL     1      59.769  36.622  36.191  1.00  0.00     0.000 C 
BRANCH   6   7
ATOM      7  C   UNL     1      58.545  37.417  36.673  1.00  0.00    -0.000 C 
BRANCH   7   8
ATOM      8  C   UNL     1      58.886  38.396  37.806  1.00  0.00    -0.003 C 
ATOM      9  C   UNL     1      60.250  38.083  38.411  1.00  0.00     0.004 C 
ENDBRANCH   7   8
ENDBRANCH   6   7
ENDBRANCH   1   6
TORSDOF 5
ENDMDL
MODEL 9
REMARK VINA RESULT:    -3.711      1.309      2.087
REMARK INTER + INTRA:          -5.186
REMARK INTER:                  -4.931
REMARK INTRA:                  -0.255
REMARK UNBOUND:                -0.391
REMARK SMILES CCCCCCC(=O)[O-]
REMARK SMILES IDX 5 1 6 2 7 3 8 4 9 5 4 6 3 7 2 8 1 9
REMARK H PARENT
REMARK Flexibility Score: inf
ROOT
ATOM      1  C   UNL     1      58.913  38.512  38.348  1.00  0.00     0.006 C 
ENDROOT
BRANCH   1   2
ATOM      2  C   UNL     1      60.399  38.183  38.156  1.00  0.00     0.053 C 
BRANCH   2   3
ATOM      3  C   UNL     1      61.225  39.422  38.000  1.00  0.00     0.041 C 
ATOM      4  O   UNL     1      60.912  40.290  37.143  1.00  0.00    -0.550 OA
ATOM      5  O   UNL     1      62.322  39.636  38.827  1.00  0.00    -0.550 OA
ENDBRANCH   2   3
ENDBRANCH   1   2
BRANCH   1   6
ATOM      6  C   UNL     1      58.017  37.756  37.351  1.00  0.00     0.000 C 
BRANCH   6   7
ATOM      7  C   UNL     1      58.819  37.099  36.217  1.00  0.00    -0.000 C 
BRANCH   7   8
ATOM      8  C   UNL     1      58.263  37.440  34.827  1.00  0.00    -0.003 C 
ATOM      9  C   UNL     1      56.765  37.724  34.888  1.00  0.00     0.004 C 
ENDBRANCH   7   8
ENDBRANCH   6   7
ENDBRANCH   1   6
TORSDOF 5
ENDMDL
