MODEL 1
REMARK VINA RESULT:    55.152      0.000      0.000
REMARK INTER + INTRA:          72.247
REMARK INTER:                  72.885
REMARK INTRA:                  -0.638
REMARK UNBOUND:                -0.638
REMARK SMILES CC[C@@H](C=C[C@@H](C)[C@@H]1CC[C@H]2[C@@H]3CC=C4C[C@H](O)CC[C@]4(C)[C@H]3CC[C@]21C)C(C)C
REMARK SMILES IDX 6 1 7 2 5 3 4 4 3 5 2 6 1 7 28 8 29 9 30 10 8 11 9 12 26 13
REMARK SMILES IDX 10 14 11 15 25 16 27 17 12 18 24 19 23 20 13 21 21 22 14 23
REMARK SMILES IDX 15 24 20 25 22 26 16 27 19 28 17 29 18 30
REMARK H PARENT 18 31
REMARK Flexibility Score: inf
ROOT
ATOM      1  C   UNL     1      28.606  31.450   3.229  1.00  0.00     0.012 C 
ATOM      2  C   UNL     1      27.658  32.622   2.924  1.00  0.00     0.012 C 
ENDROOT
BRANCH   1   3
ATOM      3  C   UNL     1      30.041  31.753   2.833  1.00  0.00    -0.028 C 
ATOM      4  C   UNL     1      31.061  30.873   2.800  1.00  0.00    -0.027 C 
BRANCH   4   5
ATOM      5  C   UNL     1      31.019  29.419   3.229  1.00  0.00     0.014 C 
BRANCH   5   6
ATOM      6  C   UNL     1      31.894  29.239   4.498  1.00  0.00     0.004 C 
ATOM      7  C   UNL     1      32.064  30.512   5.337  1.00  0.00     0.004 C 
ENDBRANCH   5   6
BRANCH   5   8
ATOM      8  C   UNL     1      31.423  28.503   2.030  1.00  0.00    -0.011 C 
ATOM      9  C   UNL     1      31.847  27.092   2.472  1.00  0.00     0.008 C 
ATOM     10  C   UNL     1      30.263  28.384   1.025  1.00  0.00     0.008 C 
ENDBRANCH   5   8
ENDBRANCH   4   5
ENDBRANCH   1   3
BRANCH   1  11
ATOM     11  C   UNL     1      28.064  30.084   2.678  1.00  0.00     0.002 C 
ATOM     12  C   UNL     1      27.836  30.114   1.151  1.00  0.00     0.005 C 
ATOM     13  C   UNL     1      26.797  29.380   3.294  1.00  0.00    -0.026 C 
ATOM     14  C   UNL     1      26.564  29.314   0.875  1.00  0.00     0.005 C 
ATOM     15  C   UNL     1      26.318  28.462   2.132  1.00  0.00    -0.001 C 
ATOM     16  C   UNL     1      27.070  28.562   4.591  1.00  0.00     0.007 C 
ATOM     17  C   UNL     1      25.656  30.379   3.637  1.00  0.00     0.012 C 
ATOM     18  C   UNL     1      27.089  27.101   2.010  1.00  0.00     0.000 C 
ATOM     19  C   UNL     1      27.893  27.295   4.391  1.00  0.00     0.005 C 
ATOM     20  C   UNL     1      27.213  26.361   3.370  1.00  0.00     0.003 C 
ATOM     21  C   UNL     1      26.421  26.205   0.928  1.00  0.00     0.031 C 
ATOM     22  C   UNL     1      27.937  24.968   3.215  1.00  0.00    -0.008 C 
ATOM     23  C   UNL     1      26.591  24.724   1.107  1.00  0.00    -0.027 C 
ATOM     24  C   UNL     1      27.195  24.142   2.159  1.00  0.00    -0.065 C 
ATOM     25  C   UNL     1      27.880  24.185   4.562  1.00  0.00     0.014 C 
ATOM     26  C   UNL     1      29.418  25.137   2.780  1.00  0.00     0.016 C 
ATOM     27  C   UNL     1      27.012  22.646   2.345  1.00  0.00     0.063 C 
ATOM     28  C   UNL     1      28.405  22.735   4.487  1.00  0.00     0.033 C 
ATOM     29  C   UNL     1      28.169  22.024   3.134  1.00  0.00     0.118 C 
BRANCH  29  30
ATOM     30  O   UNL     1      27.917  20.665   3.369  1.00  0.00    -0.393 OA
ATOM     31  H   UNL     1      27.041  20.608   3.832  1.00  0.00     0.210 HD
ENDBRANCH  29  30
ENDBRANCH   1  11
TORSDOF 6
ENDMDL
MODEL 2
REMARK VINA RESULT:    57.350      3.862      6.782
REMARK INTER + INTRA:          75.152
REMARK INTER:                  72.348
REMARK INTRA:                   2.804
REMARK UNBOUND:                -0.638
REMARK SMILES CC[C@@H](C=C[C@@H](C)[C@@H]1CC[C@H]2[C@@H]3CC=C4C[C@H](O)CC[C@]4(C)[C@H]3CC[C@]21C)C(C)C
REMARK SMILES IDX 6 1 7 2 5 3 4 4 3 5 2 6 1 7 28 8 29 9 30 10 8 11 9 12 26 13
REMARK SMILES IDX 10 14 11 15 25 16 27 17 12 18 24 19 23 20 13 21 21 22 14 23
REMARK SMILES IDX 15 24 20 25 22 26 16 27 19 28 17 29 18 30
REMARK H PARENT 18 31
REMARK Flexibility Score: inf
ROOT
ATOM      1  C   UNL     1      28.029  28.272   1.547  1.00  0.00     0.012 C 
ATOM      2  C   UNL     1      27.282  27.082   0.923  1.00  0.00     0.012 C 
ENDROOT
BRANCH   1   3
ATOM      3  C   UNL     1      29.512  28.257   1.215  1.00  0.00    -0.028 C 
ATOM      4  C   UNL     1      30.378  29.274   1.396  1.00  0.00    -0.027 C 
BRANCH   4   5
ATOM      5  C   UNL     1      30.050  30.670   1.888  1.00  0.00     0.014 C 
BRANCH   5   6
ATOM      6  C   UNL     1      30.003  30.662   3.439  1.00  0.00     0.004 C 
ATOM      7  C   UNL     1      31.190  29.957   4.106  1.00  0.00     0.004 C 
ENDBRANCH   5   6
BRANCH   5   8
ATOM      8  C   UNL     1      28.741  31.177   1.205  1.00  0.00    -0.011 C 
ATOM      9  C   UNL     1      27.487  30.944   2.065  1.00  0.00     0.008 C 
ATOM     10  C   UNL     1      28.848  32.677   0.875  1.00  0.00     0.008 C 
ENDBRANCH   5   8
ENDBRANCH   4   5
ENDBRANCH   1   3
BRANCH   1  11
ATOM     11  C   UNL     1      27.718  28.437   3.076  1.00  0.00     0.002 C 
ATOM     12  C   UNL     1      28.795  27.786   3.971  1.00  0.00     0.005 C 
ATOM     13  C   UNL     1      26.328  28.023   3.694  1.00  0.00    -0.026 C 
ATOM     14  C   UNL     1      28.066  27.153   5.155  1.00  0.00     0.005 C 
ATOM     15  C   UNL     1      26.674  27.808   5.196  1.00  0.00    -0.001 C 
ATOM     16  C   UNL     1      25.194  29.074   3.514  1.00  0.00     0.007 C 
ATOM     17  C   UNL     1      25.784  26.686   3.115  1.00  0.00     0.012 C 
ATOM     18  C   UNL     1      26.730  29.122   6.052  1.00  0.00     0.000 C 
ATOM     19  C   UNL     1      25.369  30.354   4.323  1.00  0.00     0.005 C 
ATOM     20  C   UNL     1      25.493  30.033   5.827  1.00  0.00     0.003 C 
ATOM     21  C   UNL     1      26.919  28.771   7.555  1.00  0.00     0.031 C 
ATOM     22  C   UNL     1      25.538  31.319   6.740  1.00  0.00    -0.008 C 
ATOM     23  C   UNL     1      26.381  29.773   8.535  1.00  0.00    -0.027 C 
ATOM     24  C   UNL     1      25.691  30.879   8.201  1.00  0.00    -0.065 C 
ATOM     25  C   UNL     1      24.200  32.109   6.616  1.00  0.00     0.014 C 
ATOM     26  C   UNL     1      26.723  32.249   6.362  1.00  0.00     0.016 C 
ATOM     27  C   UNL     1      24.953  31.617   9.304  1.00  0.00     0.063 C 
ATOM     28  C   UNL     1      24.058  33.294   7.595  1.00  0.00     0.033 C 
ATOM     29  C   UNL     1      24.750  33.097   8.963  1.00  0.00     0.118 C 
BRANCH  29  30
ATOM     30  O   UNL     1      23.983  33.720   9.958  1.00  0.00    -0.393 OA
ATOM     31  H   UNL     1      23.563  34.518   9.545  1.00  0.00     0.210 HD
ENDBRANCH  29  30
ENDBRANCH   1  11
TORSDOF 6
ENDMDL
MODEL 3
REMARK VINA RESULT:    57.696      3.805      6.624
REMARK INTER + INTRA:          75.609
REMARK INTER:                  71.958
REMARK INTRA:                   3.652
REMARK UNBOUND:                -0.638
REMARK SMILES CC[C@@H](C=C[C@@H](C)[C@@H]1CC[C@H]2[C@@H]3CC=C4C[C@H](O)CC[C@]4(C)[C@H]3CC[C@]21C)C(C)C
REMARK SMILES IDX 6 1 7 2 5 3 4 4 3 5 2 6 1 7 28 8 29 9 30 10 8 11 9 12 26 13
REMARK SMILES IDX 10 14 11 15 25 16 27 17 12 18 24 19 23 20 13 21 21 22 14 23
REMARK SMILES IDX 15 24 20 25 22 26 16 27 19 28 17 29 18 30
REMARK H PARENT 18 31
REMARK Flexibility Score: inf
ROOT
ATOM      1  C   UNL     1      28.232  28.937   1.339  1.00  0.00     0.012 C 
ATOM      2  C   UNL     1      28.857  27.611   0.875  1.00  0.00     0.012 C 
ENDROOT
BRANCH   1   3
ATOM      3  C   UNL     1      29.076  30.139   0.949  1.00  0.00    -0.028 C 
ATOM      4  C   UNL     1      30.346  30.378   1.331  1.00  0.00    -0.027 C 
BRANCH   4   5
ATOM      5  C   UNL     1      31.175  29.549   2.293  1.00  0.00     0.014 C 
BRANCH   5   6
ATOM      6  C   UNL     1      31.029  28.048   1.926  1.00  0.00     0.004 C 
ATOM      7  C   UNL     1      32.147  27.150   2.469  1.00  0.00     0.004 C 
ENDBRANCH   5   6
BRANCH   5   8
ATOM      8  C   UNL     1      30.782  29.896   3.764  1.00  0.00    -0.011 C 
ATOM      9  C   UNL     1      31.991  30.291   4.630  1.00  0.00     0.008 C 
ATOM     10  C   UNL     1      29.752  31.040   3.793  1.00  0.00     0.008 C 
ENDBRANCH   5   8
ENDBRANCH   4   5
ENDBRANCH   1   3
BRANCH   1  11
ATOM     11  C   UNL     1      27.822  28.907   2.853  1.00  0.00     0.002 C 
ATOM     12  C   UNL     1      28.779  28.046   3.705  1.00  0.00     0.005 C 
ATOM     13  C   UNL     1      26.364  28.527   3.315  1.00  0.00    -0.026 C 
ATOM     14  C   UNL     1      27.920  27.313   4.735  1.00  0.00     0.005 C 
ATOM     15  C   UNL     1      26.581  28.070   4.788  1.00  0.00    -0.001 C 
ATOM     16  C   UNL     1      25.327  29.686   3.225  1.00  0.00     0.007 C 
ATOM     17  C   UNL     1      25.766  27.339   2.512  1.00  0.00     0.012 C 
ATOM     18  C   UNL     1      26.673  29.238   5.831  1.00  0.00     0.000 C 
ATOM     19  C   UNL     1      25.538  30.816   4.226  1.00  0.00     0.005 C 
ATOM     20  C   UNL     1      25.526  30.274   5.670  1.00  0.00     0.003 C 
ATOM     21  C   UNL     1      26.724  28.660   7.274  1.00  0.00     0.031 C 
ATOM     22  C   UNL     1      25.600  31.406   6.765  1.00  0.00    -0.008 C 
ATOM     23  C   UNL     1      26.191  29.552   8.357  1.00  0.00    -0.027 C 
ATOM     24  C   UNL     1      25.612  30.749   8.150  1.00  0.00    -0.065 C 
ATOM     25  C   UNL     1      24.337  32.316   6.678  1.00  0.00     0.014 C 
ATOM     26  C   UNL     1      26.875  32.277   6.604  1.00  0.00     0.016 C 
ATOM     27  C   UNL     1      24.852  31.381   9.304  1.00  0.00     0.063 C 
ATOM     28  C   UNL     1      24.213  33.356   7.812  1.00  0.00     0.033 C 
ATOM     29  C   UNL     1      24.786  32.906   9.176  1.00  0.00     0.118 C 
BRANCH  29  30
ATOM     30  O   UNL     1      23.997  33.442  10.203  1.00  0.00    -0.393 OA
ATOM     31  H   UNL     1      24.317  34.367  10.365  1.00  0.00     0.210 HD
ENDBRANCH  29  30
ENDBRANCH   1  11
TORSDOF 6
ENDMDL
