MODEL 1
REMARK VINA RESULT:    -4.706      0.000      0.000
REMARK INTER + INTRA:          -5.843
REMARK INTER:                  -5.531
REMARK INTRA:                  -0.312
REMARK UNBOUND:                -0.312
REMARK SMILES O=c1cc(-c2ccc(O)c(O)c2)oc2cc(O)cc(O)c12
REMARK SMILES IDX 4 1 3 2 2 3 1 4 21 5 19 6 18 7 16 8 15 9 14 10 13 11 5 12
REMARK SMILES IDX 6 13 7 14 8 15 12 16 10 17 9 18 11 20 20 22 17 24
REMARK H PARENT 9 19 11 21 20 23 17 25
REMARK Flexibility Score: inf
ROOT
ATOM      1  C   UNL     1      73.291  41.067  21.328  1.00  0.00     0.138 A 
ATOM      2  C   UNL     1      73.931  40.838  22.554  1.00  0.00     0.100 A 
ATOM      3  C   UNL     1      75.320  40.940  22.637  1.00  0.00     0.197 A 
ATOM      4  O   UNL     1      75.871  40.668  23.735  1.00  0.00    -0.289 OA
ATOM      5  C   UNL     1      76.068  41.303  21.492  1.00  0.00     0.107 A 
ATOM      6  C   UNL     1      77.485  41.477  21.469  1.00  0.00     0.134 A 
ATOM      7  C   UNL     1      78.129  41.724  20.249  1.00  0.00     0.093 A 
ATOM      8  C   UNL     1      77.405  41.863  19.067  1.00  0.00     0.123 A 
ATOM      9  C   UNL     1      76.014  41.750  19.087  1.00  0.00     0.094 A 
ATOM     10  C   UNL     1      75.345  41.468  20.281  1.00  0.00     0.146 A 
ATOM     11  O   UNL     1      74.021  41.353  20.255  1.00  0.00    -0.456 OA
ENDROOT
BRANCH   1  12
ATOM     12  C   UNL     1      71.816  40.973  21.183  1.00  0.00     0.021 A 
ATOM     13  C   UNL     1      71.077  40.227  22.114  1.00  0.00     0.016 A 
ATOM     14  C   UNL     1      69.690  40.118  21.995  1.00  0.00     0.051 A 
ATOM     15  C   UNL     1      69.012  40.742  20.944  1.00  0.00     0.157 A 
ATOM     16  C   UNL     1      71.136  41.590  20.117  1.00  0.00     0.062 A 
ATOM     17  C   UNL     1      69.745  41.483  19.988  1.00  0.00     0.158 A 
BRANCH  15  18
ATOM     18  O   UNL     1      67.624  40.598  20.885  1.00  0.00    -0.504 OA
ATOM     19  H   UNL     1      67.154  39.734  20.660  1.00  0.00     0.293 HD
ENDBRANCH  15  18
BRANCH  17  20
ATOM     20  O   UNL     1      69.140  42.121  18.903  1.00  0.00    -0.504 OA
ATOM     21  H   UNL     1      68.191  41.949  18.604  1.00  0.00     0.293 HD
ENDBRANCH  17  20
ENDBRANCH   1  12
BRANCH   6  22
ATOM     22  O   UNL     1      78.295  41.443  22.607  1.00  0.00    -0.507 OA
ATOM     23  H   UNL     1      78.244  40.742  23.330  1.00  0.00     0.293 HD
ENDBRANCH   6  22
BRANCH   8  24
ATOM     24  O   UNL     1      78.078  42.125  17.875  1.00  0.00    -0.508 OA
ATOM     25  H   UNL     1      78.804  41.507  17.529  1.00  0.00     0.293 HD
ENDBRANCH   8  24
TORSDOF 5
ENDMDL
MODEL 2
REMARK VINA RESULT:    -4.542      0.619      1.463
REMARK INTER + INTRA:          -5.651
REMARK INTER:                  -5.366
REMARK INTRA:                  -0.284
REMARK UNBOUND:                -0.312
REMARK SMILES O=c1cc(-c2ccc(O)c(O)c2)oc2cc(O)cc(O)c12
REMARK SMILES IDX 4 1 3 2 2 3 1 4 21 5 19 6 18 7 16 8 15 9 14 10 13 11 5 12
REMARK SMILES IDX 6 13 7 14 8 15 12 16 10 17 9 18 11 20 20 22 17 24
REMARK H PARENT 9 19 11 21 20 23 17 25
REMARK Flexibility Score: inf
ROOT
ATOM      1  C   UNL     1      73.139  41.139  21.224  1.00  0.00     0.138 A 
ATOM      2  C   UNL     1      73.748  40.881  22.460  1.00  0.00     0.100 A 
ATOM      3  C   UNL     1      75.138  40.949  22.573  1.00  0.00     0.197 A 
ATOM      4  O   UNL     1      75.659  40.651  23.679  1.00  0.00    -0.289 OA
ATOM      5  C   UNL     1      75.917  41.308  21.448  1.00  0.00     0.107 A 
ATOM      6  C   UNL     1      77.338  41.449  21.456  1.00  0.00     0.134 A 
ATOM      7  C   UNL     1      78.013  41.695  20.253  1.00  0.00     0.093 A 
ATOM      8  C   UNL     1      77.317  41.865  19.057  1.00  0.00     0.123 A 
ATOM      9  C   UNL     1      75.924  41.783  19.048  1.00  0.00     0.094 A 
ATOM     10  C   UNL     1      75.223  41.504  20.224  1.00  0.00     0.146 A 
ATOM     11  O   UNL     1      73.898  41.420  20.170  1.00  0.00    -0.456 OA
ENDROOT
BRANCH   1  12
ATOM     12  C   UNL     1      71.666  41.081  21.048  1.00  0.00     0.021 A 
ATOM     13  C   UNL     1      71.039  41.978  20.170  1.00  0.00     0.016 A 
ATOM     14  C   UNL     1      69.655  41.948  19.994  1.00  0.00     0.051 A 
ATOM     15  C   UNL     1      68.865  41.030  20.694  1.00  0.00     0.157 A 
ATOM     16  C   UNL     1      70.871  40.167  21.764  1.00  0.00     0.062 A 
ATOM     17  C   UNL     1      69.481  40.132  21.595  1.00  0.00     0.158 A 
BRANCH  15  18
ATOM     18  O   UNL     1      67.487  41.048  20.467  1.00  0.00    -0.504 OA
ATOM     19  H   UNL     1      66.807  40.631  21.086  1.00  0.00     0.293 HD
ENDBRANCH  15  18
BRANCH  17  20
ATOM     20  O   UNL     1      68.757  39.198  22.341  1.00  0.00    -0.504 OA
ATOM     21  H   UNL     1      67.938  39.423  22.886  1.00  0.00     0.293 HD
ENDBRANCH  17  20
ENDBRANCH   1  12
BRANCH   6  22
ATOM     22  O   UNL     1      78.123  41.383  22.610  1.00  0.00    -0.507 OA
ATOM     23  H   UNL     1      79.130  41.428  22.627  1.00  0.00     0.293 HD
ENDBRANCH   6  22
BRANCH   8  24
ATOM     24  O   UNL     1      78.021  42.124  17.883  1.00  0.00    -0.508 OA
ATOM     25  H   UNL     1      78.888  41.646  17.668  1.00  0.00     0.293 HD
ENDBRANCH   8  24
TORSDOF 5
ENDMDL
MODEL 3
REMARK VINA RESULT:    -4.266      1.491      3.398
REMARK INTER + INTRA:          -5.326
REMARK INTER:                  -5.012
REMARK INTRA:                  -0.314
REMARK UNBOUND:                -0.312
REMARK SMILES O=c1cc(-c2ccc(O)c(O)c2)oc2cc(O)cc(O)c12
REMARK SMILES IDX 4 1 3 2 2 3 1 4 21 5 19 6 18 7 16 8 15 9 14 10 13 11 5 12
REMARK SMILES IDX 6 13 7 14 8 15 12 16 10 17 9 18 11 20 20 22 17 24
REMARK H PARENT 9 19 11 21 20 23 17 25
REMARK Flexibility Score: inf
ROOT
ATOM      1  C   UNL     1      72.217  41.563  19.689  1.00  0.00     0.138 A 
ATOM      2  C   UNL     1      73.091  41.817  18.623  1.00  0.00     0.100 A 
ATOM      3  C   UNL     1      74.469  41.833  18.848  1.00  0.00     0.197 A 
ATOM      4  O   UNL     1      75.225  42.125  17.886  1.00  0.00    -0.289 OA
ATOM      5  C   UNL     1      74.972  41.562  20.143  1.00  0.00     0.107 A 
ATOM      6  C   UNL     1      76.358  41.511  20.481  1.00  0.00     0.134 A 
ATOM      7  C   UNL     1      76.735  41.349  21.821  1.00  0.00     0.093 A 
ATOM      8  C   UNL     1      75.782  41.176  22.822  1.00  0.00     0.123 A 
ATOM      9  C   UNL     1      74.425  41.170  22.495  1.00  0.00     0.094 A 
ATOM     10  C   UNL     1      74.015  41.364  21.174  1.00  0.00     0.146 A 
ATOM     11  O   UNL     1      72.714  41.366  20.905  1.00  0.00    -0.456 OA
ENDROOT
BRANCH   1  12
ATOM     12  C   UNL     1      70.744  41.533  19.504  1.00  0.00     0.021 A 
ATOM     13  C   UNL     1      70.178  42.125  18.365  1.00  0.00     0.016 A 
ATOM     14  C   UNL     1      68.795  42.116  18.173  1.00  0.00     0.051 A 
ATOM     15  C   UNL     1      67.948  41.526  19.115  1.00  0.00     0.157 A 
ATOM     16  C   UNL     1      69.890  40.951  20.460  1.00  0.00     0.062 A 
ATOM     17  C   UNL     1      68.502  40.941  20.277  1.00  0.00     0.158 A 
BRANCH  15  18
ATOM     18  O   UNL     1      66.575  41.546  18.861  1.00  0.00    -0.504 OA
ATOM     19  H   UNL     1      66.124  40.994  18.145  1.00  0.00     0.293 HD
ENDBRANCH  15  18
BRANCH  17  20
ATOM     20  O   UNL     1      67.718  40.347  21.269  1.00  0.00    -0.504 OA
ATOM     21  H   UNL     1      68.086  39.762  22.005  1.00  0.00     0.293 HD
ENDBRANCH  17  20
ENDBRANCH   1  12
BRANCH   6  22
ATOM     22  O   UNL     1      77.394  41.588  19.546  1.00  0.00    -0.507 OA
ATOM     23  H   UNL     1      78.333  41.256  19.696  1.00  0.00     0.293 HD
ENDBRANCH   6  22
BRANCH   8  24
ATOM     24  O   UNL     1      76.194  41.002  24.142  1.00  0.00    -0.508 OA
ATOM     25  H   UNL     1      75.553  41.119  24.918  1.00  0.00     0.293 HD
ENDBRANCH   8  24
TORSDOF 5
ENDMDL
MODEL 4
REMARK VINA RESULT:    -4.209      1.162      2.707
REMARK INTER + INTRA:          -5.259
REMARK INTER:                  -4.965
REMARK INTRA:                  -0.294
REMARK UNBOUND:                -0.312
REMARK SMILES O=c1cc(-c2ccc(O)c(O)c2)oc2cc(O)cc(O)c12
REMARK SMILES IDX 4 1 3 2 2 3 1 4 21 5 19 6 18 7 16 8 15 9 14 10 13 11 5 12
REMARK SMILES IDX 6 13 7 14 8 15 12 16 10 17 9 18 11 20 20 22 17 24
REMARK H PARENT 9 19 11 21 20 23 17 25
REMARK Flexibility Score: inf
ROOT
ATOM      1  C   UNL     1      72.887  41.457  20.249  1.00  0.00     0.138 A 
ATOM      2  C   UNL     1      73.520  41.715  19.025  1.00  0.00     0.100 A 
ATOM      3  C   UNL     1      74.911  41.822  18.976  1.00  0.00     0.197 A 
ATOM      4  O   UNL     1      75.445  42.116  17.876  1.00  0.00    -0.289 OA
ATOM      5  C   UNL     1      75.671  41.638  20.155  1.00  0.00     0.107 A 
ATOM      6  C   UNL     1      77.097  41.684  20.217  1.00  0.00     0.134 A 
ATOM      7  C   UNL     1      77.736  41.603  21.461  1.00  0.00     0.093 A 
ATOM      8  C   UNL     1      77.008  41.419  22.635  1.00  0.00     0.123 A 
ATOM      9  C   UNL     1      75.617  41.318  22.580  1.00  0.00     0.094 A 
ATOM     10  C   UNL     1      74.947  41.430  21.359  1.00  0.00     0.146 A 
ATOM     11  O   UNL     1      73.621  41.343  21.351  1.00  0.00    -0.456 OA
ENDROOT
BRANCH   1  12
ATOM     12  C   UNL     1      71.411  41.332  20.358  1.00  0.00     0.021 A 
ATOM     13  C   UNL     1      70.851  40.720  21.489  1.00  0.00     0.016 A 
ATOM     14  C   UNL     1      69.467  40.585  21.611  1.00  0.00     0.051 A 
ATOM     15  C   UNL     1      68.613  41.049  20.606  1.00  0.00     0.157 A 
ATOM     16  C   UNL     1      70.553  41.786  19.339  1.00  0.00     0.062 A 
ATOM     17  C   UNL     1      69.164  41.652  19.452  1.00  0.00     0.158 A 
BRANCH  15  18
ATOM     18  O   UNL     1      67.238  40.888  20.792  1.00  0.00    -0.504 OA
ATOM     19  H   UNL     1      66.653  41.550  21.281  1.00  0.00     0.293 HD
ENDBRANCH  15  18
BRANCH  17  20
ATOM     20  O   UNL     1      68.375  42.125  18.400  1.00  0.00    -0.504 OA
ATOM     21  H   UNL     1      67.706  42.875  18.489  1.00  0.00     0.293 HD
ENDBRANCH  17  20
ENDBRANCH   1  12
BRANCH   6  22
ATOM     22  O   UNL     1      77.925  41.781  19.095  1.00  0.00    -0.507 OA
ATOM     23  H   UNL     1      77.634  42.121  18.191  1.00  0.00     0.293 HD
ENDBRANCH   6  22
BRANCH   8  24
ATOM     24  O   UNL     1      77.678  41.327  23.853  1.00  0.00    -0.508 OA
ATOM     25  H   UNL     1      78.408  40.640  24.006  1.00  0.00     0.293 HD
ENDBRANCH   8  24
TORSDOF 5
ENDMDL
MODEL 5
REMARK VINA RESULT:    -3.418      1.745      7.267
REMARK INTER + INTRA:          -4.329
REMARK INTER:                  -4.010
REMARK INTRA:                  -0.318
REMARK UNBOUND:                -0.312
REMARK SMILES O=c1cc(-c2ccc(O)c(O)c2)oc2cc(O)cc(O)c12
REMARK SMILES IDX 4 1 3 2 2 3 1 4 21 5 19 6 18 7 16 8 15 9 14 10 13 11 5 12
REMARK SMILES IDX 6 13 7 14 8 15 12 16 10 17 9 18 11 20 20 22 17 24
REMARK H PARENT 9 19 11 21 20 23 17 25
REMARK Flexibility Score: inf
ROOT
ATOM      1  C   UNL     1      73.617  41.217  21.014  1.00  0.00     0.138 A 
ATOM      2  C   UNL     1      73.517  41.699  19.701  1.00  0.00     0.100 A 
ATOM      3  C   UNL     1      72.270  41.747  19.076  1.00  0.00     0.197 A 
ATOM      4  O   UNL     1      72.220  42.125  17.877  1.00  0.00    -0.289 OA
ATOM      5  C   UNL     1      71.114  41.339  19.783  1.00  0.00     0.107 A 
ATOM      6  C   UNL     1      69.785  41.382  19.262  1.00  0.00     0.134 A 
ATOM      7  C   UNL     1      68.732  40.843  20.012  1.00  0.00     0.093 A 
ATOM      8  C   UNL     1      68.949  40.318  21.285  1.00  0.00     0.123 A 
ATOM      9  C   UNL     1      70.235  40.320  21.827  1.00  0.00     0.094 A 
ATOM     10  C   UNL     1      71.312  40.819  21.090  1.00  0.00     0.146 A 
ATOM     11  O   UNL     1      72.523  40.789  21.636  1.00  0.00    -0.456 OA
ENDROOT
BRANCH   1  12
ATOM     12  C   UNL     1      74.918  41.146  21.726  1.00  0.00     0.021 A 
ATOM     13  C   UNL     1      76.084  41.587  21.081  1.00  0.00     0.016 A 
ATOM     14  C   UNL     1      77.320  41.523  21.727  1.00  0.00     0.051 A 
ATOM     15  C   UNL     1      77.422  41.011  23.024  1.00  0.00     0.157 A 
ATOM     16  C   UNL     1      75.022  40.617  23.026  1.00  0.00     0.062 A 
ATOM     17  C   UNL     1      76.259  40.546  23.680  1.00  0.00     0.158 A 
BRANCH  15  18
ATOM     18  O   UNL     1      78.687  40.980  23.616  1.00  0.00    -0.504 OA
ATOM     19  H   UNL     1      78.853  40.732  24.580  1.00  0.00     0.293 HD
ENDBRANCH  15  18
BRANCH  17  20
ATOM     20  O   UNL     1      76.285  40.008  24.969  1.00  0.00    -0.504 OA
ATOM     21  H   UNL     1      75.940  39.088  25.204  1.00  0.00     0.293 HD
ENDBRANCH  17  20
ENDBRANCH   1  12
BRANCH   6  22
ATOM     22  O   UNL     1      69.446  41.962  18.036  1.00  0.00    -0.507 OA
ATOM     23  H   UNL     1      69.888  41.750  17.155  1.00  0.00     0.293 HD
ENDBRANCH   6  22
BRANCH   8  24
ATOM     24  O   UNL     1      67.875  39.804  22.009  1.00  0.00    -0.508 OA
ATOM     25  H   UNL     1      67.540  38.859  21.862  1.00  0.00     0.293 HD
ENDBRANCH   8  24
TORSDOF 5
ENDMDL
MODEL 6
REMARK VINA RESULT:    -2.895      1.400      3.305
REMARK INTER + INTRA:          -3.714
REMARK INTER:                  -3.401
REMARK INTRA:                  -0.314
REMARK UNBOUND:                -0.312
REMARK SMILES O=c1cc(-c2ccc(O)c(O)c2)oc2cc(O)cc(O)c12
REMARK SMILES IDX 4 1 3 2 2 3 1 4 21 5 19 6 18 7 16 8 15 9 14 10 13 11 5 12
REMARK SMILES IDX 6 13 7 14 8 15 12 16 10 17 9 18 11 20 20 22 17 24
REMARK H PARENT 9 19 11 21 20 23 17 25
REMARK Flexibility Score: inf
ROOT
ATOM      1  C   UNL     1      73.270  41.548  20.270  1.00  0.00     0.138 A 
ATOM      2  C   UNL     1      74.344  41.855  19.424  1.00  0.00     0.100 A 
ATOM      3  C   UNL     1      75.650  41.778  19.911  1.00  0.00     0.197 A 
ATOM      4  O   UNL     1      76.590  42.120  19.147  1.00  0.00    -0.289 OA
ATOM      5  C   UNL     1      75.880  41.363  21.243  1.00  0.00     0.107 A 
ATOM      6  C   UNL     1      77.170  41.209  21.836  1.00  0.00     0.134 A 
ATOM      7  C   UNL     1      77.271  40.903  23.199  1.00  0.00     0.093 A 
ATOM      8  C   UNL     1      76.133  40.687  23.976  1.00  0.00     0.123 A 
ATOM      9  C   UNL     1      74.868  40.781  23.394  1.00  0.00     0.094 A 
ATOM     10  C   UNL     1      74.733  41.119  22.045  1.00  0.00     0.146 A 
ATOM     11  O   UNL     1      73.510  41.213  21.533  1.00  0.00    -0.456 OA
ENDROOT
BRANCH   1  12
ATOM     12  C   UNL     1      71.861  41.612  19.803  1.00  0.00     0.021 A 
ATOM     13  C   UNL     1      71.589  41.606  18.427  1.00  0.00     0.016 A 
ATOM     14  C   UNL     1      70.273  41.673  17.964  1.00  0.00     0.051 A 
ATOM     15  C   UNL     1      69.204  41.755  18.861  1.00  0.00     0.157 A 
ATOM     16  C   UNL     1      70.786  41.709  20.706  1.00  0.00     0.062 A 
ATOM     17  C   UNL     1      69.464  41.780  20.250  1.00  0.00     0.158 A 
BRANCH  15  18
ATOM     18  O   UNL     1      67.912  41.813  18.333  1.00  0.00    -0.504 OA
ATOM     19  H   UNL     1      67.708  41.899  17.348  1.00  0.00     0.293 HD
ENDBRANCH  15  18
BRANCH  17  20
ATOM     20  O   UNL     1      68.449  41.876  21.206  1.00  0.00    -0.504 OA
ATOM     21  H   UNL     1      67.495  41.587  21.047  1.00  0.00     0.293 HD
ENDBRANCH  17  20
ENDBRANCH   1  12
BRANCH   6  22
ATOM     22  O   UNL     1      78.371  41.319  21.130  1.00  0.00    -0.507 OA
ATOM     23  H   UNL     1      78.885  40.543  20.741  1.00  0.00     0.293 HD
ENDBRANCH   6  22
BRANCH   8  24
ATOM     24  O   UNL     1      76.272  40.370  25.325  1.00  0.00    -0.508 OA
ATOM     25  H   UNL     1      76.483  39.426  25.629  1.00  0.00     0.293 HD
ENDBRANCH   8  24
TORSDOF 5
ENDMDL
