MODEL 1
REMARK VINA RESULT:    -8.274      0.000      0.000
REMARK INTER + INTRA:          -9.967
REMARK INTER:                  -9.967
REMARK INTRA:                  -0.000
REMARK UNBOUND:                -0.000
REMARK SMILES Oc1cc(O)c2c(c1)O[C@@H](c1ccc(O)c(O)c1)[C@H](O)C2
REMARK SMILES IDX 21 1 19 2 10 3 9 4 7 5 8 6 2 7 3 8 4 9 6 10 20 11 11 13
REMARK SMILES IDX 18 14 12 15 16 16 13 17 14 18 17 19 15 21 5 23 1 25
REMARK H PARENT 20 12 17 20 15 22 5 24 1 26
REMARK Flexibility Score: inf
ROOT
ATOM      1  C   UNL     1     -35.658  -4.256 -18.452  1.00  0.00     0.079 C 
ATOM      2  C   UNL     1     -36.505  -4.940 -17.362  1.00  0.00     0.164 C 
ATOM      3  C   UNL     1     -35.804  -6.221 -16.883  1.00  0.00     0.232 C 
ATOM      4  O   UNL     1     -34.491  -5.910 -16.417  1.00  0.00    -0.482 OA
ATOM      5  C   UNL     1     -33.677  -4.965 -17.051  1.00  0.00     0.131 A 
ATOM      6  C   UNL     1     -32.342  -4.846 -16.658  1.00  0.00     0.093 A 
ATOM      7  C   UNL     1     -31.502  -3.921 -17.285  1.00  0.00     0.122 A 
ATOM      8  C   UNL     1     -31.999  -3.119 -18.315  1.00  0.00     0.092 A 
ATOM      9  C   UNL     1     -33.334  -3.224 -18.721  1.00  0.00     0.126 A 
ATOM     10  C   UNL     1     -34.200  -4.128 -18.060  1.00  0.00     0.039 A 
ENDROOT
BRANCH   2  11
ATOM     11  O   UNL     1     -37.773  -5.256 -17.875  1.00  0.00    -0.389 OA
ATOM     12  H   UNL     1     -37.680  -5.294 -18.863  1.00  0.00     0.211 HD
ENDBRANCH   2  11
BRANCH   3  13
ATOM     13  C   UNL     1     -36.588  -6.893 -15.780  1.00  0.00    -0.001 A 
ATOM     14  C   UNL     1     -37.765  -7.599 -16.076  1.00  0.00     0.057 A 
ATOM     15  C   UNL     1     -36.176  -6.779 -14.441  1.00  0.00     0.012 A 
ATOM     16  C   UNL     1     -38.513  -8.201 -15.053  1.00  0.00     0.157 A 
ATOM     17  C   UNL     1     -36.919  -7.378 -13.421  1.00  0.00     0.050 A 
ATOM     18  C   UNL     1     -38.085  -8.091 -13.719  1.00  0.00     0.157 A 
BRANCH  16  19
ATOM     19  O   UNL     1     -39.677  -8.904 -15.358  1.00  0.00    -0.504 OA
ATOM     20  H   UNL     1     -39.647  -9.828 -15.772  1.00  0.00     0.293 HD
ENDBRANCH  16  19
BRANCH  18  21
ATOM     21  O   UNL     1     -38.805  -8.679 -12.679  1.00  0.00    -0.504 OA
ATOM     22  H   UNL     1     -38.364  -9.272 -11.988  1.00  0.00     0.293 HD
ENDBRANCH  18  21
ENDBRANCH   3  13
BRANCH   9  23
ATOM     23  O   UNL     1     -33.761  -2.428 -19.786  1.00  0.00    -0.507 OA
ATOM     24  H   UNL     1     -34.533  -2.675 -20.392  1.00  0.00     0.293 HD
ENDBRANCH   9  23
BRANCH   7  25
ATOM     25  O   UNL     1     -30.168  -3.796 -16.899  1.00  0.00    -0.508 OA
ATOM     26  H   UNL     1     -29.569  -3.077 -17.287  1.00  0.00     0.293 HD
ENDBRANCH   7  25
TORSDOF 6
ENDMDL
MODEL 2
REMARK VINA RESULT:    -8.204      0.878      0.977
REMARK INTER + INTRA:          -9.883
REMARK INTER:                  -9.894
REMARK INTRA:                   0.011
REMARK UNBOUND:                -0.000
REMARK SMILES Oc1cc(O)c2c(c1)O[C@@H](c1ccc(O)c(O)c1)[C@H](O)C2
REMARK SMILES IDX 21 1 19 2 10 3 9 4 7 5 8 6 2 7 3 8 4 9 6 10 20 11 11 13
REMARK SMILES IDX 18 14 12 15 16 16 13 17 14 18 17 19 15 21 5 23 1 25
REMARK H PARENT 20 12 17 20 15 22 5 24 1 26
REMARK Flexibility Score: inf
ROOT
ATOM      1  C   UNL     1     -34.966  -3.928 -19.024  1.00  0.00     0.079 C 
ATOM      2  C   UNL     1     -35.834  -4.562 -17.920  1.00  0.00     0.164 C 
ATOM      3  C   UNL     1     -35.083  -5.738 -17.276  1.00  0.00     0.232 C 
ATOM      4  O   UNL     1     -33.825  -5.291 -16.770  1.00  0.00    -0.482 OA
ATOM      5  C   UNL     1     -33.036  -4.356 -17.449  1.00  0.00     0.131 A 
ATOM      6  C   UNL     1     -31.739  -4.107 -16.996  1.00  0.00     0.093 A 
ATOM      7  C   UNL     1     -30.922  -3.189 -17.665  1.00  0.00     0.122 A 
ATOM      8  C   UNL     1     -31.405  -2.528 -18.796  1.00  0.00     0.092 A 
ATOM      9  C   UNL     1     -32.701  -2.765 -19.265  1.00  0.00     0.126 A 
ATOM     10  C   UNL     1     -33.548  -3.660 -18.566  1.00  0.00     0.039 A 
ENDROOT
BRANCH   2  11
ATOM     11  O   UNL     1     -37.044  -5.015 -18.469  1.00  0.00    -0.389 OA
ATOM     12  H   UNL     1     -37.288  -5.843 -17.978  1.00  0.00     0.211 HD
ENDBRANCH   2  11
BRANCH   3  13
ATOM     13  C   UNL     1     -35.890  -6.354 -16.156  1.00  0.00    -0.001 A 
ATOM     14  C   UNL     1     -37.008  -7.153 -16.446  1.00  0.00     0.057 A 
ATOM     15  C   UNL     1     -35.562  -6.095 -14.815  1.00  0.00     0.012 A 
ATOM     16  C   UNL     1     -37.778  -7.705 -15.411  1.00  0.00     0.157 A 
ATOM     17  C   UNL     1     -36.327  -6.643 -13.783  1.00  0.00     0.050 A 
ATOM     18  C   UNL     1     -37.433  -7.449 -14.073  1.00  0.00     0.157 A 
BRANCH  16  19
ATOM     19  O   UNL     1     -38.882  -8.501 -15.708  1.00  0.00    -0.504 OA
ATOM     20  H   UNL     1     -39.610  -8.187 -16.339  1.00  0.00     0.293 HD
ENDBRANCH  16  19
BRANCH  18  21
ATOM     21  O   UNL     1     -38.178  -7.983 -13.021  1.00  0.00    -0.504 OA
ATOM     22  H   UNL     1     -38.684  -7.397 -12.369  1.00  0.00     0.293 HD
ENDBRANCH  18  21
ENDBRANCH   3  13
BRANCH   9  23
ATOM     23  O   UNL     1     -33.111  -2.108 -20.427  1.00  0.00    -0.507 OA
ATOM     24  H   UNL     1     -32.484  -1.578 -21.017  1.00  0.00     0.293 HD
ENDBRANCH   9  23
BRANCH   7  25
ATOM     25  O   UNL     1     -29.627  -2.934 -17.218  1.00  0.00    -0.508 OA
ATOM     26  H   UNL     1     -28.909  -2.587 -17.844  1.00  0.00     0.293 HD
ENDBRANCH   7  25
TORSDOF 6
ENDMDL
MODEL 3
REMARK VINA RESULT:    -8.159      1.420      2.127
REMARK INTER + INTRA:          -9.829
REMARK INTER:                  -9.605
REMARK INTRA:                  -0.224
REMARK UNBOUND:                -0.000
REMARK SMILES Oc1cc(O)c2c(c1)O[C@@H](c1ccc(O)c(O)c1)[C@H](O)C2
REMARK SMILES IDX 21 1 19 2 10 3 9 4 7 5 8 6 2 7 3 8 4 9 6 10 20 11 11 13
REMARK SMILES IDX 18 14 12 15 16 16 13 17 14 18 17 19 15 21 5 23 1 25
REMARK H PARENT 20 12 17 20 15 22 5 24 1 26
REMARK Flexibility Score: inf
ROOT
ATOM      1  C   UNL     1     -34.818  -3.632 -19.087  1.00  0.00     0.079 C 
ATOM      2  C   UNL     1     -35.599  -4.263 -17.918  1.00  0.00     0.164 C 
ATOM      3  C   UNL     1     -34.843  -5.492 -17.387  1.00  0.00     0.232 C 
ATOM      4  O   UNL     1     -33.521  -5.117 -17.001  1.00  0.00    -0.482 OA
ATOM      5  C   UNL     1     -32.761  -4.197 -17.730  1.00  0.00     0.131 A 
ATOM      6  C   UNL     1     -31.414  -4.020 -17.406  1.00  0.00     0.093 A 
ATOM      7  C   UNL     1     -30.627  -3.118 -18.129  1.00  0.00     0.122 A 
ATOM      8  C   UNL     1     -31.190  -2.399 -19.186  1.00  0.00     0.092 A 
ATOM      9  C   UNL     1     -32.537  -2.564 -19.526  1.00  0.00     0.126 A 
ATOM     10  C   UNL     1     -33.350  -3.443 -18.769  1.00  0.00     0.039 A 
ENDROOT
BRANCH   2  11
ATOM     11  O   UNL     1     -36.878  -4.644 -18.352  1.00  0.00    -0.389 OA
ATOM     12  H   UNL     1     -37.163  -3.973 -19.026  1.00  0.00     0.211 HD
ENDBRANCH   2  11
BRANCH   3  13
ATOM     13  C   UNL     1     -35.561  -6.108 -16.208  1.00  0.00    -0.001 A 
ATOM     14  C   UNL     1     -35.266  -5.687 -14.901  1.00  0.00     0.057 A 
ATOM     15  C   UNL     1     -36.494  -7.141 -16.402  1.00  0.00     0.012 A 
ATOM     16  C   UNL     1     -35.908  -6.275 -13.801  1.00  0.00     0.157 A 
ATOM     17  C   UNL     1     -37.134  -7.727 -15.308  1.00  0.00     0.050 A 
ATOM     18  C   UNL     1     -36.848  -7.299 -14.007  1.00  0.00     0.157 A 
BRANCH  16  19
ATOM     19  O   UNL     1     -35.613  -5.847 -12.508  1.00  0.00    -0.504 OA
ATOM     20  H   UNL     1     -35.760  -6.445 -11.703  1.00  0.00     0.293 HD
ENDBRANCH  16  19
BRANCH  18  21
ATOM     21  O   UNL     1     -37.504  -7.903 -12.935  1.00  0.00    -0.504 OA
ATOM     22  H   UNL     1     -38.392  -8.376 -13.045  1.00  0.00     0.293 HD
ENDBRANCH  18  21
ENDBRANCH   3  13
BRANCH   9  23
ATOM     23  O   UNL     1     -33.031  -1.851 -20.620  1.00  0.00    -0.507 OA
ATOM     24  H   UNL     1     -33.906  -2.071 -21.079  1.00  0.00     0.293 HD
ENDBRANCH   9  23
BRANCH   7  25
ATOM     25  O   UNL     1     -29.283  -2.935 -17.810  1.00  0.00    -0.508 OA
ATOM     26  H   UNL     1     -28.790  -3.578 -17.201  1.00  0.00     0.293 HD
ENDBRANCH   7  25
TORSDOF 6
ENDMDL
MODEL 4
REMARK VINA RESULT:    -8.134      1.928      3.190
REMARK INTER + INTRA:          -9.798
REMARK INTER:                  -9.551
REMARK INTRA:                  -0.247
REMARK UNBOUND:                -0.000
REMARK SMILES Oc1cc(O)c2c(c1)O[C@@H](c1ccc(O)c(O)c1)[C@H](O)C2
REMARK SMILES IDX 21 1 19 2 10 3 9 4 7 5 8 6 2 7 3 8 4 9 6 10 20 11 11 13
REMARK SMILES IDX 18 14 12 15 16 16 13 17 14 18 17 19 15 21 5 23 1 25
REMARK H PARENT 20 12 17 20 15 22 5 24 1 26
REMARK Flexibility Score: inf
ROOT
ATOM      1  C   UNL     1     -34.625  -5.016 -14.493  1.00  0.00     0.079 C 
ATOM      2  C   UNL     1     -35.629  -6.075 -14.000  1.00  0.00     0.164 C 
ATOM      3  C   UNL     1     -36.980  -5.886 -14.710  1.00  0.00     0.232 C 
ATOM      4  O   UNL     1     -36.796  -5.947 -16.124  1.00  0.00    -0.482 OA
ATOM      5  C   UNL     1     -35.684  -5.383 -16.759  1.00  0.00     0.131 A 
ATOM      6  C   UNL     1     -35.661  -5.314 -18.154  1.00  0.00     0.093 A 
ATOM      7  C   UNL     1     -34.569  -4.741 -18.814  1.00  0.00     0.122 A 
ATOM      8  C   UNL     1     -33.502  -4.228 -18.073  1.00  0.00     0.092 A 
ATOM      9  C   UNL     1     -33.508  -4.289 -16.675  1.00  0.00     0.126 A 
ATOM     10  C   UNL     1     -34.590  -4.907 -16.003  1.00  0.00     0.039 A 
ENDROOT
BRANCH   2  11
ATOM     11  O   UNL     1     -35.802  -5.956 -12.612  1.00  0.00    -0.389 OA
ATOM     12  H   UNL     1     -35.058  -6.458 -12.187  1.00  0.00     0.211 HD
ENDBRANCH   2  11
BRANCH   3  13
ATOM     13  C   UNL     1     -37.975  -6.940 -14.282  1.00  0.00    -0.001 A 
ATOM     14  C   UNL     1     -39.314  -6.592 -14.039  1.00  0.00     0.057 A 
ATOM     15  C   UNL     1     -37.563  -8.267 -14.074  1.00  0.00     0.012 A 
ATOM     16  C   UNL     1     -40.236  -7.560 -13.614  1.00  0.00     0.157 A 
ATOM     17  C   UNL     1     -38.480  -9.232 -13.651  1.00  0.00     0.050 A 
ATOM     18  C   UNL     1     -39.816  -8.887 -13.421  1.00  0.00     0.157 A 
BRANCH  16  19
ATOM     19  O   UNL     1     -41.564  -7.206 -13.381  1.00  0.00    -0.504 OA
ATOM     20  H   UNL     1     -41.827  -6.604 -12.610  1.00  0.00     0.293 HD
ENDBRANCH  16  19
BRANCH  18  21
ATOM     21  O   UNL     1     -40.709  -9.872 -13.000  1.00  0.00    -0.504 OA
ATOM     22  H   UNL     1     -40.555 -10.854 -13.190  1.00  0.00     0.293 HD
ENDBRANCH  18  21
ENDBRANCH   3  13
BRANCH   9  23
ATOM     23  O   UNL     1     -32.434  -3.719 -15.988  1.00  0.00    -0.507 OA
ATOM     24  H   UNL     1     -31.689  -3.208 -16.444  1.00  0.00     0.293 HD
ENDBRANCH   9  23
BRANCH   7  25
ATOM     25  O   UNL     1     -34.539  -4.669 -20.205  1.00  0.00    -0.508 OA
ATOM     26  H   UNL     1     -33.859  -5.190 -20.748  1.00  0.00     0.293 HD
ENDBRANCH   7  25
TORSDOF 6
ENDMDL
MODEL 5
REMARK VINA RESULT:    -7.965      2.779      7.283
REMARK INTER + INTRA:          -9.595
REMARK INTER:                  -9.389
REMARK INTRA:                  -0.205
REMARK UNBOUND:                -0.000
REMARK SMILES Oc1cc(O)c2c(c1)O[C@@H](c1ccc(O)c(O)c1)[C@H](O)C2
REMARK SMILES IDX 21 1 19 2 10 3 9 4 7 5 8 6 2 7 3 8 4 9 6 10 20 11 11 13
REMARK SMILES IDX 18 14 12 15 16 16 13 17 14 18 17 19 15 21 5 23 1 25
REMARK H PARENT 20 12 17 20 15 22 5 24 1 26
REMARK Flexibility Score: inf
ROOT
ATOM      1  C   UNL     1     -36.508  -4.879 -18.522  1.00  0.00     0.079 C 
ATOM      2  C   UNL     1     -35.019  -4.709 -18.879  1.00  0.00     0.164 C 
ATOM      3  C   UNL     1     -34.562  -3.279 -18.549  1.00  0.00     0.232 C 
ATOM      4  O   UNL     1     -34.812  -2.997 -17.172  1.00  0.00    -0.482 OA
ATOM      5  C   UNL     1     -35.965  -3.441 -16.516  1.00  0.00     0.131 A 
ATOM      6  C   UNL     1     -36.236  -2.972 -15.228  1.00  0.00     0.093 A 
ATOM      7  C   UNL     1     -37.390  -3.386 -14.555  1.00  0.00     0.122 A 
ATOM      8  C   UNL     1     -38.278  -4.266 -15.178  1.00  0.00     0.092 A 
ATOM      9  C   UNL     1     -38.023  -4.745 -16.467  1.00  0.00     0.126 A 
ATOM     10  C   UNL     1     -36.835  -4.364 -17.136  1.00  0.00     0.039 A 
ENDROOT
BRANCH   2  11
ATOM     11  O   UNL     1     -34.827  -4.964 -20.246  1.00  0.00    -0.389 OA
ATOM     12  H   UNL     1     -35.729  -5.023 -20.656  1.00  0.00     0.211 HD
ENDBRANCH   2  11
BRANCH   3  13
ATOM     13  C   UNL     1     -33.092  -3.093 -18.845  1.00  0.00    -0.001 A 
ATOM     14  C   UNL     1     -32.676  -2.635 -20.106  1.00  0.00     0.057 A 
ATOM     15  C   UNL     1     -32.123  -3.422 -17.882  1.00  0.00     0.012 A 
ATOM     16  C   UNL     1     -31.312  -2.487 -20.398  1.00  0.00     0.157 A 
ATOM     17  C   UNL     1     -30.764  -3.275 -18.171  1.00  0.00     0.050 A 
ATOM     18  C   UNL     1     -30.352  -2.807 -19.423  1.00  0.00     0.157 A 
BRANCH  16  19
ATOM     19  O   UNL     1     -30.910  -2.027 -21.650  1.00  0.00    -0.504 OA
ATOM     20  H   UNL     1     -31.550  -1.993 -22.435  1.00  0.00     0.293 HD
ENDBRANCH  16  19
BRANCH  18  21
ATOM     21  O   UNL     1     -28.988  -2.671 -19.681  1.00  0.00    -0.504 OA
ATOM     22  H   UNL     1     -28.494  -3.296 -20.305  1.00  0.00     0.293 HD
ENDBRANCH  18  21
ENDBRANCH   3  13
BRANCH   9  23
ATOM     23  O   UNL     1     -38.971  -5.586 -17.055  1.00  0.00    -0.507 OA
ATOM     24  H   UNL     1     -39.076  -5.693 -18.055  1.00  0.00     0.293 HD
ENDBRANCH   9  23
BRANCH   7  25
ATOM     25  O   UNL     1     -37.667  -2.923 -13.269  1.00  0.00    -0.508 OA
ATOM     26  H   UNL     1     -37.926  -1.958 -13.098  1.00  0.00     0.293 HD
ENDBRANCH   7  25
TORSDOF 6
ENDMDL
MODEL 6
REMARK VINA RESULT:    -7.870      4.416      7.664
REMARK INTER + INTRA:          -9.481
REMARK INTER:                  -9.133
REMARK INTRA:                  -0.348
REMARK UNBOUND:                -0.000
REMARK SMILES Oc1cc(O)c2c(c1)O[C@@H](c1ccc(O)c(O)c1)[C@H](O)C2
REMARK SMILES IDX 21 1 19 2 10 3 9 4 7 5 8 6 2 7 3 8 4 9 6 10 20 11 11 13
REMARK SMILES IDX 18 14 12 15 16 16 13 17 14 18 17 19 15 21 5 23 1 25
REMARK H PARENT 20 12 17 20 15 22 5 24 1 26
REMARK Flexibility Score: inf
ROOT
ATOM      1  C   UNL     1     -36.066  -6.502 -13.914  1.00  0.00     0.079 C 
ATOM      2  C   UNL     1     -36.057  -5.229 -13.047  1.00  0.00     0.164 C 
ATOM      3  C   UNL     1     -37.378  -4.463 -13.227  1.00  0.00     0.232 C 
ATOM      4  O   UNL     1     -38.478  -5.315 -12.907  1.00  0.00    -0.482 OA
ATOM      5  C   UNL     1     -38.500  -6.670 -13.254  1.00  0.00     0.131 A 
ATOM      6  C   UNL     1     -39.681  -7.396 -13.079  1.00  0.00     0.093 A 
ATOM      7  C   UNL     1     -39.736  -8.748 -13.433  1.00  0.00     0.122 A 
ATOM      8  C   UNL     1     -38.608  -9.371 -13.971  1.00  0.00     0.092 A 
ATOM      9  C   UNL     1     -37.417  -8.659 -14.154  1.00  0.00     0.126 A 
ATOM     10  C   UNL     1     -37.342  -7.302 -13.757  1.00  0.00     0.039 A 
ENDROOT
BRANCH   2  11
ATOM     11  O   UNL     1     -34.980  -4.409 -13.419  1.00  0.00    -0.389 OA
ATOM     12  H   UNL     1     -34.497  -4.883 -14.145  1.00  0.00     0.211 HD
ENDBRANCH   2  11
BRANCH   3  13
ATOM     13  C   UNL     1     -37.419  -3.231 -12.353  1.00  0.00    -0.001 A 
ATOM     14  C   UNL     1     -37.328  -1.953 -12.928  1.00  0.00     0.057 A 
ATOM     15  C   UNL     1     -37.501  -3.350 -10.956  1.00  0.00     0.012 A 
ATOM     16  C   UNL     1     -37.337  -0.806 -12.120  1.00  0.00     0.157 A 
ATOM     17  C   UNL     1     -37.510  -2.209 -10.150  1.00  0.00     0.050 A 
ATOM     18  C   UNL     1     -37.431  -0.936 -10.724  1.00  0.00     0.157 A 
BRANCH  16  19
ATOM     19  O   UNL     1     -37.251   0.459 -12.700  1.00  0.00    -0.504 OA
ATOM     20  H   UNL     1     -37.898   1.200 -12.457  1.00  0.00     0.293 HD
ENDBRANCH  16  19
BRANCH  18  21
ATOM     21  O   UNL     1     -37.444   0.185  -9.894  1.00  0.00    -0.504 OA
ATOM     22  H   UNL     1     -37.023   0.177  -8.973  1.00  0.00     0.293 HD
ENDBRANCH  18  21
ENDBRANCH   3  13
BRANCH   9  23
ATOM     23  O   UNL     1     -36.337  -9.324 -14.739  1.00  0.00    -0.507 OA
ATOM     24  H   UNL     1     -35.388  -8.975 -14.713  1.00  0.00     0.293 HD
ENDBRANCH   9  23
BRANCH   7  25
ATOM     25  O   UNL     1     -40.910  -9.480 -13.260  1.00  0.00    -0.508 OA
ATOM     26  H   UNL     1     -41.019 -10.133 -12.493  1.00  0.00     0.293 HD
ENDBRANCH   7  25
TORSDOF 6
ENDMDL
MODEL 7
REMARK VINA RESULT:    -7.812      2.170      7.292
REMARK INTER + INTRA:          -9.410
REMARK INTER:                  -9.043
REMARK INTRA:                  -0.367
REMARK UNBOUND:                -0.000
REMARK SMILES Oc1cc(O)c2c(c1)O[C@@H](c1ccc(O)c(O)c1)[C@H](O)C2
REMARK SMILES IDX 21 1 19 2 10 3 9 4 7 5 8 6 2 7 3 8 4 9 6 10 20 11 11 13
REMARK SMILES IDX 18 14 12 15 16 16 13 17 14 18 17 19 15 21 5 23 1 25
REMARK H PARENT 20 12 17 20 15 22 5 24 1 26
REMARK Flexibility Score: inf
ROOT
ATOM      1  C   UNL     1     -38.163  -4.393 -13.746  1.00  0.00     0.079 C 
ATOM      2  C   UNL     1     -37.393  -4.116 -15.051  1.00  0.00     0.164 C 
ATOM      3  C   UNL     1     -36.382  -5.245 -15.312  1.00  0.00     0.232 C 
ATOM      4  O   UNL     1     -37.060  -6.502 -15.352  1.00  0.00    -0.482 OA
ATOM      5  C   UNL     1     -38.115  -6.809 -14.487  1.00  0.00     0.131 A 
ATOM      6  C   UNL     1     -38.605  -8.117 -14.452  1.00  0.00     0.093 A 
ATOM      7  C   UNL     1     -39.649  -8.456 -13.586  1.00  0.00     0.122 A 
ATOM      8  C   UNL     1     -40.197  -7.484 -12.746  1.00  0.00     0.092 A 
ATOM      9  C   UNL     1     -39.719  -6.170 -12.767  1.00  0.00     0.126 A 
ATOM     10  C   UNL     1     -38.692  -5.810 -13.673  1.00  0.00     0.039 A 
ENDROOT
BRANCH   2  11
ATOM     11  O   UNL     1     -36.718  -2.889 -14.954  1.00  0.00    -0.389 OA
ATOM     12  H   UNL     1     -36.666  -2.667 -13.988  1.00  0.00     0.211 HD
ENDBRANCH   2  11
BRANCH   3  13
ATOM     13  C   UNL     1     -35.642  -5.027 -16.611  1.00  0.00    -0.001 A 
ATOM     14  C   UNL     1     -34.250  -4.840 -16.610  1.00  0.00     0.057 A 
ATOM     15  C   UNL     1     -36.341  -4.960 -17.828  1.00  0.00     0.012 A 
ATOM     16  C   UNL     1     -33.560  -4.608 -17.809  1.00  0.00     0.157 A 
ATOM     17  C   UNL     1     -35.656  -4.730 -19.023  1.00  0.00     0.050 A 
ATOM     18  C   UNL     1     -34.268  -4.556 -19.022  1.00  0.00     0.157 A 
BRANCH  16  19
ATOM     19  O   UNL     1     -32.178  -4.429 -17.798  1.00  0.00    -0.504 OA
ATOM     20  H   UNL     1     -31.618  -4.660 -16.986  1.00  0.00     0.293 HD
ENDBRANCH  16  19
BRANCH  18  21
ATOM     21  O   UNL     1     -33.611  -4.328 -20.231  1.00  0.00    -0.504 OA
ATOM     22  H   UNL     1     -32.671  -3.956 -20.271  1.00  0.00     0.293 HD
ENDBRANCH  18  21
ENDBRANCH   3  13
BRANCH   9  23
ATOM     23  O   UNL     1     -40.276  -5.254 -11.872  1.00  0.00    -0.507 OA
ATOM     24  H   UNL     1     -40.049  -4.268 -11.872  1.00  0.00     0.293 HD
ENDBRANCH   9  23
BRANCH   7  25
ATOM     25  O   UNL     1     -40.144  -9.759 -13.547  1.00  0.00    -0.508 OA
ATOM     26  H   UNL     1     -40.980 -10.024 -14.055  1.00  0.00     0.293 HD
ENDBRANCH   7  25
TORSDOF 6
ENDMDL
MODEL 8
REMARK VINA RESULT:    -7.652      1.936      2.187
REMARK INTER + INTRA:          -9.218
REMARK INTER:                  -8.859
REMARK INTRA:                  -0.359
REMARK UNBOUND:                -0.000
REMARK SMILES Oc1cc(O)c2c(c1)O[C@@H](c1ccc(O)c(O)c1)[C@H](O)C2
REMARK SMILES IDX 21 1 19 2 10 3 9 4 7 5 8 6 2 7 3 8 4 9 6 10 20 11 11 13
REMARK SMILES IDX 18 14 12 15 16 16 13 17 14 18 17 19 15 21 5 23 1 25
REMARK H PARENT 20 12 17 20 15 22 5 24 1 26
REMARK Flexibility Score: inf
ROOT
ATOM      1  C   UNL     1     -36.807  -4.847 -17.956  1.00  0.00     0.079 C 
ATOM      2  C   UNL     1     -37.805  -4.930 -16.785  1.00  0.00     0.164 C 
ATOM      3  C   UNL     1     -37.303  -5.940 -15.741  1.00  0.00     0.232 C 
ATOM      4  O   UNL     1     -35.996  -5.572 -15.299  1.00  0.00    -0.482 OA
ATOM      5  C   UNL     1     -35.030  -5.059 -16.171  1.00  0.00     0.131 A 
ATOM      6  C   UNL     1     -33.720  -4.898 -15.714  1.00  0.00     0.093 A 
ATOM      7  C   UNL     1     -32.730  -4.401 -16.568  1.00  0.00     0.122 A 
ATOM      8  C   UNL     1     -33.053  -4.074 -17.887  1.00  0.00     0.092 A 
ATOM      9  C   UNL     1     -34.360  -4.228 -18.362  1.00  0.00     0.126 A 
ATOM     10  C   UNL     1     -35.375  -4.689 -17.489  1.00  0.00     0.039 A 
ENDROOT
BRANCH   2  11
ATOM     11  O   UNL     1     -39.065  -5.325 -17.260  1.00  0.00    -0.389 OA
ATOM     12  H   UNL     1     -39.629  -4.509 -17.289  1.00  0.00     0.211 HD
ENDBRANCH   2  11
BRANCH   3  13
ATOM     13  C   UNL     1     -38.237  -6.011 -14.555  1.00  0.00    -0.001 A 
ATOM     14  C   UNL     1     -38.836  -7.230 -14.197  1.00  0.00     0.057 A 
ATOM     15  C   UNL     1     -38.556  -4.852 -13.828  1.00  0.00     0.012 A 
ATOM     16  C   UNL     1     -39.726  -7.297 -13.115  1.00  0.00     0.157 A 
ATOM     17  C   UNL     1     -39.442  -4.916 -12.750  1.00  0.00     0.050 A 
ATOM     18  C   UNL     1     -40.028  -6.133 -12.387  1.00  0.00     0.157 A 
BRANCH  16  19
ATOM     19  O   UNL     1     -40.311  -8.512 -12.764  1.00  0.00    -0.504 OA
ATOM     20  H   UNL     1     -41.243  -8.559 -12.368  1.00  0.00     0.293 HD
ENDBRANCH  16  19
BRANCH  18  21
ATOM     21  O   UNL     1     -40.909  -6.167 -11.306  1.00  0.00    -0.504 OA
ATOM     22  H   UNL     1     -40.851  -6.877 -10.587  1.00  0.00     0.293 HD
ENDBRANCH  18  21
ENDBRANCH   3  13
BRANCH   9  23
ATOM     23  O   UNL     1     -34.612  -3.927 -19.703  1.00  0.00    -0.507 OA
ATOM     24  H   UNL     1     -34.320  -3.064 -20.143  1.00  0.00     0.293 HD
ENDBRANCH   9  23
BRANCH   7  25
ATOM     25  O   UNL     1     -31.421  -4.238 -16.119  1.00  0.00    -0.508 OA
ATOM     26  H   UNL     1     -31.214  -3.741 -15.260  1.00  0.00     0.293 HD
ENDBRANCH   7  25
TORSDOF 6
ENDMDL
MODEL 9
REMARK VINA RESULT:    -7.576      2.571      7.195
REMARK INTER + INTRA:          -9.126
REMARK INTER:                  -8.809
REMARK INTRA:                  -0.318
REMARK UNBOUND:                -0.000
REMARK SMILES Oc1cc(O)c2c(c1)O[C@@H](c1ccc(O)c(O)c1)[C@H](O)C2
REMARK SMILES IDX 21 1 19 2 10 3 9 4 7 5 8 6 2 7 3 8 4 9 6 10 20 11 11 13
REMARK SMILES IDX 18 14 12 15 16 16 13 17 14 18 17 19 15 21 5 23 1 25
REMARK H PARENT 20 12 17 20 15 22 5 24 1 26
REMARK Flexibility Score: inf
ROOT
ATOM      1  C   UNL     1     -38.175  -7.650 -14.482  1.00  0.00     0.079 C 
ATOM      2  C   UNL     1     -36.804  -7.224 -15.042  1.00  0.00     0.164 C 
ATOM      3  C   UNL     1     -36.914  -5.835 -15.692  1.00  0.00     0.232 C 
ATOM      4  O   UNL     1     -37.415  -4.894 -14.742  1.00  0.00    -0.482 OA
ATOM      5  C   UNL     1     -38.415  -5.223 -13.821  1.00  0.00     0.131 A 
ATOM      6  C   UNL     1     -38.989  -4.208 -13.051  1.00  0.00     0.093 A 
ATOM      7  C   UNL     1     -40.002  -4.506 -12.134  1.00  0.00     0.122 A 
ATOM      8  C   UNL     1     -40.447  -5.822 -11.995  1.00  0.00     0.092 A 
ATOM      9  C   UNL     1     -39.885  -6.851 -12.758  1.00  0.00     0.126 A 
ATOM     10  C   UNL     1     -38.829  -6.563 -13.656  1.00  0.00     0.039 A 
ENDROOT
BRANCH   2  11
ATOM     11  O   UNL     1     -36.368  -8.159 -15.994  1.00  0.00    -0.389 OA
ATOM     12  H   UNL     1     -37.181  -8.586 -16.370  1.00  0.00     0.211 HD
ENDBRANCH   2  11
BRANCH   3  13
ATOM     13  C   UNL     1     -35.574  -5.367 -16.211  1.00  0.00    -0.001 A 
ATOM     14  C   UNL     1     -35.295  -5.406 -17.587  1.00  0.00     0.057 A 
ATOM     15  C   UNL     1     -34.577  -4.933 -15.321  1.00  0.00     0.012 A 
ATOM     16  C   UNL     1     -34.043  -5.000 -18.072  1.00  0.00     0.157 A 
ATOM     17  C   UNL     1     -33.330  -4.528 -15.804  1.00  0.00     0.050 A 
ATOM     18  C   UNL     1     -33.057  -4.556 -17.175  1.00  0.00     0.157 A 
BRANCH  16  19
ATOM     19  O   UNL     1     -33.778  -5.037 -19.440  1.00  0.00    -0.504 OA
ATOM     20  H   UNL     1     -33.770  -4.195 -20.004  1.00  0.00     0.293 HD
ENDBRANCH  16  19
BRANCH  18  21
ATOM     21  O   UNL     1     -31.803  -4.145 -17.626  1.00  0.00    -0.504 OA
ATOM     22  H   UNL     1     -31.695  -3.442 -18.347  1.00  0.00     0.293 HD
ENDBRANCH  18  21
ENDBRANCH   3  13
BRANCH   9  23
ATOM     23  O   UNL     1     -40.403  -8.140 -12.607  1.00  0.00    -0.507 OA
ATOM     24  H   UNL     1     -40.162  -8.749 -11.837  1.00  0.00     0.293 HD
ENDBRANCH   9  23
BRANCH   7  25
ATOM     25  O   UNL     1     -40.579  -3.499 -11.362  1.00  0.00    -0.508 OA
ATOM     26  H   UNL     1     -41.059  -2.714 -11.787  1.00  0.00     0.293 HD
ENDBRANCH   7  25
TORSDOF 6
ENDMDL
