MODEL 1
REMARK VINA RESULT:    -3.193      0.000      0.000
REMARK INTER + INTRA:          -3.193
REMARK INTER:                  -3.193
REMARK INTRA:                   0.000
REMARK UNBOUND:                 0.000
REMARK SMILES c1ccc2ccccc2c1
REMARK SMILES IDX 2 1 1 2 10 3 9 4 8 5 7 6 6 7 5 8 4 9 3 10
REMARK H PARENT
REMARK Flexibility Score: inf
ROOT
ATOM      1  C   UNL     1      -9.911  40.524   4.561  1.00  0.00     0.001 A 
ATOM      2  C   UNL     1      -9.252  39.722   5.497  1.00  0.00     0.001 A 
ATOM      3  C   UNL     1      -9.720  38.435   5.774  1.00  0.00     0.009 A 
ATOM      4  C   UNL     1     -10.855  37.940   5.114  1.00  0.00    -0.018 A 
ATOM      5  C   UNL     1     -11.336  36.650   5.383  1.00  0.00     0.009 A 
ATOM      6  C   UNL     1     -12.468  36.170   4.719  1.00  0.00     0.001 A 
ATOM      7  C   UNL     1     -13.127  36.972   3.782  1.00  0.00     0.001 A 
ATOM      8  C   UNL     1     -12.660  38.259   3.505  1.00  0.00     0.009 A 
ATOM      9  C   UNL     1     -11.524  38.754   4.165  1.00  0.00    -0.018 A 
ATOM     10  C   UNL     1     -11.043  40.044   3.896  1.00  0.00     0.009 A 
ENDROOT
TORSDOF 0
ENDMDL
MODEL 2
REMARK VINA RESULT:    -3.192      0.609      4.017
REMARK INTER + INTRA:          -3.192
REMARK INTER:                  -3.192
REMARK INTRA:                   0.000
REMARK UNBOUND:                 0.000
REMARK SMILES c1ccc2ccccc2c1
REMARK SMILES IDX 2 1 1 2 10 3 9 4 8 5 7 6 6 7 5 8 4 9 3 10
REMARK H PARENT
REMARK Flexibility Score: inf
ROOT
ATOM      1  C   UNL     1     -12.510  36.798   4.389  1.00  0.00     0.001 A 
ATOM      2  C   UNL     1     -12.940  37.827   3.545  1.00  0.00     0.001 A 
ATOM      3  C   UNL     1     -12.224  39.024   3.473  1.00  0.00     0.009 A 
ATOM      4  C   UNL     1     -11.067  39.201   4.249  1.00  0.00    -0.018 A 
ATOM      5  C   UNL     1     -10.339  40.399   4.187  1.00  0.00     0.009 A 
ATOM      6  C   UNL     1      -9.189  40.562   4.965  1.00  0.00     0.001 A 
ATOM      7  C   UNL     1      -8.759  39.534   5.809  1.00  0.00     0.001 A 
ATOM      8  C   UNL     1      -9.475  38.336   5.881  1.00  0.00     0.009 A 
ATOM      9  C   UNL     1     -10.632  38.159   5.105  1.00  0.00    -0.018 A 
ATOM     10  C   UNL     1     -11.361  36.962   5.167  1.00  0.00     0.009 A 
ENDROOT
TORSDOF 0
ENDMDL
MODEL 3
REMARK VINA RESULT:    -3.191      0.189      2.089
REMARK INTER + INTRA:          -3.191
REMARK INTER:                  -3.191
REMARK INTRA:                   0.000
REMARK UNBOUND:                 0.000
REMARK SMILES c1ccc2ccccc2c1
REMARK SMILES IDX 2 1 1 2 10 3 9 4 8 5 7 6 6 7 5 8 4 9 3 10
REMARK H PARENT
REMARK Flexibility Score: inf
ROOT
ATOM      1  C   UNL     1      -9.132  39.815   5.497  1.00  0.00     0.001 A 
ATOM      2  C   UNL     1      -9.841  40.575   4.561  1.00  0.00     0.001 A 
ATOM      3  C   UNL     1     -10.976  40.048   3.941  1.00  0.00     0.009 A 
ATOM      4  C   UNL     1     -11.412  38.751   4.255  1.00  0.00    -0.018 A 
ATOM      5  C   UNL     1     -12.551  38.209   3.640  1.00  0.00     0.009 A 
ATOM      6  C   UNL     1     -12.974  36.916   3.961  1.00  0.00     0.001 A 
ATOM      7  C   UNL     1     -12.265  36.156   4.897  1.00  0.00     0.001 A 
ATOM      8  C   UNL     1     -11.130  36.684   5.516  1.00  0.00     0.009 A 
ATOM      9  C   UNL     1     -10.693  37.980   5.203  1.00  0.00    -0.018 A 
ATOM     10  C   UNL     1      -9.555  38.523   5.818  1.00  0.00     0.009 A 
ENDROOT
TORSDOF 0
ENDMDL
MODEL 4
REMARK VINA RESULT:    -3.188      0.340      3.439
REMARK INTER + INTRA:          -3.188
REMARK INTER:                  -3.188
REMARK INTRA:                   0.000
REMARK UNBOUND:                 0.000
REMARK SMILES c1ccc2ccccc2c1
REMARK SMILES IDX 2 1 1 2 10 3 9 4 8 5 7 6 6 7 5 8 4 9 3 10
REMARK H PARENT
REMARK Flexibility Score: inf
ROOT
ATOM      1  C   UNL     1     -12.871  36.747   4.146  1.00  0.00     0.001 A 
ATOM      2  C   UNL     1     -12.095  36.081   5.099  1.00  0.00     0.001 A 
ATOM      3  C   UNL     1     -10.976  36.705   5.656  1.00  0.00     0.009 A 
ATOM      4  C   UNL     1     -10.625  38.006   5.262  1.00  0.00    -0.018 A 
ATOM      5  C   UNL     1      -9.504  38.644   5.814  1.00  0.00     0.009 A 
ATOM      6  C   UNL     1      -9.166  39.939   5.412  1.00  0.00     0.001 A 
ATOM      7  C   UNL     1      -9.942  40.606   4.459  1.00  0.00     0.001 A 
ATOM      8  C   UNL     1     -11.061  39.981   3.901  1.00  0.00     0.009 A 
ATOM      9  C   UNL     1     -11.412  38.681   4.295  1.00  0.00    -0.018 A 
ATOM     10  C   UNL     1     -12.533  38.042   3.744  1.00  0.00     0.009 A 
ENDROOT
TORSDOF 0
ENDMDL
MODEL 5
REMARK VINA RESULT:    -3.160      0.917      3.072
REMARK INTER + INTRA:          -3.160
REMARK INTER:                  -3.160
REMARK INTRA:                   0.000
REMARK UNBOUND:                 0.000
REMARK SMILES c1ccc2ccccc2c1
REMARK SMILES IDX 2 1 1 2 10 3 9 4 8 5 7 6 6 7 5 8 4 9 3 10
REMARK H PARENT
REMARK Flexibility Score: inf
ROOT
ATOM      1  C   UNL     1     -12.908  38.786   3.079  1.00  0.00     0.001 A 
ATOM      2  C   UNL     1     -12.127  39.942   3.175  1.00  0.00     0.001 A 
ATOM      3  C   UNL     1     -11.016  39.972   4.022  1.00  0.00     0.009 A 
ATOM      4  C   UNL     1     -10.677  38.842   4.782  1.00  0.00    -0.018 A 
ATOM      5  C   UNL     1      -9.565  38.859   5.636  1.00  0.00     0.009 A 
ATOM      6  C   UNL     1      -9.239  37.726   6.387  1.00  0.00     0.001 A 
ATOM      7  C   UNL     1     -10.020  36.570   6.291  1.00  0.00     0.001 A 
ATOM      8  C   UNL     1     -11.131  36.539   5.445  1.00  0.00     0.009 A 
ATOM      9  C   UNL     1     -11.470  37.670   4.685  1.00  0.00    -0.018 A 
ATOM     10  C   UNL     1     -12.582  37.653   3.830  1.00  0.00     0.009 A 
ENDROOT
TORSDOF 0
ENDMDL
MODEL 6
REMARK VINA RESULT:    -3.157      0.936      2.608
REMARK INTER + INTRA:          -3.157
REMARK INTER:                  -3.157
REMARK INTRA:                   0.000
REMARK UNBOUND:                 0.000
REMARK SMILES c1ccc2ccccc2c1
REMARK SMILES IDX 2 1 1 2 10 3 9 4 8 5 7 6 6 7 5 8 4 9 3 10
REMARK H PARENT
REMARK Flexibility Score: inf
ROOT
ATOM      1  C   UNL     1      -9.911  36.776   6.279  1.00  0.00     0.001 A 
ATOM      2  C   UNL     1      -9.320  38.041   6.197  1.00  0.00     0.001 A 
ATOM      3  C   UNL     1      -9.854  39.013   5.347  1.00  0.00     0.009 A 
ATOM      4  C   UNL     1     -10.987  38.724   4.570  1.00  0.00    -0.018 A 
ATOM      5  C   UNL     1     -11.533  39.691   3.712  1.00  0.00     0.009 A 
ATOM      6  C   UNL     1     -12.661  39.390   2.944  1.00  0.00     0.001 A 
ATOM      7  C   UNL     1     -13.252  38.125   3.026  1.00  0.00     0.001 A 
ATOM      8  C   UNL     1     -12.718  37.154   3.876  1.00  0.00     0.009 A 
ATOM      9  C   UNL     1     -11.585  37.442   4.653  1.00  0.00    -0.018 A 
ATOM     10  C   UNL     1     -11.039  36.475   5.511  1.00  0.00     0.009 A 
ENDROOT
TORSDOF 0
ENDMDL
MODEL 7
REMARK VINA RESULT:    -3.144      0.957      2.484
REMARK INTER + INTRA:          -3.144
REMARK INTER:                  -3.144
REMARK INTRA:                   0.000
REMARK UNBOUND:                 0.000
REMARK SMILES c1ccc2ccccc2c1
REMARK SMILES IDX 2 1 1 2 10 3 9 4 8 5 7 6 6 7 5 8 4 9 3 10
REMARK H PARENT
REMARK Flexibility Score: inf
ROOT
ATOM      1  C   UNL     1      -9.176  37.917   6.349  1.00  0.00     0.001 A 
ATOM      2  C   UNL     1      -9.881  36.711   6.308  1.00  0.00     0.001 A 
ATOM      3  C   UNL     1     -11.004  36.580   5.487  1.00  0.00     0.009 A 
ATOM      4  C   UNL     1     -11.430  37.660   4.698  1.00  0.00    -0.018 A 
ATOM      5  C   UNL     1     -12.557  37.542   3.869  1.00  0.00     0.009 A 
ATOM      6  C   UNL     1     -12.970  38.626   3.090  1.00  0.00     0.001 A 
ATOM      7  C   UNL     1     -12.265  39.832   3.131  1.00  0.00     0.001 A 
ATOM      8  C   UNL     1     -11.142  39.963   3.952  1.00  0.00     0.009 A 
ATOM      9  C   UNL     1     -10.716  38.883   4.740  1.00  0.00    -0.018 A 
ATOM     10  C   UNL     1      -9.590  39.001   5.569  1.00  0.00     0.009 A 
ENDROOT
TORSDOF 0
ENDMDL
MODEL 8
REMARK VINA RESULT:    -3.133     14.889     15.934
REMARK INTER + INTRA:          -3.133
REMARK INTER:                  -3.133
REMARK INTRA:                   0.000
REMARK UNBOUND:                 0.000
REMARK SMILES c1ccc2ccccc2c1
REMARK SMILES IDX 2 1 1 2 10 3 9 4 8 5 7 6 6 7 5 8 4 9 3 10
REMARK H PARENT
REMARK Flexibility Score: inf
ROOT
ATOM      1  C   UNL     1       0.349  33.214  -2.910  1.00  0.00     0.001 A 
ATOM      2  C   UNL     1       0.689  34.544  -3.177  1.00  0.00     0.001 A 
ATOM      3  C   UNL     1       1.766  35.141  -2.516  1.00  0.00     0.009 A 
ATOM      4  C   UNL     1       2.512  34.409  -1.580  1.00  0.00    -0.018 A 
ATOM      5  C   UNL     1       3.595  34.996  -0.908  1.00  0.00     0.009 A 
ATOM      6  C   UNL     1       4.329  34.256   0.022  1.00  0.00     0.001 A 
ATOM      7  C   UNL     1       3.989  32.926   0.289  1.00  0.00     0.001 A 
ATOM      8  C   UNL     1       2.913  32.329  -0.372  1.00  0.00     0.009 A 
ATOM      9  C   UNL     1       2.166  33.061  -1.308  1.00  0.00    -0.018 A 
ATOM     10  C   UNL     1       1.083  32.474  -1.979  1.00  0.00     0.009 A 
ENDROOT
TORSDOF 0
ENDMDL
MODEL 9
REMARK VINA RESULT:    -3.127     14.863     15.837
REMARK INTER + INTRA:          -3.127
REMARK INTER:                  -3.127
REMARK INTRA:                   0.000
REMARK UNBOUND:                 0.000
REMARK SMILES c1ccc2ccccc2c1
REMARK SMILES IDX 2 1 1 2 10 3 9 4 8 5 7 6 6 7 5 8 4 9 3 10
REMARK H PARENT
REMARK Flexibility Score: inf
ROOT
ATOM      1  C   UNL     1       0.664  34.641  -3.161  1.00  0.00     0.001 A 
ATOM      2  C   UNL     1       0.328  33.308  -2.902  1.00  0.00     0.001 A 
ATOM      3  C   UNL     1       1.074  32.559  -1.989  1.00  0.00     0.009 A 
ATOM      4  C   UNL     1       2.166  33.141  -1.325  1.00  0.00    -0.018 A 
ATOM      5  C   UNL     1       2.924  32.401  -0.405  1.00  0.00     0.009 A 
ATOM      6  C   UNL     1       4.009  32.992   0.248  1.00  0.00     0.001 A 
ATOM      7  C   UNL     1       4.344  34.325  -0.011  1.00  0.00     0.001 A 
ATOM      8  C   UNL     1       3.598  35.074  -0.925  1.00  0.00     0.009 A 
ATOM      9  C   UNL     1       2.507  34.492  -1.588  1.00  0.00    -0.018 A 
ATOM     10  C   UNL     1       1.749  35.232  -2.508  1.00  0.00     0.009 A 
ENDROOT
TORSDOF 0
ENDMDL
