MODEL 1
REMARK VINA RESULT:    -3.606      0.000      0.000
REMARK INTER + INTRA:          -5.545
REMARK INTER:                  -5.081
REMARK INTRA:                  -0.463
REMARK UNBOUND:                -0.463
REMARK SMILES CCCCCCCCC(=O)[O-]
REMARK SMILES IDX 6 1 7 2 8 3 9 4 10 5 11 6 5 7 4 8 3 9 2 10 1 11
REMARK H PARENT
REMARK Flexibility Score: inf
ROOT
ATOM      1  C   UNL     1      -6.943  -7.257  -6.282  1.00  0.00     0.000 C 
ENDROOT
BRANCH   1   2
ATOM      2  C   UNL     1      -5.497  -6.754  -6.416  1.00  0.00     0.006 C 
BRANCH   2   3
ATOM      3  C   UNL     1      -5.020  -6.741  -7.874  1.00  0.00     0.053 C 
BRANCH   3   4
ATOM      4  C   UNL     1      -3.887  -7.696  -8.096  1.00  0.00     0.041 C 
ATOM      5  O   UNL     1      -3.376  -8.311  -7.124  1.00  0.00    -0.550 OA
ATOM      6  O   UNL     1      -3.376  -7.883  -9.374  1.00  0.00    -0.550 OA
ENDBRANCH   3   4
ENDBRANCH   2   3
ENDBRANCH   1   2
BRANCH   1   7
ATOM      7  C   UNL     1      -7.639  -7.293  -7.651  1.00  0.00     0.000 C 
BRANCH   7   8
ATOM      8  C   UNL     1      -9.050  -6.682  -7.618  1.00  0.00    -0.000 C 
BRANCH   8   9
ATOM      9  C   UNL     1      -9.374  -6.020  -6.267  1.00  0.00    -0.000 C 
BRANCH   9  10
ATOM     10  C   UNL     1     -10.064  -4.657  -6.432  1.00  0.00    -0.003 C 
ATOM     11  C   UNL     1      -9.996  -4.126  -7.863  1.00  0.00     0.004 C 
ENDBRANCH   9  10
ENDBRANCH   8   9
ENDBRANCH   7   8
ENDBRANCH   1   7
TORSDOF 7
ENDMDL
MODEL 2
REMARK VINA RESULT:    -3.356      3.169      5.243
REMARK INTER + INTRA:          -5.193
REMARK INTER:                  -4.768
REMARK INTRA:                  -0.424
REMARK UNBOUND:                -0.463
REMARK SMILES CCCCCCCCC(=O)[O-]
REMARK SMILES IDX 6 1 7 2 8 3 9 4 10 5 11 6 5 7 4 8 3 9 2 10 1 11
REMARK H PARENT
REMARK Flexibility Score: inf
ROOT
ATOM      1  C   UNL     1      -7.045  -7.432  -5.560  1.00  0.00     0.000 C 
ENDROOT
BRANCH   1   2
ATOM      2  C   UNL     1      -8.052  -7.238  -6.703  1.00  0.00     0.006 C 
BRANCH   2   3
ATOM      3  C   UNL     1      -9.040  -6.099  -6.419  1.00  0.00     0.053 C 
BRANCH   3   4
ATOM      4  C   UNL     1      -9.420  -5.368  -7.671  1.00  0.00     0.041 C 
ATOM      5  O   UNL     1      -9.676  -4.137  -7.634  1.00  0.00    -0.550 OA
ATOM      6  O   UNL     1      -9.521  -6.057  -8.873  1.00  0.00    -0.550 OA
ENDBRANCH   3   4
ENDBRANCH   2   3
ENDBRANCH   1   2
BRANCH   1   7
ATOM      7  C   UNL     1      -5.627  -7.652  -6.109  1.00  0.00     0.000 C 
BRANCH   7   8
ATOM      8  C   UNL     1      -5.301  -6.732  -7.297  1.00  0.00    -0.000 C 
BRANCH   8   9
ATOM      9  C   UNL     1      -4.017  -7.153  -8.034  1.00  0.00    -0.000 C 
BRANCH   9  10
ATOM     10  C   UNL     1      -4.311  -7.920  -9.333  1.00  0.00    -0.003 C 
ATOM     11  C   UNL     1      -5.791  -7.896  -9.716  1.00  0.00     0.004 C 
ENDBRANCH   9  10
ENDBRANCH   8   9
ENDBRANCH   7   8
ENDBRANCH   1   7
TORSDOF 7
ENDMDL
MODEL 3
REMARK VINA RESULT:    -3.348      1.325      2.028
REMARK INTER + INTRA:          -5.182
REMARK INTER:                  -4.764
REMARK INTRA:                  -0.417
REMARK UNBOUND:                -0.463
REMARK SMILES CCCCCCCCC(=O)[O-]
REMARK SMILES IDX 6 1 7 2 8 3 9 4 10 5 11 6 5 7 4 8 3 9 2 10 1 11
REMARK H PARENT
REMARK Flexibility Score: inf
ROOT
ATOM      1  C   UNL     1      -5.084  -6.506  -6.994  1.00  0.00     0.000 C 
ENDROOT
BRANCH   1   2
ATOM      2  C   UNL     1      -4.146  -7.077  -8.068  1.00  0.00     0.006 C 
BRANCH   2   3
ATOM      3  C   UNL     1      -4.360  -8.580  -8.286  1.00  0.00     0.053 C 
BRANCH   3   4
ATOM      4  C   UNL     1      -4.147  -9.360  -7.025  1.00  0.00     0.041 C 
ATOM      5  O   UNL     1      -2.995  -9.466  -6.531  1.00  0.00    -0.550 OA
ATOM      6  O   UNL     1      -5.220  -9.995  -6.411  1.00  0.00    -0.550 OA
ENDBRANCH   3   4
ENDBRANCH   2   3
ENDBRANCH   1   2
BRANCH   1   7
ATOM      7  C   UNL     1      -6.555  -6.672  -7.406  1.00  0.00     0.000 C 
BRANCH   7   8
ATOM      8  C   UNL     1      -7.461  -7.070  -6.229  1.00  0.00    -0.000 C 
BRANCH   8   9
ATOM      9  C   UNL     1      -8.956  -7.016  -6.591  1.00  0.00    -0.000 C 
BRANCH   9  10
ATOM     10  C   UNL     1      -9.620  -5.703  -6.149  1.00  0.00    -0.003 C 
ATOM     11  C   UNL     1      -9.661  -4.654  -7.260  1.00  0.00     0.004 C 
ENDBRANCH   9  10
ENDBRANCH   8   9
ENDBRANCH   7   8
ENDBRANCH   1   7
TORSDOF 7
ENDMDL
MODEL 4
REMARK VINA RESULT:    -3.336      3.188      5.470
REMARK INTER + INTRA:          -5.165
REMARK INTER:                  -4.521
REMARK INTRA:                  -0.644
REMARK UNBOUND:                -0.463
REMARK SMILES CCCCCCCCC(=O)[O-]
REMARK SMILES IDX 6 1 7 2 8 3 9 4 10 5 11 6 5 7 4 8 3 9 2 10 1 11
REMARK H PARENT
REMARK Flexibility Score: inf
ROOT
ATOM      1  C   UNL     1      -5.833  -7.168  -5.989  1.00  0.00     0.000 C 
ENDROOT
BRANCH   1   2
ATOM      2  C   UNL     1      -7.369  -7.169  -5.992  1.00  0.00     0.006 C 
BRANCH   2   3
ATOM      3  C   UNL     1      -7.947  -6.668  -7.322  1.00  0.00     0.053 C 
BRANCH   3   4
ATOM      4  C   UNL     1      -9.152  -5.803  -7.112  1.00  0.00     0.041 C 
ATOM      5  O   UNL     1      -9.653  -5.680  -5.964  1.00  0.00    -0.550 OA
ATOM      6  O   UNL     1      -9.741  -5.158  -8.192  1.00  0.00    -0.550 OA
ENDBRANCH   3   4
ENDBRANCH   2   3
ENDBRANCH   1   2
BRANCH   1   7
ATOM      7  C   UNL     1      -5.283  -6.359  -7.174  1.00  0.00     0.000 C 
BRANCH   7   8
ATOM      8  C   UNL     1      -4.157  -7.091  -7.923  1.00  0.00    -0.000 C 
BRANCH   8   9
ATOM      9  C   UNL     1      -4.653  -7.784  -9.204  1.00  0.00    -0.000 C 
BRANCH   9  10
ATOM     10  C   UNL     1      -5.034  -9.254  -8.967  1.00  0.00    -0.003 C 
ATOM     11  C   UNL     1      -4.140  -9.940  -7.934  1.00  0.00     0.004 C 
ENDBRANCH   9  10
ENDBRANCH   8   9
ENDBRANCH   7   8
ENDBRANCH   1   7
TORSDOF 7
ENDMDL
MODEL 5
REMARK VINA RESULT:    -3.289      1.137      2.138
REMARK INTER + INTRA:          -5.099
REMARK INTER:                  -4.400
REMARK INTRA:                  -0.698
REMARK UNBOUND:                -0.463
REMARK SMILES CCCCCCCCC(=O)[O-]
REMARK SMILES IDX 6 1 7 2 8 3 9 4 10 5 11 6 5 7 4 8 3 9 2 10 1 11
REMARK H PARENT
REMARK Flexibility Score: inf
ROOT
ATOM      1  C   UNL     1      -6.372  -7.208  -5.827  1.00  0.00     0.000 C 
ENDROOT
BRANCH   1   2
ATOM      2  C   UNL     1      -5.622  -6.517  -6.977  1.00  0.00     0.006 C 
BRANCH   2   3
ATOM      3  C   UNL     1      -5.383  -7.460  -8.163  1.00  0.00     0.053 C 
BRANCH   3   4
ATOM      4  C   UNL     1      -3.966  -7.943  -8.212  1.00  0.00     0.041 C 
ATOM      5  O   UNL     1      -3.330  -7.935  -9.298  1.00  0.00    -0.550 OA
ATOM      6  O   UNL     1      -3.358  -8.430  -7.062  1.00  0.00    -0.550 OA
ENDBRANCH   3   4
ENDBRANCH   2   3
ENDBRANCH   1   2
BRANCH   1   7
ATOM      7  C   UNL     1      -7.837  -7.472  -6.208  1.00  0.00     0.000 C 
BRANCH   7   8
ATOM      8  C   UNL     1      -8.614  -6.181  -6.512  1.00  0.00    -0.000 C 
BRANCH   8   9
ATOM      9  C   UNL     1      -9.294  -6.212  -7.892  1.00  0.00    -0.000 C 
BRANCH   9  10
ATOM     10  C   UNL     1      -9.133  -7.569  -8.595  1.00  0.00    -0.003 C 
ATOM     11  C   UNL     1      -8.644  -7.436 -10.037  1.00  0.00     0.004 C 
ENDBRANCH   9  10
ENDBRANCH   8   9
ENDBRANCH   7   8
ENDBRANCH   1   7
TORSDOF 7
ENDMDL
MODEL 6
REMARK VINA RESULT:    -3.222      1.416      2.160
REMARK INTER + INTRA:          -5.004
REMARK INTER:                  -4.642
REMARK INTRA:                  -0.362
REMARK UNBOUND:                -0.463
REMARK SMILES CCCCCCCCC(=O)[O-]
REMARK SMILES IDX 6 1 7 2 8 3 9 4 10 5 11 6 5 7 4 8 3 9 2 10 1 11
REMARK H PARENT
REMARK Flexibility Score: inf
ROOT
ATOM      1  C   UNL     1      -5.324  -6.424  -7.280  1.00  0.00     0.000 C 
ENDROOT
BRANCH   1   2
ATOM      2  C   UNL     1      -4.120  -7.101  -7.954  1.00  0.00     0.006 C 
BRANCH   2   3
ATOM      3  C   UNL     1      -4.523  -7.875  -9.216  1.00  0.00     0.053 C 
BRANCH   3   4
ATOM      4  C   UNL     1      -4.352  -9.353  -9.040  1.00  0.00     0.041 C 
ATOM      5  O   UNL     1      -5.338 -10.125  -9.165  1.00  0.00    -0.550 OA
ATOM      6  O   UNL     1      -3.108  -9.874  -8.705  1.00  0.00    -0.550 OA
ENDBRANCH   3   4
ENDBRANCH   2   3
ENDBRANCH   1   2
BRANCH   1   7
ATOM      7  C   UNL     1      -5.736  -7.180  -6.007  1.00  0.00     0.000 C 
BRANCH   7   8
ATOM      8  C   UNL     1      -7.256  -7.385  -5.903  1.00  0.00    -0.000 C 
BRANCH   8   9
ATOM      9  C   UNL     1      -8.037  -6.535  -6.921  1.00  0.00    -0.000 C 
BRANCH   9  10
ATOM     10  C   UNL     1      -9.414  -6.105  -6.393  1.00  0.00    -0.003 C 
ATOM     11  C   UNL     1      -9.739  -4.644  -6.703  1.00  0.00     0.004 C 
ENDBRANCH   9  10
ENDBRANCH   8   9
ENDBRANCH   7   8
ENDBRANCH   1   7
TORSDOF 7
ENDMDL
MODEL 7
REMARK VINA RESULT:    -3.133      1.489      2.002
REMARK INTER + INTRA:          -4.879
REMARK INTER:                  -4.378
REMARK INTRA:                  -0.501
REMARK UNBOUND:                -0.463
REMARK SMILES CCCCCCCCC(=O)[O-]
REMARK SMILES IDX 6 1 7 2 8 3 9 4 10 5 11 6 5 7 4 8 3 9 2 10 1 11
REMARK H PARENT
REMARK Flexibility Score: inf
ROOT
ATOM      1  C   UNL     1      -6.753  -9.126  -8.728  1.00  0.00     0.000 C 
ENDROOT
BRANCH   1   2
ATOM      2  C   UNL     1      -6.160  -7.991  -9.578  1.00  0.00     0.006 C 
BRANCH   2   3
ATOM      3  C   UNL     1      -4.642  -7.862  -9.397  1.00  0.00     0.053 C 
BRANCH   3   4
ATOM      4  C   UNL     1      -4.285  -7.419  -8.011  1.00  0.00     0.041 C 
ATOM      5  O   UNL     1      -4.761  -6.353  -7.543  1.00  0.00    -0.550 OA
ATOM      6  O   UNL     1      -3.400  -8.171  -7.248  1.00  0.00    -0.550 OA
ENDBRANCH   3   4
ENDBRANCH   2   3
ENDBRANCH   1   2
BRANCH   1   7
ATOM      7  C   UNL     1      -8.055  -8.677  -8.047  1.00  0.00     0.000 C 
BRANCH   7   8
ATOM      8  C   UNL     1      -8.218  -7.148  -8.025  1.00  0.00    -0.000 C 
BRANCH   8   9
ATOM      9  C   UNL     1      -8.229  -6.576  -6.597  1.00  0.00    -0.000 C 
BRANCH   9  10
ATOM     10  C   UNL     1      -9.579  -5.942  -6.229  1.00  0.00    -0.003 C 
ATOM     11  C   UNL     1      -9.819  -4.605  -6.930  1.00  0.00     0.004 C 
ENDBRANCH   9  10
ENDBRANCH   8   9
ENDBRANCH   7   8
ENDBRANCH   1   7
TORSDOF 7
ENDMDL
MODEL 8
REMARK VINA RESULT:    -3.001     16.082     16.849
REMARK INTER + INTRA:          -4.692
REMARK INTER:                  -4.677
REMARK INTRA:                  -0.015
REMARK UNBOUND:                -0.463
REMARK SMILES CCCCCCCCC(=O)[O-]
REMARK SMILES IDX 6 1 7 2 8 3 9 4 10 5 11 6 5 7 4 8 3 9 2 10 1 11
REMARK H PARENT
REMARK Flexibility Score: inf
ROOT
ATOM      1  C   UNL     1       1.121   9.114  -8.746  1.00  0.00     0.000 C 
ENDROOT
BRANCH   1   2
ATOM      2  C   UNL     1       1.946   8.423  -9.843  1.00  0.00     0.006 C 
BRANCH   2   3
ATOM      3  C   UNL     1       1.986   6.900  -9.666  1.00  0.00     0.053 C 
BRANCH   3   4
ATOM      4  C   UNL     1       0.746   6.385  -9.001  1.00  0.00     0.041 C 
ATOM      5  O   UNL     1      -0.350   6.377  -9.620  1.00  0.00    -0.550 OA
ATOM      6  O   UNL     1       0.795   5.944  -7.685  1.00  0.00    -0.550 OA
ENDBRANCH   3   4
ENDBRANCH   2   3
ENDBRANCH   1   2
BRANCH   1   7
ATOM      7  C   UNL     1       0.114  10.100  -9.357  1.00  0.00     0.000 C 
BRANCH   7   8
ATOM      8  C   UNL     1      -1.327   9.849  -8.882  1.00  0.00    -0.000 C 
BRANCH   8   9
ATOM      9  C   UNL     1      -1.384   9.209  -7.483  1.00  0.00    -0.000 C 
BRANCH   9  10
ATOM     10  C   UNL     1      -0.717  10.084  -6.410  1.00  0.00    -0.003 C 
ATOM     11  C   UNL     1      -1.506  10.125  -5.101  1.00  0.00     0.004 C 
ENDBRANCH   9  10
ENDBRANCH   8   9
ENDBRANCH   7   8
ENDBRANCH   1   7
TORSDOF 7
ENDMDL
MODEL 9
REMARK VINA RESULT:    -2.897      3.073      5.057
REMARK INTER + INTRA:          -4.546
REMARK INTER:                  -3.799
REMARK INTRA:                  -0.747
REMARK UNBOUND:                -0.463
REMARK SMILES CCCCCCCCC(=O)[O-]
REMARK SMILES IDX 6 1 7 2 8 3 9 4 10 5 11 6 5 7 4 8 3 9 2 10 1 11
REMARK H PARENT
REMARK Flexibility Score: inf
ROOT
ATOM      1  C   UNL     1      -7.666  -8.778  -9.240  1.00  0.00     0.000 C 
ENDROOT
BRANCH   1   2
ATOM      2  C   UNL     1      -8.513  -8.105  -8.148  1.00  0.00     0.006 C 
BRANCH   2   3
ATOM      3  C   UNL     1      -8.954  -6.690  -8.545  1.00  0.00     0.053 C 
BRANCH   3   4
ATOM      4  C   UNL     1      -9.100  -5.799  -7.350  1.00  0.00     0.041 C 
ATOM      5  O   UNL     1      -9.300  -4.565  -7.499  1.00  0.00    -0.550 OA
ATOM      6  O   UNL     1      -8.983  -6.327  -6.071  1.00  0.00    -0.550 OA
ENDBRANCH   3   4
ENDBRANCH   2   3
ENDBRANCH   1   2
BRANCH   1   7
ATOM      7  C   UNL     1      -6.450  -7.912  -9.601  1.00  0.00     0.000 C 
BRANCH   7   8
ATOM      8  C   UNL     1      -5.167  -8.359  -8.881  1.00  0.00    -0.000 C 
BRANCH   8   9
ATOM      9  C   UNL     1      -4.406  -7.181  -8.246  1.00  0.00    -0.000 C 
BRANCH   9  10
ATOM     10  C   UNL     1      -5.241  -6.446  -7.186  1.00  0.00    -0.003 C 
ATOM     11  C   UNL     1      -5.673  -7.354  -6.034  1.00  0.00     0.004 C 
ENDBRANCH   9  10
ENDBRANCH   8   9
ENDBRANCH   7   8
ENDBRANCH   1   7
TORSDOF 7
ENDMDL
