MODEL 1
REMARK VINA RESULT:    -6.849      0.000      0.000
REMARK INTER + INTRA:         -15.616
REMARK INTER:                 -13.056
REMARK INTRA:                  -2.560
REMARK UNBOUND:                -2.560
REMARK SMILES C[C@@H]1O[C@H](O[C@H]2[C@H](O)[C@@H](OCCc3ccc(O)c(O)c3)O[C@H](CO)[C@@H]2OC(=O)C=Cc2ccc(O)c(O)c2)[C@@H](O)[C@@H](O)[C@@H]1O
REMARK SMILES IDX 6 1 7 2 9 3 21 4 22 5 25 6 5 7 4 8 1 9 2 10 43 11 3 12 41 13
REMARK SMILES IDX 39 14 44 15 42 17 40 19 8 21 26 23 27 24 28 25 29 26 30 27
REMARK SMILES IDX 31 28 38 29 32 30 36 31 33 32 34 33 37 34 35 36 10 38 11 39
REMARK SMILES IDX 12 40 13 41 20 42 14 43 18 44 15 45 16 46 19 47 17 49 23 51
REMARK SMILES IDX 24 52
REMARK H PARENT 44 16 42 18 40 20 8 22 37 35 35 37 19 48 17 50 24 53
REMARK Flexibility Score: inf
ROOT
ATOM      1  C   UNL     1      14.754  23.415  49.031  1.00  0.00     0.199 C 
ATOM      2  C   UNL     1      13.794  22.494  48.254  1.00  0.00     0.203 C 
ATOM      3  C   UNL     1      13.389  23.139  46.919  1.00  0.00     0.282 C 
ATOM      4  O   UNL     1      12.763  24.389  47.141  1.00  0.00    -0.340 OA
ATOM      5  C   UNL     1      13.613  25.326  47.787  1.00  0.00     0.190 C 
ATOM      6  C   UNL     1      14.120  24.810  49.161  1.00  0.00     0.240 C 
ENDROOT
BRANCH   1   7
ATOM      7  O   UNL     1      14.955  22.853  50.318  1.00  0.00    -0.340 OA
BRANCH   7   8
ATOM      8  C   UNL     1      16.318  22.599  50.621  1.00  0.00     0.282 C 
ATOM      9  C   UNL     1      14.641  23.347  53.142  1.00  0.00     0.041 C 
ATOM     10  C   UNL     1      16.080  22.817  52.998  1.00  0.00     0.150 C 
ATOM     11  C   UNL     1      16.221  21.289  53.204  1.00  0.00     0.174 C 
ATOM     12  O   UNL     1      16.712  23.284  51.807  1.00  0.00    -0.344 OA
ATOM     13  C   UNL     1      15.799  20.524  51.949  1.00  0.00     0.179 C 
ATOM     14  C   UNL     1      16.542  21.079  50.722  1.00  0.00     0.202 C 
BRANCH  11  15
ATOM     15  O   UNL     1      15.451  20.862  54.300  1.00  0.00    -0.388 OA
ATOM     16  H   UNL     1      15.677  21.459  55.067  1.00  0.00     0.211 HD
ENDBRANCH  11  15
BRANCH  13  17
ATOM     17  O   UNL     1      16.087  19.158  52.115  1.00  0.00    -0.387 OA
ATOM     18  H   UNL     1      15.232  18.667  51.975  1.00  0.00     0.211 HD
ENDBRANCH  13  17
BRANCH  14  19
ATOM     19  O   UNL     1      17.915  20.793  50.826  1.00  0.00    -0.385 OA
ATOM     20  H   UNL     1      18.007  20.041  51.466  1.00  0.00     0.211 HD
ENDBRANCH  14  19
ENDBRANCH   7   8
ENDBRANCH   1   7
BRANCH   2  21
ATOM     21  O   UNL     1      14.348  21.220  48.013  1.00  0.00    -0.385 OA
ATOM     22  H   UNL     1      13.967  20.575  48.671  1.00  0.00     0.211 HD
ENDBRANCH   2  21
BRANCH   6  23
ATOM     23  O   UNL     1      15.084  25.698  49.725  1.00  0.00    -0.453 OA
BRANCH  23  24
ATOM     24  C   UNL     1      14.774  26.617  50.723  1.00  0.00     0.331 C 
ATOM     25  O   UNL     1      13.662  26.585  51.303  1.00  0.00    -0.247 OA
BRANCH  24  26
ATOM     26  C   UNL     1      15.763  27.646  51.049  1.00  0.00     0.094 C 
ATOM     27  C   UNL     1      15.654  28.377  52.170  1.00  0.00     0.016 C 
BRANCH  27  28
ATOM     28  C   UNL     1      16.761  29.200  52.709  1.00  0.00    -0.021 A 
ATOM     29  C   UNL     1      17.682  28.594  53.581  1.00  0.00     0.058 A 
ATOM     30  C   UNL     1      16.951  30.551  52.351  1.00  0.00     0.012 A 
ATOM     31  C   UNL     1      18.813  29.293  54.033  1.00  0.00     0.157 A 
ATOM     32  C   UNL     1      18.077  31.249  52.806  1.00  0.00     0.051 A 
ATOM     33  C   UNL     1      19.020  30.621  53.631  1.00  0.00     0.157 A 
BRANCH  31  34
ATOM     34  O   UNL     1      19.722  28.647  54.866  1.00  0.00    -0.504 OA
ATOM     35  H   UNL     1      19.578  28.585  55.867  1.00  0.00     0.293 HD
ENDBRANCH  31  34
BRANCH  33  36
ATOM     36  O   UNL     1      20.169  31.304  54.035  1.00  0.00    -0.504 OA
ATOM     37  H   UNL     1      21.083  31.052  53.682  1.00  0.00     0.293 HD
ENDBRANCH  33  36
ENDBRANCH  27  28
ENDBRANCH  24  26
ENDBRANCH  23  24
ENDBRANCH   6  23
BRANCH   3  38
ATOM     38  O   UNL     1      12.438  22.277  46.310  1.00  0.00    -0.350 OA
BRANCH  38  39
ATOM     39  C   UNL     1      12.791  21.941  44.982  1.00  0.00     0.168 C 
BRANCH  39  40
ATOM     40  C   UNL     1      12.746  20.424  44.763  1.00  0.00     0.064 C 
BRANCH  40  41
ATOM     41  C   UNL     1      14.133  19.841  44.799  1.00  0.00    -0.042 A 
ATOM     42  C   UNL     1      15.203  20.519  44.196  1.00  0.00     0.054 A 
ATOM     43  C   UNL     1      14.355  18.583  45.391  1.00  0.00     0.008 A 
ATOM     44  C   UNL     1      16.486  19.966  44.193  1.00  0.00     0.157 A 
ATOM     45  C   UNL     1      15.630  18.017  45.378  1.00  0.00     0.050 A 
ATOM     46  C   UNL     1      16.701  18.704  44.786  1.00  0.00     0.157 A 
BRANCH  44  47
ATOM     47  O   UNL     1      17.534  20.674  43.605  1.00  0.00    -0.504 OA
ATOM     48  H   UNL     1      18.394  20.221  43.314  1.00  0.00     0.293 HD
ENDBRANCH  44  47
BRANCH  46  49
ATOM     49  O   UNL     1      17.977  18.149  44.793  1.00  0.00    -0.504 OA
ATOM     50  H   UNL     1      18.514  18.070  45.652  1.00  0.00     0.293 HD
ENDBRANCH  46  49
ENDBRANCH  40  41
ENDBRANCH  39  40
ENDBRANCH  38  39
ENDBRANCH   3  38
BRANCH   5  51
ATOM     51  C   UNL     1      14.742  25.842  46.868  1.00  0.00     0.192 C 
BRANCH  51  52
ATOM     52  O   UNL     1      15.169  27.108  47.295  1.00  0.00    -0.394 OA
ATOM     53  H   UNL     1      16.068  27.258  46.902  1.00  0.00     0.210 HD
ENDBRANCH  51  52
ENDBRANCH   5  51
TORSDOF 20
ENDMDL
MODEL 2
REMARK VINA RESULT:    -6.597      1.741      4.756
REMARK INTER + INTRA:         -15.135
REMARK INTER:                 -12.665
REMARK INTRA:                  -2.470
REMARK UNBOUND:                -2.560
REMARK SMILES C[C@@H]1O[C@H](O[C@H]2[C@H](O)[C@@H](OCCc3ccc(O)c(O)c3)O[C@H](CO)[C@@H]2OC(=O)C=Cc2ccc(O)c(O)c2)[C@@H](O)[C@@H](O)[C@@H]1O
REMARK SMILES IDX 6 1 7 2 9 3 21 4 22 5 25 6 5 7 4 8 1 9 2 10 43 11 3 12 41 13
REMARK SMILES IDX 39 14 44 15 42 17 40 19 8 21 26 23 27 24 28 25 29 26 30 27
REMARK SMILES IDX 31 28 38 29 32 30 36 31 33 32 34 33 37 34 35 36 10 38 11 39
REMARK SMILES IDX 12 40 13 41 20 42 14 43 18 44 15 45 16 46 19 47 17 49 23 51
REMARK SMILES IDX 24 52
REMARK H PARENT 44 16 42 18 40 20 8 22 37 35 35 37 19 48 17 50 24 53
REMARK Flexibility Score: inf
ROOT
ATOM      1  C   UNL     1      14.158  22.706  49.530  1.00  0.00     0.199 C 
ATOM      2  C   UNL     1      13.872  22.113  48.136  1.00  0.00     0.203 C 
ATOM      3  C   UNL     1      14.233  20.621  48.100  1.00  0.00     0.282 C 
ATOM      4  O   UNL     1      15.599  20.432  48.419  1.00  0.00    -0.340 OA
ATOM      5  C   UNL     1      15.929  20.881  49.725  1.00  0.00     0.190 C 
ATOM      6  C   UNL     1      15.610  22.388  49.925  1.00  0.00     0.240 C 
ENDROOT
BRANCH   1   7
ATOM      7  O   UNL     1      13.972  24.110  49.456  1.00  0.00    -0.340 OA
BRANCH   7   8
ATOM      8  C   UNL     1      13.789  24.592  48.134  1.00  0.00     0.282 C 
ATOM      9  C   UNL     1      11.990  26.063  50.214  1.00  0.00     0.041 C 
ATOM     10  C   UNL     1      12.275  26.355  48.728  1.00  0.00     0.150 C 
ATOM     11  C   UNL     1      13.357  27.436  48.487  1.00  0.00     0.174 C 
ATOM     12  O   UNL     1      12.494  25.163  47.975  1.00  0.00    -0.344 OA
ATOM     13  C   UNL     1      14.762  26.855  48.657  1.00  0.00     0.179 C 
ATOM     14  C   UNL     1      14.914  25.589  47.797  1.00  0.00     0.202 C 
BRANCH  11  15
ATOM     15  O   UNL     1      13.183  28.518  49.366  1.00  0.00    -0.388 OA
ATOM     16  H   UNL     1      13.504  28.222  50.263  1.00  0.00     0.211 HD
ENDBRANCH  11  15
BRANCH  13  17
ATOM     17  O   UNL     1      15.715  27.817  48.279  1.00  0.00    -0.387 OA
ATOM     18  H   UNL     1      15.481  28.655  48.763  1.00  0.00     0.211 HD
ENDBRANCH  13  17
BRANCH  14  19
ATOM     19  O   UNL     1      14.870  25.930  46.433  1.00  0.00    -0.385 OA
ATOM     20  H   UNL     1      15.394  25.244  45.945  1.00  0.00     0.211 HD
ENDBRANCH  14  19
ENDBRANCH   7   8
ENDBRANCH   1   7
BRANCH   2  21
ATOM     21  O   UNL     1      12.529  22.284  47.744  1.00  0.00    -0.385 OA
ATOM     22  H   UNL     1      12.413  23.209  47.390  1.00  0.00     0.211 HD
ENDBRANCH   2  21
BRANCH   6  23
ATOM     23  O   UNL     1      15.810  22.785  51.281  1.00  0.00    -0.453 OA
BRANCH  23  24
ATOM     24  C   UNL     1      17.046  23.193  51.775  1.00  0.00     0.331 C 
ATOM     25  O   UNL     1      17.961  22.361  51.983  1.00  0.00    -0.247 OA
BRANCH  24  26
ATOM     26  C   UNL     1      17.234  24.612  52.083  1.00  0.00     0.094 C 
ATOM     27  C   UNL     1      16.327  25.527  51.702  1.00  0.00     0.016 C 
BRANCH  27  28
ATOM     28  C   UNL     1      16.298  26.907  52.240  1.00  0.00    -0.021 A 
ATOM     29  C   UNL     1      17.495  27.463  52.723  1.00  0.00     0.058 A 
ATOM     30  C   UNL     1      15.129  27.697  52.248  1.00  0.00     0.012 A 
ATOM     31  C   UNL     1      17.550  28.802  53.139  1.00  0.00     0.157 A 
ATOM     32  C   UNL     1      15.184  29.031  52.668  1.00  0.00     0.051 A 
ATOM     33  C   UNL     1      16.393  29.596  53.097  1.00  0.00     0.157 A 
BRANCH  31  34
ATOM     34  O   UNL     1      18.762  29.329  53.577  1.00  0.00    -0.504 OA
ATOM     35  H   UNL     1      18.951  30.324  53.555  1.00  0.00     0.293 HD
ENDBRANCH  31  34
BRANCH  33  36
ATOM     36  O   UNL     1      16.453  30.942  53.460  1.00  0.00    -0.504 OA
ATOM     37  H   UNL     1      16.601  31.668  52.770  1.00  0.00     0.293 HD
ENDBRANCH  33  36
ENDBRANCH  27  28
ENDBRANCH  24  26
ENDBRANCH  23  24
ENDBRANCH   6  23
BRANCH   3  38
ATOM     38  O   UNL     1      14.031  20.175  46.766  1.00  0.00    -0.350 OA
BRANCH  38  39
ATOM     39  C   UNL     1      15.087  19.352  46.308  1.00  0.00     0.168 C 
BRANCH  39  40
ATOM     40  C   UNL     1      14.964  19.075  44.806  1.00  0.00     0.064 C 
BRANCH  40  41
ATOM     41  C   UNL     1      15.469  20.245  44.007  1.00  0.00    -0.042 A 
ATOM     42  C   UNL     1      16.848  20.474  43.879  1.00  0.00     0.054 A 
ATOM     43  C   UNL     1      14.559  21.151  43.428  1.00  0.00     0.008 A 
ATOM     44  C   UNL     1      17.323  21.580  43.170  1.00  0.00     0.157 A 
ATOM     45  C   UNL     1      15.027  22.266  42.732  1.00  0.00     0.050 A 
ATOM     46  C   UNL     1      16.406  22.484  42.594  1.00  0.00     0.157 A 
BRANCH  44  47
ATOM     47  O   UNL     1      18.699  21.769  43.040  1.00  0.00    -0.504 OA
ATOM     48  H   UNL     1      19.180  22.547  43.480  1.00  0.00     0.293 HD
ENDBRANCH  44  47
BRANCH  46  49
ATOM     49  O   UNL     1      16.872  23.585  41.880  1.00  0.00    -0.504 OA
ATOM     50  H   UNL     1      16.547  23.780  40.938  1.00  0.00     0.293 HD
ENDBRANCH  46  49
ENDBRANCH  40  41
ENDBRANCH  39  40
ENDBRANCH  38  39
ENDBRANCH   3  38
BRANCH   5  51
ATOM     51  C   UNL     1      15.350  19.977  50.834  1.00  0.00     0.192 C 
BRANCH  51  52
ATOM     52  O   UNL     1      16.319  19.747  51.822  1.00  0.00    -0.394 OA
ATOM     53  H   UNL     1      16.971  19.101  51.444  1.00  0.00     0.210 HD
ENDBRANCH  51  52
ENDBRANCH   5  51
TORSDOF 20
ENDMDL
MODEL 3
REMARK VINA RESULT:    -6.588      1.784      4.789
REMARK INTER + INTRA:         -15.117
REMARK INTER:                 -12.831
REMARK INTRA:                  -2.285
REMARK UNBOUND:                -2.560
REMARK SMILES C[C@@H]1O[C@H](O[C@H]2[C@H](O)[C@@H](OCCc3ccc(O)c(O)c3)O[C@H](CO)[C@@H]2OC(=O)C=Cc2ccc(O)c(O)c2)[C@@H](O)[C@@H](O)[C@@H]1O
REMARK SMILES IDX 6 1 7 2 9 3 21 4 22 5 25 6 5 7 4 8 1 9 2 10 43 11 3 12 41 13
REMARK SMILES IDX 39 14 44 15 42 17 40 19 8 21 26 23 27 24 28 25 29 26 30 27
REMARK SMILES IDX 31 28 38 29 32 30 36 31 33 32 34 33 37 34 35 36 10 38 11 39
REMARK SMILES IDX 12 40 13 41 20 42 14 43 18 44 15 45 16 46 19 47 17 49 23 51
REMARK SMILES IDX 24 52
REMARK H PARENT 44 16 42 18 40 20 8 22 37 35 35 37 19 48 17 50 24 53
REMARK Flexibility Score: inf
ROOT
ATOM      1  C   UNL     1      13.787  23.129  49.435  1.00  0.00     0.199 C 
ATOM      2  C   UNL     1      13.557  22.385  48.106  1.00  0.00     0.203 C 
ATOM      3  C   UNL     1      14.022  20.925  48.217  1.00  0.00     0.282 C 
ATOM      4  O   UNL     1      15.395  20.865  48.557  1.00  0.00    -0.340 OA
ATOM      5  C   UNL     1      15.680  21.463  49.814  1.00  0.00     0.190 C 
ATOM      6  C   UNL     1      15.254  22.955  49.864  1.00  0.00     0.240 C 
ENDROOT
BRANCH   1   7
ATOM      7  O   UNL     1      13.504  24.503  49.224  1.00  0.00    -0.340 OA
BRANCH   7   8
ATOM      8  C   UNL     1      14.601  25.237  48.702  1.00  0.00     0.282 C 
ATOM      9  C   UNL     1      11.973  25.682  47.083  1.00  0.00     0.041 C 
ATOM     10  C   UNL     1      13.340  26.389  47.018  1.00  0.00     0.150 C 
ATOM     11  C   UNL     1      13.409  27.720  47.804  1.00  0.00     0.174 C 
ATOM     12  O   UNL     1      14.420  25.505  47.315  1.00  0.00    -0.344 OA
ATOM     13  C   UNL     1      13.596  27.466  49.300  1.00  0.00     0.179 C 
ATOM     14  C   UNL     1      14.789  26.523  49.527  1.00  0.00     0.202 C 
BRANCH  11  15
ATOM     15  O   UNL     1      12.246  28.481  47.594  1.00  0.00    -0.388 OA
ATOM     16  H   UNL     1      11.959  28.829  48.485  1.00  0.00     0.211 HD
ENDBRANCH  11  15
BRANCH  13  17
ATOM     17  O   UNL     1      13.810  28.690  49.958  1.00  0.00    -0.387 OA
ATOM     18  H   UNL     1      14.300  28.480  50.799  1.00  0.00     0.211 HD
ENDBRANCH  13  17
BRANCH  14  19
ATOM     19  O   UNL     1      15.984  27.168  49.158  1.00  0.00    -0.385 OA
ATOM     20  H   UNL     1      16.484  26.541  48.575  1.00  0.00     0.211 HD
ENDBRANCH  14  19
ENDBRANCH   7   8
ENDBRANCH   1   7
BRANCH   2  21
ATOM     21  O   UNL     1      12.209  22.420  47.696  1.00  0.00    -0.385 OA
ATOM     22  H   UNL     1      11.801  23.275  48.009  1.00  0.00     0.211 HD
ENDBRANCH   2  21
BRANCH   6  23
ATOM     23  O   UNL     1      15.412  23.497  51.175  1.00  0.00    -0.453 OA
BRANCH  23  24
ATOM     24  C   UNL     1      16.634  23.953  51.662  1.00  0.00     0.331 C 
ATOM     25  O   UNL     1      17.629  23.191  51.717  1.00  0.00    -0.247 OA
BRANCH  24  26
ATOM     26  C   UNL     1      16.714  25.333  52.144  1.00  0.00     0.094 C 
ATOM     27  C   UNL     1      17.687  25.713  52.989  1.00  0.00     0.016 C 
BRANCH  27  28
ATOM     28  C   UNL     1      18.008  27.132  53.266  1.00  0.00    -0.021 A 
ATOM     29  C   UNL     1      17.089  28.116  52.865  1.00  0.00     0.058 A 
ATOM     30  C   UNL     1      19.176  27.530  53.949  1.00  0.00     0.012 A 
ATOM     31  C   UNL     1      17.287  29.465  53.200  1.00  0.00     0.157 A 
ATOM     32  C   UNL     1      19.376  28.876  54.278  1.00  0.00     0.051 A 
ATOM     33  C   UNL     1      18.427  29.846  53.924  1.00  0.00     0.157 A 
BRANCH  31  34
ATOM     34  O   UNL     1      16.336  30.407  52.818  1.00  0.00    -0.504 OA
ATOM     35  H   UNL     1      16.310  30.790  51.880  1.00  0.00     0.293 HD
ENDBRANCH  31  34
BRANCH  33  36
ATOM     36  O   UNL     1      18.604  31.177  54.304  1.00  0.00    -0.504 OA
ATOM     37  H   UNL     1      18.231  31.937  53.750  1.00  0.00     0.293 HD
ENDBRANCH  33  36
ENDBRANCH  27  28
ENDBRANCH  24  26
ENDBRANCH  23  24
ENDBRANCH   6  23
BRANCH   3  38
ATOM     38  O   UNL     1      13.865  20.337  46.933  1.00  0.00    -0.350 OA
BRANCH  38  39
ATOM     39  C   UNL     1      14.902  19.425  46.629  1.00  0.00     0.168 C 
BRANCH  39  40
ATOM     40  C   UNL     1      14.873  19.024  45.149  1.00  0.00     0.064 C 
BRANCH  40  41
ATOM     41  C   UNL     1      15.398  20.140  44.288  1.00  0.00    -0.042 A 
ATOM     42  C   UNL     1      16.780  20.309  44.110  1.00  0.00     0.054 A 
ATOM     43  C   UNL     1      14.505  21.056  43.697  1.00  0.00     0.008 A 
ATOM     44  C   UNL     1      17.274  21.366  43.341  1.00  0.00     0.157 A 
ATOM     45  C   UNL     1      14.994  22.123  42.942  1.00  0.00     0.050 A 
ATOM     46  C   UNL     1      16.375  22.281  42.755  1.00  0.00     0.157 A 
BRANCH  44  47
ATOM     47  O   UNL     1      18.652  21.495  43.164  1.00  0.00    -0.504 OA
ATOM     48  H   UNL     1      19.284  20.707  43.265  1.00  0.00     0.293 HD
ENDBRANCH  44  47
BRANCH  46  49
ATOM     49  O   UNL     1      16.860  23.333  41.982  1.00  0.00    -0.504 OA
ATOM     50  H   UNL     1      17.705  23.235  41.428  1.00  0.00     0.293 HD
ENDBRANCH  46  49
ENDBRANCH  40  41
ENDBRANCH  39  40
ENDBRANCH  38  39
ENDBRANCH   3  38
BRANCH   5  51
ATOM     51  C   UNL     1      15.155  20.632  51.005  1.00  0.00     0.192 C 
BRANCH  51  52
ATOM     52  O   UNL     1      16.131  20.563  52.010  1.00  0.00    -0.394 OA
ATOM     53  H   UNL     1      16.883  21.145  51.724  1.00  0.00     0.210 HD
ENDBRANCH  51  52
ENDBRANCH   5  51
TORSDOF 20
ENDMDL
MODEL 4
REMARK VINA RESULT:    -6.567      0.972      1.305
REMARK INTER + INTRA:         -15.078
REMARK INTER:                 -12.977
REMARK INTRA:                  -2.101
REMARK UNBOUND:                -2.560
REMARK SMILES C[C@@H]1O[C@H](O[C@H]2[C@H](O)[C@@H](OCCc3ccc(O)c(O)c3)O[C@H](CO)[C@@H]2OC(=O)C=Cc2ccc(O)c(O)c2)[C@@H](O)[C@@H](O)[C@@H]1O
REMARK SMILES IDX 6 1 7 2 9 3 21 4 22 5 25 6 5 7 4 8 1 9 2 10 43 11 3 12 41 13
REMARK SMILES IDX 39 14 44 15 42 17 40 19 8 21 26 23 27 24 28 25 29 26 30 27
REMARK SMILES IDX 31 28 38 29 32 30 36 31 33 32 34 33 37 34 35 36 10 38 11 39
REMARK SMILES IDX 12 40 13 41 20 42 14 43 18 44 15 45 16 46 19 47 17 49 23 51
REMARK SMILES IDX 24 52
REMARK H PARENT 44 16 42 18 40 20 8 22 37 35 35 37 19 48 17 50 24 53
REMARK Flexibility Score: inf
ROOT
ATOM      1  C   UNL     1      14.261  24.272  49.376  1.00  0.00     0.199 C 
ATOM      2  C   UNL     1      13.585  23.309  48.380  1.00  0.00     0.203 C 
ATOM      3  C   UNL     1      13.659  23.870  46.952  1.00  0.00     0.282 C 
ATOM      4  O   UNL     1      13.029  25.136  46.882  1.00  0.00    -0.340 OA
ATOM      5  C   UNL     1      13.644  26.107  47.716  1.00  0.00     0.190 C 
ATOM      6  C   UNL     1      13.657  25.677  49.208  1.00  0.00     0.240 C 
ENDROOT
BRANCH   1   7
ATOM      7  O   UNL     1      14.013  23.792  50.688  1.00  0.00    -0.340 OA
BRANCH   7   8
ATOM      8  C   UNL     1      15.080  24.033  51.593  1.00  0.00     0.282 C 
ATOM      9  C   UNL     1      13.317  21.599  52.426  1.00  0.00     0.041 C 
ATOM     10  C   UNL     1      14.661  22.116  52.973  1.00  0.00     0.150 C 
ATOM     11  C   UNL     1      15.903  21.379  52.415  1.00  0.00     0.174 C 
ATOM     12  O   UNL     1      14.767  23.537  52.891  1.00  0.00    -0.344 OA
ATOM     13  C   UNL     1      16.261  21.885  51.017  1.00  0.00     0.179 C 
ATOM     14  C   UNL     1      16.374  23.419  51.027  1.00  0.00     0.202 C 
BRANCH  11  15
ATOM     15  O   UNL     1      15.680  19.992  52.374  1.00  0.00    -0.388 OA
ATOM     16  H   UNL     1      16.526  19.550  52.665  1.00  0.00     0.211 HD
ENDBRANCH  11  15
BRANCH  13  17
ATOM     17  O   UNL     1      17.477  21.309  50.609  1.00  0.00    -0.387 OA
ATOM     18  H   UNL     1      17.397  21.137  49.632  1.00  0.00     0.211 HD
ENDBRANCH  13  17
BRANCH  14  19
ATOM     19  O   UNL     1      17.479  23.810  51.804  1.00  0.00    -0.385 OA
ATOM     20  H   UNL     1      17.275  23.566  52.744  1.00  0.00     0.211 HD
ENDBRANCH  14  19
ENDBRANCH   7   8
ENDBRANCH   1   7
BRANCH   2  21
ATOM     21  O   UNL     1      14.153  22.019  48.410  1.00  0.00    -0.385 OA
ATOM     22  H   UNL     1      14.972  22.017  47.840  1.00  0.00     0.211 HD
ENDBRANCH   2  21
BRANCH   6  23
ATOM     23  O   UNL     1      14.406  26.592  50.006  1.00  0.00    -0.453 OA
BRANCH  23  24
ATOM     24  C   UNL     1      13.820  27.651  50.693  1.00  0.00     0.331 C 
ATOM     25  O   UNL     1      12.575  27.801  50.702  1.00  0.00    -0.247 OA
BRANCH  24  26
ATOM     26  C   UNL     1      14.698  28.607  51.371  1.00  0.00     0.094 C 
ATOM     27  C   UNL     1      15.586  28.196  52.291  1.00  0.00     0.016 C 
BRANCH  27  28
ATOM     28  C   UNL     1      16.697  29.047  52.778  1.00  0.00    -0.021 A 
ATOM     29  C   UNL     1      17.663  28.468  53.618  1.00  0.00     0.058 A 
ATOM     30  C   UNL     1      16.844  30.397  52.400  1.00  0.00     0.012 A 
ATOM     31  C   UNL     1      18.796  29.194  54.019  1.00  0.00     0.157 A 
ATOM     32  C   UNL     1      17.972  31.122  52.804  1.00  0.00     0.051 A 
ATOM     33  C   UNL     1      18.960  30.523  53.597  1.00  0.00     0.157 A 
BRANCH  31  34
ATOM     34  O   UNL     1      19.751  28.576  54.821  1.00  0.00    -0.504 OA
ATOM     35  H   UNL     1      20.743  28.651  54.626  1.00  0.00     0.293 HD
ENDBRANCH  31  34
BRANCH  33  36
ATOM     36  O   UNL     1      20.109  31.233  53.949  1.00  0.00    -0.504 OA
ATOM     37  H   UNL     1      20.985  30.759  54.135  1.00  0.00     0.293 HD
ENDBRANCH  33  36
ENDBRANCH  27  28
ENDBRANCH  24  26
ENDBRANCH  23  24
ENDBRANCH   6  23
BRANCH   3  38
ATOM     38  O   UNL     1      12.938  22.977  46.115  1.00  0.00    -0.350 OA
BRANCH  38  39
ATOM     39  C   UNL     1      13.523  22.852  44.833  1.00  0.00     0.168 C 
BRANCH  39  40
ATOM     40  C   UNL     1      13.274  21.460  44.242  1.00  0.00     0.064 C 
BRANCH  40  41
ATOM     41  C   UNL     1      14.500  20.599  44.377  1.00  0.00    -0.042 A 
ATOM     42  C   UNL     1      15.730  21.029  43.857  1.00  0.00     0.054 A 
ATOM     43  C   UNL     1      14.407  19.328  44.979  1.00  0.00     0.008 A 
ATOM     44  C   UNL     1      16.864  20.217  43.947  1.00  0.00     0.157 A 
ATOM     45  C   UNL     1      15.532  18.507  45.057  1.00  0.00     0.050 A 
ATOM     46  C   UNL     1      16.764  18.946  44.549  1.00  0.00     0.157 A 
BRANCH  44  47
ATOM     47  O   UNL     1      18.078  20.682  43.441  1.00  0.00    -0.504 OA
ATOM     48  H   UNL     1      18.679  21.305  43.971  1.00  0.00     0.293 HD
ENDBRANCH  44  47
BRANCH  46  49
ATOM     49  O   UNL     1      17.890  18.134  44.648  1.00  0.00    -0.504 OA
ATOM     50  H   UNL     1      18.073  17.399  43.971  1.00  0.00     0.293 HD
ENDBRANCH  46  49
ENDBRANCH  40  41
ENDBRANCH  39  40
ENDBRANCH  38  39
ENDBRANCH   3  38
BRANCH   5  51
ATOM     51  C   UNL     1      15.026  26.557  47.193  1.00  0.00     0.192 C 
BRANCH  51  52
ATOM     52  O   UNL     1      15.286  27.875  47.594  1.00  0.00    -0.394 OA
ATOM     53  H   UNL     1      16.039  27.838  48.240  1.00  0.00     0.210 HD
ENDBRANCH  51  52
ENDBRANCH   5  51
TORSDOF 20
ENDMDL
MODEL 5
REMARK VINA RESULT:    -6.365      2.023      2.565
REMARK INTER + INTRA:         -14.692
REMARK INTER:                 -12.018
REMARK INTRA:                  -2.673
REMARK UNBOUND:                -2.560
REMARK SMILES C[C@@H]1O[C@H](O[C@H]2[C@H](O)[C@@H](OCCc3ccc(O)c(O)c3)O[C@H](CO)[C@@H]2OC(=O)C=Cc2ccc(O)c(O)c2)[C@@H](O)[C@@H](O)[C@@H]1O
REMARK SMILES IDX 6 1 7 2 9 3 21 4 22 5 25 6 5 7 4 8 1 9 2 10 43 11 3 12 41 13
REMARK SMILES IDX 39 14 44 15 42 17 40 19 8 21 26 23 27 24 28 25 29 26 30 27
REMARK SMILES IDX 31 28 38 29 32 30 36 31 33 32 34 33 37 34 35 36 10 38 11 39
REMARK SMILES IDX 12 40 13 41 20 42 14 43 18 44 15 45 16 46 19 47 17 49 23 51
REMARK SMILES IDX 24 52
REMARK H PARENT 44 16 42 18 40 20 8 22 37 35 35 37 19 48 17 50 24 53
REMARK Flexibility Score: inf
ROOT
ATOM      1  C   UNL     1      14.159  22.817  48.287  1.00  0.00     0.199 C 
ATOM      2  C   UNL     1      13.212  21.983  47.403  1.00  0.00     0.203 C 
ATOM      3  C   UNL     1      12.877  22.739  46.109  1.00  0.00     0.282 C 
ATOM      4  O   UNL     1      12.269  23.983  46.403  1.00  0.00    -0.340 OA
ATOM      5  C   UNL     1      13.113  24.847  47.152  1.00  0.00     0.190 C 
ATOM      6  C   UNL     1      13.551  24.214  48.500  1.00  0.00     0.240 C 
ENDROOT
BRANCH   1   7
ATOM      7  O   UNL     1      14.296  22.153  49.533  1.00  0.00    -0.340 OA
BRANCH   7   8
ATOM      8  C   UNL     1      15.644  21.917  49.908  1.00  0.00     0.282 C 
ATOM      9  C   UNL     1      13.636  21.385  52.233  1.00  0.00     0.041 C 
ATOM     10  C   UNL     1      15.142  21.094  52.104  1.00  0.00     0.150 C 
ATOM     11  C   UNL     1      15.479  19.640  51.693  1.00  0.00     0.174 C 
ATOM     12  O   UNL     1      15.817  22.072  51.313  1.00  0.00    -0.344 OA
ATOM     13  C   UNL     1      15.297  19.439  50.188  1.00  0.00     0.179 C 
ATOM     14  C   UNL     1      16.071  20.521  49.416  1.00  0.00     0.202 C 
BRANCH  11  15
ATOM     15  O   UNL     1      14.673  18.727  52.393  1.00  0.00    -0.388 OA
ATOM     16  H   UNL     1      14.428  19.156  53.260  1.00  0.00     0.211 HD
ENDBRANCH  11  15
BRANCH  13  17
ATOM     17  O   UNL     1      15.758  18.160  49.828  1.00  0.00    -0.387 OA
ATOM     18  H   UNL     1      15.113  17.802  49.161  1.00  0.00     0.211 HD
ENDBRANCH  13  17
BRANCH  14  19
ATOM     19  O   UNL     1      17.454  20.341  49.600  1.00  0.00    -0.385 OA
ATOM     20  H   UNL     1      17.906  21.110  49.167  1.00  0.00     0.211 HD
ENDBRANCH  14  19
ENDBRANCH   7   8
ENDBRANCH   1   7
BRANCH   2  21
ATOM     21  O   UNL     1      13.748  20.718  47.085  1.00  0.00    -0.385 OA
ATOM     22  H   UNL     1      14.733  20.740  47.240  1.00  0.00     0.211 HD
ENDBRANCH   2  21
BRANCH   6  23
ATOM     23  O   UNL     1      14.511  25.031  49.169  1.00  0.00    -0.453 OA
BRANCH  23  24
ATOM     24  C   UNL     1      14.161  25.975  50.130  1.00  0.00     0.331 C 
ATOM     25  O   UNL     1      13.090  26.620  50.037  1.00  0.00    -0.247 OA
BRANCH  24  26
ATOM     26  C   UNL     1      15.096  26.224  51.229  1.00  0.00     0.094 C 
ATOM     27  C   UNL     1      15.962  25.276  51.625  1.00  0.00     0.016 C 
BRANCH  27  28
ATOM     28  C   UNL     1      17.123  25.559  52.502  1.00  0.00    -0.021 A 
ATOM     29  C   UNL     1      18.011  24.510  52.795  1.00  0.00     0.058 A 
ATOM     30  C   UNL     1      17.393  26.843  53.018  1.00  0.00     0.012 A 
ATOM     31  C   UNL     1      19.186  24.745  53.526  1.00  0.00     0.157 A 
ATOM     32  C   UNL     1      18.563  27.076  53.752  1.00  0.00     0.051 A 
ATOM     33  C   UNL     1      19.472  26.036  53.993  1.00  0.00     0.157 A 
BRANCH  31  34
ATOM     34  O   UNL     1      20.060  23.688  53.765  1.00  0.00    -0.504 OA
ATOM     35  H   UNL     1      20.683  23.681  54.564  1.00  0.00     0.293 HD
ENDBRANCH  31  34
BRANCH  33  36
ATOM     36  O   UNL     1      20.664  26.287  54.676  1.00  0.00    -0.504 OA
ATOM     37  H   UNL     1      20.717  26.218  55.685  1.00  0.00     0.293 HD
ENDBRANCH  33  36
ENDBRANCH  27  28
ENDBRANCH  24  26
ENDBRANCH  23  24
ENDBRANCH   6  23
BRANCH   3  38
ATOM     38  O   UNL     1      11.933  21.950  45.397  1.00  0.00    -0.350 OA
BRANCH  38  39
ATOM     39  C   UNL     1      12.219  21.887  44.013  1.00  0.00     0.168 C 
BRANCH  39  40
ATOM     40  C   UNL     1      12.953  20.589  43.657  1.00  0.00     0.064 C 
BRANCH  40  41
ATOM     41  C   UNL     1      14.436  20.824  43.571  1.00  0.00    -0.042 A 
ATOM     42  C   UNL     1      14.938  21.963  42.923  1.00  0.00     0.054 A 
ATOM     43  C   UNL     1      15.333  19.872  44.094  1.00  0.00     0.008 A 
ATOM     44  C   UNL     1      16.315  22.168  42.808  1.00  0.00     0.157 A 
ATOM     45  C   UNL     1      16.710  20.063  43.968  1.00  0.00     0.050 A 
ATOM     46  C   UNL     1      17.208  21.209  43.332  1.00  0.00     0.157 A 
BRANCH  44  47
ATOM     47  O   UNL     1      16.784  23.321  42.178  1.00  0.00    -0.504 OA
ATOM     48  H   UNL     1      17.716  23.686  42.347  1.00  0.00     0.293 HD
ENDBRANCH  44  47
BRANCH  46  49
ATOM     49  O   UNL     1      18.582  21.409  43.227  1.00  0.00    -0.504 OA
ATOM     50  H   UNL     1      19.162  21.530  44.052  1.00  0.00     0.293 HD
ENDBRANCH  46  49
ENDBRANCH  40  41
ENDBRANCH  39  40
ENDBRANCH  38  39
ENDBRANCH   3  38
BRANCH   5  51
ATOM     51  C   UNL     1      14.289  25.404  46.321  1.00  0.00     0.192 C 
BRANCH  51  52
ATOM     52  O   UNL     1      14.672  26.661  46.812  1.00  0.00    -0.394 OA
ATOM     53  H   UNL     1      14.209  27.341  46.258  1.00  0.00     0.210 HD
ENDBRANCH  51  52
ENDBRANCH   5  51
TORSDOF 20
ENDMDL
MODEL 6
REMARK VINA RESULT:    -6.311      1.334      9.420
REMARK INTER + INTRA:         -14.590
REMARK INTER:                 -12.069
REMARK INTRA:                  -2.521
REMARK UNBOUND:                -2.560
REMARK SMILES C[C@@H]1O[C@H](O[C@H]2[C@H](O)[C@@H](OCCc3ccc(O)c(O)c3)O[C@H](CO)[C@@H]2OC(=O)C=Cc2ccc(O)c(O)c2)[C@@H](O)[C@@H](O)[C@@H]1O
REMARK SMILES IDX 6 1 7 2 9 3 21 4 22 5 25 6 5 7 4 8 1 9 2 10 43 11 3 12 41 13
REMARK SMILES IDX 39 14 44 15 42 17 40 19 8 21 26 23 27 24 28 25 29 26 30 27
REMARK SMILES IDX 31 28 38 29 32 30 36 31 33 32 34 33 37 34 35 36 10 38 11 39
REMARK SMILES IDX 12 40 13 41 20 42 14 43 18 44 15 45 16 46 19 47 17 49 23 51
REMARK SMILES IDX 24 52
REMARK H PARENT 44 16 42 18 40 20 8 22 37 35 35 37 19 48 17 50 24 53
REMARK Flexibility Score: inf
ROOT
ATOM      1  C   UNL     1      13.596  24.702  49.644  1.00  0.00     0.199 C 
ATOM      2  C   UNL     1      14.779  25.420  50.322  1.00  0.00     0.203 C 
ATOM      3  C   UNL     1      14.942  26.840  49.758  1.00  0.00     0.282 C 
ATOM      4  O   UNL     1      15.158  26.798  48.360  1.00  0.00    -0.340 OA
ATOM      5  C   UNL     1      14.072  26.219  47.650  1.00  0.00     0.190 C 
ATOM      6  C   UNL     1      13.773  24.768  48.117  1.00  0.00     0.240 C 
ENDROOT
BRANCH   1   7
ATOM      7  O   UNL     1      13.599  23.350  50.073  1.00  0.00    -0.340 OA
BRANCH   7   8
ATOM      8  C   UNL     1      14.829  22.681  49.839  1.00  0.00     0.282 C 
ATOM      9  C   UNL     1      13.820  22.357  52.772  1.00  0.00     0.041 C 
ATOM     10  C   UNL     1      14.974  21.676  52.012  1.00  0.00     0.150 C 
ATOM     11  C   UNL     1      14.628  20.278  51.446  1.00  0.00     0.174 C 
ATOM     12  O   UNL     1      15.571  22.542  51.047  1.00  0.00    -0.344 OA
ATOM     13  C   UNL     1      13.825  20.393  50.149  1.00  0.00     0.179 C 
ATOM     14  C   UNL     1      14.550  21.325  49.164  1.00  0.00     0.202 C 
BRANCH  11  15
ATOM     15  O   UNL     1      13.904  19.526  52.386  1.00  0.00    -0.388 OA
ATOM     16  H   UNL     1      13.557  20.166  53.069  1.00  0.00     0.211 HD
ENDBRANCH  11  15
BRANCH  13  17
ATOM     17  O   UNL     1      13.665  19.116  49.584  1.00  0.00    -0.387 OA
ATOM     18  H   UNL     1      13.864  19.208  48.613  1.00  0.00     0.211 HD
ENDBRANCH  13  17
BRANCH  14  19
ATOM     19  O   UNL     1      15.754  20.732  48.744  1.00  0.00    -0.385 OA
ATOM     20  H   UNL     1      16.096  20.199  49.507  1.00  0.00     0.211 HD
ENDBRANCH  14  19
ENDBRANCH   7   8
ENDBRANCH   1   7
BRANCH   2  21
ATOM     21  O   UNL     1      14.639  25.482  51.723  1.00  0.00    -0.385 OA
ATOM     22  H   UNL     1      15.337  24.904  52.140  1.00  0.00     0.211 HD
ENDBRANCH   2  21
BRANCH   6  23
ATOM     23  O   UNL     1      12.592  24.258  47.500  1.00  0.00    -0.453 OA
BRANCH  23  24
ATOM     24  C   UNL     1      12.599  23.630  46.258  1.00  0.00     0.331 C 
ATOM     25  O   UNL     1      11.976  24.120  45.286  1.00  0.00    -0.247 OA
BRANCH  24  26
ATOM     26  C   UNL     1      13.321  22.362  46.127  1.00  0.00     0.094 C 
ATOM     27  C   UNL     1      13.696  21.903  44.922  1.00  0.00     0.016 C 
BRANCH  27  28
ATOM     28  C   UNL     1      14.680  20.810  44.744  1.00  0.00    -0.021 A 
ATOM     29  C   UNL     1      15.899  21.105  44.110  1.00  0.00     0.058 A 
ATOM     30  C   UNL     1      14.459  19.501  45.221  1.00  0.00     0.012 A 
ATOM     31  C   UNL     1      16.913  20.138  44.015  1.00  0.00     0.157 A 
ATOM     32  C   UNL     1      15.469  18.536  45.121  1.00  0.00     0.051 A 
ATOM     33  C   UNL     1      16.703  18.852  44.536  1.00  0.00     0.157 A 
BRANCH  31  34
ATOM     34  O   UNL     1      18.121  20.477  43.412  1.00  0.00    -0.504 OA
ATOM     35  H   UNL     1      18.577  21.364  43.594  1.00  0.00     0.293 HD
ENDBRANCH  31  34
BRANCH  33  36
ATOM     36  O   UNL     1      17.725  17.903  44.491  1.00  0.00    -0.504 OA
ATOM     37  H   UNL     1      18.221  17.622  45.328  1.00  0.00     0.293 HD
ENDBRANCH  33  36
ENDBRANCH  27  28
ENDBRANCH  24  26
ENDBRANCH  23  24
ENDBRANCH   6  23
BRANCH   3  38
ATOM     38  O   UNL     1      16.102  27.397  50.362  1.00  0.00    -0.350 OA
BRANCH  38  39
ATOM     39  C   UNL     1      16.000  28.799  50.527  1.00  0.00     0.168 C 
BRANCH  39  40
ATOM     40  C   UNL     1      15.743  29.168  51.993  1.00  0.00     0.064 C 
BRANCH  40  41
ATOM     41  C   UNL     1      17.033  29.509  52.688  1.00  0.00    -0.042 A 
ATOM     42  C   UNL     1      17.751  28.520  53.377  1.00  0.00     0.054 A 
ATOM     43  C   UNL     1      17.500  30.838  52.698  1.00  0.00     0.008 A 
ATOM     44  C   UNL     1      18.929  28.838  54.057  1.00  0.00     0.157 A 
ATOM     45  C   UNL     1      18.667  31.165  53.388  1.00  0.00     0.050 A 
ATOM     46  C   UNL     1      19.390  30.172  54.064  1.00  0.00     0.157 A 
BRANCH  44  47
ATOM     47  O   UNL     1      19.633  27.829  54.714  1.00  0.00    -0.504 OA
ATOM     48  H   UNL     1      19.522  27.654  55.707  1.00  0.00     0.293 HD
ENDBRANCH  44  47
BRANCH  46  49
ATOM     49  O   UNL     1      20.567  30.496  54.733  1.00  0.00    -0.504 OA
ATOM     50  H   UNL     1      20.562  30.760  55.713  1.00  0.00     0.293 HD
ENDBRANCH  46  49
ENDBRANCH  40  41
ENDBRANCH  39  40
ENDBRANCH  38  39
ENDBRANCH   3  38
BRANCH   5  51
ATOM     51  C   UNL     1      12.823  27.127  47.621  1.00  0.00     0.192 C 
BRANCH  51  52
ATOM     52  O   UNL     1      12.107  26.921  46.433  1.00  0.00    -0.394 OA
ATOM     53  H   UNL     1      11.398  27.615  46.398  1.00  0.00     0.210 HD
ENDBRANCH  51  52
ENDBRANCH   5  51
TORSDOF 20
ENDMDL
MODEL 7
REMARK VINA RESULT:    -6.251      2.047      4.817
REMARK INTER + INTRA:         -14.476
REMARK INTER:                 -11.637
REMARK INTRA:                  -2.839
REMARK UNBOUND:                -2.560
REMARK SMILES C[C@@H]1O[C@H](O[C@H]2[C@H](O)[C@@H](OCCc3ccc(O)c(O)c3)O[C@H](CO)[C@@H]2OC(=O)C=Cc2ccc(O)c(O)c2)[C@@H](O)[C@@H](O)[C@@H]1O
REMARK SMILES IDX 6 1 7 2 9 3 21 4 22 5 25 6 5 7 4 8 1 9 2 10 43 11 3 12 41 13
REMARK SMILES IDX 39 14 44 15 42 17 40 19 8 21 26 23 27 24 28 25 29 26 30 27
REMARK SMILES IDX 31 28 38 29 32 30 36 31 33 32 34 33 37 34 35 36 10 38 11 39
REMARK SMILES IDX 12 40 13 41 20 42 14 43 18 44 15 45 16 46 19 47 17 49 23 51
REMARK SMILES IDX 24 52
REMARK H PARENT 44 16 42 18 40 20 8 22 37 35 35 37 19 48 17 50 24 53
REMARK Flexibility Score: inf
ROOT
ATOM      1  C   UNL     1      13.520  24.362  48.533  1.00  0.00     0.199 C 
ATOM      2  C   UNL     1      13.662  24.427  47.000  1.00  0.00     0.203 C 
ATOM      3  C   UNL     1      13.117  23.146  46.352  1.00  0.00     0.282 C 
ATOM      4  O   UNL     1      13.807  22.010  46.839  1.00  0.00    -0.340 OA
ATOM      5  C   UNL     1      13.660  21.832  48.241  1.00  0.00     0.190 C 
ATOM      6  C   UNL     1      14.164  23.062  49.044  1.00  0.00     0.240 C 
ENDROOT
BRANCH   1   7
ATOM      7  O   UNL     1      14.191  25.484  49.085  1.00  0.00    -0.340 OA
BRANCH   7   8
ATOM      8  C   UNL     1      13.605  26.727  48.731  1.00  0.00     0.282 C 
ATOM      9  C   UNL     1      13.424  26.135  51.787  1.00  0.00     0.041 C 
ATOM     10  C   UNL     1      13.109  27.406  50.977  1.00  0.00     0.150 C 
ATOM     11  C   UNL     1      14.247  28.456  50.967  1.00  0.00     0.174 C 
ATOM     12  O   UNL     1      12.608  27.107  49.675  1.00  0.00    -0.344 OA
ATOM     13  C   UNL     1      15.338  28.072  49.966  1.00  0.00     0.179 C 
ATOM     14  C   UNL     1      14.713  27.788  48.591  1.00  0.00     0.202 C 
BRANCH  11  15
ATOM     15  O   UNL     1      14.806  28.594  52.248  1.00  0.00    -0.388 OA
ATOM     16  H   UNL     1      15.790  28.456  52.155  1.00  0.00     0.211 HD
ENDBRANCH  11  15
BRANCH  13  17
ATOM     17  O   UNL     1      16.272  29.119  49.870  1.00  0.00    -0.387 OA
ATOM     18  H   UNL     1      17.159  28.732  50.102  1.00  0.00     0.211 HD
ENDBRANCH  13  17
BRANCH  14  19
ATOM     19  O   UNL     1      14.185  28.975  48.052  1.00  0.00    -0.385 OA
ATOM     20  H   UNL     1      14.940  29.613  47.962  1.00  0.00     0.211 HD
ENDBRANCH  14  19
ENDBRANCH   7   8
ENDBRANCH   1   7
BRANCH   2  21
ATOM     21  O   UNL     1      13.011  25.549  46.448  1.00  0.00    -0.385 OA
ATOM     22  H   UNL     1      12.391  25.929  47.131  1.00  0.00     0.211 HD
ENDBRANCH   2  21
BRANCH   6  23
ATOM     23  O   UNL     1      13.875  22.927  50.435  1.00  0.00    -0.453 OA
BRANCH  23  24
ATOM     24  C   UNL     1      14.741  22.305  51.331  1.00  0.00     0.331 C 
ATOM     25  O   UNL     1      14.754  21.057  51.450  1.00  0.00    -0.247 OA
BRANCH  24  26
ATOM     26  C   UNL     1      15.605  23.150  52.157  1.00  0.00     0.094 C 
ATOM     27  C   UNL     1      16.861  23.435  51.774  1.00  0.00     0.016 C 
BRANCH  27  28
ATOM     28  C   UNL     1      17.669  24.513  52.391  1.00  0.00    -0.021 A 
ATOM     29  C   UNL     1      17.253  25.843  52.216  1.00  0.00     0.058 A 
ATOM     30  C   UNL     1      18.811  24.254  53.177  1.00  0.00     0.012 A 
ATOM     31  C   UNL     1      17.913  26.896  52.869  1.00  0.00     0.157 A 
ATOM     32  C   UNL     1      19.472  25.305  53.825  1.00  0.00     0.051 A 
ATOM     33  C   UNL     1      19.019  26.625  53.690  1.00  0.00     0.157 A 
BRANCH  31  34
ATOM     34  O   UNL     1      17.450  28.198  52.701  1.00  0.00    -0.504 OA
ATOM     35  H   UNL     1      16.507  28.392  52.386  1.00  0.00     0.293 HD
ENDBRANCH  31  34
BRANCH  33  36
ATOM     36  O   UNL     1      19.648  27.660  54.383  1.00  0.00    -0.504 OA
ATOM     37  H   UNL     1      20.369  27.473  55.068  1.00  0.00     0.293 HD
ENDBRANCH  33  36
ENDBRANCH  27  28
ENDBRANCH  24  26
ENDBRANCH  23  24
ENDBRANCH   6  23
BRANCH   3  38
ATOM     38  O   UNL     1      13.367  23.244  44.957  1.00  0.00    -0.350 OA
BRANCH  38  39
ATOM     39  C   UNL     1      12.941  22.094  44.252  1.00  0.00     0.168 C 
BRANCH  39  40
ATOM     40  C   UNL     1      13.897  21.762  43.101  1.00  0.00     0.064 C 
BRANCH  40  41
ATOM     41  C   UNL     1      14.960  20.799  43.555  1.00  0.00    -0.042 A 
ATOM     42  C   UNL     1      14.613  19.649  44.280  1.00  0.00     0.054 A 
ATOM     43  C   UNL     1      16.318  21.077  43.303  1.00  0.00     0.008 A 
ATOM     44  C   UNL     1      15.599  18.771  44.737  1.00  0.00     0.157 A 
ATOM     45  C   UNL     1      17.308  20.212  43.771  1.00  0.00     0.050 A 
ATOM     46  C   UNL     1      16.957  19.055  44.483  1.00  0.00     0.157 A 
BRANCH  44  47
ATOM     47  O   UNL     1      15.221  17.623  45.435  1.00  0.00    -0.504 OA
ATOM     48  H   UNL     1      14.901  17.660  46.397  1.00  0.00     0.293 HD
ENDBRANCH  44  47
BRANCH  46  49
ATOM     49  O   UNL     1      17.945  18.182  44.929  1.00  0.00    -0.504 OA
ATOM     50  H   UNL     1      18.032  17.941  45.912  1.00  0.00     0.293 HD
ENDBRANCH  46  49
ENDBRANCH  40  41
ENDBRANCH  39  40
ENDBRANCH  38  39
ENDBRANCH   3  38
BRANCH   5  51
ATOM     51  C   UNL     1      12.241  21.375  48.641  1.00  0.00     0.192 C 
BRANCH  51  52
ATOM     52  O   UNL     1      12.312  20.453  49.696  1.00  0.00    -0.394 OA
ATOM     53  H   UNL     1      12.233  19.548  49.296  1.00  0.00     0.210 HD
ENDBRANCH  51  52
ENDBRANCH   5  51
TORSDOF 20
ENDMDL
MODEL 8
REMARK VINA RESULT:    -6.087      2.851      5.354
REMARK INTER + INTRA:         -14.162
REMARK INTER:                 -12.119
REMARK INTRA:                  -2.043
REMARK UNBOUND:                -2.560
REMARK SMILES C[C@@H]1O[C@H](O[C@H]2[C@H](O)[C@@H](OCCc3ccc(O)c(O)c3)O[C@H](CO)[C@@H]2OC(=O)C=Cc2ccc(O)c(O)c2)[C@@H](O)[C@@H](O)[C@@H]1O
REMARK SMILES IDX 6 1 7 2 9 3 21 4 22 5 25 6 5 7 4 8 1 9 2 10 43 11 3 12 41 13
REMARK SMILES IDX 39 14 44 15 42 17 40 19 8 21 26 23 27 24 28 25 29 26 30 27
REMARK SMILES IDX 31 28 38 29 32 30 36 31 33 32 34 33 37 34 35 36 10 38 11 39
REMARK SMILES IDX 12 40 13 41 20 42 14 43 18 44 15 45 16 46 19 47 17 49 23 51
REMARK SMILES IDX 24 52
REMARK H PARENT 44 16 42 18 40 20 8 22 37 35 35 37 19 48 17 50 24 53
REMARK Flexibility Score: inf
ROOT
ATOM      1  C   UNL     1      12.603  24.734  47.767  1.00  0.00     0.199 C 
ATOM      2  C   UNL     1      13.064  25.181  46.366  1.00  0.00     0.203 C 
ATOM      3  C   UNL     1      12.919  24.031  45.357  1.00  0.00     0.282 C 
ATOM      4  O   UNL     1      13.682  22.912  45.767  1.00  0.00    -0.340 OA
ATOM      5  C   UNL     1      13.266  22.387  47.020  1.00  0.00     0.190 C 
ATOM      6  C   UNL     1      13.347  23.445  48.155  1.00  0.00     0.240 C 
ENDROOT
BRANCH   1   7
ATOM      7  O   UNL     1      12.919  25.770  48.684  1.00  0.00    -0.340 OA
BRANCH   7   8
ATOM      8  C   UNL     1      13.704  26.809  48.120  1.00  0.00     0.282 C 
ATOM      9  C   UNL     1      11.875  27.802  50.442  1.00  0.00     0.041 C 
ATOM     10  C   UNL     1      13.012  28.501  49.673  1.00  0.00     0.150 C 
ATOM     11  C   UNL     1      14.381  28.474  50.393  1.00  0.00     0.174 C 
ATOM     12  O   UNL     1      13.084  28.077  48.312  1.00  0.00    -0.344 OA
ATOM     13  C   UNL     1      15.071  27.121  50.211  1.00  0.00     0.179 C 
ATOM     14  C   UNL     1      15.122  26.755  48.719  1.00  0.00     0.202 C 
BRANCH  11  15
ATOM     15  O   UNL     1      14.228  28.747  51.763  1.00  0.00    -0.388 OA
ATOM     16  H   UNL     1      13.368  28.330  52.050  1.00  0.00     0.211 HD
ENDBRANCH  11  15
BRANCH  13  17
ATOM     17  O   UNL     1      16.372  27.185  50.742  1.00  0.00    -0.387 OA
ATOM     18  H   UNL     1      16.293  26.987  51.714  1.00  0.00     0.211 HD
ENDBRANCH  13  17
BRANCH  14  19
ATOM     19  O   UNL     1      15.973  27.644  48.038  1.00  0.00    -0.385 OA
ATOM     20  H   UNL     1      16.862  27.208  47.980  1.00  0.00     0.211 HD
ENDBRANCH  14  19
ENDBRANCH   7   8
ENDBRANCH   1   7
BRANCH   2  21
ATOM     21  O   UNL     1      12.355  26.307  45.901  1.00  0.00    -0.385 OA
ATOM     22  H   UNL     1      12.335  26.284  44.904  1.00  0.00     0.211 HD
ENDBRANCH   2  21
BRANCH   6  23
ATOM     23  O   UNL     1      12.790  22.946  49.370  1.00  0.00    -0.453 OA
BRANCH  23  24
ATOM     24  C   UNL     1      13.428  21.994  50.160  1.00  0.00     0.331 C 
ATOM     25  O   UNL     1      13.057  20.796  50.150  1.00  0.00    -0.247 OA
BRANCH  24  26
ATOM     26  C   UNL     1      14.517  22.437  51.033  1.00  0.00     0.094 C 
ATOM     27  C   UNL     1      15.776  22.013  50.834  1.00  0.00     0.016 C 
BRANCH  27  28
ATOM     28  C   UNL     1      16.953  22.650  51.470  1.00  0.00    -0.021 A 
ATOM     29  C   UNL     1      16.833  23.974  51.924  1.00  0.00     0.058 A 
ATOM     30  C   UNL     1      18.171  21.969  51.672  1.00  0.00     0.012 A 
ATOM     31  C   UNL     1      17.877  24.589  52.633  1.00  0.00     0.157 A 
ATOM     32  C   UNL     1      19.214  22.585  52.375  1.00  0.00     0.051 A 
ATOM     33  C   UNL     1      19.067  23.887  52.874  1.00  0.00     0.157 A 
BRANCH  31  34
ATOM     34  O   UNL     1      17.707  25.890  53.100  1.00  0.00    -0.504 OA
ATOM     35  H   UNL     1      18.424  26.361  53.640  1.00  0.00     0.293 HD
ENDBRANCH  31  34
BRANCH  33  36
ATOM     36  O   UNL     1      20.088  24.474  53.622  1.00  0.00    -0.504 OA
ATOM     37  H   UNL     1      20.416  25.411  53.423  1.00  0.00     0.293 HD
ENDBRANCH  33  36
ENDBRANCH  27  28
ENDBRANCH  24  26
ENDBRANCH  23  24
ENDBRANCH   6  23
BRANCH   3  38
ATOM     38  O   UNL     1      13.447  24.490  44.121  1.00  0.00    -0.350 OA
BRANCH  38  39
ATOM     39  C   UNL     1      12.997  23.719  43.025  1.00  0.00     0.168 C 
BRANCH  39  40
ATOM     40  C   UNL     1      14.158  23.348  42.093  1.00  0.00     0.064 C 
BRANCH  40  41
ATOM     41  C   UNL     1      15.025  22.292  42.721  1.00  0.00    -0.042 A 
ATOM     42  C   UNL     1      16.422  22.433  42.729  1.00  0.00     0.054 A 
ATOM     43  C   UNL     1      14.443  21.126  43.257  1.00  0.00     0.008 A 
ATOM     44  C   UNL     1      17.235  21.437  43.277  1.00  0.00     0.157 A 
ATOM     45  C   UNL     1      15.250  20.122  43.792  1.00  0.00     0.050 A 
ATOM     46  C   UNL     1      16.645  20.272  43.811  1.00  0.00     0.157 A 
BRANCH  44  47
ATOM     47  O   UNL     1      18.618  21.616  43.291  1.00  0.00    -0.504 OA
ATOM     48  H   UNL     1      19.243  20.946  43.727  1.00  0.00     0.293 HD
ENDBRANCH  44  47
BRANCH  46  49
ATOM     49  O   UNL     1      17.448  19.279  44.365  1.00  0.00    -0.504 OA
ATOM     50  H   UNL     1      17.456  18.335  43.989  1.00  0.00     0.293 HD
ENDBRANCH  46  49
ENDBRANCH  40  41
ENDBRANCH  39  40
ENDBRANCH  38  39
ENDBRANCH   3  38
BRANCH   5  51
ATOM     51  C   UNL     1      11.902  21.667  46.945  1.00  0.00     0.192 C 
BRANCH  51  52
ATOM     52  O   UNL     1      12.094  20.278  46.906  1.00  0.00    -0.394 OA
ATOM     53  H   UNL     1      12.943  20.089  47.384  1.00  0.00     0.210 HD
ENDBRANCH  51  52
ENDBRANCH   5  51
TORSDOF 20
ENDMDL
MODEL 9
REMARK VINA RESULT:    -5.977      2.251      5.122
REMARK INTER + INTRA:         -13.953
REMARK INTER:                 -11.522
REMARK INTRA:                  -2.431
REMARK UNBOUND:                -2.560
REMARK SMILES C[C@@H]1O[C@H](O[C@H]2[C@H](O)[C@@H](OCCc3ccc(O)c(O)c3)O[C@H](CO)[C@@H]2OC(=O)C=Cc2ccc(O)c(O)c2)[C@@H](O)[C@@H](O)[C@@H]1O
REMARK SMILES IDX 6 1 7 2 9 3 21 4 22 5 25 6 5 7 4 8 1 9 2 10 43 11 3 12 41 13
REMARK SMILES IDX 39 14 44 15 42 17 40 19 8 21 26 23 27 24 28 25 29 26 30 27
REMARK SMILES IDX 31 28 38 29 32 30 36 31 33 32 34 33 37 34 35 36 10 38 11 39
REMARK SMILES IDX 12 40 13 41 20 42 14 43 18 44 15 45 16 46 19 47 17 49 23 51
REMARK SMILES IDX 24 52
REMARK H PARENT 44 16 42 18 40 20 8 22 37 35 35 37 19 48 17 50 24 53
REMARK Flexibility Score: inf
ROOT
ATOM      1  C   UNL     1      12.893  22.955  48.581  1.00  0.00     0.199 C 
ATOM      2  C   UNL     1      13.362  22.598  47.157  1.00  0.00     0.203 C 
ATOM      3  C   UNL     1      13.556  21.081  47.017  1.00  0.00     0.282 C 
ATOM      4  O   UNL     1      14.506  20.613  47.956  1.00  0.00    -0.340 OA
ATOM      5  C   UNL     1      14.110  20.834  49.302  1.00  0.00     0.190 C 
ATOM      6  C   UNL     1      13.863  22.337  49.602  1.00  0.00     0.240 C 
ENDROOT
BRANCH   1   7
ATOM      7  O   UNL     1      12.897  24.369  48.703  1.00  0.00    -0.340 OA
BRANCH   7   8
ATOM      8  C   UNL     1      14.185  24.948  48.567  1.00  0.00     0.282 C 
ATOM      9  C   UNL     1      12.076  26.239  46.668  1.00  0.00     0.041 C 
ATOM     10  C   UNL     1      13.522  26.646  47.008  1.00  0.00     0.150 C 
ATOM     11  C   UNL     1      13.637  27.752  48.085  1.00  0.00     0.174 C 
ATOM     12  O   UNL     1      14.354  25.517  47.272  1.00  0.00    -0.344 OA
ATOM     13  C   UNL     1      13.454  27.173  49.489  1.00  0.00     0.179 C 
ATOM     14  C   UNL     1      14.400  25.978  49.691  1.00  0.00     0.202 C 
BRANCH  11  15
ATOM     15  O   UNL     1      12.686  28.763  47.862  1.00  0.00    -0.388 OA
ATOM     16  H   UNL     1      12.141  28.485  47.075  1.00  0.00     0.211 HD
ENDBRANCH  11  15
BRANCH  13  17
ATOM     17  O   UNL     1      13.719  28.171  50.444  1.00  0.00    -0.387 OA
ATOM     18  H   UNL     1      13.517  29.043  50.008  1.00  0.00     0.211 HD
ENDBRANCH  13  17
BRANCH  14  19
ATOM     19  O   UNL     1      15.735  26.422  49.698  1.00  0.00    -0.385 OA
ATOM     20  H   UNL     1      15.815  27.112  48.989  1.00  0.00     0.211 HD
ENDBRANCH  14  19
ENDBRANCH   7   8
ENDBRANCH   1   7
BRANCH   2  21
ATOM     21  O   UNL     1      12.468  23.052  46.166  1.00  0.00    -0.385 OA
ATOM     22  H   UNL     1      12.973  23.606  45.508  1.00  0.00     0.211 HD
ENDBRANCH   2  21
BRANCH   6  23
ATOM     23  O   UNL     1      13.326  22.524  50.910  1.00  0.00    -0.453 OA
BRANCH  23  24
ATOM     24  C   UNL     1      14.106  22.473  52.062  1.00  0.00     0.331 C 
ATOM     25  O   UNL     1      14.213  21.409  52.719  1.00  0.00    -0.247 OA
BRANCH  24  26
ATOM     26  C   UNL     1      14.765  23.702  52.508  1.00  0.00     0.094 C 
ATOM     27  C   UNL     1      16.020  23.678  52.984  1.00  0.00     0.016 C 
BRANCH  27  28
ATOM     28  C   UNL     1      16.843  24.898  53.156  1.00  0.00    -0.021 A 
ATOM     29  C   UNL     1      18.236  24.755  53.273  1.00  0.00     0.058 A 
ATOM     30  C   UNL     1      16.288  26.195  53.167  1.00  0.00     0.012 A 
ATOM     31  C   UNL     1      19.073  25.881  53.325  1.00  0.00     0.157 A 
ATOM     32  C   UNL     1      17.123  27.317  53.224  1.00  0.00     0.051 A 
ATOM     33  C   UNL     1      18.516  27.169  53.285  1.00  0.00     0.157 A 
BRANCH  31  34
ATOM     34  O   UNL     1      20.451  25.700  53.403  1.00  0.00    -0.504 OA
ATOM     35  H   UNL     1      20.973  25.928  54.241  1.00  0.00     0.293 HD
ENDBRANCH  31  34
BRANCH  33  36
ATOM     36  O   UNL     1      19.346  28.291  53.284  1.00  0.00    -0.504 OA
ATOM     37  H   UNL     1      19.186  29.064  52.650  1.00  0.00     0.293 HD
ENDBRANCH  33  36
ENDBRANCH  27  28
ENDBRANCH  24  26
ENDBRANCH  23  24
ENDBRANCH   6  23
BRANCH   3  38
ATOM     38  O   UNL     1      14.074  20.844  45.716  1.00  0.00    -0.350 OA
BRANCH  38  39
ATOM     39  C   UNL     1      15.199  19.986  45.734  1.00  0.00     0.168 C 
BRANCH  39  40
ATOM     40  C   UNL     1      15.620  19.593  44.313  1.00  0.00     0.064 C 
BRANCH  40  41
ATOM     41  C   UNL     1      16.152  20.786  43.568  1.00  0.00    -0.042 A 
ATOM     42  C   UNL     1      17.535  21.005  43.475  1.00  0.00     0.054 A 
ATOM     43  C   UNL     1      15.263  21.722  43.005  1.00  0.00     0.008 A 
ATOM     44  C   UNL     1      18.035  22.131  42.816  1.00  0.00     0.157 A 
ATOM     45  C   UNL     1      15.756  22.857  42.360  1.00  0.00     0.050 A 
ATOM     46  C   UNL     1      17.139  23.066  42.257  1.00  0.00     0.157 A 
BRANCH  44  47
ATOM     47  O   UNL     1      19.416  22.310  42.721  1.00  0.00    -0.504 OA
ATOM     48  H   UNL     1      19.848  22.735  41.907  1.00  0.00     0.293 HD
ENDBRANCH  44  47
BRANCH  46  49
ATOM     49  O   UNL     1      17.629  24.187  41.593  1.00  0.00    -0.504 OA
ATOM     50  H   UNL     1      17.040  24.731  40.970  1.00  0.00     0.293 HD
ENDBRANCH  46  49
ENDBRANCH  40  41
ENDBRANCH  39  40
ENDBRANCH  38  39
ENDBRANCH   3  38
BRANCH   5  51
ATOM     51  C   UNL     1      12.946  19.919  49.741  1.00  0.00     0.192 C 
BRANCH  51  52
ATOM     52  O   UNL     1      13.229  19.347  50.990  1.00  0.00    -0.394 OA
ATOM     53  H   UNL     1      14.122  19.681  51.266  1.00  0.00     0.210 HD
ENDBRANCH  51  52
ENDBRANCH   5  51
TORSDOF 20
ENDMDL
