MODEL 1
REMARK VINA RESULT:    -4.398      0.000      0.000
REMARK INTER + INTRA:          -5.702
REMARK INTER:                  -5.427
REMARK INTRA:                  -0.275
REMARK UNBOUND:                -0.275
REMARK SMILES CCCCCC(=O)[O-]
REMARK SMILES IDX 4 1 5 2 6 3 7 4 8 5 3 6 2 7 1 8
REMARK H PARENT
REMARK Flexibility Score: inf
ROOT
ATOM      1  C   UNL     1     -17.011  -8.165  -8.196  1.00  0.00     0.006 C 
ENDROOT
BRANCH   1   2
ATOM      2  C   UNL     1     -16.064  -8.610  -7.074  1.00  0.00     0.053 C 
BRANCH   2   3
ATOM      3  C   UNL     1     -16.206 -10.078  -6.824  1.00  0.00     0.041 C 
ATOM      4  O   UNL     1     -15.196 -10.828  -6.865  1.00  0.00    -0.550 OA
ATOM      5  O   UNL     1     -17.446 -10.611  -6.497  1.00  0.00    -0.550 OA
ENDBRANCH   2   3
ENDBRANCH   1   2
BRANCH   1   6
ATOM      6  C   UNL     1     -16.607  -8.728  -9.568  1.00  0.00     0.000 C 
BRANCH   6   7
ATOM      7  C   UNL     1     -17.733  -9.535 -10.230  1.00  0.00    -0.003 C 
ATOM      8  C   UNL     1     -19.055  -9.340  -9.493  1.00  0.00     0.004 C 
ENDBRANCH   6   7
ENDBRANCH   1   6
TORSDOF 4
ENDMDL
MODEL 2
REMARK VINA RESULT:    -4.367      1.696      2.357
REMARK INTER + INTRA:          -5.663
REMARK INTER:                  -5.592
REMARK INTRA:                  -0.072
REMARK UNBOUND:                -0.275
REMARK SMILES CCCCCC(=O)[O-]
REMARK SMILES IDX 4 1 5 2 6 3 7 4 8 5 3 6 2 7 1 8
REMARK H PARENT
REMARK Flexibility Score: inf
ROOT
ATOM      1  C   UNL     1     -18.480  -9.157  -9.178  1.00  0.00     0.006 C 
ENDROOT
BRANCH   1   2
ATOM      2  C   UNL     1     -17.326  -8.350  -8.572  1.00  0.00     0.053 C 
BRANCH   2   3
ATOM      3  C   UNL     1     -16.986  -8.868  -7.210  1.00  0.00     0.041 C 
ATOM      4  O   UNL     1     -17.654  -9.810  -6.706  1.00  0.00    -0.550 OA
ATOM      5  O   UNL     1     -15.903  -8.345  -6.517  1.00  0.00    -0.550 OA
ENDBRANCH   2   3
ENDBRANCH   1   2
BRANCH   1   6
ATOM      6  C   UNL     1     -18.039 -10.011 -10.377  1.00  0.00     0.000 C 
BRANCH   6   7
ATOM      7  C   UNL     1     -19.195 -10.315 -11.343  1.00  0.00    -0.003 C 
ATOM      8  C   UNL     1     -19.157 -11.769 -11.804  1.00  0.00     0.004 C 
ENDBRANCH   6   7
ENDBRANCH   1   6
TORSDOF 4
ENDMDL
MODEL 3
REMARK VINA RESULT:    -4.335      1.579      2.034
REMARK INTER + INTRA:          -5.624
REMARK INTER:                  -5.551
REMARK INTRA:                  -0.073
REMARK UNBOUND:                -0.275
REMARK SMILES CCCCCC(=O)[O-]
REMARK SMILES IDX 4 1 5 2 6 3 7 4 8 5 3 6 2 7 1 8
REMARK H PARENT
REMARK Flexibility Score: inf
ROOT
ATOM      1  C   UNL     1     -18.449  -9.101  -9.164  1.00  0.00     0.006 C 
ENDROOT
BRANCH   1   2
ATOM      2  C   UNL     1     -17.337  -8.332  -8.439  1.00  0.00     0.053 C 
BRANCH   2   3
ATOM      3  C   UNL     1     -16.942  -9.046  -7.185  1.00  0.00     0.041 C 
ATOM      4  O   UNL     1     -15.964  -8.639  -6.504  1.00  0.00    -0.550 OA
ATOM      5  O   UNL     1     -17.684 -10.134  -6.741  1.00  0.00    -0.550 OA
ENDBRANCH   2   3
ENDBRANCH   1   2
BRANCH   1   6
ATOM      6  C   UNL     1     -17.917  -9.952 -10.328  1.00  0.00     0.000 C 
BRANCH   6   7
ATOM      7  C   UNL     1     -18.994 -10.249 -11.382  1.00  0.00    -0.003 C 
ATOM      8  C   UNL     1     -18.997 -11.727 -11.763  1.00  0.00     0.004 C 
ENDBRANCH   6   7
ENDBRANCH   1   6
TORSDOF 4
ENDMDL
MODEL 4
REMARK VINA RESULT:    -4.324      3.123      4.474
REMARK INTER + INTRA:          -5.611
REMARK INTER:                  -5.549
REMARK INTRA:                  -0.062
REMARK UNBOUND:                -0.275
REMARK SMILES CCCCCC(=O)[O-]
REMARK SMILES IDX 4 1 5 2 6 3 7 4 8 5 3 6 2 7 1 8
REMARK H PARENT
REMARK Flexibility Score: inf
ROOT
ATOM      1  C   UNL     1     -17.370 -10.042 -10.007  1.00  0.00     0.006 C 
ENDROOT
BRANCH   1   2
ATOM      2  C   UNL     1     -18.853  -9.794 -10.307  1.00  0.00     0.053 C 
BRANCH   2   3
ATOM      3  C   UNL     1     -19.314 -10.678 -11.422  1.00  0.00     0.041 C 
ATOM      4  O   UNL     1     -18.816 -11.825 -11.570  1.00  0.00    -0.550 OA
ATOM      5  O   UNL     1     -20.329 -10.255 -12.272  1.00  0.00    -0.550 OA
ENDBRANCH   2   3
ENDBRANCH   1   2
BRANCH   1   6
ATOM      6  C   UNL     1     -16.615  -8.751  -9.649  1.00  0.00     0.000 C 
BRANCH   6   7
ATOM      7  C   UNL     1     -16.823  -8.332  -8.187  1.00  0.00    -0.003 C 
ATOM      8  C   UNL     1     -15.503  -8.338  -7.421  1.00  0.00     0.004 C 
ENDBRANCH   6   7
ENDBRANCH   1   6
TORSDOF 4
ENDMDL
MODEL 5
REMARK VINA RESULT:    -4.309      2.003      3.065
REMARK INTER + INTRA:          -5.592
REMARK INTER:                  -5.401
REMARK INTRA:                  -0.191
REMARK UNBOUND:                -0.275
REMARK SMILES CCCCCC(=O)[O-]
REMARK SMILES IDX 4 1 5 2 6 3 7 4 8 5 3 6 2 7 1 8
REMARK H PARENT
REMARK Flexibility Score: inf
ROOT
ATOM      1  C   UNL     1     -16.611 -10.487  -9.686  1.00  0.00     0.006 C 
ENDROOT
BRANCH   1   2
ATOM      2  C   UNL     1     -15.242 -11.089 -10.028  1.00  0.00     0.053 C 
BRANCH   2   3
ATOM      3  C   UNL     1     -14.696 -11.842  -8.857  1.00  0.00     0.041 C 
ATOM      4  O   UNL     1     -13.956 -11.262  -8.019  1.00  0.00    -0.550 OA
ATOM      5  O   UNL     1     -15.044 -13.173  -8.662  1.00  0.00    -0.550 OA
ENDBRANCH   2   3
ENDBRANCH   1   2
BRANCH   1   6
ATOM      6  C   UNL     1     -16.617  -8.952  -9.759  1.00  0.00     0.000 C 
BRANCH   6   7
ATOM      7  C   UNL     1     -16.911  -8.297  -8.401  1.00  0.00    -0.003 C 
ATOM      8  C   UNL     1     -15.657  -8.249  -7.532  1.00  0.00     0.004 C 
ENDBRANCH   6   7
ENDBRANCH   1   6
TORSDOF 4
ENDMDL
MODEL 6
REMARK VINA RESULT:    -4.290      2.073      3.500
REMARK INTER + INTRA:          -5.569
REMARK INTER:                  -5.365
REMARK INTRA:                  -0.203
REMARK UNBOUND:                -0.275
REMARK SMILES CCCCCC(=O)[O-]
REMARK SMILES IDX 4 1 5 2 6 3 7 4 8 5 3 6 2 7 1 8
REMARK H PARENT
REMARK Flexibility Score: inf
ROOT
ATOM      1  C   UNL     1     -16.627  -8.880  -9.685  1.00  0.00     0.006 C 
ENDROOT
BRANCH   1   2
ATOM      2  C   UNL     1     -17.089 -10.316  -9.966  1.00  0.00     0.053 C 
BRANCH   2   3
ATOM      3  C   UNL     1     -15.910 -11.224 -10.112  1.00  0.00     0.041 C 
ATOM      4  O   UNL     1     -15.913 -12.132 -10.985  1.00  0.00    -0.550 OA
ATOM      5  O   UNL     1     -14.785 -11.037  -9.318  1.00  0.00    -0.550 OA
ENDBRANCH   2   3
ENDBRANCH   1   2
BRANCH   1   6
ATOM      6  C   UNL     1     -17.283  -8.283  -8.429  1.00  0.00     0.000 C 
BRANCH   6   7
ATOM      7  C   UNL     1     -16.481  -8.568  -7.151  1.00  0.00    -0.003 C 
ATOM      8  C   UNL     1     -15.004  -8.234  -7.344  1.00  0.00     0.004 C 
ENDBRANCH   6   7
ENDBRANCH   1   6
TORSDOF 4
ENDMDL
MODEL 7
REMARK VINA RESULT:    -4.278      1.782      2.464
REMARK INTER + INTRA:          -5.554
REMARK INTER:                  -5.329
REMARK INTRA:                  -0.224
REMARK UNBOUND:                -0.275
REMARK SMILES CCCCCC(=O)[O-]
REMARK SMILES IDX 4 1 5 2 6 3 7 4 8 5 3 6 2 7 1 8
REMARK H PARENT
REMARK Flexibility Score: inf
ROOT
ATOM      1  C   UNL     1     -15.762  -8.979  -6.513  1.00  0.00     0.006 C 
ENDROOT
BRANCH   1   2
ATOM      2  C   UNL     1     -14.439  -9.058  -7.284  1.00  0.00     0.053 C 
BRANCH   2   3
ATOM      3  C   UNL     1     -14.001 -10.482  -7.423  1.00  0.00     0.041 C 
ATOM      4  O   UNL     1     -14.295 -11.138  -8.457  1.00  0.00    -0.550 OA
ATOM      5  O   UNL     1     -13.227 -11.072  -6.432  1.00  0.00    -0.550 OA
ENDBRANCH   2   3
ENDBRANCH   1   2
BRANCH   1   6
ATOM      6  C   UNL     1     -16.972  -8.756  -7.434  1.00  0.00     0.000 C 
BRANCH   6   7
ATOM      7  C   UNL     1     -16.569  -8.235  -8.822  1.00  0.00    -0.003 C 
ATOM      8  C   UNL     1     -17.092  -9.151  -9.925  1.00  0.00     0.004 C 
ENDBRANCH   6   7
ENDBRANCH   1   6
TORSDOF 4
ENDMDL
MODEL 8
REMARK VINA RESULT:    -4.248      1.947      2.661
REMARK INTER + INTRA:          -5.517
REMARK INTER:                  -5.328
REMARK INTRA:                  -0.189
REMARK UNBOUND:                -0.275
REMARK SMILES CCCCCC(=O)[O-]
REMARK SMILES IDX 4 1 5 2 6 3 7 4 8 5 3 6 2 7 1 8
REMARK H PARENT
REMARK Flexibility Score: inf
ROOT
ATOM      1  C   UNL     1     -15.201 -11.032  -9.986  1.00  0.00     0.006 C 
ENDROOT
BRANCH   1   2
ATOM      2  C   UNL     1     -14.946 -12.211  -9.038  1.00  0.00     0.053 C 
BRANCH   2   3
ATOM      3  C   UNL     1     -14.768 -11.723  -7.635  1.00  0.00     0.041 C 
ATOM      4  O   UNL     1     -13.681 -11.192  -7.282  1.00  0.00    -0.550 OA
ATOM      5  O   UNL     1     -15.817 -11.809  -6.729  1.00  0.00    -0.550 OA
ENDBRANCH   2   3
ENDBRANCH   1   2
BRANCH   1   6
ATOM      6  C   UNL     1     -16.613 -10.444  -9.832  1.00  0.00     0.000 C 
BRANCH   6   7
ATOM      7  C   UNL     1     -16.612  -8.908  -9.805  1.00  0.00    -0.003 C 
ATOM      8  C   UNL     1     -16.876  -8.384  -8.396  1.00  0.00     0.004 C 
ENDBRANCH   6   7
ENDBRANCH   1   6
TORSDOF 4
ENDMDL
MODEL 9
REMARK VINA RESULT:    -4.200      1.681      2.320
REMARK INTER + INTRA:          -5.457
REMARK INTER:                  -5.244
REMARK INTRA:                  -0.213
REMARK UNBOUND:                -0.275
REMARK SMILES CCCCCC(=O)[O-]
REMARK SMILES IDX 4 1 5 2 6 3 7 4 8 5 3 6 2 7 1 8
REMARK H PARENT
REMARK Flexibility Score: inf
ROOT
ATOM      1  C   UNL     1     -16.646  -8.938  -9.614  1.00  0.00     0.006 C 
ENDROOT
BRANCH   1   2
ATOM      2  C   UNL     1     -17.363  -8.302  -8.416  1.00  0.00     0.053 C 
BRANCH   2   3
ATOM      3  C   UNL     1     -16.844  -8.874  -7.135  1.00  0.00     0.041 C 
ATOM      4  O   UNL     1     -15.871  -8.332  -6.547  1.00  0.00    -0.550 OA
ATOM      5  O   UNL     1     -17.465  -9.978  -6.565  1.00  0.00    -0.550 OA
ENDBRANCH   2   3
ENDBRANCH   1   2
BRANCH   1   6
ATOM      6  C   UNL     1     -17.333 -10.225 -10.099  1.00  0.00     0.000 C 
BRANCH   6   7
ATOM      7  C   UNL     1     -16.334 -11.356 -10.383  1.00  0.00    -0.003 C 
ATOM      8  C   UNL     1     -15.094 -11.227  -9.503  1.00  0.00     0.004 C 
ENDBRANCH   6   7
ENDBRANCH   1   6
TORSDOF 4
ENDMDL
