MODEL 1
REMARK VINA RESULT:    -3.350      0.000      0.000
REMARK INTER + INTRA:          -5.081
REMARK INTER:                  -4.427
REMARK INTRA:                  -0.654
REMARK UNBOUND:                -0.654
REMARK SMILES C=C[C@@H](O)CCCCC
REMARK SMILES IDX 6 1 7 2 8 3 9 4 5 5 3 6 2 7 1 8 4 9
REMARK H PARENT 4 10
REMARK Flexibility Score: inf
ROOT
ATOM      1  C   UNL     1     138.034 142.584 147.145  1.00  0.00     0.003 C 
ENDROOT
BRANCH   1   2
ATOM      2  C   UNL     1     138.973 143.590 147.821  1.00  0.00    -0.000 C 
BRANCH   2   3
ATOM      3  C   UNL     1     140.293 142.923 148.227  1.00  0.00    -0.003 C 
ATOM      4  C   UNL     1     140.069 141.482 148.670  1.00  0.00     0.004 C 
ENDBRANCH   2   3
ENDBRANCH   1   2
BRANCH   1   5
ATOM      5  C   UNL     1     138.053 142.751 145.620  1.00  0.00     0.036 C 
BRANCH   5   6
ATOM      6  C   UNL     1     138.745 141.565 144.929  1.00  0.00     0.136 C 
BRANCH   6   7
ATOM      7  C   UNL     1     140.208 141.858 144.697  1.00  0.00    -0.004 C 
ATOM      8  C   UNL     1     141.174 141.005 145.056  1.00  0.00     0.007 C 
ENDBRANCH   6   7
BRANCH   6   9
ATOM      9  O   UNL     1     138.603 140.406 145.710  1.00  0.00    -0.389 OA
ATOM     10  H   UNL     1     137.971 139.810 145.227  1.00  0.00     0.211 HD
ENDBRANCH   6   9
ENDBRANCH   5   6
ENDBRANCH   1   5
TORSDOF 6
ENDMDL
MODEL 2
REMARK VINA RESULT:    -3.340      2.040      4.144
REMARK INTER + INTRA:          -5.067
REMARK INTER:                  -4.522
REMARK INTRA:                  -0.545
REMARK UNBOUND:                -0.654
REMARK SMILES C=C[C@@H](O)CCCCC
REMARK SMILES IDX 6 1 7 2 8 3 9 4 5 5 3 6 2 7 1 8 4 9
REMARK H PARENT 4 10
REMARK Flexibility Score: inf
ROOT
ATOM      1  C   UNL     1     140.247 140.263 147.028  1.00  0.00     0.003 C 
ENDROOT
BRANCH   1   2
ATOM      2  C   UNL     1     138.966 139.676 146.423  1.00  0.00    -0.000 C 
BRANCH   2   3
ATOM      3  C   UNL     1     138.886 139.961 144.919  1.00  0.00    -0.003 C 
ATOM      4  C   UNL     1     138.568 141.428 144.652  1.00  0.00     0.004 C 
ENDBRANCH   2   3
ENDBRANCH   1   2
BRANCH   1   5
ATOM      5  C   UNL     1     139.924 141.200 148.200  1.00  0.00     0.036 C 
BRANCH   5   6
ATOM      6  C   UNL     1     140.154 142.674 147.826  1.00  0.00     0.136 C 
BRANCH   6   7
ATOM      7  C   UNL     1     138.878 143.469 147.965  1.00  0.00    -0.004 C 
ATOM      8  C   UNL     1     137.676 142.885 148.032  1.00  0.00     0.007 C 
ENDBRANCH   6   7
BRANCH   6   9
ATOM      9  O   UNL     1     141.156 143.225 148.643  1.00  0.00    -0.389 OA
ATOM     10  H   UNL     1     141.555 143.981 148.137  1.00  0.00     0.211 HD
ENDBRANCH   6   9
ENDBRANCH   5   6
ENDBRANCH   1   5
TORSDOF 6
ENDMDL
MODEL 3
REMARK VINA RESULT:    -3.315      1.894      3.850
REMARK INTER + INTRA:          -5.035
REMARK INTER:                  -4.460
REMARK INTRA:                  -0.575
REMARK UNBOUND:                -0.654
REMARK SMILES C=C[C@@H](O)CCCCC
REMARK SMILES IDX 6 1 7 2 8 3 9 4 5 5 3 6 2 7 1 8 4 9
REMARK H PARENT 4 10
REMARK Flexibility Score: inf
ROOT
ATOM      1  C   UNL     1     140.800 142.377 145.831  1.00  0.00     0.003 C 
ENDROOT
BRANCH   1   2
ATOM      2  C   UNL     1     140.133 141.941 144.521  1.00  0.00    -0.000 C 
BRANCH   2   3
ATOM      3  C   UNL     1     138.869 141.116 144.795  1.00  0.00    -0.003 C 
ATOM      4  C   UNL     1     139.173 139.930 145.705  1.00  0.00     0.004 C 
ENDBRANCH   2   3
ENDBRANCH   1   2
BRANCH   1   5
ATOM      5  C   UNL     1     140.099 143.608 146.423  1.00  0.00     0.036 C 
BRANCH   5   6
ATOM      6  C   UNL     1     139.879 143.460 147.937  1.00  0.00     0.136 C 
BRANCH   6   7
ATOM      7  C   UNL     1     138.675 142.594 148.223  1.00  0.00    -0.004 C 
ATOM      8  C   UNL     1     137.449 142.910 147.793  1.00  0.00     0.007 C 
ENDBRANCH   6   7
BRANCH   6   9
ATOM      9  O   UNL     1     141.023 142.908 148.537  1.00  0.00    -0.389 OA
ATOM     10  H   UNL     1     140.725 142.475 149.380  1.00  0.00     0.211 HD
ENDBRANCH   6   9
ENDBRANCH   5   6
ENDBRANCH   1   5
TORSDOF 6
ENDMDL
MODEL 4
REMARK VINA RESULT:    -3.266      1.507      2.583
REMARK INTER + INTRA:          -4.969
REMARK INTER:                  -4.378
REMARK INTRA:                  -0.591
REMARK UNBOUND:                -0.654
REMARK SMILES C=C[C@@H](O)CCCCC
REMARK SMILES IDX 6 1 7 2 8 3 9 4 5 5 3 6 2 7 1 8 4 9
REMARK H PARENT 4 10
REMARK Flexibility Score: inf
ROOT
ATOM      1  C   UNL     1     139.153 140.594 147.194  1.00  0.00     0.003 C 
ENDROOT
BRANCH   1   2
ATOM      2  C   UNL     1     139.364 141.516 148.401  1.00  0.00    -0.000 C 
BRANCH   2   3
ATOM      3  C   UNL     1     138.836 142.927 148.115  1.00  0.00    -0.003 C 
ATOM      4  C   UNL     1     137.312 142.945 148.064  1.00  0.00     0.004 C 
ENDBRANCH   2   3
ENDBRANCH   1   2
BRANCH   1   5
ATOM      5  C   UNL     1     140.378 140.607 146.270  1.00  0.00     0.036 C 
BRANCH   5   6
ATOM      6  C   UNL     1     140.112 141.413 144.988  1.00  0.00     0.136 C 
BRANCH   6   7
ATOM      7  C   UNL     1     138.631 141.499 144.705  1.00  0.00    -0.004 C 
ATOM      8  C   UNL     1     138.031 142.648 144.379  1.00  0.00     0.007 C 
ENDBRANCH   6   7
BRANCH   6   9
ATOM      9  O   UNL     1     140.654 142.703 145.111  1.00  0.00    -0.389 OA
ATOM     10  H   UNL     1     141.490 142.614 145.641  1.00  0.00     0.211 HD
ENDBRANCH   6   9
ENDBRANCH   5   6
ENDBRANCH   1   5
TORSDOF 6
ENDMDL
MODEL 5
REMARK VINA RESULT:    -3.218      1.550      3.991
REMARK INTER + INTRA:          -4.906
REMARK INTER:                  -4.351
REMARK INTRA:                  -0.555
REMARK UNBOUND:                -0.654
REMARK SMILES C=C[C@@H](O)CCCCC
REMARK SMILES IDX 6 1 7 2 8 3 9 4 5 5 3 6 2 7 1 8 4 9
REMARK H PARENT 4 10
REMARK Flexibility Score: inf
ROOT
ATOM      1  C   UNL     1     140.603 142.040 145.736  1.00  0.00     0.003 C 
ENDROOT
BRANCH   1   2
ATOM      2  C   UNL     1     140.053 141.652 144.358  1.00  0.00    -0.000 C 
BRANCH   2   3
ATOM      3  C   UNL     1     138.530 141.476 144.403  1.00  0.00    -0.003 C 
ATOM      4  C   UNL     1     137.817 142.818 144.283  1.00  0.00     0.004 C 
ENDBRANCH   2   3
ENDBRANCH   1   2
BRANCH   1   5
ATOM      5  C   UNL     1     140.032 141.131 146.833  1.00  0.00     0.036 C 
BRANCH   5   6
ATOM      6  C   UNL     1     139.794 141.903 148.141  1.00  0.00     0.136 C 
BRANCH   6   7
ATOM      7  C   UNL     1     138.855 143.064 147.915  1.00  0.00    -0.004 C 
ATOM      8  C   UNL     1     137.529 142.948 148.044  1.00  0.00     0.007 C 
ENDBRANCH   6   7
BRANCH   6   9
ATOM      9  O   UNL     1     139.268 141.041 149.118  1.00  0.00    -0.389 OA
ATOM     10  H   UNL     1     139.799 140.202 149.075  1.00  0.00     0.211 HD
ENDBRANCH   6   9
ENDBRANCH   5   6
ENDBRANCH   1   5
TORSDOF 6
ENDMDL
MODEL 6
REMARK VINA RESULT:    -3.204      1.537      2.233
REMARK INTER + INTRA:          -4.888
REMARK INTER:                  -4.246
REMARK INTRA:                  -0.642
REMARK UNBOUND:                -0.654
REMARK SMILES C=C[C@@H](O)CCCCC
REMARK SMILES IDX 6 1 7 2 8 3 9 4 5 5 3 6 2 7 1 8 4 9
REMARK H PARENT 4 10
REMARK Flexibility Score: inf
ROOT
ATOM      1  C   UNL     1     139.942 143.884 146.551  1.00  0.00     0.003 C 
ENDROOT
BRANCH   1   2
ATOM      2  C   UNL     1     139.548 143.720 148.024  1.00  0.00    -0.000 C 
BRANCH   2   3
ATOM      3  C   UNL     1     138.539 142.579 148.200  1.00  0.00    -0.003 C 
ATOM      4  C   UNL     1     137.292 142.811 147.353  1.00  0.00     0.004 C 
ENDBRANCH   2   3
ENDBRANCH   1   2
BRANCH   1   5
ATOM      5  C   UNL     1     140.938 142.798 146.123  1.00  0.00     0.036 C 
BRANCH   5   6
ATOM      6  C   UNL     1     140.395 141.962 144.952  1.00  0.00     0.136 C 
BRANCH   6   7
ATOM      7  C   UNL     1     139.946 140.601 145.427  1.00  0.00    -0.004 C 
ATOM      8  C   UNL     1     140.552 139.959 146.431  1.00  0.00     0.007 C 
ENDBRANCH   6   7
BRANCH   6   9
ATOM      9  O   UNL     1     139.326 142.635 144.337  1.00  0.00    -0.389 OA
ATOM     10  H   UNL     1     138.637 142.780 145.038  1.00  0.00     0.211 HD
ENDBRANCH   6   9
ENDBRANCH   5   6
ENDBRANCH   1   5
TORSDOF 6
ENDMDL
MODEL 7
REMARK VINA RESULT:    -3.185      1.447      2.380
REMARK INTER + INTRA:          -4.862
REMARK INTER:                  -4.260
REMARK INTRA:                  -0.603
REMARK UNBOUND:                -0.654
REMARK SMILES C=C[C@@H](O)CCCCC
REMARK SMILES IDX 6 1 7 2 8 3 9 4 5 5 3 6 2 7 1 8 4 9
REMARK H PARENT 4 10
REMARK Flexibility Score: inf
ROOT
ATOM      1  C   UNL     1     139.869 140.795 147.734  1.00  0.00     0.003 C 
ENDROOT
BRANCH   1   2
ATOM      2  C   UNL     1     138.956 141.587 148.678  1.00  0.00    -0.000 C 
BRANCH   2   3
ATOM      3  C   UNL     1     138.525 142.914 148.043  1.00  0.00    -0.003 C 
ATOM      4  C   UNL     1     139.691 143.895 147.973  1.00  0.00     0.004 C 
ENDBRANCH   2   3
ENDBRANCH   1   2
BRANCH   1   5
ATOM      5  C   UNL     1     139.191 140.562 146.378  1.00  0.00     0.036 C 
BRANCH   5   6
ATOM      6  C   UNL     1     140.101 140.981 145.211  1.00  0.00     0.136 C 
BRANCH   6   7
ATOM      7  C   UNL     1     139.364 141.890 144.255  1.00  0.00    -0.004 C 
ATOM      8  C   UNL     1     138.104 142.281 144.469  1.00  0.00     0.007 C 
ENDBRANCH   6   7
BRANCH   6   9
ATOM      9  O   UNL     1     141.247 141.627 145.703  1.00  0.00    -0.389 OA
ATOM     10  H   UNL     1     141.845 140.918 146.060  1.00  0.00     0.211 HD
ENDBRANCH   6   9
ENDBRANCH   5   6
ENDBRANCH   1   5
TORSDOF 6
ENDMDL
MODEL 8
REMARK VINA RESULT:    -3.146      1.420      3.561
REMARK INTER + INTRA:          -4.811
REMARK INTER:                  -4.223
REMARK INTRA:                  -0.589
REMARK UNBOUND:                -0.654
REMARK SMILES C=C[C@@H](O)CCCCC
REMARK SMILES IDX 6 1 7 2 8 3 9 4 5 5 3 6 2 7 1 8 4 9
REMARK H PARENT 4 10
REMARK Flexibility Score: inf
ROOT
ATOM      1  C   UNL     1     139.176 140.323 146.898  1.00  0.00     0.003 C 
ENDROOT
BRANCH   1   2
ATOM      2  C   UNL     1     140.553 140.308 146.223  1.00  0.00    -0.000 C 
BRANCH   2   3
ATOM      3  C   UNL     1     140.750 141.553 145.349  1.00  0.00    -0.003 C 
ATOM      4  C   UNL     1     139.795 141.548 144.160  1.00  0.00     0.004 C 
ENDBRANCH   2   3
ENDBRANCH   1   2
BRANCH   1   5
ATOM      5  C   UNL     1     139.200 141.167 148.180  1.00  0.00     0.036 C 
BRANCH   5   6
ATOM      6  C   UNL     1     138.251 142.373 148.081  1.00  0.00     0.136 C 
BRANCH   6   7
ATOM      7  C   UNL     1     139.030 143.661 147.973  1.00  0.00    -0.004 C 
ATOM      8  C   UNL     1     140.344 143.725 148.216  1.00  0.00     0.007 C 
ENDBRANCH   6   7
BRANCH   6   9
ATOM      9  O   UNL     1     137.404 142.227 146.970  1.00  0.00    -0.389 OA
ATOM     10  H   UNL     1     137.807 141.527 146.392  1.00  0.00     0.211 HD
ENDBRANCH   6   9
ENDBRANCH   5   6
ENDBRANCH   1   5
TORSDOF 6
ENDMDL
MODEL 9
REMARK VINA RESULT:    -2.919      2.005      3.014
REMARK INTER + INTRA:          -4.511
REMARK INTER:                  -3.996
REMARK INTRA:                  -0.515
REMARK UNBOUND:                -0.654
REMARK SMILES C=C[C@@H](O)CCCCC
REMARK SMILES IDX 6 1 7 2 8 3 9 4 5 5 3 6 2 7 1 8 4 9
REMARK H PARENT 4 10
REMARK Flexibility Score: inf
ROOT
ATOM      1  C   UNL     1     138.873 141.647 148.406  1.00  0.00     0.003 C 
ENDROOT
BRANCH   1   2
ATOM      2  C   UNL     1     139.878 140.790 147.628  1.00  0.00    -0.000 C 
BRANCH   2   3
ATOM      3  C   UNL     1     139.214 139.519 147.084  1.00  0.00    -0.003 C 
ATOM      4  C   UNL     1     139.846 139.089 145.765  1.00  0.00     0.004 C 
ENDBRANCH   2   3
ENDBRANCH   1   2
BRANCH   1   5
ATOM      5  C   UNL     1     138.614 142.979 147.689  1.00  0.00     0.036 C 
BRANCH   5   6
ATOM      6  C   UNL     1     139.249 143.002 146.288  1.00  0.00     0.136 C 
BRANCH   6   7
ATOM      7  C   UNL     1     138.185 142.988 145.217  1.00  0.00    -0.004 C 
ATOM      8  C   UNL     1     138.160 142.068 144.246  1.00  0.00     0.007 C 
ENDBRANCH   6   7
BRANCH   6   9
ATOM      9  O   UNL     1     140.060 144.140 146.148  1.00  0.00    -0.389 OA
ATOM     10  H   UNL     1     139.451 144.924 146.112  1.00  0.00     0.211 HD
ENDBRANCH   6   9
ENDBRANCH   5   6
ENDBRANCH   1   5
TORSDOF 6
ENDMDL
