MODEL 1
REMARK VINA RESULT:    -7.636      0.000      0.000
REMARK INTER + INTRA:          -9.566
REMARK INTER:                  -9.198
REMARK INTRA:                  -0.367
REMARK UNBOUND:                -0.367
REMARK SMILES Oc1cc(O)c2c(c1)O[C@@H](c1ccc(O)c(O)c1)[C@H](O)C2
REMARK SMILES IDX 21 1 19 2 10 3 9 4 7 5 8 6 2 7 3 8 4 9 6 10 20 11 11 13
REMARK SMILES IDX 18 14 12 15 16 16 13 17 14 18 17 19 15 21 5 23 1 25
REMARK H PARENT 20 12 17 20 15 22 5 24 1 26
REMARK Flexibility Score: inf
ROOT
ATOM      1  C   UNL     1      16.084   8.971  39.539  1.00  0.00     0.079 C 
ATOM      2  C   UNL     1      15.102   8.668  38.394  1.00  0.00     0.164 C 
ATOM      3  C   UNL     1      14.823   7.155  38.336  1.00  0.00     0.232 C 
ATOM      4  O   UNL     1      14.335   6.696  39.598  1.00  0.00    -0.482 OA
ATOM      5  C   UNL     1      14.804   7.205  40.814  1.00  0.00     0.131 A 
ATOM      6  C   UNL     1      14.412   6.596  42.010  1.00  0.00     0.093 A 
ATOM      7  C   UNL     1      14.870   7.086  43.235  1.00  0.00     0.122 A 
ATOM      8  C   UNL     1      15.727   8.194  43.265  1.00  0.00     0.092 A 
ATOM      9  C   UNL     1      16.124   8.816  42.072  1.00  0.00     0.126 A 
ATOM     10  C   UNL     1      15.646   8.334  40.839  1.00  0.00     0.039 A 
ENDROOT
BRANCH   2  11
ATOM     11  O   UNL     1      15.650   9.096  37.173  1.00  0.00    -0.389 OA
ATOM     12  H   UNL     1      16.636   9.067  37.278  1.00  0.00     0.211 HD
ENDBRANCH   2  11
BRANCH   3  13
ATOM     13  C   UNL     1      13.818   6.827  37.256  1.00  0.00    -0.001 A 
ATOM     14  C   UNL     1      14.203   6.087  36.124  1.00  0.00     0.057 A 
ATOM     15  C   UNL     1      12.476   7.217  37.395  1.00  0.00     0.012 A 
ATOM     16  C   UNL     1      13.263   5.759  35.135  1.00  0.00     0.157 A 
ATOM     17  C   UNL     1      11.540   6.892  36.411  1.00  0.00     0.050 A 
ATOM     18  C   UNL     1      11.930   6.164  35.278  1.00  0.00     0.157 A 
BRANCH  16  19
ATOM     19  O   UNL     1      13.646   5.031  34.012  1.00  0.00    -0.504 OA
ATOM     20  H   UNL     1      14.311   4.268  34.075  1.00  0.00     0.293 HD
ENDBRANCH  16  19
BRANCH  18  21
ATOM     21  O   UNL     1      10.999   5.838  34.294  1.00  0.00    -0.504 OA
ATOM     22  H   UNL     1      11.181   6.015  33.313  1.00  0.00     0.293 HD
ENDBRANCH  18  21
ENDBRANCH   3  13
BRANCH   9  23
ATOM     23  O   UNL     1      16.989   9.909  42.111  1.00  0.00    -0.507 OA
ATOM     24  H   UNL     1      16.965  10.580  42.871  1.00  0.00     0.293 HD
ENDBRANCH   9  23
BRANCH   7  25
ATOM     25  O   UNL     1      14.470   6.466  44.416  1.00  0.00    -0.508 OA
ATOM     26  H   UNL     1      14.332   6.992  45.271  1.00  0.00     0.293 HD
ENDBRANCH   7  25
TORSDOF 6
ENDMDL
MODEL 2
REMARK VINA RESULT:    -7.191      2.684      7.162
REMARK INTER + INTRA:          -9.030
REMARK INTER:                  -9.397
REMARK INTRA:                   0.367
REMARK UNBOUND:                -0.367
REMARK SMILES Oc1cc(O)c2c(c1)O[C@@H](c1ccc(O)c(O)c1)[C@H](O)C2
REMARK SMILES IDX 21 1 19 2 10 3 9 4 7 5 8 6 2 7 3 8 4 9 6 10 20 11 11 13
REMARK SMILES IDX 18 14 12 15 16 16 13 17 14 18 17 19 15 21 5 23 1 25
REMARK H PARENT 20 12 17 20 15 22 5 24 1 26
REMARK Flexibility Score: inf
ROOT
ATOM      1  C   UNL     1      11.557   7.368  37.814  1.00  0.00     0.079 C 
ATOM      2  C   UNL     1      12.268   7.083  39.149  1.00  0.00     0.164 C 
ATOM      3  C   UNL     1      13.502   7.994  39.284  1.00  0.00     0.232 C 
ATOM      4  O   UNL     1      13.118   9.365  39.161  1.00  0.00    -0.482 OA
ATOM      5  C   UNL     1      12.117   9.787  38.281  1.00  0.00     0.131 A 
ATOM      6  C   UNL     1      11.908  11.155  38.084  1.00  0.00     0.093 A 
ATOM      7  C   UNL     1      10.914  11.599  37.209  1.00  0.00     0.122 A 
ATOM      8  C   UNL     1      10.123  10.668  36.523  1.00  0.00     0.092 A 
ATOM      9  C   UNL     1      10.320   9.292  36.715  1.00  0.00     0.126 A 
ATOM     10  C   UNL     1      11.308   8.846  37.613  1.00  0.00     0.039 A 
ENDROOT
BRANCH   2  11
ATOM     11  O   UNL     1      12.665   5.737  39.197  1.00  0.00    -0.389 OA
ATOM     12  H   UNL     1      11.965   5.215  38.724  1.00  0.00     0.211 HD
ENDBRANCH   2  11
BRANCH   3  13
ATOM     13  C   UNL     1      14.194   7.779  40.611  1.00  0.00    -0.001 A 
ATOM     14  C   UNL     1      15.090   8.740  41.112  1.00  0.00     0.057 A 
ATOM     15  C   UNL     1      13.911   6.639  41.380  1.00  0.00     0.012 A 
ATOM     16  C   UNL     1      15.711   8.553  42.356  1.00  0.00     0.157 A 
ATOM     17  C   UNL     1      14.530   6.452  42.619  1.00  0.00     0.050 A 
ATOM     18  C   UNL     1      15.431   7.407  43.110  1.00  0.00     0.157 A 
BRANCH  16  19
ATOM     19  O   UNL     1      16.603   9.503  42.849  1.00  0.00    -0.504 OA
ATOM     20  H   UNL     1      16.951   9.461  43.799  1.00  0.00     0.293 HD
ENDBRANCH  16  19
BRANCH  18  21
ATOM     21  O   UNL     1      16.050   7.223  44.345  1.00  0.00    -0.504 OA
ATOM     22  H   UNL     1      15.516   7.192  45.206  1.00  0.00     0.293 HD
ENDBRANCH  18  21
ENDBRANCH   3  13
BRANCH   9  23
ATOM     23  O   UNL     1       9.539   8.373  36.018  1.00  0.00    -0.507 OA
ATOM     24  H   UNL     1       8.537   8.307  36.162  1.00  0.00     0.293 HD
ENDBRANCH   9  23
BRANCH   7  25
ATOM     25  O   UNL     1      10.721  12.966  37.025  1.00  0.00    -0.508 OA
ATOM     26  H   UNL     1      11.435  13.551  36.604  1.00  0.00     0.293 HD
ENDBRANCH   7  25
TORSDOF 6
ENDMDL
MODEL 3
REMARK VINA RESULT:    -7.049     10.436     11.873
REMARK INTER + INTRA:          -8.859
REMARK INTER:                  -8.750
REMARK INTRA:                  -0.109
REMARK UNBOUND:                -0.367
REMARK SMILES Oc1cc(O)c2c(c1)O[C@@H](c1ccc(O)c(O)c1)[C@H](O)C2
REMARK SMILES IDX 21 1 19 2 10 3 9 4 7 5 8 6 2 7 3 8 4 9 6 10 20 11 11 13
REMARK SMILES IDX 18 14 12 15 16 16 13 17 14 18 17 19 15 21 5 23 1 25
REMARK H PARENT 20 12 17 20 15 22 5 24 1 26
REMARK Flexibility Score: inf
ROOT
ATOM      1  C   UNL     1      10.032   5.626  50.902  1.00  0.00     0.079 C 
ATOM      2  C   UNL     1       9.168   6.483  49.961  1.00  0.00     0.164 C 
ATOM      3  C   UNL     1       9.547   6.188  48.497  1.00  0.00     0.232 C 
ATOM      4  O   UNL     1       9.415   4.791  48.226  1.00  0.00    -0.482 OA
ATOM      5  C   UNL     1       9.737   3.810  49.170  1.00  0.00     0.131 A 
ATOM      6  C   UNL     1       9.749   2.466  48.787  1.00  0.00     0.093 A 
ATOM      7  C   UNL     1      10.068   1.470  49.713  1.00  0.00     0.122 A 
ATOM      8  C   UNL     1      10.380   1.821  51.033  1.00  0.00     0.092 A 
ATOM      9  C   UNL     1      10.367   3.166  51.431  1.00  0.00     0.126 A 
ATOM     10  C   UNL     1      10.025   4.167  50.503  1.00  0.00     0.039 A 
ENDROOT
BRANCH   2  11
ATOM     11  O   UNL     1       9.371   7.844  50.237  1.00  0.00    -0.389 OA
ATOM     12  H   UNL     1       8.583   8.151  50.757  1.00  0.00     0.211 HD
ENDBRANCH   2  11
BRANCH   3  13
ATOM     13  C   UNL     1       8.678   6.972  47.541  1.00  0.00    -0.001 A 
ATOM     14  C   UNL     1       7.533   6.387  46.972  1.00  0.00     0.057 A 
ATOM     15  C   UNL     1       8.979   8.313  47.249  1.00  0.00     0.012 A 
ATOM     16  C   UNL     1       6.713   7.124  46.106  1.00  0.00     0.157 A 
ATOM     17  C   UNL     1       8.163   9.048  46.386  1.00  0.00     0.050 A 
ATOM     18  C   UNL     1       7.029   8.457  45.812  1.00  0.00     0.157 A 
BRANCH  16  19
ATOM     19  O   UNL     1       5.582   6.542  45.539  1.00  0.00    -0.504 OA
ATOM     20  H   UNL     1       5.488   6.435  44.535  1.00  0.00     0.293 HD
ENDBRANCH  16  19
BRANCH  18  21
ATOM     21  O   UNL     1       6.212   9.187  44.951  1.00  0.00    -0.504 OA
ATOM     22  H   UNL     1       5.835  10.090  45.216  1.00  0.00     0.293 HD
ENDBRANCH  18  21
ENDBRANCH   3  13
BRANCH   9  23
ATOM     23  O   UNL     1      10.692   3.507  52.743  1.00  0.00    -0.507 OA
ATOM     24  H   UNL     1      10.985   2.809  53.418  1.00  0.00     0.293 HD
ENDBRANCH   9  23
BRANCH   7  25
ATOM     25  O   UNL     1      10.076   0.137  49.312  1.00  0.00    -0.508 OA
ATOM     26  H   UNL     1      10.102  -0.123  48.333  1.00  0.00     0.293 HD
ENDBRANCH   7  25
TORSDOF 6
ENDMDL
MODEL 4
REMARK VINA RESULT:    -7.049     10.571     12.028
REMARK INTER + INTRA:          -8.859
REMARK INTER:                  -8.486
REMARK INTRA:                  -0.373
REMARK UNBOUND:                -0.367
REMARK SMILES Oc1cc(O)c2c(c1)O[C@@H](c1ccc(O)c(O)c1)[C@H](O)C2
REMARK SMILES IDX 21 1 19 2 10 3 9 4 7 5 8 6 2 7 3 8 4 9 6 10 20 11 11 13
REMARK SMILES IDX 18 14 12 15 16 16 13 17 14 18 17 19 15 21 5 23 1 25
REMARK H PARENT 20 12 17 20 15 22 5 24 1 26
REMARK Flexibility Score: inf
ROOT
ATOM      1  C   UNL     1       9.886   8.938  50.533  1.00  0.00     0.079 C 
ATOM      2  C   UNL     1       9.904   7.403  50.434  1.00  0.00     0.164 C 
ATOM      3  C   UNL     1      10.913   6.964  49.356  1.00  0.00     0.232 C 
ATOM      4  O   UNL     1      12.206   7.500  49.644  1.00  0.00    -0.482 OA
ATOM      5  C   UNL     1      12.384   8.774  50.193  1.00  0.00     0.131 A 
ATOM      6  C   UNL     1      13.673   9.305  50.291  1.00  0.00     0.093 A 
ATOM      7  C   UNL     1      13.875  10.575  50.835  1.00  0.00     0.122 A 
ATOM      8  C   UNL     1      12.778  11.323  51.283  1.00  0.00     0.092 A 
ATOM      9  C   UNL     1      11.479  10.800  51.194  1.00  0.00     0.126 A 
ATOM     10  C   UNL     1      11.279   9.511  50.665  1.00  0.00     0.039 A 
ENDROOT
BRANCH   2  11
ATOM     11  O   UNL     1       8.623   6.933  50.103  1.00  0.00    -0.389 OA
ATOM     12  H   UNL     1       8.314   7.468  49.326  1.00  0.00     0.211 HD
ENDBRANCH   2  11
BRANCH   3  13
ATOM     13  C   UNL     1      10.997   5.457  49.271  1.00  0.00    -0.001 A 
ATOM     14  C   UNL     1      10.720   4.794  48.062  1.00  0.00     0.057 A 
ATOM     15  C   UNL     1      11.401   4.707  50.387  1.00  0.00     0.012 A 
ATOM     16  C   UNL     1      10.826   3.398  47.976  1.00  0.00     0.157 A 
ATOM     17  C   UNL     1      11.506   3.316  50.302  1.00  0.00     0.050 A 
ATOM     18  C   UNL     1      11.219   2.658  49.099  1.00  0.00     0.157 A 
BRANCH  16  19
ATOM     19  O   UNL     1      10.546   2.742  46.780  1.00  0.00    -0.504 OA
ATOM     20  H   UNL     1       9.679   2.897  46.280  1.00  0.00     0.293 HD
ENDBRANCH  16  19
BRANCH  18  21
ATOM     21  O   UNL     1      11.322   1.271  49.011  1.00  0.00    -0.504 OA
ATOM     22  H   UNL     1      11.892   0.740  49.658  1.00  0.00     0.293 HD
ENDBRANCH  18  21
ENDBRANCH   3  13
BRANCH   9  23
ATOM     23  O   UNL     1      10.392  11.556  51.629  1.00  0.00    -0.507 OA
ATOM     24  H   UNL     1      10.215  12.489  51.271  1.00  0.00     0.293 HD
ENDBRANCH   9  23
BRANCH   7  25
ATOM     25  O   UNL     1      15.166  11.088  50.923  1.00  0.00    -0.508 OA
ATOM     26  H   UNL     1      15.879  10.638  51.487  1.00  0.00     0.293 HD
ENDBRANCH   7  25
TORSDOF 6
ENDMDL
MODEL 5
REMARK VINA RESULT:    -6.976     10.419     12.948
REMARK INTER + INTRA:          -8.771
REMARK INTER:                  -8.408
REMARK INTRA:                  -0.363
REMARK UNBOUND:                -0.367
REMARK SMILES Oc1cc(O)c2c(c1)O[C@@H](c1ccc(O)c(O)c1)[C@H](O)C2
REMARK SMILES IDX 21 1 19 2 10 3 9 4 7 5 8 6 2 7 3 8 4 9 6 10 20 11 11 13
REMARK SMILES IDX 18 14 12 15 16 16 13 17 14 18 17 19 15 21 5 23 1 25
REMARK H PARENT 20 12 17 20 15 22 5 24 1 26
REMARK Flexibility Score: inf
ROOT
ATOM      1  C   UNL     1      11.477  -0.394  50.131  1.00  0.00     0.079 C 
ATOM      2  C   UNL     1      10.713   0.719  49.391  1.00  0.00     0.164 C 
ATOM      3  C   UNL     1      11.213   2.096  49.866  1.00  0.00     0.232 C 
ATOM      4  O   UNL     1      12.627   2.197  49.679  1.00  0.00    -0.482 OA
ATOM      5  C   UNL     1      13.489   1.112  49.871  1.00  0.00     0.131 A 
ATOM      6  C   UNL     1      14.870   1.320  49.839  1.00  0.00     0.093 A 
ATOM      7  C   UNL     1      15.750   0.252  50.029  1.00  0.00     0.122 A 
ATOM      8  C   UNL     1      15.244  -1.035  50.256  1.00  0.00     0.092 A 
ATOM      9  C   UNL     1      13.858  -1.257  50.286  1.00  0.00     0.126 A 
ATOM     10  C   UNL     1      12.973  -0.184  50.073  1.00  0.00     0.039 A 
ENDROOT
BRANCH   2  11
ATOM     11  O   UNL     1       9.337   0.601  49.647  1.00  0.00    -0.389 OA
ATOM     12  H   UNL     1       9.216   0.737  50.622  1.00  0.00     0.211 HD
ENDBRANCH   2  11
BRANCH   3  13
ATOM     13  C   UNL     1      10.523   3.214  49.119  1.00  0.00    -0.001 A 
ATOM     14  C   UNL     1       9.869   4.243  49.820  1.00  0.00     0.057 A 
ATOM     15  C   UNL     1      10.568   3.262  47.717  1.00  0.00     0.012 A 
ATOM     16  C   UNL     1       9.252   5.294  49.127  1.00  0.00     0.157 A 
ATOM     17  C   UNL     1       9.953   4.308  47.025  1.00  0.00     0.050 A 
ATOM     18  C   UNL     1       9.293   5.326  47.727  1.00  0.00     0.157 A 
BRANCH  16  19
ATOM     19  O   UNL     1       8.600   6.310  49.821  1.00  0.00    -0.504 OA
ATOM     20  H   UNL     1       7.722   6.697  49.495  1.00  0.00     0.293 HD
ENDBRANCH  16  19
BRANCH  18  21
ATOM     21  O   UNL     1       8.678   6.372  47.041  1.00  0.00    -0.504 OA
ATOM     22  H   UNL     1       8.985   7.332  47.153  1.00  0.00     0.293 HD
ENDBRANCH  18  21
ENDBRANCH   3  13
BRANCH   9  23
ATOM     23  O   UNL     1      13.363  -2.538  50.526  1.00  0.00    -0.507 OA
ATOM     24  H   UNL     1      13.220  -2.885  51.468  1.00  0.00     0.293 HD
ENDBRANCH   9  23
BRANCH   7  25
ATOM     25  O   UNL     1      17.123   0.478  49.995  1.00  0.00    -0.508 OA
ATOM     26  H   UNL     1      17.757  -0.172  49.541  1.00  0.00     0.293 HD
ENDBRANCH   7  25
TORSDOF 6
ENDMDL
MODEL 6
REMARK VINA RESULT:    -6.922      9.916     11.292
REMARK INTER + INTRA:          -8.706
REMARK INTER:                  -8.680
REMARK INTRA:                  -0.027
REMARK UNBOUND:                -0.367
REMARK SMILES Oc1cc(O)c2c(c1)O[C@@H](c1ccc(O)c(O)c1)[C@H](O)C2
REMARK SMILES IDX 21 1 19 2 10 3 9 4 7 5 8 6 2 7 3 8 4 9 6 10 20 11 11 13
REMARK SMILES IDX 18 14 12 15 16 16 13 17 14 18 17 19 15 21 5 23 1 25
REMARK H PARENT 20 12 17 20 15 22 5 24 1 26
REMARK Flexibility Score: inf
ROOT
ATOM      1  C   UNL     1      12.990   4.011  48.208  1.00  0.00     0.079 C 
ATOM      2  C   UNL     1      11.864   5.060  48.158  1.00  0.00     0.164 C 
ATOM      3  C   UNL     1      10.629   4.462  47.459  1.00  0.00     0.232 C 
ATOM      4  O   UNL     1      10.220   3.263  48.121  1.00  0.00    -0.482 OA
ATOM      5  C   UNL     1      11.136   2.358  48.667  1.00  0.00     0.131 A 
ATOM      6  C   UNL     1      10.680   1.127  49.148  1.00  0.00     0.093 A 
ATOM      7  C   UNL     1      11.577   0.207  49.695  1.00  0.00     0.122 A 
ATOM      8  C   UNL     1      12.941   0.518  49.761  1.00  0.00     0.092 A 
ATOM      9  C   UNL     1      13.410   1.753  49.286  1.00  0.00     0.126 A 
ATOM     10  C   UNL     1      12.503   2.688  48.753  1.00  0.00     0.039 A 
ENDROOT
BRANCH   2  11
ATOM     11  O   UNL     1      12.303   6.194  47.457  1.00  0.00    -0.389 OA
ATOM     12  H   UNL     1      13.295   6.163  47.455  1.00  0.00     0.211 HD
ENDBRANCH   2  11
BRANCH   3  13
ATOM     13  C   UNL     1       9.483   5.447  47.441  1.00  0.00    -0.001 A 
ATOM     14  C   UNL     1       8.401   5.268  46.560  1.00  0.00     0.057 A 
ATOM     15  C   UNL     1       9.463   6.526  48.339  1.00  0.00     0.012 A 
ATOM     16  C   UNL     1       7.325   6.167  46.564  1.00  0.00     0.157 A 
ATOM     17  C   UNL     1       8.392   7.422  48.343  1.00  0.00     0.050 A 
ATOM     18  C   UNL     1       7.321   7.247  47.456  1.00  0.00     0.157 A 
BRANCH  16  19
ATOM     19  O   UNL     1       6.257   5.992  45.688  1.00  0.00    -0.504 OA
ATOM     20  H   UNL     1       5.340   5.712  46.017  1.00  0.00     0.293 HD
ENDBRANCH  16  19
BRANCH  18  21
ATOM     21  O   UNL     1       6.250   8.139  47.457  1.00  0.00    -0.504 OA
ATOM     22  H   UNL     1       5.783   8.405  46.598  1.00  0.00     0.293 HD
ENDBRANCH  18  21
ENDBRANCH   3  13
BRANCH   9  23
ATOM     23  O   UNL     1      14.771   2.049  49.342  1.00  0.00    -0.507 OA
ATOM     24  H   UNL     1      15.253   2.173  50.226  1.00  0.00     0.293 HD
ENDBRANCH   9  23
BRANCH   7  25
ATOM     25  O   UNL     1      11.105  -1.015  50.169  1.00  0.00    -0.508 OA
ATOM     26  H   UNL     1      10.942  -1.798  49.546  1.00  0.00     0.293 HD
ENDBRANCH   7  25
TORSDOF 6
ENDMDL
MODEL 7
REMARK VINA RESULT:    -6.892     10.033     11.184
REMARK INTER + INTRA:          -8.669
REMARK INTER:                  -8.346
REMARK INTRA:                  -0.323
REMARK UNBOUND:                -0.367
REMARK SMILES Oc1cc(O)c2c(c1)O[C@@H](c1ccc(O)c(O)c1)[C@H](O)C2
REMARK SMILES IDX 21 1 19 2 10 3 9 4 7 5 8 6 2 7 3 8 4 9 6 10 20 11 11 13
REMARK SMILES IDX 18 14 12 15 16 16 13 17 14 18 17 19 15 21 5 23 1 25
REMARK H PARENT 20 12 17 20 15 22 5 24 1 26
REMARK Flexibility Score: inf
ROOT
ATOM      1  C   UNL     1      10.467   4.881  50.740  1.00  0.00     0.079 C 
ATOM      2  C   UNL     1       9.404   5.433  49.774  1.00  0.00     0.164 C 
ATOM      3  C   UNL     1      10.085   6.273  48.678  1.00  0.00     0.232 C 
ATOM      4  O   UNL     1      11.072   5.492  48.001  1.00  0.00    -0.482 OA
ATOM      5  C   UNL     1      11.871   4.554  48.665  1.00  0.00     0.131 A 
ATOM      6  C   UNL     1      12.930   3.949  47.982  1.00  0.00     0.093 A 
ATOM      7  C   UNL     1      13.741   3.011  48.625  1.00  0.00     0.122 A 
ATOM      8  C   UNL     1      13.492   2.676  49.963  1.00  0.00     0.092 A 
ATOM      9  C   UNL     1      12.429   3.274  50.658  1.00  0.00     0.126 A 
ATOM     10  C   UNL     1      11.600   4.203  50.003  1.00  0.00     0.039 A 
ENDROOT
BRANCH   2  11
ATOM     11  O   UNL     1       8.489   6.230  50.481  1.00  0.00    -0.389 OA
ATOM     12  H   UNL     1       7.700   6.351  49.891  1.00  0.00     0.211 HD
ENDBRANCH   2  11
BRANCH   3  13
ATOM     13  C   UNL     1       9.074   6.786  47.678  1.00  0.00    -0.001 A 
ATOM     14  C   UNL     1       8.108   5.923  47.133  1.00  0.00     0.057 A 
ATOM     15  C   UNL     1       9.060   8.144  47.320  1.00  0.00     0.012 A 
ATOM     16  C   UNL     1       7.153   6.406  46.226  1.00  0.00     0.157 A 
ATOM     17  C   UNL     1       8.110   8.626  46.416  1.00  0.00     0.050 A 
ATOM     18  C   UNL     1       7.155   7.760  45.867  1.00  0.00     0.157 A 
BRANCH  16  19
ATOM     19  O   UNL     1       6.199   5.549  45.682  1.00  0.00    -0.504 OA
ATOM     20  H   UNL     1       5.208   5.695  45.832  1.00  0.00     0.293 HD
ENDBRANCH  16  19
BRANCH  18  21
ATOM     21  O   UNL     1       6.205   8.237  44.964  1.00  0.00    -0.504 OA
ATOM     22  H   UNL     1       6.226   9.194  44.631  1.00  0.00     0.293 HD
ENDBRANCH  18  21
ENDBRANCH   3  13
BRANCH   9  23
ATOM     23  O   UNL     1      12.198   2.945  51.993  1.00  0.00    -0.507 OA
ATOM     24  H   UNL     1      12.604   3.482  52.751  1.00  0.00     0.293 HD
ENDBRANCH   9  23
BRANCH   7  25
ATOM     25  O   UNL     1      14.792   2.420  47.930  1.00  0.00    -0.508 OA
ATOM     26  H   UNL     1      14.645   1.615  47.331  1.00  0.00     0.293 HD
ENDBRANCH   7  25
TORSDOF 6
ENDMDL
MODEL 8
REMARK VINA RESULT:    -6.850      9.800     11.925
REMARK INTER + INTRA:          -8.619
REMARK INTER:                  -8.248
REMARK INTRA:                  -0.371
REMARK UNBOUND:                -0.367
REMARK SMILES Oc1cc(O)c2c(c1)O[C@@H](c1ccc(O)c(O)c1)[C@H](O)C2
REMARK SMILES IDX 21 1 19 2 10 3 9 4 7 5 8 6 2 7 3 8 4 9 6 10 20 11 11 13
REMARK SMILES IDX 18 14 12 15 16 16 13 17 14 18 17 19 15 21 5 23 1 25
REMARK H PARENT 20 12 17 20 15 22 5 24 1 26
REMARK Flexibility Score: inf
ROOT
ATOM      1  C   UNL     1       9.493   8.107  48.558  1.00  0.00     0.079 C 
ATOM      2  C   UNL     1      10.740   9.008  48.538  1.00  0.00     0.164 C 
ATOM      3  C   UNL     1      11.886   8.325  49.307  1.00  0.00     0.232 C 
ATOM      4  O   UNL     1      12.147   7.032  48.755  1.00  0.00    -0.482 OA
ATOM      5  C   UNL     1      11.129   6.203  48.273  1.00  0.00     0.131 A 
ATOM      6  C   UNL     1      11.431   4.889  47.906  1.00  0.00     0.093 A 
ATOM      7  C   UNL     1      10.429   4.043  47.424  1.00  0.00     0.122 A 
ATOM      8  C   UNL     1       9.115   4.514  47.308  1.00  0.00     0.092 A 
ATOM      9  C   UNL     1       8.801   5.833  47.669  1.00  0.00     0.126 A 
ATOM     10  C   UNL     1       9.814   6.691  48.136  1.00  0.00     0.039 A 
ENDROOT
BRANCH   2  11
ATOM     11  O   UNL     1      10.442  10.245  49.133  1.00  0.00    -0.389 OA
ATOM     12  H   UNL     1      10.541  10.121  50.113  1.00  0.00     0.211 HD
ENDBRANCH   2  11
BRANCH   3  13
ATOM     13  C   UNL     1      13.147   9.158  49.260  1.00  0.00    -0.001 A 
ATOM     14  C   UNL     1      13.673   9.723  50.436  1.00  0.00     0.057 A 
ATOM     15  C   UNL     1      13.832   9.337  48.048  1.00  0.00     0.012 A 
ATOM     16  C   UNL     1      14.857  10.473  50.396  1.00  0.00     0.157 A 
ATOM     17  C   UNL     1      15.012  10.084  48.007  1.00  0.00     0.050 A 
ATOM     18  C   UNL     1      15.527  10.655  49.179  1.00  0.00     0.157 A 
BRANCH  16  19
ATOM     19  O   UNL     1      15.374  11.036  51.560  1.00  0.00    -0.504 OA
ATOM     20  H   UNL     1      14.873  10.991  52.439  1.00  0.00     0.293 HD
ENDBRANCH  16  19
BRANCH  18  21
ATOM     21  O   UNL     1      16.703  11.402  49.143  1.00  0.00    -0.504 OA
ATOM     22  H   UNL     1      17.076  11.760  48.271  1.00  0.00     0.293 HD
ENDBRANCH  18  21
ENDBRANCH   3  13
BRANCH   9  23
ATOM     23  O   UNL     1       7.488   6.290  47.565  1.00  0.00    -0.507 OA
ATOM     24  H   UNL     1       6.697   5.686  47.760  1.00  0.00     0.293 HD
ENDBRANCH   9  23
BRANCH   7  25
ATOM     25  O   UNL     1      10.748   2.736  47.064  1.00  0.00    -0.508 OA
ATOM     26  H   UNL     1      10.817   2.454  46.092  1.00  0.00     0.293 HD
ENDBRANCH   7  25
TORSDOF 6
ENDMDL
MODEL 9
REMARK VINA RESULT:    -6.829      2.506      7.146
REMARK INTER + INTRA:          -8.594
REMARK INTER:                  -8.618
REMARK INTRA:                   0.023
REMARK UNBOUND:                -0.367
REMARK SMILES Oc1cc(O)c2c(c1)O[C@@H](c1ccc(O)c(O)c1)[C@H](O)C2
REMARK SMILES IDX 21 1 19 2 10 3 9 4 7 5 8 6 2 7 3 8 4 9 6 10 20 11 11 13
REMARK SMILES IDX 18 14 12 15 16 16 13 17 14 18 17 19 15 21 5 23 1 25
REMARK H PARENT 20 12 17 20 15 22 5 24 1 26
REMARK Flexibility Score: inf
ROOT
ATOM      1  C   UNL     1      12.345   7.212  37.785  1.00  0.00     0.079 C 
ATOM      2  C   UNL     1      13.059   7.079  39.142  1.00  0.00     0.164 C 
ATOM      3  C   UNL     1      14.064   8.234  39.313  1.00  0.00     0.232 C 
ATOM      4  O   UNL     1      13.398   9.491  39.176  1.00  0.00    -0.482 OA
ATOM      5  C   UNL     1      12.356   9.692  38.264  1.00  0.00     0.131 A 
ATOM      6  C   UNL     1      11.864  10.984  38.059  1.00  0.00     0.093 A 
ATOM      7  C   UNL     1      10.825  11.208  37.153  1.00  0.00     0.122 A 
ATOM      8  C   UNL     1      10.274  10.132  36.445  1.00  0.00     0.092 A 
ATOM      9  C   UNL     1      10.756   8.830  36.646  1.00  0.00     0.126 A 
ATOM     10  C   UNL     1      11.790   8.602  37.574  1.00  0.00     0.039 A 
ENDROOT
BRANCH   2  11
ATOM     11  O   UNL     1      13.735   5.850  39.204  1.00  0.00    -0.389 OA
ATOM     12  H   UNL     1      14.653   6.011  38.863  1.00  0.00     0.211 HD
ENDBRANCH   2  11
BRANCH   3  13
ATOM     13  C   UNL     1      14.746   8.167  40.660  1.00  0.00    -0.001 A 
ATOM     14  C   UNL     1      14.218   7.366  41.689  1.00  0.00     0.057 A 
ATOM     15  C   UNL     1      15.943   8.867  40.884  1.00  0.00     0.012 A 
ATOM     16  C   UNL     1      14.866   7.283  42.929  1.00  0.00     0.157 A 
ATOM     17  C   UNL     1      16.589   8.786  42.120  1.00  0.00     0.050 A 
ATOM     18  C   UNL     1      16.053   7.995  43.146  1.00  0.00     0.157 A 
BRANCH  16  19
ATOM     19  O   UNL     1      14.339   6.494  43.949  1.00  0.00    -0.504 OA
ATOM     20  H   UNL     1      13.593   6.829  44.548  1.00  0.00     0.293 HD
ENDBRANCH  16  19
BRANCH  18  21
ATOM     21  O   UNL     1      16.695   7.911  44.380  1.00  0.00    -0.504 OA
ATOM     22  H   UNL     1      16.497   7.159  45.030  1.00  0.00     0.293 HD
ENDBRANCH  18  21
ENDBRANCH   3  13
BRANCH   9  23
ATOM     23  O   UNL     1      10.212   7.767  35.926  1.00  0.00    -0.507 OA
ATOM     24  H   UNL     1       9.866   6.934  36.388  1.00  0.00     0.293 HD
ENDBRANCH   9  23
BRANCH   7  25
ATOM     25  O   UNL     1      10.348  12.502  36.961  1.00  0.00    -0.508 OA
ATOM     26  H   UNL     1      10.661  13.073  36.184  1.00  0.00     0.293 HD
ENDBRANCH   7  25
TORSDOF 6
ENDMDL
