MODEL 1
REMARK VINA RESULT:    -4.339      0.000      0.000
REMARK INTER + INTRA:          -6.519
REMARK INTER:                  -6.622
REMARK INTRA:                   0.103
REMARK UNBOUND:                 0.103
REMARK SMILES CC1=CCC[C@H](C)C(=O)C[C@@H](C(C)C)C(=O)C1
REMARK SMILES IDX 8 1 9 2 6 3 7 4 5 5 4 6 3 7 2 8 1 9 10 11 11 12 15 13 16 14
REMARK SMILES IDX 17 15 12 17 13 18 14 19
REMARK H PARENT
REMARK Flexibility Score: 70.00
ROOT
ATOM      1  C   UNL     1      16.739 -30.084  22.286  1.00  0.00     0.136 C 
ATOM      2  O   UNL     1      16.924 -29.557  23.374  1.00  0.00    -0.299 OA
ENDROOT
BRANCH   1   3
ATOM      3  C   UNL     1      17.855 -30.111  21.262  1.00  0.00     0.053 C 
ATOM      4  C   UNL     1      18.550 -28.746  21.233  1.00  0.00     0.016 C 
BRANCH   3   5
ATOM      5  C   UNL     1      18.882 -31.229  21.561  1.00  0.00     0.015 C 
BRANCH   5   6
ATOM      6  C   UNL     1      18.434 -32.612  21.067  1.00  0.00     0.028 C 
BRANCH   6   7
ATOM      7  C   UNL     1      18.242 -33.570  22.219  1.00  0.00    -0.028 C 
ATOM      8  C   UNL     1      17.053 -33.966  22.727  1.00  0.00    -0.070 CG0
ATOM      9  C   UNL     1      17.065 -34.932  23.885  1.00  0.00     0.039 C 
ATOM     10  G   UNL     1      15.719 -33.515  22.167  1.00  0.00     0.000 G0
ENDBRANCH   6   7
ENDBRANCH   5   6
ENDBRANCH   3   5
ENDBRANCH   1   3
BRANCH   1  11
ATOM     11  C   UNL     1      15.390 -30.681  21.983  1.00  0.00     0.087 C 
BRANCH  11  12
ATOM     12  C   UNL     1      14.743 -31.319  23.238  1.00  0.00     0.066 C 
BRANCH  12  13
ATOM     13  C   UNL     1      14.879 -32.833  23.215  1.00  0.00     0.140 C 
ATOM     14  O   UNL     1      14.330 -33.506  24.077  1.00  0.00    -0.299 OA
BRANCH  13  15
ATOM     15  C   UNL     1      15.715 -33.529  22.172  1.00  0.00     0.106 CG0
ATOM     16  G   UNL     1      17.049 -33.962  22.747  1.00  0.00     0.000 G0
ENDBRANCH  13  15
ENDBRANCH  12  13
BRANCH  12  17
ATOM     17  C   UNL     1      13.264 -30.862  23.424  1.00  0.00    -0.006 C 
ATOM     18  C   UNL     1      12.515 -30.823  22.083  1.00  0.00     0.008 C 
ATOM     19  C   UNL     1      13.114 -29.515  24.152  1.00  0.00     0.008 C 
ENDBRANCH  12  17
ENDBRANCH  11  12
ENDBRANCH   1  11
TORSDOF 1
ENDMDL
MODEL 2
REMARK VINA RESULT:    -4.262      2.322      3.454
REMARK INTER + INTRA:          -6.401
REMARK INTER:                  -6.117
REMARK INTRA:                  -0.284
REMARK UNBOUND:                 0.103
REMARK SMILES CC1=CCC[C@H](C)C(=O)C[C@@H](C(C)C)C(=O)C1
REMARK SMILES IDX 8 1 9 2 6 3 7 4 5 5 4 6 3 7 2 8 1 9 10 11 11 12 15 13 16 14
REMARK SMILES IDX 17 15 12 17 13 18 14 19
REMARK H PARENT
REMARK Flexibility Score: 70.00
ROOT
ATOM      1  C   UNL     1      15.543 -33.989  21.111  1.00  0.00     0.136 C 
ATOM      2  O   UNL     1      14.677 -33.626  20.328  1.00  0.00    -0.299 OA
ENDROOT
BRANCH   1   3
ATOM      3  C   UNL     1      16.779 -34.695  20.593  1.00  0.00     0.053 C 
ATOM      4  C   UNL     1      16.359 -35.925  19.783  1.00  0.00     0.016 C 
BRANCH   3   5
ATOM      5  C   UNL     1      17.654 -33.757  19.727  1.00  0.00     0.015 C 
BRANCH   5   6
ATOM      6  C   UNL     1      18.724 -33.009  20.535  1.00  0.00     0.028 C 
BRANCH   6   7
ATOM      7  C   UNL     1      19.323 -33.893  21.603  1.00  0.00    -0.028 C 
ATOM      8  C   UNL     1      19.302 -33.651  22.933  1.00  0.00    -0.070 CG0
ATOM      9  C   UNL     1      19.958 -34.656  23.846  1.00  0.00     0.039 C 
ATOM     10  G   UNL     1      18.624 -32.442  23.546  1.00  0.00     0.000 G0
ENDBRANCH   6   7
ENDBRANCH   5   6
ENDBRANCH   3   5
ENDBRANCH   1   3
BRANCH   1  11
ATOM     11  C   UNL     1      15.349 -33.740  22.584  1.00  0.00     0.087 C 
BRANCH  11  12
ATOM     12  C   UNL     1      16.044 -32.437  23.048  1.00  0.00     0.066 C 
BRANCH  12  13
ATOM     13  C   UNL     1      17.214 -32.739  23.972  1.00  0.00     0.140 C 
ATOM     14  O   UNL     1      17.006 -33.208  25.083  1.00  0.00    -0.299 OA
BRANCH  13  15
ATOM     15  C   UNL     1      18.632 -32.433  23.566  1.00  0.00     0.106 CG0
ATOM     16  G   UNL     1      19.289 -33.646  22.937  1.00  0.00     0.000 G0
ENDBRANCH  13  15
ENDBRANCH  12  13
BRANCH  12  17
ATOM     17  C   UNL     1      15.033 -31.435  23.685  1.00  0.00    -0.006 C 
ATOM     18  C   UNL     1      13.628 -32.048  23.795  1.00  0.00     0.008 C 
ATOM     19  C   UNL     1      14.962 -30.077  22.965  1.00  0.00     0.008 C 
ENDBRANCH  12  17
ENDBRANCH  11  12
ENDBRANCH   1  11
TORSDOF 1
ENDMDL
MODEL 3
REMARK VINA RESULT:    -4.240      1.637      2.181
REMARK INTER + INTRA:          -6.368
REMARK INTER:                  -6.129
REMARK INTRA:                  -0.239
REMARK UNBOUND:                 0.103
REMARK SMILES CC1=CCC[C@H](C)C(=O)C[C@@H](C(C)C)C(=O)C1
REMARK SMILES IDX 8 1 9 2 6 3 7 4 5 5 4 6 3 7 2 8 1 9 10 11 11 12 15 13 16 14
REMARK SMILES IDX 17 15 12 17 13 18 14 19
REMARK H PARENT
REMARK Flexibility Score: 70.00
ROOT
ATOM      1  C   UNL     1      17.578 -30.837  22.284  1.00  0.00     0.136 C 
ATOM      2  O   UNL     1      17.841 -29.970  23.106  1.00  0.00    -0.299 OA
ENDROOT
BRANCH   1   3
ATOM      3  C   UNL     1      18.675 -31.747  21.770  1.00  0.00     0.053 C 
ATOM      4  C   UNL     1      19.837 -30.896  21.249  1.00  0.00     0.016 C 
BRANCH   3   5
ATOM      5  C   UNL     1      19.172 -32.721  22.864  1.00  0.00     0.015 C 
BRANCH   5   6
ATOM      6  C   UNL     1      18.674 -34.159  22.668  1.00  0.00     0.028 C 
BRANCH   6   7
ATOM      7  C   UNL     1      18.330 -34.428  21.222  1.00  0.00    -0.028 C 
ATOM      8  C   UNL     1      17.087 -34.635  20.731  1.00  0.00    -0.070 CG0
ATOM      9  C   UNL     1      16.944 -34.889  19.251  1.00  0.00     0.039 C 
ATOM     10  G   UNL     1      15.837 -34.590  21.588  1.00  0.00     0.000 G0
ENDBRANCH   6   7
ENDBRANCH   5   6
ENDBRANCH   3   5
ENDBRANCH   1   3
BRANCH   1  11
ATOM     11  C   UNL     1      16.162 -30.967  21.787  1.00  0.00     0.087 C 
BRANCH  11  12
ATOM     12  C   UNL     1      15.415 -32.142  22.465  1.00  0.00     0.066 C 
BRANCH  12  13
ATOM     13  C   UNL     1      15.132 -33.258  21.471  1.00  0.00     0.140 C 
ATOM     14  O   UNL     1      14.303 -33.088  20.586  1.00  0.00    -0.299 OA
BRANCH  13  15
ATOM     15  C   UNL     1      15.821 -34.593  21.574  1.00  0.00     0.106 CG0
ATOM     16  G   UNL     1      17.087 -34.615  20.741  1.00  0.00     0.000 G0
ENDBRANCH  13  15
ENDBRANCH  12  13
BRANCH  12  17
ATOM     17  C   UNL     1      14.125 -31.664  23.198  1.00  0.00    -0.006 C 
ATOM     18  C   UNL     1      14.179 -30.160  23.508  1.00  0.00     0.008 C 
ATOM     19  C   UNL     1      13.804 -32.455  24.478  1.00  0.00     0.008 C 
ENDBRANCH  12  17
ENDBRANCH  11  12
ENDBRANCH   1  11
TORSDOF 1
ENDMDL
MODEL 4
REMARK VINA RESULT:    -4.140      1.612      4.195
REMARK INTER + INTRA:          -6.215
REMARK INTER:                  -6.170
REMARK INTRA:                  -0.045
REMARK UNBOUND:                 0.103
REMARK SMILES CC1=CCC[C@H](C)C(=O)C[C@@H](C(C)C)C(=O)C1
REMARK SMILES IDX 8 1 9 2 6 3 7 4 5 5 4 6 3 7 2 8 1 9 10 11 11 12 15 13 16 14
REMARK SMILES IDX 17 15 12 17 13 18 14 19
REMARK H PARENT
REMARK Flexibility Score: 70.00
ROOT
ATOM      1  C   UNL     1      15.803 -29.960  22.804  1.00  0.00     0.136 C 
ATOM      2  O   UNL     1      15.632 -29.174  21.882  1.00  0.00    -0.299 OA
ENDROOT
BRANCH   1   3
ATOM      3  C   UNL     1      14.623 -30.404  23.644  1.00  0.00     0.053 C 
ATOM      4  C   UNL     1      13.552 -29.310  23.634  1.00  0.00     0.016 C 
BRANCH   3   5
ATOM      5  C   UNL     1      14.029 -31.740  23.138  1.00  0.00     0.015 C 
BRANCH   5   6
ATOM      6  C   UNL     1      14.775 -32.974  23.664  1.00  0.00     0.028 C 
BRANCH   6   7
ATOM      7  C   UNL     1      15.220 -33.869  22.531  1.00  0.00    -0.028 C 
ATOM      8  C   UNL     1      16.487 -33.997  22.076  1.00  0.00    -0.070 CG0
ATOM      9  C   UNL     1      16.735 -34.945  20.930  1.00  0.00     0.039 C 
ATOM     10  G   UNL     1      17.666 -33.263  22.684  1.00  0.00     0.000 G0
ENDBRANCH   6   7
ENDBRANCH   5   6
ENDBRANCH   3   5
ENDBRANCH   1   3
BRANCH   1  11
ATOM     11  C   UNL     1      17.196 -30.455  23.094  1.00  0.00     0.087 C 
BRANCH  11  12
ATOM     12  C   UNL     1      17.971 -30.797  21.798  1.00  0.00     0.066 C 
BRANCH  12  13
ATOM     13  C   UNL     1      18.304 -32.280  21.735  1.00  0.00     0.140 C 
ATOM     14  O   UNL     1      19.057 -32.697  20.866  1.00  0.00    -0.299 OA
BRANCH  13  15
ATOM     15  C   UNL     1      17.690 -33.263  22.698  1.00  0.00     0.106 CG0
ATOM     16  G   UNL     1      16.505 -33.969  22.070  1.00  0.00     0.000 G0
ENDBRANCH  13  15
ENDBRANCH  12  13
BRANCH  12  17
ATOM     17  C   UNL     1      19.234 -29.901  21.623  1.00  0.00    -0.006 C 
ATOM     18  C   UNL     1      20.011 -29.761  22.941  1.00  0.00     0.008 C 
ATOM     19  C   UNL     1      18.937 -28.511  21.035  1.00  0.00     0.008 C 
ENDBRANCH  12  17
ENDBRANCH  11  12
ENDBRANCH   1  11
TORSDOF 1
ENDMDL
MODEL 5
REMARK VINA RESULT:    -3.996      2.255      3.622
REMARK INTER + INTRA:          -5.996
REMARK INTER:                  -5.776
REMARK INTRA:                  -0.219
REMARK UNBOUND:                 0.103
REMARK SMILES CC1=CCC[C@H](C)C(=O)C[C@@H](C(C)C)C(=O)C1
REMARK SMILES IDX 8 1 9 2 6 3 7 4 5 5 4 6 3 7 2 8 1 9 10 11 11 12 15 13 16 14
REMARK SMILES IDX 17 15 12 17 13 18 14 19
REMARK H PARENT
REMARK Flexibility Score: 70.00
ROOT
ATOM      1  C   UNL     1      15.370 -34.039  20.633  1.00  0.00     0.136 C 
ATOM      2  O   UNL     1      14.581 -33.379  19.971  1.00  0.00    -0.299 OA
ENDROOT
BRANCH   1   3
ATOM      3  C   UNL     1      16.438 -34.857  19.938  1.00  0.00     0.053 C 
ATOM      4  C   UNL     1      17.596 -33.940  19.532  1.00  0.00     0.016 C 
BRANCH   3   5
ATOM      5  C   UNL     1      16.955 -36.006  20.835  1.00  0.00     0.015 C 
BRANCH   5   6
ATOM      6  C   UNL     1      18.405 -35.809  21.299  1.00  0.00     0.028 C 
BRANCH   6   7
ATOM      7  C   UNL     1      18.619 -36.374  22.683  1.00  0.00    -0.028 C 
ATOM      8  C   UNL     1      18.658 -35.659  23.831  1.00  0.00    -0.070 CG0
ATOM      9  C   UNL     1      18.884 -36.404  25.122  1.00  0.00     0.039 C 
ATOM     10  G   UNL     1      18.451 -34.158  23.881  1.00  0.00     0.000 G0
ENDBRANCH   6   7
ENDBRANCH   5   6
ENDBRANCH   3   5
ENDBRANCH   1   3
BRANCH   1  11
ATOM     11  C   UNL     1      15.246 -34.035  22.135  1.00  0.00     0.087 C 
BRANCH  11  12
ATOM     12  C   UNL     1      16.282 -33.096  22.800  1.00  0.00     0.066 C 
BRANCH  12  13
ATOM     13  C   UNL     1      16.987 -33.789  23.955  1.00  0.00     0.140 C 
ATOM     14  O   UNL     1      16.371 -34.039  24.982  1.00  0.00    -0.299 OA
BRANCH  13  15
ATOM     15  C   UNL     1      18.450 -34.142  23.882  1.00  0.00     0.106 CG0
ATOM     16  G   UNL     1      18.643 -35.645  23.823  1.00  0.00     0.000 G0
ENDBRANCH  13  15
ENDBRANCH  12  13
BRANCH  12  17
ATOM     17  C   UNL     1      15.646 -31.739  23.226  1.00  0.00    -0.006 C 
ATOM     18  C   UNL     1      14.126 -31.864  23.412  1.00  0.00     0.008 C 
ATOM     19  C   UNL     1      15.967 -30.572  22.276  1.00  0.00     0.008 C 
ENDBRANCH  12  17
ENDBRANCH  11  12
ENDBRANCH   1  11
TORSDOF 1
ENDMDL
MODEL 6
REMARK VINA RESULT:    -3.969      2.142      4.746
REMARK INTER + INTRA:          -5.954
REMARK INTER:                  -5.788
REMARK INTRA:                  -0.166
REMARK UNBOUND:                 0.103
REMARK SMILES CC1=CCC[C@H](C)C(=O)C[C@@H](C(C)C)C(=O)C1
REMARK SMILES IDX 8 1 9 2 6 3 7 4 5 5 4 6 3 7 2 8 1 9 10 11 11 12 15 13 16 14
REMARK SMILES IDX 17 15 12 17 13 18 14 19
REMARK H PARENT
REMARK Flexibility Score: 70.00
ROOT
ATOM      1  C   UNL     1      14.764 -32.211  21.916  1.00  0.00     0.136 C 
ATOM      2  O   UNL     1      14.640 -32.873  22.937  1.00  0.00    -0.299 OA
ENDROOT
BRANCH   1   3
ATOM      3  C   UNL     1      14.026 -30.896  21.775  1.00  0.00     0.053 C 
ATOM      4  C   UNL     1      12.527 -31.130  21.985  1.00  0.00     0.016 C 
BRANCH   3   5
ATOM      5  C   UNL     1      14.547 -29.835  22.773  1.00  0.00     0.015 C 
BRANCH   5   6
ATOM      6  C   UNL     1      15.812 -29.114  22.287  1.00  0.00     0.028 C 
BRANCH   6   7
ATOM      7  C   UNL     1      17.040 -29.613  23.011  1.00  0.00    -0.028 C 
ATOM      8  C   UNL     1      18.015 -30.382  22.475  1.00  0.00    -0.070 CG0
ATOM      9  C   UNL     1      19.168 -30.782  23.361  1.00  0.00     0.039 C 
ATOM     10  G   UNL     1      18.020 -30.826  21.026  1.00  0.00     0.000 G0
ENDBRANCH   6   7
ENDBRANCH   5   6
ENDBRANCH   3   5
ENDBRANCH   1   3
BRANCH   1  11
ATOM     11  C   UNL     1      15.642 -32.733  20.808  1.00  0.00     0.087 C 
BRANCH  11  12
ATOM     12  C   UNL     1      17.009 -33.231  21.338  1.00  0.00     0.066 C 
BRANCH  12  13
ATOM     13  C   UNL     1      18.137 -32.316  20.886  1.00  0.00     0.140 C 
ATOM     14  O   UNL     1      19.168 -32.798  20.435  1.00  0.00    -0.299 OA
BRANCH  13  15
ATOM     15  C   UNL     1      18.033 -30.819  21.019  1.00  0.00     0.106 CG0
ATOM     16  G   UNL     1      18.013 -30.404  22.477  1.00  0.00     0.000 G0
ENDBRANCH  13  15
ENDBRANCH  12  13
BRANCH  12  17
ATOM     17  C   UNL     1      17.271 -34.720  20.960  1.00  0.00    -0.006 C 
ATOM     18  C   UNL     1      16.039 -35.358  20.300  1.00  0.00     0.008 C 
ATOM     19  C   UNL     1      17.748 -35.588  22.137  1.00  0.00     0.008 C 
ENDBRANCH  12  17
ENDBRANCH  11  12
ENDBRANCH   1  11
TORSDOF 1
ENDMDL
MODEL 7
REMARK VINA RESULT:    -3.954      1.628      1.973
REMARK INTER + INTRA:          -5.931
REMARK INTER:                  -5.741
REMARK INTRA:                  -0.190
REMARK UNBOUND:                 0.103
REMARK SMILES CC1=CCC[C@H](C)C(=O)C[C@@H](C(C)C)C(=O)C1
REMARK SMILES IDX 8 1 9 2 6 3 7 4 5 5 4 6 3 7 2 8 1 9 10 11 11 12 15 13 16 14
REMARK SMILES IDX 17 15 12 17 13 18 14 19
REMARK H PARENT
REMARK Flexibility Score: 70.00
ROOT
ATOM      1  C   UNL     1      17.185 -30.426  22.303  1.00  0.00     0.136 C 
ATOM      2  O   UNL     1      16.864 -29.246  22.266  1.00  0.00    -0.299 OA
ENDROOT
BRANCH   1   3
ATOM      3  C   UNL     1      18.462 -30.838  23.004  1.00  0.00     0.053 C 
ATOM      4  C   UNL     1      19.562 -29.817  22.698  1.00  0.00     0.016 C 
BRANCH   3   5
ATOM      5  C   UNL     1      18.261 -30.967  24.533  1.00  0.00     0.015 C 
BRANCH   5   6
ATOM      6  C   UNL     1      18.088 -32.418  25.002  1.00  0.00     0.028 C 
BRANCH   6   7
ATOM      7  C   UNL     1      18.681 -33.390  24.010  1.00  0.00    -0.028 C 
ATOM      8  C   UNL     1      18.003 -34.354  23.346  1.00  0.00    -0.070 CG0
ATOM      9  C   UNL     1      18.774 -35.231  22.392  1.00  0.00     0.039 C 
ATOM     10  G   UNL     1      16.509 -34.567  23.490  1.00  0.00     0.000 G0
ENDBRANCH   6   7
ENDBRANCH   5   6
ENDBRANCH   3   5
ENDBRANCH   1   3
BRANCH   1  11
ATOM     11  C   UNL     1      16.304 -31.445  21.627  1.00  0.00     0.087 C 
BRANCH  11  12
ATOM     12  C   UNL     1      15.494 -32.280  22.648  1.00  0.00     0.066 C 
BRANCH  12  13
ATOM     13  C   UNL     1      15.738 -33.768  22.455  1.00  0.00     0.140 C 
ATOM     14  O   UNL     1      15.283 -34.336  21.471  1.00  0.00    -0.299 OA
BRANCH  13  15
ATOM     15  C   UNL     1      16.498 -34.577  23.474  1.00  0.00     0.106 CG0
ATOM     16  G   UNL     1      17.992 -34.355  23.338  1.00  0.00     0.000 G0
ENDBRANCH  13  15
ENDBRANCH  12  13
BRANCH  12  17
ATOM     17  C   UNL     1      13.977 -31.922  22.618  1.00  0.00    -0.006 C 
ATOM     18  C   UNL     1      13.559 -31.364  21.250  1.00  0.00     0.008 C 
ATOM     19  C   UNL     1      13.541 -30.960  23.737  1.00  0.00     0.008 C 
ENDBRANCH  12  17
ENDBRANCH  11  12
ENDBRANCH   1  11
TORSDOF 1
ENDMDL
MODEL 8
REMARK VINA RESULT:    -3.953      2.596      4.989
REMARK INTER + INTRA:          -5.930
REMARK INTER:                  -5.637
REMARK INTRA:                  -0.293
REMARK UNBOUND:                 0.103
REMARK SMILES CC1=CCC[C@H](C)C(=O)C[C@@H](C(C)C)C(=O)C1
REMARK SMILES IDX 8 1 9 2 6 3 7 4 5 5 4 6 3 7 2 8 1 9 10 11 11 12 15 13 16 14
REMARK SMILES IDX 17 15 12 17 13 18 14 19
REMARK H PARENT
REMARK Flexibility Score: 70.00
ROOT
ATOM      1  C   UNL     1      15.764 -33.145  22.211  1.00  0.00     0.136 C 
ATOM      2  O   UNL     1      14.771 -33.584  21.648  1.00  0.00    -0.299 OA
ENDROOT
BRANCH   1   3
ATOM      3  C   UNL     1      15.644 -32.554  23.601  1.00  0.00     0.053 C 
ATOM      4  C   UNL     1      14.617 -31.418  23.582  1.00  0.00     0.016 C 
BRANCH   3   5
ATOM      5  C   UNL     1      15.242 -33.622  24.645  1.00  0.00     0.015 C 
BRANCH   5   6
ATOM      6  C   UNL     1      16.423 -34.477  25.125  1.00  0.00     0.028 C 
BRANCH   6   7
ATOM      7  C   UNL     1      17.672 -33.643  25.288  1.00  0.00    -0.028 C 
ATOM      8  C   UNL     1      18.866 -33.885  24.700  1.00  0.00    -0.070 CG0
ATOM      9  C   UNL     1      20.001 -32.935  24.986  1.00  0.00     0.039 C 
ATOM     10  G   UNL     1      19.102 -35.038  23.745  1.00  0.00     0.000 G0
ENDBRANCH   6   7
ENDBRANCH   5   6
ENDBRANCH   3   5
ENDBRANCH   1   3
BRANCH   1  11
ATOM     11  C   UNL     1      17.089 -33.186  21.495  1.00  0.00     0.087 C 
BRANCH  11  12
ATOM     12  C   UNL     1      17.727 -34.596  21.536  1.00  0.00     0.066 C 
BRANCH  12  13
ATOM     13  C   UNL     1      19.040 -34.581  22.304  1.00  0.00     0.140 C 
ATOM     14  O   UNL     1      20.068 -34.228  21.743  1.00  0.00    -0.299 OA
BRANCH  13  15
ATOM     15  C   UNL     1      19.113 -35.035  23.739  1.00  0.00     0.106 CG0
ATOM     16  G   UNL     1      18.861 -33.878  24.686  1.00  0.00     0.000 G0
ENDBRANCH  13  15
ENDBRANCH  12  13
BRANCH  12  17
ATOM     17  C   UNL     1      17.885 -35.203  20.109  1.00  0.00    -0.006 C 
ATOM     18  C   UNL     1      17.649 -34.147  19.019  1.00  0.00     0.008 C 
ATOM     19  C   UNL     1      16.998 -36.434  19.852  1.00  0.00     0.008 C 
ENDBRANCH  12  17
ENDBRANCH  11  12
ENDBRANCH   1  11
TORSDOF 1
ENDMDL
MODEL 9
REMARK VINA RESULT:    -3.942      2.064      5.166
REMARK INTER + INTRA:          -5.914
REMARK INTER:                  -5.628
REMARK INTRA:                  -0.286
REMARK UNBOUND:                 0.103
REMARK SMILES CC1=CCC[C@H](C)C(=O)C[C@@H](C(C)C)C(=O)C1
REMARK SMILES IDX 8 1 9 2 6 3 7 4 5 5 4 6 3 7 2 8 1 9 10 11 11 12 15 13 16 14
REMARK SMILES IDX 17 15 12 17 13 18 14 19
REMARK H PARENT
REMARK Flexibility Score: 70.00
ROOT
ATOM      1  C   UNL     1      15.463 -33.135  21.324  1.00  0.00     0.136 C 
ATOM      2  O   UNL     1      15.002 -34.266  21.262  1.00  0.00    -0.299 OA
ENDROOT
BRANCH   1   3
ATOM      3  C   UNL     1      14.533 -31.949  21.477  1.00  0.00     0.053 C 
ATOM      4  C   UNL     1      13.428 -32.031  20.420  1.00  0.00     0.016 C 
BRANCH   3   5
ATOM      5  C   UNL     1      13.914 -31.884  22.894  1.00  0.00     0.015 C 
BRANCH   5   6
ATOM      6  C   UNL     1      14.660 -30.931  23.838  1.00  0.00     0.028 C 
BRANCH   6   7
ATOM      7  C   UNL     1      15.244 -29.759  23.085  1.00  0.00    -0.028 C 
ATOM      8  C   UNL     1      16.557 -29.447  23.004  1.00  0.00    -0.070 CG0
ATOM      9  C   UNL     1      16.947 -28.231  22.202  1.00  0.00     0.039 C 
ATOM     10  G   UNL     1      17.649 -30.278  23.649  1.00  0.00     0.000 G0
ENDBRANCH   6   7
ENDBRANCH   5   6
ENDBRANCH   3   5
ENDBRANCH   1   3
BRANCH   1  11
ATOM     11  C   UNL     1      16.954 -32.947  21.227  1.00  0.00     0.087 C 
BRANCH  11  12
ATOM     12  C   UNL     1      17.600 -32.708  22.614  1.00  0.00     0.066 C 
BRANCH  12  13
ATOM     13  C   UNL     1      18.208 -31.317  22.703  1.00  0.00     0.140 C 
ATOM     14  O   UNL     1      19.177 -31.032  22.012  1.00  0.00    -0.299 OA
BRANCH  13  15
ATOM     15  C   UNL     1      17.669 -30.285  23.659  1.00  0.00     0.106 CG0
ATOM     16  G   UNL     1      16.572 -29.465  23.008  1.00  0.00     0.000 G0
ENDBRANCH  13  15
ENDBRANCH  12  13
BRANCH  12  17
ATOM     17  C   UNL     1      18.626 -33.825  22.977  1.00  0.00    -0.006 C 
ATOM     18  C   UNL     1      19.119 -34.564  21.723  1.00  0.00     0.008 C 
ATOM     19  C   UNL     1      18.108 -34.834  24.016  1.00  0.00     0.008 C 
ENDBRANCH  12  17
ENDBRANCH  11  12
ENDBRANCH   1  11
TORSDOF 1
ENDMDL
