MODEL 1
REMARK VINA RESULT:    -4.674      0.000      0.000
REMARK INTER + INTRA:          -6.030
REMARK INTER:                  -5.767
REMARK INTRA:                  -0.263
REMARK UNBOUND:                -0.263
REMARK SMILES C=CC[C@@H](C)C(=O)CC
REMARK SMILES IDX 4 1 5 2 6 3 7 4 8 5 9 6 3 7 2 8 1 9
REMARK H PARENT
REMARK Flexibility Score: inf
ROOT
ATOM      1  C   UNL     1      -8.314  31.280  22.712  1.00  0.00     0.057 C 
ATOM      2  C   UNL     1      -7.599  32.258  23.650  1.00  0.00     0.016 C 
ENDROOT
BRANCH   1   3
ATOM      3  C   UNL     1      -8.789  32.006  21.470  1.00  0.00     0.135 C 
ATOM      4  O   UNL     1      -9.659  31.505  20.770  1.00  0.00    -0.299 OA
BRANCH   3   5
ATOM      5  C   UNL     1      -8.220  33.346  21.087  1.00  0.00     0.072 C 
ATOM      6  C   UNL     1      -7.397  33.239  19.807  1.00  0.00     0.012 C 
ENDBRANCH   3   5
ENDBRANCH   1   3
BRANCH   1   7
ATOM      7  C   UNL     1      -7.385  30.102  22.348  1.00  0.00     0.038 C 
BRANCH   7   8
ATOM      8  C   UNL     1      -7.900  28.789  22.877  1.00  0.00    -0.034 C 
ATOM      9  C   UNL     1      -8.644  27.970  22.128  1.00  0.00     0.004 C 
ENDBRANCH   7   8
ENDBRANCH   1   7
TORSDOF 4
ENDMDL
MODEL 2
REMARK VINA RESULT:    -4.511      1.587      3.915
REMARK INTER + INTRA:          -5.829
REMARK INTER:                  -5.543
REMARK INTRA:                  -0.286
REMARK UNBOUND:                -0.263
REMARK SMILES C=CC[C@@H](C)C(=O)CC
REMARK SMILES IDX 4 1 5 2 6 3 7 4 8 5 9 6 3 7 2 8 1 9
REMARK H PARENT
REMARK Flexibility Score: inf
ROOT
ATOM      1  C   UNL     1      -7.634  31.808  22.901  1.00  0.00     0.057 C 
ATOM      2  C   UNL     1      -7.890  32.106  24.383  1.00  0.00     0.016 C 
ENDROOT
BRANCH   1   3
ATOM      3  C   UNL     1      -7.505  30.314  22.688  1.00  0.00     0.135 C 
ATOM      4  O   UNL     1      -6.529  29.720  23.127  1.00  0.00    -0.299 OA
BRANCH   3   5
ATOM      5  C   UNL     1      -8.567  29.538  21.955  1.00  0.00     0.072 C 
ATOM      6  C   UNL     1      -8.510  28.060  22.324  1.00  0.00     0.012 C 
ENDBRANCH   3   5
ENDBRANCH   1   3
BRANCH   1   7
ATOM      7  C   UNL     1      -8.759  32.400  22.028  1.00  0.00     0.038 C 
BRANCH   7   8
ATOM      8  C   UNL     1      -8.228  33.345  20.981  1.00  0.00    -0.034 C 
ATOM      9  C   UNL     1      -7.492  32.914  19.953  1.00  0.00     0.004 C 
ENDBRANCH   7   8
ENDBRANCH   1   7
TORSDOF 4
ENDMDL
MODEL 3
REMARK VINA RESULT:    -4.415      1.624      3.272
REMARK INTER + INTRA:          -5.710
REMARK INTER:                  -5.274
REMARK INTRA:                  -0.435
REMARK UNBOUND:                -0.263
REMARK SMILES C=CC[C@@H](C)C(=O)CC
REMARK SMILES IDX 4 1 5 2 6 3 7 4 8 5 9 6 3 7 2 8 1 9
REMARK H PARENT
REMARK Flexibility Score: inf
ROOT
ATOM      1  C   UNL     1      -7.481  31.446  23.024  1.00  0.00     0.057 C 
ATOM      2  C   UNL     1      -7.071  30.199  23.815  1.00  0.00     0.016 C 
ENDROOT
BRANCH   1   3
ATOM      3  C   UNL     1      -8.339  31.051  21.840  1.00  0.00     0.135 C 
ATOM      4  O   UNL     1      -8.677  29.884  21.698  1.00  0.00    -0.299 OA
BRANCH   3   5
ATOM      5  C   UNL     1      -8.801  32.076  20.838  1.00  0.00     0.072 C 
ATOM      6  C   UNL     1      -7.615  32.667  20.083  1.00  0.00     0.012 C 
ENDBRANCH   3   5
ENDBRANCH   1   3
BRANCH   1   7
ATOM      7  C   UNL     1      -8.218  32.447  23.938  1.00  0.00     0.038 C 
BRANCH   7   8
ATOM      8  C   UNL     1      -7.439  33.723  24.127  1.00  0.00    -0.034 C 
ATOM      9  C   UNL     1      -7.474  34.710  23.228  1.00  0.00     0.004 C 
ENDBRANCH   7   8
ENDBRANCH   1   7
TORSDOF 4
ENDMDL
MODEL 4
REMARK VINA RESULT:    -4.385      1.695      4.262
REMARK INTER + INTRA:          -5.673
REMARK INTER:                  -5.338
REMARK INTRA:                  -0.335
REMARK UNBOUND:                -0.263
REMARK SMILES C=CC[C@@H](C)C(=O)CC
REMARK SMILES IDX 4 1 5 2 6 3 7 4 8 5 9 6 3 7 2 8 1 9
REMARK H PARENT
REMARK Flexibility Score: inf
ROOT
ATOM      1  C   UNL     1      -8.317  33.669  21.192  1.00  0.00     0.057 C 
ATOM      2  C   UNL     1      -7.532  33.271  19.938  1.00  0.00     0.016 C 
ENDROOT
BRANCH   1   3
ATOM      3  C   UNL     1      -8.720  32.431  21.966  1.00  0.00     0.135 C 
ATOM      4  O   UNL     1      -9.848  32.347  22.435  1.00  0.00    -0.299 OA
BRANCH   3   5
ATOM      5  C   UNL     1      -7.760  31.287  22.158  1.00  0.00     0.072 C 
ATOM      6  C   UNL     1      -7.344  31.169  23.620  1.00  0.00     0.012 C 
ENDBRANCH   3   5
ENDBRANCH   1   3
BRANCH   1   7
ATOM      7  C   UNL     1      -7.486  34.628  22.069  1.00  0.00     0.038 C 
BRANCH   7   8
ATOM      8  C   UNL     1      -8.108  34.840  23.425  1.00  0.00    -0.034 C 
ATOM      9  C   UNL     1      -7.377  34.845  24.543  1.00  0.00     0.004 C 
ENDBRANCH   7   8
ENDBRANCH   1   7
TORSDOF 4
ENDMDL
MODEL 5
REMARK VINA RESULT:    -4.361      1.655      2.618
REMARK INTER + INTRA:          -5.643
REMARK INTER:                  -5.377
REMARK INTRA:                  -0.266
REMARK UNBOUND:                -0.263
REMARK SMILES C=CC[C@@H](C)C(=O)CC
REMARK SMILES IDX 4 1 5 2 6 3 7 4 8 5 9 6 3 7 2 8 1 9
REMARK H PARENT
REMARK Flexibility Score: inf
ROOT
ATOM      1  C   UNL     1      -7.829  32.186  21.576  1.00  0.00     0.057 C 
ATOM      2  C   UNL     1      -7.861  32.648  20.115  1.00  0.00     0.016 C 
ENDROOT
BRANCH   1   3
ATOM      3  C   UNL     1      -8.416  33.258  22.471  1.00  0.00     0.135 C 
ATOM      4  O   UNL     1      -9.429  33.022  23.116  1.00  0.00    -0.299 OA
BRANCH   3   5
ATOM      5  C   UNL     1      -7.765  34.609  22.597  1.00  0.00     0.072 C 
ATOM      6  C   UNL     1      -6.973  34.710  23.896  1.00  0.00     0.012 C 
ENDBRANCH   3   5
ENDBRANCH   1   3
BRANCH   1   7
ATOM      7  C   UNL     1      -8.584  30.850  21.737  1.00  0.00     0.038 C 
BRANCH   7   8
ATOM      8  C   UNL     1      -7.729  29.790  22.382  1.00  0.00    -0.034 C 
ATOM      9  C   UNL     1      -6.808  30.090  23.302  1.00  0.00     0.004 C 
ENDBRANCH   7   8
ENDBRANCH   1   7
TORSDOF 4
ENDMDL
MODEL 6
REMARK VINA RESULT:    -4.340      2.193      3.865
REMARK INTER + INTRA:          -5.618
REMARK INTER:                  -5.287
REMARK INTRA:                  -0.331
REMARK UNBOUND:                -0.263
REMARK SMILES C=CC[C@@H](C)C(=O)CC
REMARK SMILES IDX 4 1 5 2 6 3 7 4 8 5 9 6 3 7 2 8 1 9
REMARK H PARENT
REMARK Flexibility Score: inf
ROOT
ATOM      1  C   UNL     1      -8.483  32.016  22.987  1.00  0.00     0.057 C 
ATOM      2  C   UNL     1      -7.491  30.894  22.657  1.00  0.00     0.016 C 
ENDROOT
BRANCH   1   3
ATOM      3  C   UNL     1      -7.887  32.947  24.023  1.00  0.00     0.135 C 
ATOM      4  O   UNL     1      -7.772  32.572  25.182  1.00  0.00    -0.299 OA
BRANCH   3   5
ATOM      5  C   UNL     1      -7.417  34.328  23.648  1.00  0.00     0.072 C 
ATOM      6  C   UNL     1      -8.158  35.389  24.453  1.00  0.00     0.012 C 
ENDBRANCH   3   5
ENDBRANCH   1   3
BRANCH   1   7
ATOM      7  C   UNL     1      -8.876  32.784  21.708  1.00  0.00     0.038 C 
BRANCH   7   8
ATOM      8  C   UNL     1      -8.034  32.383  20.524  1.00  0.00    -0.034 C 
ATOM      9  C   UNL     1      -7.369  33.284  19.796  1.00  0.00     0.004 C 
ENDBRANCH   7   8
ENDBRANCH   1   7
TORSDOF 4
ENDMDL
MODEL 7
REMARK VINA RESULT:    -4.322      2.269      3.931
REMARK INTER + INTRA:          -5.596
REMARK INTER:                  -5.177
REMARK INTRA:                  -0.419
REMARK UNBOUND:                -0.263
REMARK SMILES C=CC[C@@H](C)C(=O)CC
REMARK SMILES IDX 4 1 5 2 6 3 7 4 8 5 9 6 3 7 2 8 1 9
REMARK H PARENT
REMARK Flexibility Score: inf
ROOT
ATOM      1  C   UNL     1      -7.811  33.163  22.933  1.00  0.00     0.057 C 
ATOM      2  C   UNL     1      -7.774  34.641  23.340  1.00  0.00     0.016 C 
ENDROOT
BRANCH   1   3
ATOM      3  C   UNL     1      -7.820  32.285  24.167  1.00  0.00     0.135 C 
ATOM      4  O   UNL     1      -7.736  32.796  25.276  1.00  0.00    -0.299 OA
BRANCH   3   5
ATOM      5  C   UNL     1      -7.947  30.789  24.056  1.00  0.00     0.072 C 
ATOM      6  C   UNL     1      -6.693  30.184  23.433  1.00  0.00     0.012 C 
ENDBRANCH   3   5
ENDBRANCH   1   3
BRANCH   1   7
ATOM      7  C   UNL     1      -9.035  32.879  22.038  1.00  0.00     0.038 C 
BRANCH   7   8
ATOM      8  C   UNL     1      -8.638  32.345  20.686  1.00  0.00    -0.034 C 
ATOM      9  C   UNL     1      -7.539  32.768  20.056  1.00  0.00     0.004 C 
ENDBRANCH   7   8
ENDBRANCH   1   7
TORSDOF 4
ENDMDL
MODEL 8
REMARK VINA RESULT:    -4.232      1.831      4.243
REMARK INTER + INTRA:          -5.484
REMARK INTER:                  -5.136
REMARK INTRA:                  -0.348
REMARK UNBOUND:                -0.263
REMARK SMILES C=CC[C@@H](C)C(=O)CC
REMARK SMILES IDX 4 1 5 2 6 3 7 4 8 5 9 6 3 7 2 8 1 9
REMARK H PARENT
REMARK Flexibility Score: inf
ROOT
ATOM      1  C   UNL     1      -9.190  32.576  22.107  1.00  0.00     0.057 C 
ATOM      2  C   UNL     1      -9.743  31.968  20.813  1.00  0.00     0.016 C 
ENDROOT
BRANCH   1   3
ATOM      3  C   UNL     1      -8.728  31.475  23.040  1.00  0.00     0.135 C 
ATOM      4  O   UNL     1      -9.101  31.470  24.206  1.00  0.00    -0.299 OA
BRANCH   3   5
ATOM      5  C   UNL     1      -7.825  30.372  22.554  1.00  0.00     0.072 C 
ATOM      6  C   UNL     1      -6.644  30.182  23.501  1.00  0.00     0.012 C 
ENDBRANCH   3   5
ENDBRANCH   1   3
BRANCH   1   7
ATOM      7  C   UNL     1      -8.044  33.560  21.796  1.00  0.00     0.038 C 
BRANCH   7   8
ATOM      8  C   UNL     1      -7.941  34.656  22.826  1.00  0.00    -0.034 C 
ATOM      9  C   UNL     1      -7.018  34.631  23.790  1.00  0.00     0.004 C 
ENDBRANCH   7   8
ENDBRANCH   1   7
TORSDOF 4
ENDMDL
MODEL 9
REMARK VINA RESULT:    -4.144      2.330      3.195
REMARK INTER + INTRA:          -5.375
REMARK INTER:                  -5.114
REMARK INTRA:                  -0.261
REMARK UNBOUND:                -0.263
REMARK SMILES C=CC[C@@H](C)C(=O)CC
REMARK SMILES IDX 4 1 5 2 6 3 7 4 8 5 9 6 3 7 2 8 1 9
REMARK H PARENT
REMARK Flexibility Score: inf
ROOT
ATOM      1  C   UNL     1      -8.162  32.796  22.721  1.00  0.00     0.057 C 
ATOM      2  C   UNL     1      -9.679  32.595  22.807  1.00  0.00     0.016 C 
ENDROOT
BRANCH   1   3
ATOM      3  C   UNL     1      -7.830  34.273  22.789  1.00  0.00     0.135 C 
ATOM      4  O   UNL     1      -7.884  34.955  21.774  1.00  0.00    -0.299 OA
BRANCH   3   5
ATOM      5  C   UNL     1      -7.449  34.925  24.092  1.00  0.00     0.072 C 
ATOM      6  C   UNL     1      -8.620  35.716  24.665  1.00  0.00     0.012 C 
ENDBRANCH   3   5
ENDBRANCH   1   3
BRANCH   1   7
ATOM      7  C   UNL     1      -7.447  32.013  23.842  1.00  0.00     0.038 C 
BRANCH   7   8
ATOM      8  C   UNL     1      -7.643  30.525  23.708  1.00  0.00    -0.034 C 
ATOM      9  C   UNL     1      -6.772  29.757  23.049  1.00  0.00     0.004 C 
ENDBRANCH   7   8
ENDBRANCH   1   7
TORSDOF 4
ENDMDL
