MODEL 1
REMARK VINA RESULT:    -5.780      0.000      0.000
REMARK INTER + INTRA:          -5.780
REMARK INTER:                  -5.780
REMARK INTRA:                   0.000
REMARK UNBOUND:                 0.000
REMARK SMILES C=C1CCC[C@@]2(C)CC(=O)C(=C(C)C)C[C@@H]12
REMARK SMILES IDX 13 1 12 2 11 3 15 4 16 5 2 6 1 7 3 8 4 9 5 10 6 11 8 12 9 13
REMARK SMILES IDX 10 14 7 15 14 16
REMARK H PARENT
REMARK Flexibility Score: inf
ROOT
ATOM      1  C   UNL     1       1.992   0.390 104.118  1.00  0.00     0.039 C 
ATOM      2  C   UNL     1       2.975   0.201 105.250  1.00  0.00    -0.070 C 
ATOM      3  C   UNL     1       3.465   1.271 105.943  1.00  0.00    -0.006 C 
ATOM      4  C   UNL     1       3.003   2.693 105.663  1.00  0.00     0.047 C 
ATOM      5  C   UNL     1       4.145   3.715 105.889  1.00  0.00     0.025 C 
ATOM      6  C   UNL     1       3.622   5.111 105.567  1.00  0.00    -0.073 C 
ATOM      7  C   UNL     1       3.674   5.577 104.308  1.00  0.00     0.008 C 
ATOM      8  C   UNL     1       2.956   5.957 106.627  1.00  0.00     0.031 C 
ATOM      9  C   UNL     1       3.075   5.336 108.019  1.00  0.00     0.005 C 
ATOM     10  C   UNL     1       4.499   4.826 108.242  1.00  0.00     0.008 C 
ATOM     11  C   UNL     1       4.842   3.614 107.318  1.00  0.00    -0.018 C 
ATOM     12  C   UNL     1       4.445   2.303 108.062  1.00  0.00     0.088 C 
ATOM     13  C   UNL     1       4.365   1.146 107.118  1.00  0.00     0.159 C 
ATOM     14  O   UNL     1       5.085   0.129 107.316  1.00  0.00    -0.295 OA
ATOM     15  C   UNL     1       6.378   3.600 107.123  1.00  0.00     0.012 C 
ATOM     16  C   UNL     1       3.357  -1.218 105.602  1.00  0.00     0.039 C 
ENDROOT
TORSDOF 0
ENDMDL
MODEL 2
REMARK VINA RESULT:    -5.702      2.330      4.994
REMARK INTER + INTRA:          -5.702
REMARK INTER:                  -5.702
REMARK INTRA:                   0.000
REMARK UNBOUND:                 0.000
REMARK SMILES C=C1CCC[C@@]2(C)CC(=O)C(=C(C)C)C[C@@H]12
REMARK SMILES IDX 13 1 12 2 11 3 15 4 16 5 2 6 1 7 3 8 4 9 5 10 6 11 8 12 9 13
REMARK SMILES IDX 10 14 7 15 14 16
REMARK H PARENT
REMARK Flexibility Score: inf
ROOT
ATOM      1  C   UNL     1       3.465   5.398 105.854  1.00  0.00     0.039 C 
ATOM      2  C   UNL     1       3.812   5.330 107.324  1.00  0.00    -0.070 C 
ATOM      3  C   UNL     1       4.657   4.371 107.804  1.00  0.00    -0.006 C 
ATOM      4  C   UNL     1       5.343   3.369 106.888  1.00  0.00     0.047 C 
ATOM      5  C   UNL     1       5.532   2.000 107.587  1.00  0.00     0.025 C 
ATOM      6  C   UNL     1       6.200   1.040 106.608  1.00  0.00    -0.073 C 
ATOM      7  C   UNL     1       5.453   0.318 105.756  1.00  0.00     0.008 C 
ATOM      8  C   UNL     1       7.705   0.948 106.511  1.00  0.00     0.031 C 
ATOM      9  C   UNL     1       8.404   1.742 107.615  1.00  0.00     0.005 C 
ATOM     10  C   UNL     1       7.715   1.488 108.956  1.00  0.00     0.008 C 
ATOM     11  C   UNL     1       6.270   2.079 108.997  1.00  0.00    -0.018 C 
ATOM     12  C   UNL     1       6.356   3.545 109.521  1.00  0.00     0.088 C 
ATOM     13  C   UNL     1       5.102   4.304 109.219  1.00  0.00     0.159 C 
ATOM     14  O   UNL     1       4.444   4.820 110.163  1.00  0.00    -0.295 OA
ATOM     15  C   UNL     1       5.460   1.256 110.029  1.00  0.00     0.012 C 
ATOM     16  C   UNL     1       3.215   6.389 108.222  1.00  0.00     0.039 C 
ENDROOT
TORSDOF 0
ENDMDL
MODEL 3
REMARK VINA RESULT:    -5.665      2.108      3.281
REMARK INTER + INTRA:          -5.665
REMARK INTER:                  -5.665
REMARK INTRA:                   0.000
REMARK UNBOUND:                 0.000
REMARK SMILES C=C1CCC[C@@]2(C)CC(=O)C(=C(C)C)C[C@@H]12
REMARK SMILES IDX 13 1 12 2 11 3 15 4 16 5 2 6 1 7 3 8 4 9 5 10 6 11 8 12 9 13
REMARK SMILES IDX 10 14 7 15 14 16
REMARK H PARENT
REMARK Flexibility Score: inf
ROOT
ATOM      1  C   UNL     1       4.930  -1.228 108.977  1.00  0.00     0.039 C 
ATOM      2  C   UNL     1       5.975  -0.146 109.130  1.00  0.00    -0.070 C 
ATOM      3  C   UNL     1       5.760   1.114 108.649  1.00  0.00    -0.006 C 
ATOM      4  C   UNL     1       4.444   1.515 108.000  1.00  0.00     0.047 C 
ATOM      5  C   UNL     1       4.662   2.560 106.878  1.00  0.00     0.025 C 
ATOM      6  C   UNL     1       3.310   2.896 106.255  1.00  0.00    -0.073 C 
ATOM      7  C   UNL     1       2.828   2.153 105.247  1.00  0.00     0.008 C 
ATOM      8  C   UNL     1       2.450   4.006 106.816  1.00  0.00     0.031 C 
ATOM      9  C   UNL     1       3.182   4.822 107.881  1.00  0.00     0.005 C 
ATOM     10  C   UNL     1       4.605   5.130 107.414  1.00  0.00     0.008 C 
ATOM     11  C   UNL     1       5.488   3.845 107.328  1.00  0.00    -0.018 C 
ATOM     12  C   UNL     1       6.177   3.631 108.711  1.00  0.00     0.088 C 
ATOM     13  C   UNL     1       6.710   2.239 108.843  1.00  0.00     0.159 C 
ATOM     14  O   UNL     1       7.938   2.060 109.067  1.00  0.00    -0.295 OA
ATOM     15  C   UNL     1       6.599   4.114 106.283  1.00  0.00     0.012 C 
ATOM     16  C   UNL     1       7.243  -0.512 109.868  1.00  0.00     0.039 C 
ENDROOT
TORSDOF 0
ENDMDL
MODEL 4
REMARK VINA RESULT:    -5.587      2.742      4.567
REMARK INTER + INTRA:          -5.587
REMARK INTER:                  -5.587
REMARK INTRA:                   0.000
REMARK UNBOUND:                 0.000
REMARK SMILES C=C1CCC[C@@]2(C)CC(=O)C(=C(C)C)C[C@@H]12
REMARK SMILES IDX 13 1 12 2 11 3 15 4 16 5 2 6 1 7 3 8 4 9 5 10 6 11 8 12 9 13
REMARK SMILES IDX 10 14 7 15 14 16
REMARK H PARENT
REMARK Flexibility Score: inf
ROOT
ATOM      1  C   UNL     1       9.028   2.456 104.501  1.00  0.00     0.039 C 
ATOM      2  C   UNL     1       9.267   2.075 105.944  1.00  0.00    -0.070 C 
ATOM      3  C   UNL     1       8.235   2.015 106.836  1.00  0.00    -0.006 C 
ATOM      4  C   UNL     1       6.793   2.260 106.419  1.00  0.00     0.047 C 
ATOM      5  C   UNL     1       5.981   2.933 107.553  1.00  0.00     0.025 C 
ATOM      6  C   UNL     1       4.558   3.172 107.060  1.00  0.00    -0.073 C 
ATOM      7  C   UNL     1       4.254   4.299 106.395  1.00  0.00     0.008 C 
ATOM      8  C   UNL     1       3.489   2.116 107.225  1.00  0.00     0.031 C 
ATOM      9  C   UNL     1       3.960   0.950 108.093  1.00  0.00     0.005 C 
ATOM     10  C   UNL     1       4.696   1.480 109.323  1.00  0.00     0.008 C 
ATOM     11  C   UNL     1       6.047   2.170 108.950  1.00  0.00    -0.018 C 
ATOM     12  C   UNL     1       7.169   1.088 108.963  1.00  0.00     0.088 C 
ATOM     13  C   UNL     1       8.391   1.565 108.243  1.00  0.00     0.159 C 
ATOM     14  O   UNL     1       9.494   1.613 108.853  1.00  0.00    -0.295 OA
ATOM     15  C   UNL     1       6.367   3.197 110.064  1.00  0.00     0.012 C 
ATOM     16  C   UNL     1      10.683   1.728 106.340  1.00  0.00     0.039 C 
ENDROOT
TORSDOF 0
ENDMDL
MODEL 5
REMARK VINA RESULT:    -5.563      2.131      3.988
REMARK INTER + INTRA:          -5.563
REMARK INTER:                  -5.563
REMARK INTRA:                   0.000
REMARK UNBOUND:                 0.000
REMARK SMILES C=C1CCC[C@@]2(C)CC(=O)C(=C(C)C)C[C@@H]12
REMARK SMILES IDX 13 1 12 2 11 3 15 4 16 5 2 6 1 7 3 8 4 9 5 10 6 11 8 12 9 13
REMARK SMILES IDX 10 14 7 15 14 16
REMARK H PARENT
REMARK Flexibility Score: inf
ROOT
ATOM      1  C   UNL     1       8.720   3.276 105.266  1.00  0.00     0.039 C 
ATOM      2  C   UNL     1       7.453   2.808 104.586  1.00  0.00    -0.070 C 
ATOM      3  C   UNL     1       6.227   3.071 105.126  1.00  0.00    -0.006 C 
ATOM      4  C   UNL     1       6.063   3.900 106.390  1.00  0.00     0.047 C 
ATOM      5  C   UNL     1       4.854   3.419 107.230  1.00  0.00     0.025 C 
ATOM      6  C   UNL     1       4.764   4.273 108.491  1.00  0.00    -0.073 C 
ATOM      7  C   UNL     1       5.456   3.930 109.589  1.00  0.00     0.008 C 
ATOM      8  C   UNL     1       3.976   5.563 108.503  1.00  0.00     0.031 C 
ATOM      9  C   UNL     1       3.163   5.754 107.223  1.00  0.00     0.005 C 
ATOM     10  C   UNL     1       2.467   4.446 106.848  1.00  0.00     0.008 C 
ATOM     11  C   UNL     1       3.483   3.339 106.422  1.00  0.00    -0.018 C 
ATOM     12  C   UNL     1       3.714   3.452 104.884  1.00  0.00     0.088 C 
ATOM     13  C   UNL     1       4.946   2.714 104.464  1.00  0.00     0.159 C 
ATOM     14  O   UNL     1       4.858   1.793 103.607  1.00  0.00    -0.295 OA
ATOM     15  C   UNL     1       2.820   1.968 106.701  1.00  0.00     0.012 C 
ATOM     16  C   UNL     1       7.606   2.074 103.274  1.00  0.00     0.039 C 
ENDROOT
TORSDOF 0
ENDMDL
MODEL 6
REMARK VINA RESULT:    -5.554      1.394      3.811
REMARK INTER + INTRA:          -5.554
REMARK INTER:                  -5.554
REMARK INTRA:                   0.000
REMARK UNBOUND:                 0.000
REMARK SMILES C=C1CCC[C@@]2(C)CC(=O)C(=C(C)C)C[C@@H]12
REMARK SMILES IDX 13 1 12 2 11 3 15 4 16 5 2 6 1 7 3 8 4 9 5 10 6 11 8 12 9 13
REMARK SMILES IDX 10 14 7 15 14 16
REMARK H PARENT
REMARK Flexibility Score: inf
ROOT
ATOM      1  C   UNL     1       5.330   3.981 110.184  1.00  0.00     0.039 C 
ATOM      2  C   UNL     1       5.429   2.727 109.345  1.00  0.00    -0.070 C 
ATOM      3  C   UNL     1       4.999   2.712 108.049  1.00  0.00    -0.006 C 
ATOM      4  C   UNL     1       4.464   3.958 107.362  1.00  0.00     0.047 C 
ATOM      5  C   UNL     1       3.356   3.610 106.338  1.00  0.00     0.025 C 
ATOM      6  C   UNL     1       2.849   4.903 105.707  1.00  0.00    -0.073 C 
ATOM      7  C   UNL     1       1.861   5.598 106.295  1.00  0.00     0.008 C 
ATOM      8  C   UNL     1       3.502   5.474 104.470  1.00  0.00     0.031 C 
ATOM      9  C   UNL     1       4.528   4.516 103.865  1.00  0.00     0.005 C 
ATOM     10  C   UNL     1       3.961   3.096 103.834  1.00  0.00     0.008 C 
ATOM     11  C   UNL     1       3.774   2.506 105.268  1.00  0.00    -0.018 C 
ATOM     12  C   UNL     1       5.093   1.780 105.674  1.00  0.00     0.088 C 
ATOM     13  C   UNL     1       5.148   1.539 107.150  1.00  0.00     0.159 C 
ATOM     14  O   UNL     1       5.271   0.361 107.584  1.00  0.00    -0.295 OA
ATOM     15  C   UNL     1       2.653   1.440 105.189  1.00  0.00     0.012 C 
ATOM     16  C   UNL     1       6.057   1.514 109.991  1.00  0.00     0.039 C 
ENDROOT
TORSDOF 0
ENDMDL
MODEL 7
REMARK VINA RESULT:    -5.517      1.803      2.474
REMARK INTER + INTRA:          -5.517
REMARK INTER:                  -5.517
REMARK INTRA:                   0.000
REMARK UNBOUND:                 0.000
REMARK SMILES C=C1CCC[C@@]2(C)CC(=O)C(=C(C)C)C[C@@H]12
REMARK SMILES IDX 13 1 12 2 11 3 15 4 16 5 2 6 1 7 3 8 4 9 5 10 6 11 8 12 9 13
REMARK SMILES IDX 10 14 7 15 14 16
REMARK H PARENT
REMARK Flexibility Score: inf
ROOT
ATOM      1  C   UNL     1       3.447  -0.522 105.536  1.00  0.00     0.039 C 
ATOM      2  C   UNL     1       4.227  -0.798 106.802  1.00  0.00    -0.070 C 
ATOM      3  C   UNL     1       4.781   0.220 107.523  1.00  0.00    -0.006 C 
ATOM      4  C   UNL     1       4.591   1.678 107.138  1.00  0.00     0.047 C 
ATOM      5  C   UNL     1       5.838   2.526 107.491  1.00  0.00     0.025 C 
ATOM      6  C   UNL     1       5.589   3.967 107.056  1.00  0.00    -0.073 C 
ATOM      7  C   UNL     1       5.882   4.353 105.804  1.00  0.00     0.008 C 
ATOM      8  C   UNL     1       4.927   4.958 107.985  1.00  0.00     0.031 C 
ATOM      9  C   UNL     1       4.758   4.400 109.398  1.00  0.00     0.005 C 
ATOM     10  C   UNL     1       6.041   3.692 109.836  1.00  0.00     0.008 C 
ATOM     11  C   UNL     1       6.311   2.396 109.007  1.00  0.00    -0.018 C 
ATOM     12  C   UNL     1       5.616   1.201 109.727  1.00  0.00     0.088 C 
ATOM     13  C   UNL     1       5.484   0.021 108.817  1.00  0.00     0.159 C 
ATOM     14  O   UNL     1       6.002  -1.081 109.145  1.00  0.00    -0.295 OA
ATOM     15  C   UNL     1       7.838   2.139 109.031  1.00  0.00     0.012 C 
ATOM     16  C   UNL     1       4.331  -2.239 107.247  1.00  0.00     0.039 C 
ENDROOT
TORSDOF 0
ENDMDL
MODEL 8
REMARK VINA RESULT:    -5.492      2.734      4.439
REMARK INTER + INTRA:          -5.492
REMARK INTER:                  -5.492
REMARK INTRA:                   0.000
REMARK UNBOUND:                 0.000
REMARK SMILES C=C1CCC[C@@]2(C)CC(=O)C(=C(C)C)C[C@@H]12
REMARK SMILES IDX 13 1 12 2 11 3 15 4 16 5 2 6 1 7 3 8 4 9 5 10 6 11 8 12 9 13
REMARK SMILES IDX 10 14 7 15 14 16
REMARK H PARENT
REMARK Flexibility Score: inf
ROOT
ATOM      1  C   UNL     1       8.170   0.269 105.417  1.00  0.00     0.039 C 
ATOM      2  C   UNL     1       7.569   1.605 105.043  1.00  0.00    -0.070 C 
ATOM      3  C   UNL     1       6.783   2.294 105.922  1.00  0.00    -0.006 C 
ATOM      4  C   UNL     1       6.525   1.796 107.335  1.00  0.00     0.047 C 
ATOM      5  C   UNL     1       5.107   2.182 107.822  1.00  0.00     0.025 C 
ATOM      6  C   UNL     1       4.907   1.631 109.231  1.00  0.00    -0.073 C 
ATOM      7  C   UNL     1       4.450   0.381 109.408  1.00  0.00     0.008 C 
ATOM      8  C   UNL     1       5.302   2.438 110.446  1.00  0.00     0.031 C 
ATOM      9  C   UNL     1       5.697   3.870 110.084  1.00  0.00     0.005 C 
ATOM     10  C   UNL     1       4.697   4.449 109.083  1.00  0.00     0.008 C 
ATOM     11  C   UNL     1       4.769   3.734 107.696  1.00  0.00    -0.018 C 
ATOM     12  C   UNL     1       5.816   4.481 106.814  1.00  0.00     0.088 C 
ATOM     13  C   UNL     1       6.235   3.647 105.645  1.00  0.00     0.159 C 
ATOM     14  O   UNL     1       6.074   4.088 104.475  1.00  0.00    -0.295 OA
ATOM     15  C   UNL     1       3.384   3.889 107.021  1.00  0.00     0.012 C 
ATOM     16  C   UNL     1       7.908   2.154 103.677  1.00  0.00     0.039 C 
ENDROOT
TORSDOF 0
ENDMDL
MODEL 9
REMARK VINA RESULT:    -5.436      2.181      4.010
REMARK INTER + INTRA:          -5.436
REMARK INTER:                  -5.436
REMARK INTRA:                   0.000
REMARK UNBOUND:                 0.000
REMARK SMILES C=C1CCC[C@@]2(C)CC(=O)C(=C(C)C)C[C@@H]12
REMARK SMILES IDX 13 1 12 2 11 3 15 4 16 5 2 6 1 7 3 8 4 9 5 10 6 11 8 12 9 13
REMARK SMILES IDX 10 14 7 15 14 16
REMARK H PARENT
REMARK Flexibility Score: inf
ROOT
ATOM      1  C   UNL     1       9.464   1.616 106.056  1.00  0.00     0.039 C 
ATOM      2  C   UNL     1       8.707   1.762 107.356  1.00  0.00    -0.070 C 
ATOM      3  C   UNL     1       7.414   2.200 107.373  1.00  0.00    -0.006 C 
ATOM      4  C   UNL     1       6.648   2.500 106.095  1.00  0.00     0.047 C 
ATOM      5  C   UNL     1       5.646   3.665 106.294  1.00  0.00     0.025 C 
ATOM      6  C   UNL     1       4.934   3.928 104.971  1.00  0.00    -0.073 C 
ATOM      7  C   UNL     1       5.474   4.762 104.068  1.00  0.00     0.008 C 
ATOM      8  C   UNL     1       3.663   3.192 104.611  1.00  0.00     0.031 C 
ATOM      9  C   UNL     1       3.122   2.369 105.780  1.00  0.00     0.005 C 
ATOM     10  C   UNL     1       3.182   3.191 107.068  1.00  0.00     0.008 C 
ATOM     11  C   UNL     1       4.650   3.471 107.521  1.00  0.00    -0.018 C 
ATOM     12  C   UNL     1       5.104   2.306 108.453  1.00  0.00     0.088 C 
ATOM     13  C   UNL     1       6.592   2.282 108.608  1.00  0.00     0.159 C 
ATOM     14  O   UNL     1       7.101   2.376 109.757  1.00  0.00    -0.295 OA
ATOM     15  C   UNL     1       4.637   4.771 108.362  1.00  0.00     0.012 C 
ATOM     16  C   UNL     1       9.430   1.364 108.623  1.00  0.00     0.039 C 
ENDROOT
TORSDOF 0
ENDMDL
