MODEL 1
REMARK VINA RESULT:    -1.957      0.000      0.000
REMARK INTER + INTRA:          -2.548
REMARK INTER:                  -2.414
REMARK INTRA:                  -0.133
REMARK UNBOUND:                -0.133
REMARK SMILES CCCCCC(=O)[O-]
REMARK SMILES IDX 4 1 5 2 6 3 7 4 8 5 3 6 2 7 1 8
REMARK H PARENT
REMARK Flexibility Score: inf
ROOT
ATOM      1  C   UNL     1      32.262  22.735  29.090  1.00  0.00     0.006 C 
ENDROOT
BRANCH   1   2
ATOM      2  C   UNL     1      30.883  22.781  28.417  1.00  0.00     0.053 C 
BRANCH   2   3
ATOM      3  C   UNL     1      30.679  21.624  27.486  1.00  0.00     0.041 C 
ATOM      4  O   UNL     1      31.659  21.123  26.875  1.00  0.00    -0.550 OA
ATOM      5  O   UNL     1      29.403  21.120  27.270  1.00  0.00    -0.550 OA
ENDBRANCH   2   3
ENDBRANCH   1   2
BRANCH   1   6
ATOM      6  C   UNL     1      33.057  24.034  28.876  1.00  0.00     0.000 C 
BRANCH   6   7
ATOM      7  C   UNL     1      34.554  23.777  28.644  1.00  0.00    -0.003 C 
ATOM      8  C   UNL     1      34.877  23.424  27.192  1.00  0.00     0.004 C 
ENDBRANCH   6   7
ENDBRANCH   1   6
TORSDOF 4
ENDMDL
MODEL 2
REMARK VINA RESULT:    -1.936      2.702      4.416
REMARK INTER + INTRA:          -2.522
REMARK INTER:                  -2.385
REMARK INTRA:                  -0.137
REMARK UNBOUND:                -0.133
REMARK SMILES CCCCCC(=O)[O-]
REMARK SMILES IDX 4 1 5 2 6 3 7 4 8 5 3 6 2 7 1 8
REMARK H PARENT
REMARK Flexibility Score: inf
ROOT
ATOM      1  C   UNL     1      33.026  23.240  26.876  1.00  0.00     0.006 C 
ENDROOT
BRANCH   1   2
ATOM      2  C   UNL     1      34.509  23.309  27.266  1.00  0.00     0.053 C 
BRANCH   2   3
ATOM      3  C   UNL     1      34.695  23.792  28.672  1.00  0.00     0.041 C 
ATOM      4  O   UNL     1      35.851  24.008  29.120  1.00  0.00    -0.550 OA
ATOM      5  O   UNL     1      33.593  23.975  29.498  1.00  0.00    -0.550 OA
ENDBRANCH   2   3
ENDBRANCH   1   2
BRANCH   1   6
ATOM      6  C   UNL     1      32.492  21.798  26.875  1.00  0.00     0.000 C 
BRANCH   6   7
ATOM      7  C   UNL     1      31.453  21.553  27.981  1.00  0.00    -0.003 C 
ATOM      8  C   UNL     1      30.022  21.502  27.447  1.00  0.00     0.004 C 
ENDBRANCH   6   7
ENDBRANCH   1   6
TORSDOF 4
ENDMDL
MODEL 3
REMARK VINA RESULT:    -1.543      1.822      2.378
REMARK INTER + INTRA:          -2.037
REMARK INTER:                  -1.982
REMARK INTRA:                  -0.055
REMARK UNBOUND:                -0.133
REMARK SMILES CCCCCC(=O)[O-]
REMARK SMILES IDX 4 1 5 2 6 3 7 4 8 5 3 6 2 7 1 8
REMARK H PARENT
REMARK Flexibility Score: inf
ROOT
ATOM      1  C   UNL     1      33.887  23.686  28.528  1.00  0.00     0.006 C 
ENDROOT
BRANCH   1   2
ATOM      2  C   UNL     1      32.560  23.771  27.761  1.00  0.00     0.053 C 
BRANCH   2   3
ATOM      3  C   UNL     1      31.509  22.890  28.365  1.00  0.00     0.041 C 
ATOM      4  O   UNL     1      30.857  23.280  29.368  1.00  0.00    -0.550 OA
ATOM      5  O   UNL     1      31.272  21.627  27.838  1.00  0.00    -0.550 OA
ENDBRANCH   2   3
ENDBRANCH   1   2
BRANCH   1   6
ATOM      6  C   UNL     1      35.078  23.399  27.599  1.00  0.00     0.000 C 
BRANCH   6   7
ATOM      7  C   UNL     1      36.419  23.840  28.206  1.00  0.00    -0.003 C 
ATOM      8  C   UNL     1      37.125  22.716  28.964  1.00  0.00     0.004 C 
ENDBRANCH   6   7
ENDBRANCH   1   6
TORSDOF 4
ENDMDL
MODEL 4
REMARK VINA RESULT:    -1.411      3.423      4.882
REMARK INTER + INTRA:          -1.874
REMARK INTER:                  -1.777
REMARK INTRA:                  -0.097
REMARK UNBOUND:                -0.133
REMARK SMILES CCCCCC(=O)[O-]
REMARK SMILES IDX 4 1 5 2 6 3 7 4 8 5 3 6 2 7 1 8
REMARK H PARENT
REMARK Flexibility Score: inf
ROOT
ATOM      1  C   UNL     1      34.312  23.355  27.203  1.00  0.00     0.006 C 
ENDROOT
BRANCH   1   2
ATOM      2  C   UNL     1      35.090  23.871  28.422  1.00  0.00     0.053 C 
BRANCH   2   3
ATOM      3  C   UNL     1      36.405  23.172  28.581  1.00  0.00     0.041 C 
ATOM      4  O   UNL     1      37.119  23.389  29.595  1.00  0.00    -0.550 OA
ATOM      5  O   UNL     1      36.857  22.303  27.596  1.00  0.00    -0.550 OA
ENDBRANCH   2   3
ENDBRANCH   1   2
BRANCH   1   6
ATOM      6  C   UNL     1      32.794  23.548  27.358  1.00  0.00     0.000 C 
BRANCH   6   7
ATOM      7  C   UNL     1      32.292  23.169  28.760  1.00  0.00    -0.003 C 
ATOM      8  C   UNL     1      30.778  23.315  28.906  1.00  0.00     0.004 C 
ENDBRANCH   6   7
ENDBRANCH   1   6
TORSDOF 4
ENDMDL
MODEL 5
REMARK VINA RESULT:    -0.524      2.090      3.359
REMARK INTER + INTRA:          -0.780
REMARK INTER:                  -0.660
REMARK INTRA:                  -0.119
REMARK UNBOUND:                -0.133
REMARK SMILES CCCCCC(=O)[O-]
REMARK SMILES IDX 4 1 5 2 6 3 7 4 8 5 3 6 2 7 1 8
REMARK H PARENT
REMARK Flexibility Score: inf
ROOT
ATOM      1  C   UNL     1      30.542  23.492  29.229  1.00  0.00     0.006 C 
ENDROOT
BRANCH   1   2
ATOM      2  C   UNL     1      30.819  23.337  27.728  1.00  0.00     0.053 C 
BRANCH   2   3
ATOM      3  C   UNL     1      31.945  22.385  27.464  1.00  0.00     0.041 C 
ATOM      4  O   UNL     1      31.791  21.152  27.665  1.00  0.00    -0.550 OA
ATOM      5  O   UNL     1      33.174  22.862  27.024  1.00  0.00    -0.550 OA
ENDBRANCH   2   3
ENDBRANCH   1   2
BRANCH   1   6
ATOM      6  C   UNL     1      31.816  23.826  30.024  1.00  0.00     0.000 C 
BRANCH   6   7
ATOM      7  C   UNL     1      31.526  24.124  31.504  1.00  0.00    -0.003 C 
ATOM      8  C   UNL     1      30.033  24.115  31.828  1.00  0.00     0.004 C 
ENDBRANCH   6   7
ENDBRANCH   1   6
TORSDOF 4
ENDMDL
MODEL 6
REMARK VINA RESULT:     0.577     16.884     17.650
REMARK INTER + INTRA:           0.579
REMARK INTER:                   0.667
REMARK INTRA:                  -0.088
REMARK UNBOUND:                -0.133
REMARK SMILES CCCCCC(=O)[O-]
REMARK SMILES IDX 4 1 5 2 6 3 7 4 8 5 3 6 2 7 1 8
REMARK H PARENT
REMARK Flexibility Score: inf
ROOT
ATOM      1  C   UNL     1      35.051  13.232  41.100  1.00  0.00     0.006 C 
ENDROOT
BRANCH   1   2
ATOM      2  C   UNL     1      34.914  13.183  42.628  1.00  0.00     0.053 C 
BRANCH   2   3
ATOM      3  C   UNL     1      35.633  14.320  43.288  1.00  0.00     0.041 C 
ATOM      4  O   UNL     1      36.821  14.176  43.679  1.00  0.00    -0.550 OA
ATOM      5  O   UNL     1      34.981  15.528  43.500  1.00  0.00    -0.550 OA
ENDBRANCH   2   3
ENDBRANCH   1   2
BRANCH   1   6
ATOM      6  C   UNL     1      33.877  12.538  40.388  1.00  0.00     0.000 C 
BRANCH   6   7
ATOM      7  C   UNL     1      33.420  11.262  41.113  1.00  0.00    -0.003 C 
ATOM      8  C   UNL     1      33.338  10.051  40.184  1.00  0.00     0.004 C 
ENDBRANCH   6   7
ENDBRANCH   1   6
TORSDOF 4
ENDMDL
MODEL 7
REMARK VINA RESULT:     0.604     16.688     17.282
REMARK INTER + INTRA:           0.612
REMARK INTER:                   0.634
REMARK INTRA:                  -0.022
REMARK UNBOUND:                -0.133
REMARK SMILES CCCCCC(=O)[O-]
REMARK SMILES IDX 4 1 5 2 6 3 7 4 8 5 3 6 2 7 1 8
REMARK H PARENT
REMARK Flexibility Score: inf
ROOT
ATOM      1  C   UNL     1      35.100  12.773  41.176  1.00  0.00     0.006 C 
ENDROOT
BRANCH   1   2
ATOM      2  C   UNL     1      33.845  12.384  40.382  1.00  0.00     0.053 C 
BRANCH   2   3
ATOM      3  C   UNL     1      33.320  11.043  40.792  1.00  0.00     0.041 C 
ATOM      4  O   UNL     1      32.499  10.948  41.742  1.00  0.00    -0.550 OA
ATOM      5  O   UNL     1      33.759   9.894  40.146  1.00  0.00    -0.550 OA
ENDBRANCH   2   3
ENDBRANCH   1   2
BRANCH   1   6
ATOM      6  C   UNL     1      34.763  13.247  42.600  1.00  0.00     0.000 C 
BRANCH   6   7
ATOM      7  C   UNL     1      35.798  14.241  43.151  1.00  0.00    -0.003 C 
ATOM      8  C   UNL     1      35.165  15.538  43.653  1.00  0.00     0.004 C 
ENDBRANCH   6   7
ENDBRANCH   1   6
TORSDOF 4
ENDMDL
