MODEL 1
REMARK VINA RESULT:    -4.881      0.000      0.000
REMARK INTER + INTRA:          -4.881
REMARK INTER:                  -4.881
REMARK INTRA:                   0.000
REMARK UNBOUND:                 0.000
REMARK SMILES CC(C)=C1CC[C@H](C)CC1=O
REMARK SMILES IDX 8 1 7 2 6 3 5 4 4 5 2 6 1 7 3 8 10 9 11 10 9 11
REMARK H PARENT
REMARK Flexibility Score: inf
ROOT
ATOM      1  C   UNL     1       3.321   3.376  28.486  1.00  0.00     0.008 C 
ATOM      2  C   UNL     1       2.270   4.131  29.307  1.00  0.00    -0.006 C 
ATOM      3  C   UNL     1       2.754   4.334  30.751  1.00  0.00     0.008 C 
ATOM      4  C   UNL     1       1.673   4.998  31.614  1.00  0.00     0.039 C 
ATOM      5  C   UNL     1       1.137   6.280  30.993  1.00  0.00    -0.006 C 
ATOM      6  C   UNL     1       0.708   7.319  31.769  1.00  0.00    -0.070 C 
ATOM      7  C   UNL     1       0.227   8.618  31.165  1.00  0.00     0.039 C 
ATOM      8  C   UNL     1       0.730   7.232  33.278  1.00  0.00     0.039 C 
ATOM      9  C   UNL     1       1.003   6.282  29.506  1.00  0.00     0.159 C 
ATOM     10  O   UNL     1       0.090   6.935  28.931  1.00  0.00    -0.295 OA
ATOM     11  C   UNL     1       1.960   5.492  28.663  1.00  0.00     0.084 C 
ENDROOT
TORSDOF 0
ENDMDL
MODEL 2
REMARK VINA RESULT:    -4.693      2.178      5.128
REMARK INTER + INTRA:          -4.693
REMARK INTER:                  -4.693
REMARK INTRA:                   0.000
REMARK UNBOUND:                 0.000
REMARK SMILES CC(C)=C1CC[C@H](C)CC1=O
REMARK SMILES IDX 8 1 7 2 6 3 5 4 4 5 2 6 1 7 3 8 10 9 11 10 9 11
REMARK H PARENT
REMARK Flexibility Score: inf
ROOT
ATOM      1  C   UNL     1       0.633   6.655  31.534  1.00  0.00     0.008 C 
ATOM      2  C   UNL     1       1.308   5.451  30.868  1.00  0.00    -0.006 C 
ATOM      3  C   UNL     1       1.634   5.756  29.398  1.00  0.00     0.008 C 
ATOM      4  C   UNL     1       2.217   4.527  28.688  1.00  0.00     0.039 C 
ATOM      5  C   UNL     1       3.401   3.928  29.436  1.00  0.00    -0.006 C 
ATOM      6  C   UNL     1       4.423   3.315  28.771  1.00  0.00    -0.070 C 
ATOM      7  C   UNL     1       5.630   2.767  29.498  1.00  0.00     0.039 C 
ATOM      8  C   UNL     1       4.414   3.187  27.265  1.00  0.00     0.039 C 
ATOM      9  C   UNL     1       3.314   3.952  30.926  1.00  0.00     0.159 C 
ATOM     10  O   UNL     1       3.833   3.041  31.627  1.00  0.00    -0.295 OA
ATOM     11  C   UNL     1       2.593   5.070  31.621  1.00  0.00     0.084 C 
ENDROOT
TORSDOF 0
ENDMDL
MODEL 3
REMARK VINA RESULT:    -4.502     19.751     21.479
REMARK INTER + INTRA:          -4.502
REMARK INTER:                  -4.502
REMARK INTRA:                   0.000
REMARK UNBOUND:                 0.000
REMARK SMILES CC(C)=C1CC[C@H](C)CC1=O
REMARK SMILES IDX 8 1 7 2 6 3 5 4 4 5 2 6 1 7 3 8 10 9 11 10 9 11
REMARK H PARENT
REMARK Flexibility Score: inf
ROOT
ATOM      1  C   UNL     1      -9.018  -9.771  14.246  1.00  0.00     0.008 C 
ATOM      2  C   UNL     1      -8.763  -9.418  15.715  1.00  0.00    -0.006 C 
ATOM      3  C   UNL     1      -7.436 -10.026  16.196  1.00  0.00     0.008 C 
ATOM      4  C   UNL     1      -7.214  -9.769  17.692  1.00  0.00     0.039 C 
ATOM      5  C   UNL     1      -7.349  -8.298  18.058  1.00  0.00    -0.006 C 
ATOM      6  C   UNL     1      -6.619  -7.749  19.074  1.00  0.00    -0.070 C 
ATOM      7  C   UNL     1      -6.703  -6.278  19.410  1.00  0.00     0.039 C 
ATOM      8  C   UNL     1      -5.660  -8.585  19.890  1.00  0.00     0.039 C 
ATOM      9  C   UNL     1      -8.400  -7.533  17.323  1.00  0.00     0.159 C 
ATOM     10  O   UNL     1      -9.022  -6.582  17.871  1.00  0.00    -0.295 OA
ATOM     11  C   UNL     1      -8.742  -7.894  15.907  1.00  0.00     0.084 C 
ENDROOT
TORSDOF 0
ENDMDL
MODEL 4
REMARK VINA RESULT:    -4.405      1.963      3.102
REMARK INTER + INTRA:          -4.405
REMARK INTER:                  -4.405
REMARK INTRA:                   0.000
REMARK UNBOUND:                 0.000
REMARK SMILES CC(C)=C1CC[C@H](C)CC1=O
REMARK SMILES IDX 8 1 7 2 6 3 5 4 4 5 2 6 1 7 3 8 10 9 11 10 9 11
REMARK H PARENT
REMARK Flexibility Score: inf
ROOT
ATOM      1  C   UNL     1       5.469   2.445  28.817  1.00  0.00     0.008 C 
ATOM      2  C   UNL     1       4.672   3.706  29.168  1.00  0.00    -0.006 C 
ATOM      3  C   UNL     1       3.472   3.869  28.222  1.00  0.00     0.008 C 
ATOM      4  C   UNL     1       2.721   5.180  28.494  1.00  0.00     0.039 C 
ATOM      5  C   UNL     1       2.337   5.339  29.958  1.00  0.00    -0.006 C 
ATOM      6  C   UNL     1       1.202   6.004  30.325  1.00  0.00    -0.070 C 
ATOM      7  C   UNL     1       0.779   6.120  31.772  1.00  0.00     0.039 C 
ATOM      8  C   UNL     1       0.289   6.627  29.293  1.00  0.00     0.039 C 
ATOM      9  C   UNL     1       3.325   4.831  30.954  1.00  0.00     0.159 C 
ATOM     10  O   UNL     1       3.463   5.382  32.080  1.00  0.00    -0.295 OA
ATOM     11  C   UNL     1       4.187   3.647  30.625  1.00  0.00     0.084 C 
ENDROOT
TORSDOF 0
ENDMDL
MODEL 5
REMARK VINA RESULT:    -4.394      1.282      4.045
REMARK INTER + INTRA:          -4.394
REMARK INTER:                  -4.394
REMARK INTRA:                   0.000
REMARK UNBOUND:                 0.000
REMARK SMILES CC(C)=C1CC[C@H](C)CC1=O
REMARK SMILES IDX 8 1 7 2 6 3 5 4 4 5 2 6 1 7 3 8 10 9 11 10 9 11
REMARK H PARENT
REMARK Flexibility Score: inf
ROOT
ATOM      1  C   UNL     1       0.024   9.327  31.115  1.00  0.00     0.008 C 
ATOM      2  C   UNL     1       1.026   8.173  31.000  1.00  0.00    -0.006 C 
ATOM      3  C   UNL     1       0.614   7.006  31.911  1.00  0.00     0.008 C 
ATOM      4  C   UNL     1       1.660   5.883  31.886  1.00  0.00     0.039 C 
ATOM      5  C   UNL     1       1.996   5.430  30.472  1.00  0.00    -0.006 C 
ATOM      6  C   UNL     1       2.344   4.136  30.205  1.00  0.00    -0.070 C 
ATOM      7  C   UNL     1       2.624   3.662  28.797  1.00  0.00     0.039 C 
ATOM      8  C   UNL     1       2.429   3.105  31.306  1.00  0.00     0.039 C 
ATOM      9  C   UNL     1       2.033   6.500  29.432  1.00  0.00     0.159 C 
ATOM     10  O   UNL     1       2.822   6.433  28.450  1.00  0.00    -0.295 OA
ATOM     11  C   UNL     1       1.127   7.692  29.544  1.00  0.00     0.084 C 
ENDROOT
TORSDOF 0
ENDMDL
MODEL 6
REMARK VINA RESULT:    -4.382     18.837     20.338
REMARK INTER + INTRA:          -4.382
REMARK INTER:                  -4.382
REMARK INTRA:                   0.000
REMARK UNBOUND:                 0.000
REMARK SMILES CC(C)=C1CC[C@H](C)CC1=O
REMARK SMILES IDX 8 1 7 2 6 3 5 4 4 5 2 6 1 7 3 8 10 9 11 10 9 11
REMARK H PARENT
REMARK Flexibility Score: inf
ROOT
ATOM      1  C   UNL     1     -10.183  -3.886  18.349  1.00  0.00     0.008 C 
ATOM      2  C   UNL     1      -9.028  -4.879  18.175  1.00  0.00    -0.006 C 
ATOM      3  C   UNL     1      -8.375  -5.193  19.530  1.00  0.00     0.008 C 
ATOM      4  C   UNL     1      -7.153  -6.105  19.362  1.00  0.00     0.039 C 
ATOM      5  C   UNL     1      -7.467  -7.361  18.560  1.00  0.00    -0.006 C 
ATOM      6  C   UNL     1      -6.822  -8.539  18.805  1.00  0.00    -0.070 C 
ATOM      7  C   UNL     1      -7.166  -9.806  18.055  1.00  0.00     0.039 C 
ATOM      8  C   UNL     1      -5.754  -8.642  19.870  1.00  0.00     0.039 C 
ATOM      9  C   UNL     1      -8.427  -7.193  17.429  1.00  0.00     0.159 C 
ATOM     10  O   UNL     1      -8.334  -7.888  16.382  1.00  0.00    -0.295 OA
ATOM     11  C   UNL     1      -9.528  -6.176  17.521  1.00  0.00     0.084 C 
ENDROOT
TORSDOF 0
ENDMDL
MODEL 7
REMARK VINA RESULT:    -4.376      2.443      3.123
REMARK INTER + INTRA:          -4.376
REMARK INTER:                  -4.376
REMARK INTRA:                   0.000
REMARK UNBOUND:                 0.000
REMARK SMILES CC(C)=C1CC[C@H](C)CC1=O
REMARK SMILES IDX 8 1 7 2 6 3 5 4 4 5 2 6 1 7 3 8 10 9 11 10 9 11
REMARK H PARENT
REMARK Flexibility Score: inf
ROOT
ATOM      1  C   UNL     1       5.591   2.638  28.215  1.00  0.00     0.008 C 
ATOM      2  C   UNL     1       4.522   3.714  27.994  1.00  0.00    -0.006 C 
ATOM      3  C   UNL     1       3.298   3.452  28.885  1.00  0.00     0.008 C 
ATOM      4  C   UNL     1       2.176   4.461  28.603  1.00  0.00     0.039 C 
ATOM      5  C   UNL     1       2.656   5.904  28.680  1.00  0.00    -0.006 C 
ATOM      6  C   UNL     1       1.827   6.906  29.096  1.00  0.00    -0.070 C 
ATOM      7  C   UNL     1       2.309   8.333  29.231  1.00  0.00     0.039 C 
ATOM      8  C   UNL     1       0.393   6.627  29.481  1.00  0.00     0.039 C 
ATOM      9  C   UNL     1       4.034   6.164  28.166  1.00  0.00     0.159 C 
ATOM     10  O   UNL     1       4.333   7.261  27.620  1.00  0.00    -0.295 OA
ATOM     11  C   UNL     1       5.095   5.109  28.287  1.00  0.00     0.084 C 
ENDROOT
TORSDOF 0
ENDMDL
MODEL 8
REMARK VINA RESULT:    -4.283     18.854     20.366
REMARK INTER + INTRA:          -4.283
REMARK INTER:                  -4.283
REMARK INTRA:                   0.000
REMARK UNBOUND:                 0.000
REMARK SMILES CC(C)=C1CC[C@H](C)CC1=O
REMARK SMILES IDX 8 1 7 2 6 3 5 4 4 5 2 6 1 7 3 8 10 9 11 10 9 11
REMARK H PARENT
REMARK Flexibility Score: inf
ROOT
ATOM      1  C   UNL     1      -7.184 -10.125  16.383  1.00  0.00     0.008 C 
ATOM      2  C   UNL     1      -7.373  -8.667  16.814  1.00  0.00    -0.006 C 
ATOM      3  C   UNL     1      -8.825  -8.218  16.584  1.00  0.00     0.008 C 
ATOM      4  C   UNL     1      -9.008  -6.730  16.915  1.00  0.00     0.039 C 
ATOM      5  C   UNL     1      -8.499  -6.375  18.305  1.00  0.00    -0.006 C 
ATOM      6  C   UNL     1      -9.084  -5.385  19.043  1.00  0.00    -0.070 C 
ATOM      7  C   UNL     1      -8.625  -5.061  20.446  1.00  0.00     0.039 C 
ATOM      8  C   UNL     1     -10.248  -4.587  18.501  1.00  0.00     0.039 C 
ATOM      9  C   UNL     1      -7.267  -7.087  18.755  1.00  0.00     0.159 C 
ATOM     10  O   UNL     1      -6.431  -6.532  19.518  1.00  0.00    -0.295 OA
ATOM     11  C   UNL     1      -6.998  -8.490  18.293  1.00  0.00     0.084 C 
ENDROOT
TORSDOF 0
ENDMDL
MODEL 9
REMARK VINA RESULT:    -4.253     18.385     19.963
REMARK INTER + INTRA:          -4.253
REMARK INTER:                  -4.253
REMARK INTRA:                   0.000
REMARK UNBOUND:                 0.000
REMARK SMILES CC(C)=C1CC[C@H](C)CC1=O
REMARK SMILES IDX 8 1 7 2 6 3 5 4 4 5 2 6 1 7 3 8 10 9 11 10 9 11
REMARK H PARENT
REMARK Flexibility Score: inf
ROOT
ATOM      1  C   UNL     1     -11.248  -2.987  17.259  1.00  0.00     0.008 C 
ATOM      2  C   UNL     1     -10.588  -4.229  17.867  1.00  0.00    -0.006 C 
ATOM      3  C   UNL     1     -10.053  -5.154  16.762  1.00  0.00     0.008 C 
ATOM      4  C   UNL     1      -9.480  -6.451  17.349  1.00  0.00     0.039 C 
ATOM      5  C   UNL     1      -8.453  -6.193  18.443  1.00  0.00    -0.006 C 
ATOM      6  C   UNL     1      -7.404  -7.044  18.646  1.00  0.00    -0.070 C 
ATOM      7  C   UNL     1      -6.347  -6.769  19.691  1.00  0.00     0.039 C 
ATOM      8  C   UNL     1      -7.229  -8.287  17.805  1.00  0.00     0.039 C 
ATOM      9  C   UNL     1      -8.729  -5.033  19.341  1.00  0.00     0.159 C 
ATOM     10  O   UNL     1      -8.378  -5.043  20.551  1.00  0.00    -0.295 OA
ATOM     11  C   UNL     1      -9.445  -3.824  18.811  1.00  0.00     0.084 C 
ENDROOT
TORSDOF 0
ENDMDL
