MODEL 1
REMARK VINA RESULT:    -6.758      0.000      0.000
REMARK INTER + INTRA:          -7.351
REMARK INTER:                  -7.351
REMARK INTRA:                   0.000
REMARK UNBOUND:                 0.000
REMARK SMILES Cc1cc(O)c2c(c1)C(=O)c1cc(O)cc(O)c1C2=O
REMARK SMILES IDX 1 1 2 2 8 3 7 4 6 5 4 6 3 7 19 8 20 9 18 10 11 11 9 12 10 13
REMARK SMILES IDX 12 14 13 15 15 16 16 17 5 18 17 20 14 22
REMARK H PARENT 5 19 17 21 14 23
REMARK Flexibility Score: inf
ROOT
ATOM      1  C   UNL     1       3.986  11.202 -19.462  1.00  0.00     0.044 C 
ATOM      2  C   UNL     1       4.499  10.781 -20.809  1.00  0.00    -0.047 A 
ATOM      3  C   UNL     1       5.586  11.445 -21.387  1.00  0.00     0.016 A 
ATOM      4  C   UNL     1       6.047  11.088 -22.666  1.00  0.00     0.038 A 
ATOM      5  C   UNL     1       5.390  10.067 -23.390  1.00  0.00     0.076 A 
ATOM      6  C   UNL     1       4.317   9.367 -22.780  1.00  0.00     0.127 A 
ATOM      7  C   UNL     1       3.866   9.753 -21.515  1.00  0.00     0.050 A 
ATOM      8  C   UNL     1       5.811   9.820 -24.793  1.00  0.00     0.201 C 
ATOM      9  O   UNL     1       4.974   9.395 -25.634  1.00  0.00    -0.288 OA
ATOM     10  C   UNL     1       7.159  10.252 -25.247  1.00  0.00     0.076 A 
ATOM     11  C   UNL     1       7.811  11.274 -24.520  1.00  0.00     0.041 A 
ATOM     12  C   UNL     1       7.218  11.776 -23.258  1.00  0.00     0.194 C 
ATOM     13  O   UNL     1       7.727  12.773 -22.674  1.00  0.00    -0.289 OA
ATOM     14  C   UNL     1       9.021  11.806 -24.995  1.00  0.00     0.059 A 
ATOM     15  C   UNL     1       9.595  11.324 -26.172  1.00  0.00     0.120 A 
ATOM     16  C   UNL     1       8.975  10.286 -26.872  1.00  0.00     0.093 A 
ATOM     17  C   UNL     1       7.779   9.725 -26.410  1.00  0.00     0.131 A 
ENDROOT
BRANCH   6  18
ATOM     18  O   UNL     1       3.698   8.266 -23.377  1.00  0.00    -0.507 OA
ATOM     19  H   UNL     1       3.010   8.343 -24.114  1.00  0.00     0.293 HD
ENDBRANCH   6  18
BRANCH  17  20
ATOM     20  O   UNL     1       7.265   8.633 -27.111  1.00  0.00    -0.507 OA
ATOM     21  H   UNL     1       7.682   7.712 -27.095  1.00  0.00     0.293 HD
ENDBRANCH  17  20
BRANCH  15  22
ATOM     22  O   UNL     1      10.789  11.876 -26.630  1.00  0.00    -0.508 OA
ATOM     23  H   UNL     1      11.269  12.604 -26.113  1.00  0.00     0.293 HD
ENDBRANCH  15  22
TORSDOF 3
ENDMDL
MODEL 2
REMARK VINA RESULT:    -6.067      1.460      5.503
REMARK INTER + INTRA:          -6.599
REMARK INTER:                  -6.599
REMARK INTRA:                   0.000
REMARK UNBOUND:                 0.000
REMARK SMILES Cc1cc(O)c2c(c1)C(=O)c1cc(O)cc(O)c1C2=O
REMARK SMILES IDX 1 1 2 2 8 3 7 4 6 5 4 6 3 7 19 8 20 9 18 10 11 11 9 12 10 13
REMARK SMILES IDX 12 14 13 15 15 16 16 17 5 18 17 20 14 22
REMARK H PARENT 5 19 17 21 14 23
REMARK Flexibility Score: inf
ROOT
ATOM      1  C   UNL     1       9.987  13.329 -26.849  1.00  0.00     0.044 C 
ATOM      2  C   UNL     1       8.947  12.452 -26.217  1.00  0.00    -0.047 A 
ATOM      3  C   UNL     1       8.520  12.698 -24.907  1.00  0.00     0.016 A 
ATOM      4  C   UNL     1       7.577  11.857 -24.290  1.00  0.00     0.038 A 
ATOM      5  C   UNL     1       7.074  10.734 -24.986  1.00  0.00     0.076 A 
ATOM      6  C   UNL     1       7.476  10.516 -26.329  1.00  0.00     0.127 A 
ATOM      7  C   UNL     1       8.429  11.355 -26.914  1.00  0.00     0.050 A 
ATOM      8  C   UNL     1       6.196   9.789 -24.250  1.00  0.00     0.201 C 
ATOM      9  O   UNL     1       6.187   8.568 -24.563  1.00  0.00    -0.288 OA
ATOM     10  C   UNL     1       5.477  10.245 -23.032  1.00  0.00     0.076 A 
ATOM     11  C   UNL     1       5.984  11.367 -22.339  1.00  0.00     0.041 A 
ATOM     12  C   UNL     1       7.108  12.144 -22.914  1.00  0.00     0.194 C 
ATOM     13  O   UNL     1       7.647  13.066 -22.241  1.00  0.00    -0.289 OA
ATOM     14  C   UNL     1       5.418  11.744 -21.110  1.00  0.00     0.059 A 
ATOM     15  C   UNL     1       4.347  11.030 -20.574  1.00  0.00     0.120 A 
ATOM     16  C   UNL     1       3.815   9.944 -21.274  1.00  0.00     0.093 A 
ATOM     17  C   UNL     1       4.349   9.560 -22.509  1.00  0.00     0.131 A 
ENDROOT
BRANCH   6  18
ATOM     18  O   UNL     1       6.934   9.505 -27.125  1.00  0.00    -0.507 OA
ATOM     19  H   UNL     1       6.465   9.676 -28.004  1.00  0.00     0.293 HD
ENDBRANCH   6  18
BRANCH  17  20
ATOM     20  O   UNL     1       3.710   8.524 -23.194  1.00  0.00    -0.507 OA
ATOM     21  H   UNL     1       3.134   8.666 -24.011  1.00  0.00     0.293 HD
ENDBRANCH  17  20
BRANCH  15  22
ATOM     22  O   UNL     1       3.809  11.416 -19.347  1.00  0.00    -0.508 OA
ATOM     23  H   UNL     1       2.817  11.336 -19.155  1.00  0.00     0.293 HD
ENDBRANCH  15  22
TORSDOF 3
ENDMDL
MODEL 3
REMARK VINA RESULT:    -5.942      1.609      6.153
REMARK INTER + INTRA:          -6.463
REMARK INTER:                  -6.463
REMARK INTRA:                   0.000
REMARK UNBOUND:                 0.000
REMARK SMILES Cc1cc(O)c2c(c1)C(=O)c1cc(O)cc(O)c1C2=O
REMARK SMILES IDX 1 1 2 2 8 3 7 4 6 5 4 6 3 7 19 8 20 9 18 10 11 11 9 12 10 13
REMARK SMILES IDX 12 14 13 15 15 16 16 17 5 18 17 20 14 22
REMARK H PARENT 5 19 17 21 14 23
REMARK Flexibility Score: inf
ROOT
ATOM      1  C   UNL     1      11.491  12.868 -27.125  1.00  0.00     0.044 C 
ATOM      2  C   UNL     1      10.484  12.634 -26.037  1.00  0.00    -0.047 A 
ATOM      3  C   UNL     1       9.374  11.814 -26.269  1.00  0.00     0.016 A 
ATOM      4  C   UNL     1       8.402  11.623 -25.272  1.00  0.00     0.038 A 
ATOM      5  C   UNL     1       8.529  12.287 -24.030  1.00  0.00     0.076 A 
ATOM      6  C   UNL     1       9.679  13.081 -23.785  1.00  0.00     0.127 A 
ATOM      7  C   UNL     1      10.622  13.270 -24.799  1.00  0.00     0.050 A 
ATOM      8  C   UNL     1       7.410  12.178 -23.059  1.00  0.00     0.201 C 
ATOM      9  O   UNL     1       7.180  13.123 -22.258  1.00  0.00    -0.288 OA
ATOM     10  C   UNL     1       6.452  11.046 -23.160  1.00  0.00     0.076 A 
ATOM     11  C   UNL     1       6.328  10.386 -24.404  1.00  0.00     0.041 A 
ATOM     12  C   UNL     1       7.247  10.728 -25.516  1.00  0.00     0.194 C 
ATOM     13  O   UNL     1       7.059  10.236 -26.663  1.00  0.00    -0.289 OA
ATOM     14  C   UNL     1       5.338   9.406 -24.579  1.00  0.00     0.059 A 
ATOM     15  C   UNL     1       4.484   9.065 -23.530  1.00  0.00     0.120 A 
ATOM     16  C   UNL     1       4.629   9.685 -22.286  1.00  0.00     0.093 A 
ATOM     17  C   UNL     1       5.620  10.651 -22.080  1.00  0.00     0.131 A 
ENDROOT
BRANCH   6  18
ATOM     18  O   UNL     1       9.941  13.668 -22.545  1.00  0.00    -0.507 OA
ATOM     19  H   UNL     1      10.845  14.034 -22.279  1.00  0.00     0.293 HD
ENDBRANCH   6  18
BRANCH  17  20
ATOM     20  O   UNL     1       5.764  11.162 -20.789  1.00  0.00    -0.507 OA
ATOM     21  H   UNL     1       5.126  11.829 -20.378  1.00  0.00     0.293 HD
ENDBRANCH  17  20
BRANCH  15  22
ATOM     22  O   UNL     1       3.501   8.097 -23.731  1.00  0.00    -0.508 OA
ATOM     23  H   UNL     1       2.665   8.296 -24.268  1.00  0.00     0.293 HD
ENDBRANCH  15  22
TORSDOF 3
ENDMDL
MODEL 4
REMARK VINA RESULT:    -5.575      1.775      3.242
REMARK INTER + INTRA:          -6.064
REMARK INTER:                  -6.064
REMARK INTRA:                   0.000
REMARK UNBOUND:                 0.000
REMARK SMILES Cc1cc(O)c2c(c1)C(=O)c1cc(O)cc(O)c1C2=O
REMARK SMILES IDX 1 1 2 2 8 3 7 4 6 5 4 6 3 7 19 8 20 9 18 10 11 11 9 12 10 13
REMARK SMILES IDX 12 14 13 15 15 16 16 17 5 18 17 20 14 22
REMARK H PARENT 5 19 17 21 14 23
REMARK Flexibility Score: inf
ROOT
ATOM      1  C   UNL     1       3.921   8.973 -22.603  1.00  0.00     0.044 C 
ATOM      2  C   UNL     1       5.096   9.464 -23.396  1.00  0.00    -0.047 A 
ATOM      3  C   UNL     1       5.816  10.584 -22.968  1.00  0.00     0.016 A 
ATOM      4  C   UNL     1       6.892  11.078 -23.726  1.00  0.00     0.038 A 
ATOM      5  C   UNL     1       7.235  10.456 -24.948  1.00  0.00     0.076 A 
ATOM      6  C   UNL     1       6.530   9.294 -25.355  1.00  0.00     0.127 A 
ATOM      7  C   UNL     1       5.453   8.833 -24.593  1.00  0.00     0.050 A 
ATOM      8  C   UNL     1       8.278  11.095 -25.792  1.00  0.00     0.201 C 
ATOM      9  O   UNL     1       8.233  10.973 -27.045  1.00  0.00    -0.288 OA
ATOM     10  C   UNL     1       9.257  12.028 -25.175  1.00  0.00     0.076 A 
ATOM     11  C   UNL     1       8.909  12.648 -23.953  1.00  0.00     0.041 A 
ATOM     12  C   UNL     1       7.668  12.246 -23.249  1.00  0.00     0.194 C 
ATOM     13  O   UNL     1       7.288  12.884 -22.228  1.00  0.00    -0.289 OA
ATOM     14  C   UNL     1       9.744  13.638 -23.410  1.00  0.00     0.059 A 
ATOM     15  C   UNL     1      10.923  14.006 -24.058  1.00  0.00     0.120 A 
ATOM     16  C   UNL     1      11.292  13.368 -25.245  1.00  0.00     0.093 A 
ATOM     17  C   UNL     1      10.488  12.364 -25.796  1.00  0.00     0.131 A 
ENDROOT
BRANCH   6  18
ATOM     18  O   UNL     1       6.886   8.550 -26.482  1.00  0.00    -0.507 OA
ATOM     19  H   UNL     1       7.780   8.634 -26.948  1.00  0.00     0.293 HD
ENDBRANCH   6  18
BRANCH  17  20
ATOM     20  O   UNL     1      10.964  11.709 -26.933  1.00  0.00    -0.507 OA
ATOM     21  H   UNL     1      10.393  11.109 -27.512  1.00  0.00     0.293 HD
ENDBRANCH  17  20
BRANCH  15  22
ATOM     22  O   UNL     1      11.729  15.000 -23.506  1.00  0.00    -0.508 OA
ATOM     23  H   UNL     1      11.866  15.075 -22.504  1.00  0.00     0.293 HD
ENDBRANCH  15  22
TORSDOF 3
ENDMDL
MODEL 5
REMARK VINA RESULT:    -5.562      1.776      5.383
REMARK INTER + INTRA:          -6.050
REMARK INTER:                  -6.050
REMARK INTRA:                   0.000
REMARK UNBOUND:                 0.000
REMARK SMILES Cc1cc(O)c2c(c1)C(=O)c1cc(O)cc(O)c1C2=O
REMARK SMILES IDX 1 1 2 2 8 3 7 4 6 5 4 6 3 7 19 8 20 9 18 10 11 11 9 12 10 13
REMARK SMILES IDX 12 14 13 15 15 16 16 17 5 18 17 20 14 22
REMARK H PARENT 5 19 17 21 14 23
REMARK Flexibility Score: inf
ROOT
ATOM      1  C   UNL     1      11.115  15.468 -23.375  1.00  0.00     0.044 C 
ATOM      2  C   UNL     1      10.413  14.305 -24.013  1.00  0.00    -0.047 A 
ATOM      3  C   UNL     1       9.352  13.676 -23.353  1.00  0.00     0.016 A 
ATOM      4  C   UNL     1       8.715  12.559 -23.922  1.00  0.00     0.038 A 
ATOM      5  C   UNL     1       9.166  12.046 -25.159  1.00  0.00     0.076 A 
ATOM      6  C   UNL     1      10.212  12.716 -25.844  1.00  0.00     0.127 A 
ATOM      7  C   UNL     1      10.842  13.813 -25.250  1.00  0.00     0.050 A 
ATOM      8  C   UNL     1       8.567  10.780 -25.654  1.00  0.00     0.201 C 
ATOM      9  O   UNL     1       9.252   9.999 -26.368  1.00  0.00    -0.288 OA
ATOM     10  C   UNL     1       7.236  10.348 -25.154  1.00  0.00     0.076 A 
ATOM     11  C   UNL     1       6.789  10.863 -23.916  1.00  0.00     0.041 A 
ATOM     12  C   UNL     1       7.572  11.918 -23.230  1.00  0.00     0.194 C 
ATOM     13  O   UNL     1       7.247  12.289 -22.068  1.00  0.00    -0.289 OA
ATOM     14  C   UNL     1       5.603  10.375 -23.344  1.00  0.00     0.059 A 
ATOM     15  C   UNL     1       4.851   9.396 -23.995  1.00  0.00     0.120 A 
ATOM     16  C   UNL     1       5.268   8.913 -25.238  1.00  0.00     0.093 A 
ATOM     17  C   UNL     1       6.435   9.397 -25.839  1.00  0.00     0.131 A 
ENDROOT
BRANCH   6  18
ATOM     18  O   UNL     1      10.632  12.348 -27.125  1.00  0.00    -0.507 OA
ATOM     19  H   UNL     1      10.012  11.978 -27.832  1.00  0.00     0.293 HD
ENDBRANCH   6  18
BRANCH  17  20
ATOM     20  O   UNL     1       6.740   8.935 -27.120  1.00  0.00    -0.507 OA
ATOM     21  H   UNL     1       7.469   8.263 -27.314  1.00  0.00     0.293 HD
ENDBRANCH  17  20
BRANCH  15  22
ATOM     22  O   UNL     1       3.684   8.919 -23.401  1.00  0.00    -0.508 OA
ATOM     23  H   UNL     1       2.850   8.734 -23.947  1.00  0.00     0.293 HD
ENDBRANCH  15  22
TORSDOF 3
ENDMDL
MODEL 6
REMARK VINA RESULT:    -5.232      4.277      7.696
REMARK INTER + INTRA:          -5.691
REMARK INTER:                  -5.691
REMARK INTRA:                   0.000
REMARK UNBOUND:                 0.000
REMARK SMILES Cc1cc(O)c2c(c1)C(=O)c1cc(O)cc(O)c1C2=O
REMARK SMILES IDX 1 1 2 2 8 3 7 4 6 5 4 6 3 7 19 8 20 9 18 10 11 11 9 12 10 13
REMARK SMILES IDX 12 14 13 15 15 16 16 17 5 18 17 20 14 22
REMARK H PARENT 5 19 17 21 14 23
REMARK Flexibility Score: inf
ROOT
ATOM      1  C   UNL     1      16.406  15.035 -22.980  1.00  0.00     0.044 C 
ATOM      2  C   UNL     1      14.930  14.772 -22.914  1.00  0.00    -0.047 A 
ATOM      3  C   UNL     1      14.295  14.058 -23.937  1.00  0.00     0.016 A 
ATOM      4  C   UNL     1      12.907  13.843 -23.906  1.00  0.00     0.038 A 
ATOM      5  C   UNL     1      12.136  14.376 -22.848  1.00  0.00     0.076 A 
ATOM      6  C   UNL     1      12.790  15.060 -21.791  1.00  0.00     0.127 A 
ATOM      7  C   UNL     1      14.170  15.277 -21.853  1.00  0.00     0.050 A 
ATOM      8  C   UNL     1      10.657  14.256 -22.928  1.00  0.00     0.201 C 
ATOM      9  O   UNL     1       9.926  15.135 -22.398  1.00  0.00    -0.288 OA
ATOM     10  C   UNL     1      10.047  13.209 -23.789  1.00  0.00     0.076 A 
ATOM     11  C   UNL     1      10.821  12.680 -24.846  1.00  0.00     0.041 A 
ATOM     12  C   UNL     1      12.248  13.060 -24.977  1.00  0.00     0.194 C 
ATOM     13  O   UNL     1      12.908  12.693 -25.989  1.00  0.00    -0.289 OA
ATOM     14  C   UNL     1      10.237  11.793 -25.765  1.00  0.00     0.059 A 
ATOM     15  C   UNL     1       8.900  11.416 -25.634  1.00  0.00     0.120 A 
ATOM     16  C   UNL     1       8.141  11.905 -24.568  1.00  0.00     0.093 A 
ATOM     17  C   UNL     1       8.706  12.774 -23.628  1.00  0.00     0.131 A 
ENDROOT
BRANCH   6  18
ATOM     18  O   UNL     1      12.119  15.507 -20.651  1.00  0.00    -0.507 OA
ATOM     19  H   UNL     1      11.454  14.945 -20.137  1.00  0.00     0.293 HD
ENDBRANCH   6  18
BRANCH  17  20
ATOM     20  O   UNL     1       7.915  13.149 -22.540  1.00  0.00    -0.507 OA
ATOM     21  H   UNL     1       7.085  13.720 -22.623  1.00  0.00     0.293 HD
ENDBRANCH  17  20
BRANCH  15  22
ATOM     22  O   UNL     1       8.338  10.544 -26.565  1.00  0.00    -0.508 OA
ATOM     23  H   UNL     1       7.344  10.348 -26.574  1.00  0.00     0.293 HD
ENDBRANCH  15  22
TORSDOF 3
ENDMDL
MODEL 7
REMARK VINA RESULT:    -4.831      3.155      6.481
REMARK INTER + INTRA:          -5.254
REMARK INTER:                  -5.254
REMARK INTRA:                   0.000
REMARK UNBOUND:                 0.000
REMARK SMILES Cc1cc(O)c2c(c1)C(=O)c1cc(O)cc(O)c1C2=O
REMARK SMILES IDX 1 1 2 2 8 3 7 4 6 5 4 6 3 7 19 8 20 9 18 10 11 11 9 12 10 13
REMARK SMILES IDX 12 14 13 15 15 16 16 17 5 18 17 20 14 22
REMARK H PARENT 5 19 17 21 14 23
REMARK Flexibility Score: inf
ROOT
ATOM      1  C   UNL     1      14.246  11.859 -25.483  1.00  0.00     0.044 C 
ATOM      2  C   UNL     1      12.769  12.120 -25.435  1.00  0.00    -0.047 A 
ATOM      3  C   UNL     1      11.872  11.196 -25.981  1.00  0.00     0.016 A 
ATOM      4  C   UNL     1      10.490  11.450 -25.979  1.00  0.00     0.038 A 
ATOM      5  C   UNL     1       9.999  12.664 -25.446  1.00  0.00     0.076 A 
ATOM      6  C   UNL     1      10.909  13.577 -24.853  1.00  0.00     0.127 A 
ATOM      7  C   UNL     1      12.281  13.309 -24.883  1.00  0.00     0.050 A 
ATOM      8  C   UNL     1       8.551  12.962 -25.597  1.00  0.00     0.201 C 
ATOM      9  O   UNL     1       8.162  14.157 -25.688  1.00  0.00    -0.288 OA
ATOM     10  C   UNL     1       7.590  11.852 -25.828  1.00  0.00     0.076 A 
ATOM     11  C   UNL     1       8.085  10.641 -26.362  1.00  0.00     0.041 A 
ATOM     12  C   UNL     1       9.545  10.452 -26.532  1.00  0.00     0.194 C 
ATOM     13  O   UNL     1       9.983   9.427 -27.125  1.00  0.00    -0.289 OA
ATOM     14  C   UNL     1       7.191   9.620 -26.724  1.00  0.00     0.059 A 
ATOM     15  C   UNL     1       5.817   9.784 -26.548  1.00  0.00     0.120 A 
ATOM     16  C   UNL     1       5.326  10.964 -25.983  1.00  0.00     0.093 A 
ATOM     17  C   UNL     1       6.196  11.988 -25.595  1.00  0.00     0.131 A 
ENDROOT
BRANCH   6  18
ATOM     18  O   UNL     1      10.494  14.737 -24.196  1.00  0.00    -0.507 OA
ATOM     19  H   UNL     1      11.103  15.302 -23.620  1.00  0.00     0.293 HD
ENDBRANCH   6  18
BRANCH  17  20
ATOM     20  O   UNL     1       5.642  13.098 -24.956  1.00  0.00    -0.507 OA
ATOM     21  H   UNL     1       4.967  13.033 -24.207  1.00  0.00     0.293 HD
ENDBRANCH  17  20
BRANCH  15  22
ATOM     22  O   UNL     1       4.949   8.762 -26.926  1.00  0.00    -0.508 OA
ATOM     23  H   UNL     1       4.269   8.892 -27.667  1.00  0.00     0.293 HD
ENDBRANCH  15  22
TORSDOF 3
ENDMDL
MODEL 8
REMARK VINA RESULT:    -4.816      2.715      5.056
REMARK INTER + INTRA:          -5.238
REMARK INTER:                  -5.238
REMARK INTRA:                   0.000
REMARK UNBOUND:                 0.000
REMARK SMILES Cc1cc(O)c2c(c1)C(=O)c1cc(O)cc(O)c1C2=O
REMARK SMILES IDX 1 1 2 2 8 3 7 4 6 5 4 6 3 7 19 8 20 9 18 10 11 11 9 12 10 13
REMARK SMILES IDX 12 14 13 15 15 16 16 17 5 18 17 20 14 22
REMARK H PARENT 5 19 17 21 14 23
REMARK Flexibility Score: inf
ROOT
ATOM      1  C   UNL     1       5.778   8.998 -27.125  1.00  0.00     0.044 C 
ATOM      2  C   UNL     1       6.435  10.009 -26.231  1.00  0.00    -0.047 A 
ATOM      3  C   UNL     1       7.801  10.279 -26.358  1.00  0.00     0.016 A 
ATOM      4  C   UNL     1       8.435  11.192 -25.498  1.00  0.00     0.038 A 
ATOM      5  C   UNL     1       7.693  11.825 -24.474  1.00  0.00     0.076 A 
ATOM      6  C   UNL     1       6.299  11.581 -24.378  1.00  0.00     0.127 A 
ATOM      7  C   UNL     1       5.695  10.655 -25.234  1.00  0.00     0.050 A 
ATOM      8  C   UNL     1       8.427  12.666 -23.494  1.00  0.00     0.201 C 
ATOM      9  O   UNL     1       8.000  12.772 -22.313  1.00  0.00    -0.288 OA
ATOM     10  C   UNL     1       9.757  13.225 -23.851  1.00  0.00     0.076 A 
ATOM     11  C   UNL     1      10.495  12.589 -24.875  1.00  0.00     0.041 A 
ATOM     12  C   UNL     1       9.876  11.495 -25.660  1.00  0.00     0.194 C 
ATOM     13  O   UNL     1      10.571  10.840 -26.485  1.00  0.00    -0.289 OA
ATOM     14  C   UNL     1      11.811  13.000 -25.147  1.00  0.00     0.059 A 
ATOM     15  C   UNL     1      12.392  14.043 -24.425  1.00  0.00     0.120 A 
ATOM     16  C   UNL     1      11.652  14.702 -23.439  1.00  0.00     0.093 A 
ATOM     17  C   UNL     1      10.334  14.325 -23.163  1.00  0.00     0.131 A 
ENDROOT
BRANCH   6  18
ATOM     18  O   UNL     1       5.474  12.258 -23.477  1.00  0.00    -0.507 OA
ATOM     19  H   UNL     1       4.747  11.807 -22.938  1.00  0.00     0.293 HD
ENDBRANCH   6  18
BRANCH  17  20
ATOM     20  O   UNL     1       9.628  15.086 -22.229  1.00  0.00    -0.507 OA
ATOM     21  H   UNL     1       8.991  15.830 -22.481  1.00  0.00     0.293 HD
ENDBRANCH  17  20
BRANCH  15  22
ATOM     22  O   UNL     1      13.702  14.425 -24.704  1.00  0.00    -0.508 OA
ATOM     23  H   UNL     1      13.907  15.252 -25.254  1.00  0.00     0.293 HD
ENDBRANCH  15  22
TORSDOF 3
ENDMDL
MODEL 9
REMARK VINA RESULT:    -4.771      6.130      9.826
REMARK INTER + INTRA:          -5.189
REMARK INTER:                  -5.189
REMARK INTRA:                   0.000
REMARK UNBOUND:                 0.000
REMARK SMILES Cc1cc(O)c2c(c1)C(=O)c1cc(O)cc(O)c1C2=O
REMARK SMILES IDX 1 1 2 2 8 3 7 4 6 5 4 6 3 7 19 8 20 9 18 10 11 11 9 12 10 13
REMARK SMILES IDX 12 14 13 15 15 16 16 17 5 18 17 20 14 22
REMARK H PARENT 5 19 17 21 14 23
REMARK Flexibility Score: inf
ROOT
ATOM      1  C   UNL     1      18.764  16.125 -22.986  1.00  0.00     0.044 C 
ATOM      2  C   UNL     1      17.553  15.535 -23.647  1.00  0.00    -0.047 A 
ATOM      3  C   UNL     1      16.373  15.350 -22.919  1.00  0.00     0.016 A 
ATOM      4  C   UNL     1      15.246  14.759 -23.517  1.00  0.00     0.038 A 
ATOM      5  C   UNL     1      15.311  14.321 -24.859  1.00  0.00     0.076 A 
ATOM      6  C   UNL     1      16.495  14.552 -25.606  1.00  0.00     0.127 A 
ATOM      7  C   UNL     1      17.608  15.125 -24.984  1.00  0.00     0.050 A 
ATOM      8  C   UNL     1      14.153  13.569 -25.408  1.00  0.00     0.201 C 
ATOM      9  O   UNL     1      14.336  12.699 -26.302  1.00  0.00    -0.288 OA
ATOM     10  C   UNL     1      12.816  13.706 -24.774  1.00  0.00     0.076 A 
ATOM     11  C   UNL     1      12.756  14.144 -23.432  1.00  0.00     0.041 A 
ATOM     12  C   UNL     1      13.991  14.595 -22.747  1.00  0.00     0.194 C 
ATOM     13  O   UNL     1      13.966  14.865 -21.514  1.00  0.00    -0.289 OA
ATOM     14  C   UNL     1      11.526  14.154 -22.754  1.00  0.00     0.059 A 
ATOM     15  C   UNL     1      10.357  13.750 -23.400  1.00  0.00     0.120 A 
ATOM     16  C   UNL     1      10.405  13.354 -24.739  1.00  0.00     0.093 A 
ATOM     17  C   UNL     1      11.614  13.354 -25.442  1.00  0.00     0.131 A 
ENDROOT
BRANCH   6  18
ATOM     18  O   UNL     1      16.597  14.263 -26.969  1.00  0.00    -0.507 OA
ATOM     19  H   UNL     1      16.803  13.342 -27.331  1.00  0.00     0.293 HD
ENDBRANCH   6  18
BRANCH  17  20
ATOM     20  O   UNL     1      11.571  13.034 -26.800  1.00  0.00    -0.507 OA
ATOM     21  H   UNL     1      12.050  12.241 -27.203  1.00  0.00     0.293 HD
ENDBRANCH  17  20
BRANCH  15  22
ATOM     22  O   UNL     1       9.151  13.757 -22.703  1.00  0.00    -0.508 OA
ATOM     23  H   UNL     1       8.284  13.468 -23.142  1.00  0.00     0.293 HD
ENDBRANCH  15  22
TORSDOF 3
ENDMDL
