MODEL 1
REMARK VINA RESULT:    -3.726      0.000      0.000
REMARK INTER + INTRA:          -5.850
REMARK INTER:                  -5.687
REMARK INTRA:                  -0.163
REMARK UNBOUND:                -0.163
REMARK SMILES CC1=CCC[C@@H](C)C(=O)C[C@H](C(C)C)C(=O)C1
REMARK SMILES IDX 8 1 9 2 6 3 7 4 5 5 4 6 3 7 2 8 1 9 10 11 11 12 15 13 16 14
REMARK SMILES IDX 17 15 12 17 13 18 14 19
REMARK H PARENT
REMARK Flexibility Score: 70.00
ROOT
ATOM      1  C   UNL     1      27.463  23.106   7.209  1.00  0.00     0.136 C 
ATOM      2  O   UNL     1      26.653  23.927   6.799  1.00  0.00    -0.299 OA
ENDROOT
BRANCH   1   3
ATOM      3  C   UNL     1      28.500  23.523   8.234  1.00  0.00     0.053 C 
ATOM      4  C   UNL     1      28.280  24.982   8.659  1.00  0.00     0.016 C 
BRANCH   3   5
ATOM      5  C   UNL     1      29.922  23.320   7.668  1.00  0.00     0.015 C 
BRANCH   5   6
ATOM      6  C   UNL     1      30.631  22.101   8.295  1.00  0.00     0.028 C 
BRANCH   6   7
ATOM      7  C   UNL     1      31.528  21.414   7.298  1.00  0.00    -0.028 C 
ATOM      8  C   UNL     1      31.132  20.463   6.420  1.00  0.00    -0.070 CG0
ATOM      9  C   UNL     1      32.156  19.927   5.452  1.00  0.00     0.039 C 
ATOM     10  G   UNL     1      29.712  19.923   6.356  1.00  0.00     0.000 G0
ENDBRANCH   6   7
ENDBRANCH   5   6
ENDBRANCH   3   5
ENDBRANCH   1   3
BRANCH   1  11
ATOM     11  C   UNL     1      27.407  21.691   6.681  1.00  0.00     0.087 C 
BRANCH  11  12
ATOM     12  C   UNL     1      27.967  21.573   5.240  1.00  0.00     0.066 C 
BRANCH  12  13
ATOM     13  C   UNL     1      28.973  20.434   5.138  1.00  0.00     0.140 C 
ATOM     14  O   UNL     1      29.132  19.884   4.056  1.00  0.00    -0.299 OA
BRANCH  13  15
ATOM     15  C   UNL     1      29.725  19.917   6.344  1.00  0.00     0.106 CG0
ATOM     16  G   UNL     1      31.151  20.442   6.403  1.00  0.00     0.000 G0
ENDBRANCH  13  15
ENDBRANCH  12  13
BRANCH  12  17
ATOM     17  C   UNL     1      26.845  21.445   4.157  1.00  0.00    -0.006 C 
ATOM     18  C   UNL     1      25.507  20.970   4.753  1.00  0.00     0.008 C 
ATOM     19  C   UNL     1      26.616  22.787   3.438  1.00  0.00     0.008 C 
ENDBRANCH  12  17
ENDBRANCH  11  12
ENDBRANCH   1  11
TORSDOF 1
ENDMDL
MODEL 2
REMARK VINA RESULT:    -3.553      3.087      5.189
REMARK INTER + INTRA:          -5.585
REMARK INTER:                  -5.930
REMARK INTRA:                   0.345
REMARK UNBOUND:                -0.163
REMARK SMILES CC1=CCC[C@@H](C)C(=O)C[C@H](C(C)C)C(=O)C1
REMARK SMILES IDX 8 1 9 2 6 3 7 4 5 5 4 6 3 7 2 8 1 9 10 11 11 12 15 13 16 14
REMARK SMILES IDX 17 15 12 17 13 18 14 19
REMARK H PARENT
REMARK Flexibility Score: 70.00
ROOT
ATOM      1  C   UNL     1      27.261  22.183   4.740  1.00  0.00     0.136 C 
ATOM      2  O   UNL     1      27.114  21.717   3.618  1.00  0.00    -0.299 OA
ENDROOT
BRANCH   1   3
ATOM      3  C   UNL     1      28.391  21.681   5.618  1.00  0.00     0.053 C 
ATOM      4  C   UNL     1      29.199  20.599   4.889  1.00  0.00     0.016 C 
BRANCH   3   5
ATOM      5  C   UNL     1      27.831  21.148   6.955  1.00  0.00     0.015 C 
BRANCH   5   6
ATOM      6  C   UNL     1      26.975  19.879   6.764  1.00  0.00     0.028 C 
BRANCH   6   7
ATOM      7  C   UNL     1      25.662  19.987   7.493  1.00  0.00    -0.028 C 
ATOM      8  C   UNL     1      24.486  20.350   6.930  1.00  0.00    -0.070 CG0
ATOM      9  C   UNL     1      23.254  20.345   7.801  1.00  0.00     0.039 C 
ATOM     10  G   UNL     1      24.345  20.746   5.469  1.00  0.00     0.000 G0
ENDBRANCH   6   7
ENDBRANCH   5   6
ENDBRANCH   3   5
ENDBRANCH   1   3
BRANCH   1  11
ATOM     11  C   UNL     1      26.310  23.254   5.223  1.00  0.00     0.087 C 
BRANCH  11  12
ATOM     12  C   UNL     1      24.922  23.166   4.537  1.00  0.00     0.066 C 
BRANCH  12  13
ATOM     13  C   UNL     1      24.002  22.211   5.290  1.00  0.00     0.140 C 
ATOM     14  O   UNL     1      22.993  22.659   5.817  1.00  0.00    -0.299 OA
BRANCH  13  15
ATOM     15  C   UNL     1      24.336  20.747   5.464  1.00  0.00     0.106 CG0
ATOM     16  G   UNL     1      24.505  20.365   6.927  1.00  0.00     0.000 G0
ENDBRANCH  13  15
ENDBRANCH  12  13
BRANCH  12  17
ATOM     17  C   UNL     1      24.252  24.564   4.332  1.00  0.00    -0.006 C 
ATOM     18  C   UNL     1      24.811  25.628   5.294  1.00  0.00     0.008 C 
ATOM     19  C   UNL     1      24.437  25.059   2.886  1.00  0.00     0.008 C 
ENDBRANCH  12  17
ENDBRANCH  11  12
ENDBRANCH   1  11
TORSDOF 1
ENDMDL
MODEL 3
REMARK VINA RESULT:    -3.031      2.250      4.422
REMARK INTER + INTRA:          -4.788
REMARK INTER:                  -6.064
REMARK INTRA:                   1.276
REMARK UNBOUND:                -0.163
REMARK SMILES CC1=CCC[C@@H](C)C(=O)C[C@H](C(C)C)C(=O)C1
REMARK SMILES IDX 8 1 9 2 6 3 7 4 5 5 4 6 3 7 2 8 1 9 10 11 11 12 15 13 16 14
REMARK SMILES IDX 17 15 12 17 13 18 14 19
REMARK H PARENT
REMARK Flexibility Score: 70.00
ROOT
ATOM      1  C   UNL     1      32.170  20.960   6.283  1.00  0.00     0.136 C 
ATOM      2  O   UNL     1      32.690  19.876   6.053  1.00  0.00    -0.299 OA
ENDROOT
BRANCH   1   3
ATOM      3  C   UNL     1      32.952  22.025   7.026  1.00  0.00     0.053 C 
ATOM      4  C   UNL     1      34.110  21.393   7.812  1.00  0.00     0.016 C 
BRANCH   3   5
ATOM      5  C   UNL     1      32.016  22.819   7.963  1.00  0.00     0.015 C 
BRANCH   5   6
ATOM      6  C   UNL     1      31.453  24.087   7.288  1.00  0.00     0.028 C 
BRANCH   6   7
ATOM      7  C   UNL     1      30.297  24.657   8.067  1.00  0.00    -0.028 C 
ATOM      8  C   UNL     1      29.043  24.147   8.085  1.00  0.00    -0.070 CG0
ATOM      9  C   UNL     1      28.022  24.815   8.972  1.00  0.00     0.039 C 
ATOM     10  G   UNL     1      28.622  22.934   7.271  1.00  0.00     0.000 G0
ENDBRANCH   6   7
ENDBRANCH   5   6
ENDBRANCH   3   5
ENDBRANCH   1   3
BRANCH   1  11
ATOM     11  C   UNL     1      30.755  21.210   5.815  1.00  0.00     0.087 C 
BRANCH  11  12
ATOM     12  C   UNL     1      29.698  20.592   6.767  1.00  0.00     0.066 C 
BRANCH  12  13
ATOM     13  C   UNL     1      29.169  21.635   7.744  1.00  0.00     0.140 C 
ATOM     14  O   UNL     1      29.176  21.377   8.940  1.00  0.00    -0.299 OA
BRANCH  13  15
ATOM     15  C   UNL     1      28.573  22.943   7.276  1.00  0.00     0.106 CG0
ATOM     16  G   UNL     1      29.069  24.127   8.092  1.00  0.00     0.000 G0
ENDBRANCH  13  15
ENDBRANCH  12  13
BRANCH  12  17
ATOM     17  C   UNL     1      28.533  19.878   6.005  1.00  0.00    -0.006 C 
ATOM     18  C   UNL     1      27.212  19.909   6.794  1.00  0.00     0.008 C 
ATOM     19  C   UNL     1      28.300  20.520   4.626  1.00  0.00     0.008 C 
ENDBRANCH  12  17
ENDBRANCH  11  12
ENDBRANCH   1  11
TORSDOF 1
ENDMDL
MODEL 4
REMARK VINA RESULT:    -2.971      2.117      3.161
REMARK INTER + INTRA:          -4.698
REMARK INTER:                  -5.156
REMARK INTRA:                   0.458
REMARK UNBOUND:                -0.163
REMARK SMILES CC1=CCC[C@@H](C)C(=O)C[C@H](C(C)C)C(=O)C1
REMARK SMILES IDX 8 1 9 2 6 3 7 4 5 5 4 6 3 7 2 8 1 9 10 11 11 12 15 13 16 14
REMARK SMILES IDX 17 15 12 17 13 18 14 19
REMARK H PARENT
REMARK Flexibility Score: 70.00
ROOT
ATOM      1  C   UNL     1      28.333  23.304   7.728  1.00  0.00     0.136 C 
ATOM      2  O   UNL     1      28.882  24.318   8.138  1.00  0.00    -0.299 OA
ENDROOT
BRANCH   1   3
ATOM      3  C   UNL     1      29.085  21.987   7.740  1.00  0.00     0.053 C 
ATOM      4  C   UNL     1      30.016  21.911   8.958  1.00  0.00     0.016 C 
BRANCH   3   5
ATOM      5  C   UNL     1      29.877  21.812   6.426  1.00  0.00     0.015 C 
BRANCH   5   6
ATOM      6  C   UNL     1      29.892  20.347   5.945  1.00  0.00     0.028 C 
BRANCH   6   7
ATOM      7  C   UNL     1      29.046  20.164   4.712  1.00  0.00    -0.028 C 
ATOM      8  C   UNL     1      27.705  19.982   4.707  1.00  0.00    -0.070 CG0
ATOM      9  C   UNL     1      27.012  19.877   3.371  1.00  0.00     0.039 C 
ATOM     10  G   UNL     1      26.868  19.893   5.973  1.00  0.00     0.000 G0
ENDBRANCH   6   7
ENDBRANCH   5   6
ENDBRANCH   3   5
ENDBRANCH   1   3
BRANCH   1  11
ATOM     11  C   UNL     1      26.913  23.391   7.218  1.00  0.00     0.087 C 
BRANCH  11  12
ATOM     12  C   UNL     1      26.684  22.526   5.952  1.00  0.00     0.066 C 
BRANCH  12  13
ATOM     13  C   UNL     1      26.129  21.156   6.322  1.00  0.00     0.140 C 
ATOM     14  O   UNL     1      25.097  21.097   6.977  1.00  0.00    -0.299 OA
BRANCH  13  15
ATOM     15  C   UNL     1      26.851  19.876   5.968  1.00  0.00     0.106 CG0
ATOM     16  G   UNL     1      27.706  20.022   4.719  1.00  0.00     0.000 G0
ENDBRANCH  13  15
ENDBRANCH  12  13
BRANCH  12  17
ATOM     17  C   UNL     1      25.791  23.235   4.881  1.00  0.00    -0.006 C 
ATOM     18  C   UNL     1      25.318  24.626   5.340  1.00  0.00     0.008 C 
ATOM     19  C   UNL     1      26.545  23.386   3.547  1.00  0.00     0.008 C 
ENDBRANCH  12  17
ENDBRANCH  11  12
ENDBRANCH   1  11
TORSDOF 1
ENDMDL
MODEL 5
REMARK VINA RESULT:    -2.898      1.924      4.236
REMARK INTER + INTRA:          -4.586
REMARK INTER:                  -5.412
REMARK INTRA:                   0.827
REMARK UNBOUND:                -0.163
REMARK SMILES CC1=CCC[C@@H](C)C(=O)C[C@H](C(C)C)C(=O)C1
REMARK SMILES IDX 8 1 9 2 6 3 7 4 5 5 4 6 3 7 2 8 1 9 10 11 11 12 15 13 16 14
REMARK SMILES IDX 17 15 12 17 13 18 14 19
REMARK H PARENT
REMARK Flexibility Score: 70.00
ROOT
ATOM      1  C   UNL     1      31.280  23.352   7.626  1.00  0.00     0.136 C 
ATOM      2  O   UNL     1      31.788  23.011   8.686  1.00  0.00    -0.299 OA
ENDROOT
BRANCH   1   3
ATOM      3  C   UNL     1      30.588  24.698   7.524  1.00  0.00     0.053 C 
ATOM      4  C   UNL     1      31.488  25.809   8.084  1.00  0.00     0.016 C 
BRANCH   3   5
ATOM      5  C   UNL     1      29.233  24.658   8.263  1.00  0.00     0.015 C 
BRANCH   5   6
ATOM      6  C   UNL     1      28.668  23.227   8.369  1.00  0.00     0.028 C 
BRANCH   6   7
ATOM      7  C   UNL     1      27.708  22.930   7.247  1.00  0.00    -0.028 C 
ATOM      8  C   UNL     1      27.570  21.730   6.637  1.00  0.00    -0.070 CG0
ATOM      9  C   UNL     1      26.512  21.597   5.570  1.00  0.00     0.039 C 
ATOM     10  G   UNL     1      28.415  20.514   6.983  1.00  0.00     0.000 G0
ENDBRANCH   6   7
ENDBRANCH   5   6
ENDBRANCH   3   5
ENDBRANCH   1   3
BRANCH   1  11
ATOM     11  C   UNL     1      31.358  22.419   6.440  1.00  0.00     0.087 C 
BRANCH  11  12
ATOM     12  C   UNL     1      31.039  20.950   6.820  1.00  0.00     0.066 C 
BRANCH  12  13
ATOM     13  C   UNL     1      29.722  20.500   6.198  1.00  0.00     0.140 C 
ATOM     14  O   UNL     1      29.708  20.182   5.017  1.00  0.00    -0.299 OA
BRANCH  13  15
ATOM     15  C   UNL     1      28.425  20.507   6.975  1.00  0.00     0.106 CG0
ATOM     16  G   UNL     1      27.574  21.728   6.666  1.00  0.00     0.000 G0
ENDBRANCH  13  15
ENDBRANCH  12  13
BRANCH  12  17
ATOM     17  C   UNL     1      32.202  19.963   6.473  1.00  0.00    -0.006 C 
ATOM     18  C   UNL     1      32.467  19.878   4.960  1.00  0.00     0.008 C 
ATOM     19  C   UNL     1      33.506  20.377   7.180  1.00  0.00     0.008 C 
ENDBRANCH  12  17
ENDBRANCH  11  12
ENDBRANCH   1  11
TORSDOF 1
ENDMDL
MODEL 6
REMARK VINA RESULT:    -2.876      2.855      4.869
REMARK INTER + INTRA:          -4.552
REMARK INTER:                  -4.256
REMARK INTRA:                  -0.296
REMARK UNBOUND:                -0.163
REMARK SMILES CC1=CCC[C@@H](C)C(=O)C[C@H](C(C)C)C(=O)C1
REMARK SMILES IDX 8 1 9 2 6 3 7 4 5 5 4 6 3 7 2 8 1 9 10 11 11 12 15 13 16 14
REMARK SMILES IDX 17 15 12 17 13 18 14 19
REMARK H PARENT
REMARK Flexibility Score: 70.00
ROOT
ATOM      1  C   UNL     1      23.416  22.609   5.870  1.00  0.00     0.136 C 
ATOM      2  O   UNL     1      23.331  23.527   6.674  1.00  0.00    -0.299 OA
ENDROOT
BRANCH   1   3
ATOM      3  C   UNL     1      22.967  21.217   6.271  1.00  0.00     0.053 C 
ATOM      4  C   UNL     1      21.667  21.285   7.085  1.00  0.00     0.016 C 
BRANCH   3   5
ATOM      5  C   UNL     1      24.082  20.505   7.068  1.00  0.00     0.015 C 
BRANCH   5   6
ATOM      6  C   UNL     1      25.146  19.875   6.146  1.00  0.00     0.028 C 
BRANCH   6   7
ATOM      7  C   UNL     1      26.506  20.478   6.383  1.00  0.00    -0.028 C 
ATOM      8  C   UNL     1      27.169  21.272   5.511  1.00  0.00    -0.070 CG0
ATOM      9  C   UNL     1      28.499  21.838   5.943  1.00  0.00     0.039 C 
ATOM     10  G   UNL     1      26.635  21.630   4.133  1.00  0.00     0.000 G0
ENDBRANCH   6   7
ENDBRANCH   5   6
ENDBRANCH   3   5
ENDBRANCH   1   3
BRANCH   1  11
ATOM     11  C   UNL     1      23.966  22.887   4.490  1.00  0.00     0.087 C 
BRANCH  11  12
ATOM     12  C   UNL     1      25.205  23.818   4.523  1.00  0.00     0.066 C 
BRANCH  12  13
ATOM     13  C   UNL     1      26.429  23.117   3.946  1.00  0.00     0.140 C 
ATOM     14  O   UNL     1      27.221  23.769   3.280  1.00  0.00    -0.299 OA
BRANCH  13  15
ATOM     15  C   UNL     1      26.655  21.631   4.112  1.00  0.00     0.106 CG0
ATOM     16  G   UNL     1      27.157  21.276   5.503  1.00  0.00     0.000 G0
ENDBRANCH  13  15
ENDBRANCH  12  13
BRANCH  12  17
ATOM     17  C   UNL     1      24.953  25.196   3.826  1.00  0.00    -0.006 C 
ATOM     18  C   UNL     1      23.738  25.160   2.881  1.00  0.00     0.008 C 
ATOM     19  C   UNL     1      24.737  26.310   4.866  1.00  0.00     0.008 C 
ENDBRANCH  12  17
ENDBRANCH  11  12
ENDBRANCH   1  11
TORSDOF 1
ENDMDL
MODEL 7
REMARK VINA RESULT:    -2.684      1.890      5.250
REMARK INTER + INTRA:          -4.260
REMARK INTER:                  -5.101
REMARK INTRA:                   0.840
REMARK UNBOUND:                -0.163
REMARK SMILES CC1=CCC[C@@H](C)C(=O)C[C@H](C(C)C)C(=O)C1
REMARK SMILES IDX 8 1 9 2 6 3 7 4 5 5 4 6 3 7 2 8 1 9 10 11 11 12 15 13 16 14
REMARK SMILES IDX 17 15 12 17 13 18 14 19
REMARK H PARENT
REMARK Flexibility Score: 70.00
ROOT
ATOM      1  C   UNL     1      29.360  20.007   5.438  1.00  0.00     0.136 C 
ATOM      2  O   UNL     1      29.994  19.896   4.397  1.00  0.00    -0.299 OA
ENDROOT
BRANCH   1   3
ATOM      3  C   UNL     1      27.849  19.882   5.413  1.00  0.00     0.053 C 
ATOM      4  C   UNL     1      27.328  19.939   3.970  1.00  0.00     0.016 C 
BRANCH   3   5
ATOM      5  C   UNL     1      27.207  20.989   6.277  1.00  0.00     0.015 C 
BRANCH   5   6
ATOM      6  C   UNL     1      27.414  22.394   5.674  1.00  0.00     0.028 C 
BRANCH   6   7
ATOM      7  C   UNL     1      27.289  23.467   6.724  1.00  0.00    -0.028 C 
ATOM      8  C   UNL     1      28.067  23.573   7.826  1.00  0.00    -0.070 CG0
ATOM      9  C   UNL     1      27.839  24.750   8.741  1.00  0.00     0.039 C 
ATOM     10  G   UNL     1      29.160  22.575   8.177  1.00  0.00     0.000 G0
ENDBRANCH   6   7
ENDBRANCH   5   6
ENDBRANCH   3   5
ENDBRANCH   1   3
BRANCH   1  11
ATOM     11  C   UNL     1      30.103  20.265   6.728  1.00  0.00     0.087 C 
BRANCH  11  12
ATOM     12  C   UNL     1      31.025  21.509   6.643  1.00  0.00     0.066 C 
BRANCH  12  13
ATOM     13  C   UNL     1      30.380  22.712   7.321  1.00  0.00     0.140 C 
ATOM     14  O   UNL     1      30.902  23.810   7.191  1.00  0.00    -0.299 OA
BRANCH  13  15
ATOM     15  C   UNL     1      29.160  22.576   8.205  1.00  0.00     0.106 CG0
ATOM     16  G   UNL     1      28.064  23.561   7.830  1.00  0.00     0.000 G0
ENDBRANCH  13  15
ENDBRANCH  12  13
BRANCH  12  17
ATOM     17  C   UNL     1      32.464  21.243   7.196  1.00  0.00    -0.006 C 
ATOM     18  C   UNL     1      33.561  21.753   6.244  1.00  0.00     0.008 C 
ATOM     19  C   UNL     1      32.657  21.904   8.572  1.00  0.00     0.008 C 
ENDBRANCH  12  17
ENDBRANCH  11  12
ENDBRANCH   1  11
TORSDOF 1
ENDMDL
MODEL 8
REMARK VINA RESULT:    -2.336      2.542      5.326
REMARK INTER + INTRA:          -3.729
REMARK INTER:                  -4.766
REMARK INTRA:                   1.038
REMARK UNBOUND:                -0.163
REMARK SMILES CC1=CCC[C@@H](C)C(=O)C[C@H](C(C)C)C(=O)C1
REMARK SMILES IDX 8 1 9 2 6 3 7 4 5 5 4 6 3 7 2 8 1 9 10 11 11 12 15 13 16 14
REMARK SMILES IDX 17 15 12 17 13 18 14 19
REMARK H PARENT
REMARK Flexibility Score: 70.00
ROOT
ATOM      1  C   UNL     1      26.520  22.440   3.753  1.00  0.00     0.136 C 
ATOM      2  O   UNL     1      26.425  21.498   2.979  1.00  0.00    -0.299 OA
ENDROOT
BRANCH   1   3
ATOM      3  C   UNL     1      25.394  23.451   3.847  1.00  0.00     0.053 C 
ATOM      4  C   UNL     1      25.515  24.497   2.730  1.00  0.00     0.016 C 
BRANCH   3   5
ATOM      5  C   UNL     1      25.393  24.123   5.237  1.00  0.00     0.015 C 
BRANCH   5   6
ATOM      6  C   UNL     1      24.222  23.641   6.117  1.00  0.00     0.028 C 
BRANCH   6   7
ATOM      7  C   UNL     1      23.669  22.329   5.626  1.00  0.00    -0.028 C 
ATOM      8  C   UNL     1      24.135  21.107   5.975  1.00  0.00    -0.070 CG0
ATOM      9  C   UNL     1      23.418  19.896   5.433  1.00  0.00     0.039 C 
ATOM     10  G   UNL     1      25.330  20.899   6.893  1.00  0.00     0.000 G0
ENDBRANCH   6   7
ENDBRANCH   5   6
ENDBRANCH   3   5
ENDBRANCH   1   3
BRANCH   1  11
ATOM     11  C   UNL     1      27.763  22.572   4.603  1.00  0.00     0.087 C 
BRANCH  11  12
ATOM     12  C   UNL     1      27.523  22.148   6.075  1.00  0.00     0.066 C 
BRANCH  12  13
ATOM     13  C   UNL     1      26.650  20.901   6.146  1.00  0.00     0.140 C 
ATOM     14  O   UNL     1      27.001  19.902   5.534  1.00  0.00    -0.299 OA
BRANCH  13  15
ATOM     15  C   UNL     1      25.333  20.885   6.889  1.00  0.00     0.106 CG0
ATOM     16  G   UNL     1      24.148  21.121   5.966  1.00  0.00     0.000 G0
ENDBRANCH  13  15
ENDBRANCH  12  13
BRANCH  12  17
ATOM     17  C   UNL     1      28.850  21.966   6.883  1.00  0.00    -0.006 C 
ATOM     18  C   UNL     1      29.917  21.191   6.090  1.00  0.00     0.008 C 
ATOM     19  C   UNL     1      29.435  23.329   7.297  1.00  0.00     0.008 C 
ENDBRANCH  12  17
ENDBRANCH  11  12
ENDBRANCH   1  11
TORSDOF 1
ENDMDL
MODEL 9
REMARK VINA RESULT:    -2.245      3.452      5.696
REMARK INTER + INTRA:          -3.590
REMARK INTER:                  -4.722
REMARK INTRA:                   1.132
REMARK UNBOUND:                -0.163
REMARK SMILES CC1=CCC[C@@H](C)C(=O)C[C@H](C(C)C)C(=O)C1
REMARK SMILES IDX 8 1 9 2 6 3 7 4 5 5 4 6 3 7 2 8 1 9 10 11 11 12 15 13 16 14
REMARK SMILES IDX 17 15 12 17 13 18 14 19
REMARK H PARENT
REMARK Flexibility Score: 70.00
ROOT
ATOM      1  C   UNL     1      26.813  20.558   6.314  1.00  0.00     0.136 C 
ATOM      2  O   UNL     1      27.229  21.277   7.213  1.00  0.00    -0.299 OA
ENDROOT
BRANCH   1   3
ATOM      3  C   UNL     1      27.646  20.367   5.061  1.00  0.00     0.053 C 
ATOM      4  C   UNL     1      29.143  20.427   5.395  1.00  0.00     0.016 C 
BRANCH   3   5
ATOM      5  C   UNL     1      27.272  21.429   4.004  1.00  0.00     0.015 C 
BRANCH   5   6
ATOM      6  C   UNL     1      27.145  22.840   4.615  1.00  0.00     0.028 C 
BRANCH   6   7
ATOM      7  C   UNL     1      26.110  23.661   3.891  1.00  0.00    -0.028 C 
ATOM      8  C   UNL     1      24.850  23.890   4.331  1.00  0.00    -0.070 CG0
ATOM      9  C   UNL     1      23.966  24.789   3.504  1.00  0.00     0.039 C 
ATOM     10  G   UNL     1      24.293  23.298   5.616  1.00  0.00     0.000 G0
ENDBRANCH   6   7
ENDBRANCH   5   6
ENDBRANCH   3   5
ENDBRANCH   1   3
BRANCH   1  11
ATOM     11  C   UNL     1      25.475  19.875   6.477  1.00  0.00     0.087 C 
BRANCH  11  12
ATOM     12  C   UNL     1      24.323  20.881   6.730  1.00  0.00     0.066 C 
BRANCH  12  13
ATOM     13  C   UNL     1      24.120  21.790   5.523  1.00  0.00     0.140 C 
ATOM     14  O   UNL     1      23.875  21.281   4.439  1.00  0.00    -0.299 OA
BRANCH  13  15
ATOM     15  C   UNL     1      24.283  23.291   5.613  1.00  0.00     0.106 CG0
ATOM     16  G   UNL     1      24.851  23.887   4.334  1.00  0.00     0.000 G0
ENDBRANCH  13  15
ENDBRANCH  12  13
BRANCH  12  17
ATOM     17  C   UNL     1      22.988  20.187   7.156  1.00  0.00    -0.006 C 
ATOM     18  C   UNL     1      22.705  20.336   8.661  1.00  0.00     0.008 C 
ATOM     19  C   UNL     1      21.793  20.758   6.370  1.00  0.00     0.008 C 
ENDBRANCH  12  17
ENDBRANCH  11  12
ENDBRANCH   1  11
TORSDOF 1
ENDMDL
