MODEL 1
REMARK VINA RESULT:    -5.369      0.000      0.000
REMARK INTER + INTRA:         -15.530
REMARK INTER:                 -12.273
REMARK INTRA:                  -3.257
REMARK UNBOUND:                -3.257
REMARK SMILES CCCCCCCCCCCCCCCCCCCCCCCC(=O)[O-]
REMARK SMILES IDX 13 1 14 2 15 3 16 4 17 5 18 6 19 7 20 8 21 9 22 10 23 11
REMARK SMILES IDX 24 12 25 13 26 14 12 15 11 16 10 17 9 18 8 19 7 20 6 21 5 22
REMARK SMILES IDX 4 23 3 24 2 25 1 26
REMARK H PARENT
REMARK Flexibility Score: inf
ROOT
ATOM      1  C   UNL     1       0.374  44.739   9.994  1.00  0.00     0.000 C 
ENDROOT
BRANCH   1   2
ATOM      2  C   UNL     1       1.246  44.516   8.748  1.00  0.00     0.000 C 
BRANCH   2   3
ATOM      3  C   UNL     1       2.097  43.233   8.781  1.00  0.00     0.000 C 
BRANCH   3   4
ATOM      4  C   UNL     1       3.584  43.489   9.104  1.00  0.00     0.000 C 
BRANCH   4   5
ATOM      5  C   UNL     1       3.865  44.966   9.435  1.00  0.00     0.000 C 
BRANCH   5   6
ATOM      6  C   UNL     1       4.374  45.157  10.872  1.00  0.00     0.000 C 
BRANCH   6   7
ATOM      7  C   UNL     1       4.143  43.919  11.758  1.00  0.00     0.000 C 
BRANCH   7   8
ATOM      8  C   UNL     1       2.757  43.942  12.440  1.00  0.00     0.000 C 
BRANCH   8   9
ATOM      9  C   UNL     1       1.989  42.609  12.327  1.00  0.00     0.000 C 
BRANCH   9  10
ATOM     10  C   UNL     1       2.867  41.382  12.020  1.00  0.00     0.006 C 
BRANCH  10  11
ATOM     11  C   UNL     1       2.370  40.106  12.714  1.00  0.00     0.053 C 
BRANCH  11  12
ATOM     12  C   UNL     1       3.421  39.041  12.674  1.00  0.00     0.041 C 
ATOM     13  O   UNL     1       4.590  39.290  13.072  1.00  0.00    -0.550 OA
ATOM     14  O   UNL     1       3.106  37.768  12.210  1.00  0.00    -0.550 OA
ENDBRANCH  11  12
ENDBRANCH  10  11
ENDBRANCH   9  10
ENDBRANCH   8   9
ENDBRANCH   7   8
ENDBRANCH   6   7
ENDBRANCH   5   6
ENDBRANCH   4   5
ENDBRANCH   3   4
ENDBRANCH   2   3
ENDBRANCH   1   2
BRANCH   1  15
ATOM     15  C   UNL     1      -0.098  46.199  10.130  1.00  0.00     0.000 C 
BRANCH  15  16
ATOM     16  C   UNL     1       1.012  47.203   9.773  1.00  0.00     0.000 C 
BRANCH  16  17
ATOM     17  C   UNL     1       0.691  48.044   8.516  1.00  0.00     0.000 C 
BRANCH  17  18
ATOM     18  C   UNL     1       1.865  48.136   7.525  1.00  0.00    -0.000 C 
BRANCH  18  19
ATOM     19  C   UNL     1       2.965  49.101   8.003  1.00  0.00    -0.000 C 
BRANCH  19  20
ATOM     20  C   UNL     1       2.406  50.300   8.799  1.00  0.00    -0.000 C 
BRANCH  20  21
ATOM     21  C   UNL     1       2.929  50.391  10.246  1.00  0.00    -0.000 C 
BRANCH  21  22
ATOM     22  C   UNL     1       4.154  49.510  10.561  1.00  0.00    -0.000 C 
BRANCH  22  23
ATOM     23  C   UNL     1       5.519  50.212  10.432  1.00  0.00    -0.000 C 
BRANCH  23  24
ATOM     24  C   UNL     1       6.335  49.716   9.224  1.00  0.00    -0.000 C 
BRANCH  24  25
ATOM     25  C   UNL     1       6.263  48.189   9.055  1.00  0.00    -0.003 C 
ATOM     26  C   UNL     1       7.542  47.480   9.501  1.00  0.00     0.004 C 
ENDBRANCH  24  25
ENDBRANCH  23  24
ENDBRANCH  22  23
ENDBRANCH  21  22
ENDBRANCH  20  21
ENDBRANCH  19  20
ENDBRANCH  18  19
ENDBRANCH  17  18
ENDBRANCH  16  17
ENDBRANCH  15  16
ENDBRANCH   1  15
TORSDOF 22
ENDMDL
MODEL 2
REMARK VINA RESULT:    -5.277      1.076      4.420
REMARK INTER + INTRA:         -15.320
REMARK INTER:                 -11.916
REMARK INTRA:                  -3.404
REMARK UNBOUND:                -3.257
REMARK SMILES CCCCCCCCCCCCCCCCCCCCCCCC(=O)[O-]
REMARK SMILES IDX 13 1 14 2 15 3 16 4 17 5 18 6 19 7 20 8 21 9 22 10 23 11
REMARK SMILES IDX 24 12 25 13 26 14 12 15 11 16 10 17 9 18 8 19 7 20 6 21 5 22
REMARK SMILES IDX 4 23 3 24 2 25 1 26
REMARK H PARENT
REMARK Flexibility Score: inf
ROOT
ATOM      1  C   UNL     1       6.590  48.809   9.730  1.00  0.00     0.000 C 
ENDROOT
BRANCH   1   2
ATOM      2  C   UNL     1       5.997  47.481   9.229  1.00  0.00     0.000 C 
BRANCH   2   3
ATOM      3  C   UNL     1       4.620  47.129   9.823  1.00  0.00     0.000 C 
BRANCH   3   4
ATOM      4  C   UNL     1       3.951  45.915   9.142  1.00  0.00     0.000 C 
BRANCH   4   5
ATOM      5  C   UNL     1       4.130  44.618   9.951  1.00  0.00     0.000 C 
BRANCH   5   6
ATOM      6  C   UNL     1       4.574  44.886  11.397  1.00  0.00     0.000 C 
BRANCH   6   7
ATOM      7  C   UNL     1       3.793  44.049  12.427  1.00  0.00     0.000 C 
BRANCH   7   8
ATOM      8  C   UNL     1       2.296  43.929  12.065  1.00  0.00     0.000 C 
BRANCH   8   9
ATOM      9  C   UNL     1       1.762  42.483  12.113  1.00  0.00     0.000 C 
BRANCH   9  10
ATOM     10  C   UNL     1       2.711  41.424  11.525  1.00  0.00     0.006 C 
BRANCH  10  11
ATOM     11  C   UNL     1       2.879  40.201  12.438  1.00  0.00     0.053 C 
BRANCH  11  12
ATOM     12  C   UNL     1       4.306  40.057  12.867  1.00  0.00     0.041 C 
ATOM     13  O   UNL     1       5.134  40.979  12.635  1.00  0.00    -0.550 OA
ATOM     14  O   UNL     1       4.720  38.910  13.537  1.00  0.00    -0.550 OA
ENDBRANCH  11  12
ENDBRANCH  10  11
ENDBRANCH   9  10
ENDBRANCH   8   9
ENDBRANCH   7   8
ENDBRANCH   6   7
ENDBRANCH   5   6
ENDBRANCH   4   5
ENDBRANCH   3   4
ENDBRANCH   2   3
ENDBRANCH   1   2
BRANCH   1  15
ATOM     15  C   UNL     1       6.709  49.860   8.611  1.00  0.00     0.000 C 
BRANCH  15  16
ATOM     16  C   UNL     1       5.841  51.101   8.886  1.00  0.00     0.000 C 
BRANCH  16  17
ATOM     17  C   UNL     1       4.764  50.863   9.969  1.00  0.00     0.000 C 
BRANCH  17  18
ATOM     18  C   UNL     1       3.340  50.741   9.400  1.00  0.00    -0.000 C 
BRANCH  18  19
ATOM     19  C   UNL     1       3.332  50.394   7.900  1.00  0.00    -0.000 C 
BRANCH  19  20
ATOM     20  C   UNL     1       2.161  49.468   7.505  1.00  0.00    -0.000 C 
BRANCH  20  21
ATOM     21  C   UNL     1       1.480  48.773   8.701  1.00  0.00    -0.000 C 
BRANCH  21  22
ATOM     22  C   UNL     1       0.767  47.447   8.374  1.00  0.00    -0.000 C 
BRANCH  22  23
ATOM     23  C   UNL     1      -0.079  46.857   9.519  1.00  0.00    -0.000 C 
BRANCH  23  24
ATOM     24  C   UNL     1       0.097  45.335   9.670  1.00  0.00    -0.000 C 
BRANCH  24  25
ATOM     25  C   UNL     1       0.389  44.643   8.328  1.00  0.00    -0.003 C 
ATOM     26  C   UNL     1       1.250  43.388   8.481  1.00  0.00     0.004 C 
ENDBRANCH  24  25
ENDBRANCH  23  24
ENDBRANCH  22  23
ENDBRANCH  21  22
ENDBRANCH  20  21
ENDBRANCH  19  20
ENDBRANCH  18  19
ENDBRANCH  17  18
ENDBRANCH  16  17
ENDBRANCH  15  16
ENDBRANCH   1  15
TORSDOF 22
ENDMDL
MODEL 3
REMARK VINA RESULT:    -5.265      2.798      7.497
REMARK INTER + INTRA:         -15.293
REMARK INTER:                 -12.269
REMARK INTRA:                  -3.024
REMARK UNBOUND:                -3.257
REMARK SMILES CCCCCCCCCCCCCCCCCCCCCCCC(=O)[O-]
REMARK SMILES IDX 13 1 14 2 15 3 16 4 17 5 18 6 19 7 20 8 21 9 22 10 23 11
REMARK SMILES IDX 24 12 25 13 26 14 12 15 11 16 10 17 9 18 8 19 7 20 6 21 5 22
REMARK SMILES IDX 4 23 3 24 2 25 1 26
REMARK H PARENT
REMARK Flexibility Score: inf
ROOT
ATOM      1  C   UNL     1       0.863  44.161   8.857  1.00  0.00     0.000 C 
ENDROOT
BRANCH   1   2
ATOM      2  C   UNL     1       0.195  44.552   7.528  1.00  0.00     0.000 C 
BRANCH   2   3
ATOM      3  C   UNL     1       0.053  46.069   7.303  1.00  0.00     0.000 C 
BRANCH   3   4
ATOM      4  C   UNL     1       0.855  46.917   8.313  1.00  0.00     0.000 C 
BRANCH   4   5
ATOM      5  C   UNL     1       2.015  47.679   7.646  1.00  0.00     0.000 C 
BRANCH   5   6
ATOM      6  C   UNL     1       2.615  48.754   8.564  1.00  0.00     0.000 C 
BRANCH   6   7
ATOM      7  C   UNL     1       2.539  48.376  10.055  1.00  0.00     0.000 C 
BRANCH   7   8
ATOM      8  C   UNL     1       3.520  49.204  10.916  1.00  0.00     0.000 C 
BRANCH   8   9
ATOM      9  C   UNL     1       4.319  50.249  10.110  1.00  0.00     0.000 C 
BRANCH   9  10
ATOM     10  C   UNL     1       5.847  50.072  10.157  1.00  0.00     0.006 C 
BRANCH  10  11
ATOM     11  C   UNL     1       6.405  49.382   8.905  1.00  0.00     0.053 C 
BRANCH  11  12
ATOM     12  C   UNL     1       6.634  47.925   9.163  1.00  0.00     0.041 C 
ATOM     13  O   UNL     1       7.751  47.526   9.588  1.00  0.00    -0.550 OA
ATOM     14  O   UNL     1       5.609  47.010   8.950  1.00  0.00    -0.550 OA
ENDBRANCH  11  12
ENDBRANCH  10  11
ENDBRANCH   9  10
ENDBRANCH   8   9
ENDBRANCH   7   8
ENDBRANCH   6   7
ENDBRANCH   5   6
ENDBRANCH   4   5
ENDBRANCH   3   4
ENDBRANCH   2   3
ENDBRANCH   1   2
BRANCH   1  15
ATOM     15  C   UNL     1       1.931  43.065   8.680  1.00  0.00     0.000 C 
BRANCH  15  16
ATOM     16  C   UNL     1       3.322  43.530   9.143  1.00  0.00     0.000 C 
BRANCH  16  17
ATOM     17  C   UNL     1       3.277  44.797  10.029  1.00  0.00     0.000 C 
BRANCH  17  18
ATOM     18  C   UNL     1       4.177  44.706  11.273  1.00  0.00    -0.000 C 
BRANCH  18  19
ATOM     19  C   UNL     1       3.681  43.657  12.285  1.00  0.00    -0.000 C 
BRANCH  19  20
ATOM     20  C   UNL     1       2.154  43.717  12.509  1.00  0.00    -0.000 C 
BRANCH  20  21
ATOM     21  C   UNL     1       1.414  42.415  12.143  1.00  0.00    -0.000 C 
BRANCH  21  22
ATOM     22  C   UNL     1       1.026  41.519  13.336  1.00  0.00    -0.000 C 
BRANCH  22  23
ATOM     23  C   UNL     1       1.602  40.091  13.299  1.00  0.00    -0.000 C 
BRANCH  23  24
ATOM     24  C   UNL     1       2.803  39.953  12.346  1.00  0.00    -0.000 C 
BRANCH  24  25
ATOM     25  C   UNL     1       3.962  39.163  12.976  1.00  0.00    -0.003 C 
ATOM     26  C   UNL     1       5.150  40.049  13.355  1.00  0.00     0.004 C 
ENDBRANCH  24  25
ENDBRANCH  23  24
ENDBRANCH  22  23
ENDBRANCH  21  22
ENDBRANCH  20  21
ENDBRANCH  19  20
ENDBRANCH  18  19
ENDBRANCH  17  18
ENDBRANCH  16  17
ENDBRANCH  15  16
ENDBRANCH   1  15
TORSDOF 22
ENDMDL
MODEL 4
REMARK VINA RESULT:    -5.196      1.198      4.012
REMARK INTER + INTRA:         -15.134
REMARK INTER:                 -12.218
REMARK INTRA:                  -2.916
REMARK UNBOUND:                -3.257
REMARK SMILES CCCCCCCCCCCCCCCCCCCCCCCC(=O)[O-]
REMARK SMILES IDX 13 1 14 2 15 3 16 4 17 5 18 6 19 7 20 8 21 9 22 10 23 11
REMARK SMILES IDX 24 12 25 13 26 14 12 15 11 16 10 17 9 18 8 19 7 20 6 21 5 22
REMARK SMILES IDX 4 23 3 24 2 25 1 26
REMARK H PARENT
REMARK Flexibility Score: inf
ROOT
ATOM      1  C   UNL     1       4.619  47.241  10.461  1.00  0.00     0.000 C 
ENDROOT
BRANCH   1   2
ATOM      2  C   UNL     1       3.983  45.907  10.886  1.00  0.00     0.000 C 
BRANCH   2   3
ATOM      3  C   UNL     1       4.606  44.661  10.230  1.00  0.00     0.000 C 
BRANCH   3   4
ATOM      4  C   UNL     1       3.727  44.047   9.120  1.00  0.00     0.000 C 
BRANCH   4   5
ATOM      5  C   UNL     1       2.776  42.962   9.659  1.00  0.00     0.000 C 
BRANCH   5   6
ATOM      6  C   UNL     1       1.348  43.487   9.870  1.00  0.00     0.000 C 
BRANCH   6   7
ATOM      7  C   UNL     1       1.091  43.957  11.314  1.00  0.00     0.000 C 
BRANCH   7   8
ATOM      8  C   UNL     1       1.770  43.037  12.354  1.00  0.00     0.000 C 
BRANCH   8   9
ATOM      9  C   UNL     1       0.845  41.927  12.894  1.00  0.00     0.000 C 
BRANCH   9  10
ATOM     10  C   UNL     1       1.538  40.577  13.152  1.00  0.00     0.006 C 
BRANCH  10  11
ATOM     11  C   UNL     1       2.875  40.442  12.409  1.00  0.00     0.053 C 
BRANCH  11  12
ATOM     12  C   UNL     1       3.557  39.162  12.780  1.00  0.00     0.041 C 
ATOM     13  O   UNL     1       3.049  38.057  12.451  1.00  0.00    -0.550 OA
ATOM     14  O   UNL     1       4.762  39.190  13.475  1.00  0.00    -0.550 OA
ENDBRANCH  11  12
ENDBRANCH  10  11
ENDBRANCH   9  10
ENDBRANCH   8   9
ENDBRANCH   7   8
ENDBRANCH   6   7
ENDBRANCH   5   6
ENDBRANCH   4   5
ENDBRANCH   3   4
ENDBRANCH   2   3
ENDBRANCH   1   2
BRANCH   1  15
ATOM     15  C   UNL     1       5.571  47.084   9.260  1.00  0.00     0.000 C 
BRANCH  15  16
ATOM     16  C   UNL     1       6.759  48.059   9.331  1.00  0.00     0.000 C 
BRANCH  16  17
ATOM     17  C   UNL     1       6.392  49.499   8.906  1.00  0.00     0.000 C 
BRANCH  17  18
ATOM     18  C   UNL     1       5.582  50.264   9.968  1.00  0.00    -0.000 C 
BRANCH  18  19
ATOM     19  C   UNL     1       4.242  50.790   9.421  1.00  0.00    -0.000 C 
BRANCH  19  20
ATOM     20  C   UNL     1       4.091  50.578   7.899  1.00  0.00    -0.000 C 
BRANCH  20  21
ATOM     21  C   UNL     1       3.218  49.367   7.518  1.00  0.00    -0.000 C 
BRANCH  21  22
ATOM     22  C   UNL     1       1.764  49.415   8.027  1.00  0.00    -0.000 C 
BRANCH  22  23
ATOM     23  C   UNL     1       1.423  48.401   9.135  1.00  0.00    -0.000 C 
BRANCH  23  24
ATOM     24  C   UNL     1       1.278  46.962   8.607  1.00  0.00    -0.000 C 
BRANCH  24  25
ATOM     25  C   UNL     1       0.205  46.847   7.510  1.00  0.00    -0.003 C 
ATOM     26  C   UNL     1      -0.152  45.398   7.178  1.00  0.00     0.004 C 
ENDBRANCH  24  25
ENDBRANCH  23  24
ENDBRANCH  22  23
ENDBRANCH  21  22
ENDBRANCH  20  21
ENDBRANCH  19  20
ENDBRANCH  18  19
ENDBRANCH  17  18
ENDBRANCH  16  17
ENDBRANCH  15  16
ENDBRANCH   1  15
TORSDOF 22
ENDMDL
MODEL 5
REMARK VINA RESULT:    -5.137      1.193      4.688
REMARK INTER + INTRA:         -15.000
REMARK INTER:                 -11.224
REMARK INTRA:                  -3.776
REMARK UNBOUND:                -3.257
REMARK SMILES CCCCCCCCCCCCCCCCCCCCCCCC(=O)[O-]
REMARK SMILES IDX 13 1 14 2 15 3 16 4 17 5 18 6 19 7 20 8 21 9 22 10 23 11
REMARK SMILES IDX 24 12 25 13 26 14 12 15 11 16 10 17 9 18 8 19 7 20 6 21 5 22
REMARK SMILES IDX 4 23 3 24 2 25 1 26
REMARK H PARENT
REMARK Flexibility Score: inf
ROOT
ATOM      1  C   UNL     1       6.677  49.691   9.968  1.00  0.00     0.000 C 
ENDROOT
BRANCH   1   2
ATOM      2  C   UNL     1       6.585  48.489   9.015  1.00  0.00     0.000 C 
BRANCH   2   3
ATOM      3  C   UNL     1       5.911  47.242   9.617  1.00  0.00     0.000 C 
BRANCH   3   4
ATOM      4  C   UNL     1       4.818  46.637   8.711  1.00  0.00     0.000 C 
BRANCH   4   5
ATOM      5  C   UNL     1       3.946  45.607   9.453  1.00  0.00     0.000 C 
BRANCH   5   6
ATOM      6  C   UNL     1       4.357  45.444  10.924  1.00  0.00     0.000 C 
BRANCH   6   7
ATOM      7  C   UNL     1       3.792  44.162  11.563  1.00  0.00     0.000 C 
BRANCH   7   8
ATOM      8  C   UNL     1       3.545  43.050  10.519  1.00  0.00     0.000 C 
BRANCH   8   9
ATOM      9  C   UNL     1       2.429  42.063  10.918  1.00  0.00     0.000 C 
BRANCH   9  10
ATOM     10  C   UNL     1       2.446  41.632  12.396  1.00  0.00     0.006 C 
BRANCH  10  11
ATOM     11  C   UNL     1       2.678  40.125  12.574  1.00  0.00     0.053 C 
BRANCH  11  12
ATOM     12  C   UNL     1       4.133  39.835  12.770  1.00  0.00     0.041 C 
ATOM     13  O   UNL     1       4.548  38.645  12.766  1.00  0.00    -0.550 OA
ATOM     14  O   UNL     1       5.035  40.880  12.942  1.00  0.00    -0.550 OA
ENDBRANCH  11  12
ENDBRANCH  10  11
ENDBRANCH   9  10
ENDBRANCH   8   9
ENDBRANCH   7   8
ENDBRANCH   6   7
ENDBRANCH   5   6
ENDBRANCH   4   5
ENDBRANCH   3   4
ENDBRANCH   2   3
ENDBRANCH   1   2
BRANCH   1  15
ATOM     15  C   UNL     1       5.729  50.837   9.565  1.00  0.00     0.000 C 
BRANCH  15  16
ATOM     16  C   UNL     1       4.955  50.522   8.273  1.00  0.00     0.000 C 
BRANCH  16  17
ATOM     17  C   UNL     1       3.422  50.499   8.471  1.00  0.00     0.000 C 
BRANCH  17  18
ATOM     18  C   UNL     1       2.987  49.874   9.808  1.00  0.00    -0.000 C 
BRANCH  18  19
ATOM     19  C   UNL     1       1.940  48.759   9.625  1.00  0.00    -0.000 C 
BRANCH  19  20
ATOM     20  C   UNL     1       1.751  48.352   8.147  1.00  0.00    -0.000 C 
BRANCH  20  21
ATOM     21  C   UNL     1       0.285  48.378   7.672  1.00  0.00    -0.000 C 
BRANCH  21  22
ATOM     22  C   UNL     1      -0.531  47.107   7.982  1.00  0.00    -0.000 C 
BRANCH  22  23
ATOM     23  C   UNL     1       0.176  45.777   7.660  1.00  0.00    -0.000 C 
BRANCH  23  24
ATOM     24  C   UNL     1       0.467  44.934   8.914  1.00  0.00    -0.000 C 
BRANCH  24  25
ATOM     25  C   UNL     1       0.062  45.655  10.211  1.00  0.00    -0.003 C 
ATOM     26  C   UNL     1       0.019  44.722  11.422  1.00  0.00     0.004 C 
ENDBRANCH  24  25
ENDBRANCH  23  24
ENDBRANCH  22  23
ENDBRANCH  21  22
ENDBRANCH  20  21
ENDBRANCH  19  20
ENDBRANCH  18  19
ENDBRANCH  17  18
ENDBRANCH  16  17
ENDBRANCH  15  16
ENDBRANCH   1  15
TORSDOF 22
ENDMDL
MODEL 6
REMARK VINA RESULT:    -5.078      1.026      2.701
REMARK INTER + INTRA:         -14.866
REMARK INTER:                 -12.044
REMARK INTRA:                  -2.822
REMARK UNBOUND:                -3.257
REMARK SMILES CCCCCCCCCCCCCCCCCCCCCCCC(=O)[O-]
REMARK SMILES IDX 13 1 14 2 15 3 16 4 17 5 18 6 19 7 20 8 21 9 22 10 23 11
REMARK SMILES IDX 24 12 25 13 26 14 12 15 11 16 10 17 9 18 8 19 7 20 6 21 5 22
REMARK SMILES IDX 4 23 3 24 2 25 1 26
REMARK H PARENT
REMARK Flexibility Score: inf
ROOT
ATOM      1  C   UNL     1       0.418  47.727   9.290  1.00  0.00     0.000 C 
ENDROOT
BRANCH   1   2
ATOM      2  C   UNL     1      -0.690  46.672   9.133  1.00  0.00     0.000 C 
BRANCH   2   3
ATOM      3  C   UNL     1      -0.806  46.068   7.722  1.00  0.00     0.000 C 
BRANCH   3   4
ATOM      4  C   UNL     1       0.002  44.765   7.543  1.00  0.00     0.000 C 
BRANCH   4   5
ATOM      5  C   UNL     1       0.653  44.295   8.857  1.00  0.00     0.000 C 
BRANCH   5   6
ATOM      6  C   UNL     1       1.853  43.366   8.616  1.00  0.00     0.000 C 
BRANCH   6   7
ATOM      7  C   UNL     1       2.617  43.028   9.909  1.00  0.00     0.000 C 
BRANCH   7   8
ATOM      8  C   UNL     1       1.829  43.438  11.174  1.00  0.00     0.000 C 
BRANCH   8   9
ATOM      9  C   UNL     1       1.805  42.350  12.268  1.00  0.00     0.000 C 
BRANCH   9  10
ATOM     10  C   UNL     1       2.785  41.184  12.041  1.00  0.00     0.006 C 
BRANCH  10  11
ATOM     11  C   UNL     1       2.344  39.892  12.741  1.00  0.00     0.053 C 
BRANCH  11  12
ATOM     12  C   UNL     1       3.404  38.841  12.625  1.00  0.00     0.041 C 
ATOM     13  O   UNL     1       4.572  39.072  13.038  1.00  0.00    -0.550 OA
ATOM     14  O   UNL     1       3.099  37.601  12.073  1.00  0.00    -0.550 OA
ENDBRANCH  11  12
ENDBRANCH  10  11
ENDBRANCH   9  10
ENDBRANCH   8   9
ENDBRANCH   7   8
ENDBRANCH   6   7
ENDBRANCH   5   6
ENDBRANCH   4   5
ENDBRANCH   3   4
ENDBRANCH   2   3
ENDBRANCH   1   2
BRANCH   1  15
ATOM     15  C   UNL     1       0.762  48.422   7.959  1.00  0.00     0.000 C 
BRANCH  15  16
ATOM     16  C   UNL     1       2.249  48.274   7.595  1.00  0.00     0.000 C 
BRANCH  16  17
ATOM     17  C   UNL     1       2.971  49.630   7.418  1.00  0.00     0.000 C 
BRANCH  17  18
ATOM     18  C   UNL     1       2.759  50.596   8.597  1.00  0.00    -0.000 C 
BRANCH  18  19
ATOM     19  C   UNL     1       3.282  50.025   9.928  1.00  0.00    -0.000 C 
BRANCH  19  20
ATOM     20  C   UNL     1       4.728  50.466  10.241  1.00  0.00    -0.000 C 
BRANCH  20  21
ATOM     21  C   UNL     1       5.606  50.671   8.991  1.00  0.00    -0.000 C 
BRANCH  21  22
ATOM     22  C   UNL     1       6.548  49.501   8.646  1.00  0.00    -0.000 C 
BRANCH  22  23
ATOM     23  C   UNL     1       6.416  48.263   9.553  1.00  0.00    -0.000 C 
BRANCH  23  24
ATOM     24  C   UNL     1       5.501  47.178   8.957  1.00  0.00    -0.000 C 
BRANCH  24  25
ATOM     25  C   UNL     1       4.995  46.189  10.021  1.00  0.00    -0.003 C 
ATOM     26  C   UNL     1       3.577  46.502  10.499  1.00  0.00     0.004 C 
ENDBRANCH  24  25
ENDBRANCH  23  24
ENDBRANCH  22  23
ENDBRANCH  21  22
ENDBRANCH  20  21
ENDBRANCH  19  20
ENDBRANCH  18  19
ENDBRANCH  17  18
ENDBRANCH  16  17
ENDBRANCH  15  16
ENDBRANCH   1  15
TORSDOF 22
ENDMDL
MODEL 7
REMARK VINA RESULT:    -5.001      0.988      3.377
REMARK INTER + INTRA:         -14.689
REMARK INTER:                 -11.068
REMARK INTRA:                  -3.621
REMARK UNBOUND:                -3.257
REMARK SMILES CCCCCCCCCCCCCCCCCCCCCCCC(=O)[O-]
REMARK SMILES IDX 13 1 14 2 15 3 16 4 17 5 18 6 19 7 20 8 21 9 22 10 23 11
REMARK SMILES IDX 24 12 25 13 26 14 12 15 11 16 10 17 9 18 8 19 7 20 6 21 5 22
REMARK SMILES IDX 4 23 3 24 2 25 1 26
REMARK H PARENT
REMARK Flexibility Score: inf
ROOT
ATOM      1  C   UNL     1       4.006  44.607   9.010  1.00  0.00     0.000 C 
ENDROOT
BRANCH   1   2
ATOM      2  C   UNL     1       3.426  43.184   9.033  1.00  0.00     0.000 C 
BRANCH   2   3
ATOM      3  C   UNL     1       1.888  43.117   8.984  1.00  0.00     0.000 C 
BRANCH   3   4
ATOM      4  C   UNL     1       1.227  44.460   8.605  1.00  0.00     0.000 C 
BRANCH   4   5
ATOM      5  C   UNL     1       0.296  44.987   9.712  1.00  0.00     0.000 C 
BRANCH   5   6
ATOM      6  C   UNL     1       0.905  44.828  11.114  1.00  0.00     0.000 C 
BRANCH   6   7
ATOM      7  C   UNL     1       0.192  43.756  11.957  1.00  0.00     0.000 C 
BRANCH   7   8
ATOM      8  C   UNL     1       1.170  42.676  12.474  1.00  0.00     0.000 C 
BRANCH   8   9
ATOM      9  C   UNL     1       2.641  43.141  12.509  1.00  0.00     0.000 C 
BRANCH   9  10
ATOM     10  C   UNL     1       3.678  42.011  12.375  1.00  0.00     0.006 C 
BRANCH  10  11
ATOM     11  C   UNL     1       3.047  40.665  11.995  1.00  0.00     0.053 C 
BRANCH  11  12
ATOM     12  C   UNL     1       3.711  39.544  12.734  1.00  0.00     0.041 C 
ATOM     13  O   UNL     1       4.785  39.749  13.361  1.00  0.00    -0.550 OA
ATOM     14  O   UNL     1       3.135  38.278  12.742  1.00  0.00    -0.550 OA
ENDBRANCH  11  12
ENDBRANCH  10  11
ENDBRANCH   9  10
ENDBRANCH   8   9
ENDBRANCH   7   8
ENDBRANCH   6   7
ENDBRANCH   5   6
ENDBRANCH   4   5
ENDBRANCH   3   4
ENDBRANCH   2   3
ENDBRANCH   1   2
BRANCH   1  15
ATOM     15  C   UNL     1       4.439  45.090  10.407  1.00  0.00     0.000 C 
BRANCH  15  16
ATOM     16  C   UNL     1       4.774  46.592  10.423  1.00  0.00     0.000 C 
BRANCH  16  17
ATOM     17  C   UNL     1       5.183  47.140   9.037  1.00  0.00     0.000 C 
BRANCH  17  18
ATOM     18  C   UNL     1       6.616  47.700   8.998  1.00  0.00    -0.000 C 
BRANCH  18  19
ATOM     19  C   UNL     1       6.646  49.234   8.874  1.00  0.00    -0.000 C 
BRANCH  19  20
ATOM     20  C   UNL     1       5.855  49.942   9.996  1.00  0.00    -0.000 C 
BRANCH  20  21
ATOM     21  C   UNL     1       4.891  51.032   9.491  1.00  0.00    -0.000 C 
BRANCH  21  22
ATOM     22  C   UNL     1       3.473  50.544   9.133  1.00  0.00    -0.000 C 
BRANCH  22  23
ATOM     23  C   UNL     1       2.765  49.723  10.228  1.00  0.00    -0.000 C 
BRANCH  23  24
ATOM     24  C   UNL     1       1.873  48.606   9.656  1.00  0.00    -0.000 C 
BRANCH  24  25
ATOM     25  C   UNL     1       1.905  48.561   8.119  1.00  0.00    -0.003 C 
ATOM     26  C   UNL     1       0.673  47.882   7.518  1.00  0.00     0.004 C 
ENDBRANCH  24  25
ENDBRANCH  23  24
ENDBRANCH  22  23
ENDBRANCH  21  22
ENDBRANCH  20  21
ENDBRANCH  19  20
ENDBRANCH  18  19
ENDBRANCH  17  18
ENDBRANCH  16  17
ENDBRANCH  15  16
ENDBRANCH   1  15
TORSDOF 22
ENDMDL
MODEL 8
REMARK VINA RESULT:    -4.930      3.143      7.743
REMARK INTER + INTRA:         -14.528
REMARK INTER:                 -11.853
REMARK INTRA:                  -2.675
REMARK UNBOUND:                -3.257
REMARK SMILES CCCCCCCCCCCCCCCCCCCCCCCC(=O)[O-]
REMARK SMILES IDX 13 1 14 2 15 3 16 4 17 5 18 6 19 7 20 8 21 9 22 10 23 11
REMARK SMILES IDX 24 12 25 13 26 14 12 15 11 16 10 17 9 18 8 19 7 20 6 21 5 22
REMARK SMILES IDX 4 23 3 24 2 25 1 26
REMARK H PARENT
REMARK Flexibility Score: inf
ROOT
ATOM      1  C   UNL     1       4.531  46.954  10.484  1.00  0.00     0.000 C 
ENDROOT
BRANCH   1   2
ATOM      2  C   UNL     1       5.151  46.849   9.081  1.00  0.00     0.000 C 
BRANCH   2   3
ATOM      3  C   UNL     1       5.622  48.189   8.486  1.00  0.00     0.000 C 
BRANCH   3   4
ATOM      4  C   UNL     1       6.469  49.032   9.465  1.00  0.00     0.000 C 
BRANCH   4   5
ATOM      5  C   UNL     1       6.357  50.542   9.186  1.00  0.00     0.000 C 
BRANCH   5   6
ATOM      6  C   UNL     1       4.963  50.941   8.678  1.00  0.00     0.000 C 
BRANCH   6   7
ATOM      7  C   UNL     1       3.898  50.939   9.790  1.00  0.00     0.000 C 
BRANCH   7   8
ATOM      8  C   UNL     1       2.476  50.702   9.234  1.00  0.00     0.000 C 
BRANCH   8   9
ATOM      9  C   UNL     1       2.038  49.223   9.264  1.00  0.00     0.000 C 
BRANCH   9  10
ATOM     10  C   UNL     1       1.761  48.602   7.883  1.00  0.00     0.006 C 
BRANCH  10  11
ATOM     11  C   UNL     1       1.612  47.076   7.936  1.00  0.00     0.053 C 
BRANCH  11  12
ATOM     12  C   UNL     1       0.267  46.660   7.426  1.00  0.00     0.041 C 
ATOM     13  O   UNL     1      -0.652  47.514   7.295  1.00  0.00    -0.550 OA
ATOM     14  O   UNL     1       0.031  45.334   7.081  1.00  0.00    -0.550 OA
ENDBRANCH  11  12
ENDBRANCH  10  11
ENDBRANCH   9  10
ENDBRANCH   8   9
ENDBRANCH   7   8
ENDBRANCH   6   7
ENDBRANCH   5   6
ENDBRANCH   4   5
ENDBRANCH   3   4
ENDBRANCH   2   3
ENDBRANCH   1   2
BRANCH   1  15
ATOM     15  C   UNL     1       3.785  45.671  10.896  1.00  0.00     0.000 C 
BRANCH  15  16
ATOM     16  C   UNL     1       4.488  44.401  10.385  1.00  0.00     0.000 C 
BRANCH  16  17
ATOM     17  C   UNL     1       3.725  43.703   9.236  1.00  0.00     0.000 C 
BRANCH  17  18
ATOM     18  C   UNL     1       2.450  42.977   9.700  1.00  0.00    -0.000 C 
BRANCH  18  19
ATOM     19  C   UNL     1       1.308  43.951  10.042  1.00  0.00    -0.000 C 
BRANCH  19  20
ATOM     20  C   UNL     1       0.785  43.779  11.485  1.00  0.00    -0.000 C 
BRANCH  20  21
ATOM     21  C   UNL     1       1.639  42.835  12.353  1.00  0.00    -0.000 C 
BRANCH  21  22
ATOM     22  C   UNL     1       0.853  41.752  13.118  1.00  0.00    -0.000 C 
BRANCH  22  23
ATOM     23  C   UNL     1       1.503  40.355  13.132  1.00  0.00    -0.000 C 
BRANCH  23  24
ATOM     24  C   UNL     1       2.820  40.299  12.338  1.00  0.00    -0.000 C 
BRANCH  24  25
ATOM     25  C   UNL     1       3.712  39.121  12.764  1.00  0.00    -0.003 C 
ATOM     26  C   UNL     1       4.998  39.569  13.459  1.00  0.00     0.004 C 
ENDBRANCH  24  25
ENDBRANCH  23  24
ENDBRANCH  22  23
ENDBRANCH  21  22
ENDBRANCH  20  21
ENDBRANCH  19  20
ENDBRANCH  18  19
ENDBRANCH  17  18
ENDBRANCH  16  17
ENDBRANCH  15  16
ENDBRANCH   1  15
TORSDOF 22
ENDMDL
MODEL 9
REMARK VINA RESULT:    -4.928      2.728      7.838
REMARK INTER + INTRA:         -14.523
REMARK INTER:                 -12.271
REMARK INTRA:                  -2.252
REMARK UNBOUND:                -3.257
REMARK SMILES CCCCCCCCCCCCCCCCCCCCCCCC(=O)[O-]
REMARK SMILES IDX 13 1 14 2 15 3 16 4 17 5 18 6 19 7 20 8 21 9 22 10 23 11
REMARK SMILES IDX 24 12 25 13 26 14 12 15 11 16 10 17 9 18 8 19 7 20 6 21 5 22
REMARK SMILES IDX 4 23 3 24 2 25 1 26
REMARK H PARENT
REMARK Flexibility Score: inf
ROOT
ATOM      1  C   UNL     1       6.257  47.375   9.374  1.00  0.00     0.000 C 
ENDROOT
BRANCH   1   2
ATOM      2  C   UNL     1       6.838  48.780   9.599  1.00  0.00     0.000 C 
BRANCH   2   3
ATOM      3  C   UNL     1       5.946  49.931   9.099  1.00  0.00     0.000 C 
BRANCH   3   4
ATOM      4  C   UNL     1       4.918  50.411  10.145  1.00  0.00     0.000 C 
BRANCH   4   5
ATOM      5  C   UNL     1       3.577  50.815   9.506  1.00  0.00     0.000 C 
BRANCH   5   6
ATOM      6  C   UNL     1       3.678  50.967   7.981  1.00  0.00     0.000 C 
BRANCH   6   7
ATOM      7  C   UNL     1       2.780  49.974   7.221  1.00  0.00     0.000 C 
BRANCH   7   8
ATOM      8  C   UNL     1       1.280  50.206   7.509  1.00  0.00     0.000 C 
BRANCH   8   9
ATOM      9  C   UNL     1       0.580  48.996   8.160  1.00  0.00     0.000 C 
BRANCH   9  10
ATOM     10  C   UNL     1       0.929  47.633   7.534  1.00  0.00     0.006 C 
BRANCH  10  11
ATOM     11  C   UNL     1      -0.312  46.779   7.237  1.00  0.00     0.053 C 
BRANCH  11  12
ATOM     12  C   UNL     1      -0.039  45.336   7.524  1.00  0.00     0.041 C 
ATOM     13  O   UNL     1       0.534  45.001   8.596  1.00  0.00    -0.550 OA
ATOM     14  O   UNL     1      -0.429  44.358   6.615  1.00  0.00    -0.550 OA
ENDBRANCH  11  12
ENDBRANCH  10  11
ENDBRANCH   9  10
ENDBRANCH   8   9
ENDBRANCH   7   8
ENDBRANCH   6   7
ENDBRANCH   5   6
ENDBRANCH   4   5
ENDBRANCH   3   4
ENDBRANCH   2   3
ENDBRANCH   1   2
BRANCH   1  15
ATOM     15  C   UNL     1       4.949  47.401   8.561  1.00  0.00     0.000 C 
BRANCH  15  16
ATOM     16  C   UNL     1       3.829  46.593   9.239  1.00  0.00     0.000 C 
BRANCH  16  17
ATOM     17  C   UNL     1       4.126  46.263  10.719  1.00  0.00     0.000 C 
BRANCH  17  18
ATOM     18  C   UNL     1       4.309  44.759  10.987  1.00  0.00    -0.000 C 
BRANCH  18  19
ATOM     19  C   UNL     1       4.042  43.901   9.737  1.00  0.00    -0.000 C 
BRANCH  19  20
ATOM     20  C   UNL     1       2.891  42.891   9.938  1.00  0.00    -0.000 C 
BRANCH  20  21
ATOM     21  C   UNL     1       2.491  42.682  11.411  1.00  0.00    -0.000 C 
BRANCH  21  22
ATOM     22  C   UNL     1       2.751  41.269  11.971  1.00  0.00    -0.000 C 
BRANCH  22  23
ATOM     23  C   UNL     1       4.211  40.978  12.367  1.00  0.00    -0.000 C 
BRANCH  23  24
ATOM     24  C   UNL     1       4.373  39.645  13.120  1.00  0.00    -0.000 C 
BRANCH  24  25
ATOM     25  C   UNL     1       3.794  38.456  12.336  1.00  0.00    -0.003 C 
ATOM     26  C   UNL     1       2.320  38.196  12.652  1.00  0.00     0.004 C 
ENDBRANCH  24  25
ENDBRANCH  23  24
ENDBRANCH  22  23
ENDBRANCH  21  22
ENDBRANCH  20  21
ENDBRANCH  19  20
ENDBRANCH  18  19
ENDBRANCH  17  18
ENDBRANCH  16  17
ENDBRANCH  15  16
ENDBRANCH   1  15
TORSDOF 22
ENDMDL
