MODEL 1
REMARK VINA RESULT:    -3.412      0.000      0.000
REMARK INTER + INTRA:          -5.943
REMARK INTER:                  -5.207
REMARK INTRA:                  -0.735
REMARK UNBOUND:                -0.735
REMARK SMILES CCCCCCCCCCC(=O)[O-]
REMARK SMILES IDX 7 1 8 2 9 3 10 4 11 5 12 6 13 7 6 8 5 9 4 10 3 11 2 12 1 13
REMARK H PARENT
REMARK Flexibility Score: inf
ROOT
ATOM      1  C   UNL     1      28.319 159.959 118.435  1.00  0.00     0.000 C 
ENDROOT
BRANCH   1   2
ATOM      2  C   UNL     1      29.757 160.223 117.962  1.00  0.00     0.000 C 
BRANCH   2   3
ATOM      3  C   UNL     1      30.775 160.190 119.115  1.00  0.00     0.006 C 
BRANCH   3   4
ATOM      4  C   UNL     1      30.318 159.284 120.267  1.00  0.00     0.053 C 
BRANCH   4   5
ATOM      5  C   UNL     1      31.392 158.327 120.684  1.00  0.00     0.041 C 
ATOM      6  O   UNL     1      32.605 158.639 120.553  1.00  0.00    -0.550 OA
ATOM      7  O   UNL     1      31.054 157.102 121.247  1.00  0.00    -0.550 OA
ENDBRANCH   4   5
ENDBRANCH   3   4
ENDBRANCH   2   3
ENDBRANCH   1   2
BRANCH   1   8
ATOM      8  C   UNL     1      27.313 159.903 117.275  1.00  0.00     0.000 C 
BRANCH   8   9
ATOM      9  C   UNL     1      26.190 158.896 117.574  1.00  0.00    -0.000 C 
BRANCH   9  10
ATOM     10  C   UNL     1      26.171 158.446 119.043  1.00  0.00    -0.000 C 
BRANCH  10  11
ATOM     11  C   UNL     1      25.550 157.051 119.226  1.00  0.00    -0.000 C 
BRANCH  11  12
ATOM     12  C   UNL     1      26.372 156.160 120.171  1.00  0.00    -0.003 C 
ATOM     13  C   UNL     1      27.397 156.948 120.987  1.00  0.00     0.004 C 
ENDBRANCH  11  12
ENDBRANCH  10  11
ENDBRANCH   9  10
ENDBRANCH   8   9
ENDBRANCH   1   8
TORSDOF 9
ENDMDL
MODEL 2
REMARK VINA RESULT:    -3.411      1.551      2.164
REMARK INTER + INTRA:          -5.941
REMARK INTER:                  -5.115
REMARK INTRA:                  -0.826
REMARK UNBOUND:                -0.735
REMARK SMILES CCCCCCCCCCC(=O)[O-]
REMARK SMILES IDX 7 1 8 2 9 3 10 4 11 5 12 6 13 7 6 8 5 9 4 10 3 11 2 12 1 13
REMARK H PARENT
REMARK Flexibility Score: inf
ROOT
ATOM      1  C   UNL     1      26.913 159.526 117.062  1.00  0.00     0.000 C 
ENDROOT
BRANCH   1   2
ATOM      2  C   UNL     1      27.794 160.267 118.080  1.00  0.00     0.000 C 
BRANCH   2   3
ATOM      3  C   UNL     1      29.282 160.264 117.688  1.00  0.00     0.006 C 
BRANCH   3   4
ATOM      4  C   UNL     1      30.202 160.120 118.908  1.00  0.00     0.053 C 
BRANCH   4   5
ATOM      5  C   UNL     1      31.635 159.941 118.508  1.00  0.00     0.041 C 
ATOM      6  O   UNL     1      31.992 160.153 117.319  1.00  0.00    -0.550 OA
ATOM      7  O   UNL     1      32.581 159.570 119.455  1.00  0.00    -0.550 OA
ENDBRANCH   4   5
ENDBRANCH   3   4
ENDBRANCH   2   3
ENDBRANCH   1   2
BRANCH   1   8
ATOM      8  C   UNL     1      25.628 158.963 117.687  1.00  0.00     0.000 C 
BRANCH   8   9
ATOM      9  C   UNL     1      25.526 157.446 117.455  1.00  0.00    -0.000 C 
BRANCH   9  10
ATOM     10  C   UNL     1      25.593 156.640 118.762  1.00  0.00    -0.000 C 
BRANCH  10  11
ATOM     11  C   UNL     1      25.291 157.497 120.002  1.00  0.00    -0.000 C 
BRANCH  11  12
ATOM     12  C   UNL     1      26.278 157.239 121.151  1.00  0.00    -0.003 C 
ATOM     13  C   UNL     1      27.671 157.806 120.876  1.00  0.00     0.004 C 
ENDBRANCH  11  12
ENDBRANCH  10  11
ENDBRANCH   9  10
ENDBRANCH   8   9
ENDBRANCH   1   8
TORSDOF 9
ENDMDL
MODEL 3
REMARK VINA RESULT:    -3.399      2.344      4.515
REMARK INTER + INTRA:          -5.923
REMARK INTER:                  -5.214
REMARK INTRA:                  -0.709
REMARK UNBOUND:                -0.735
REMARK SMILES CCCCCCCCCCC(=O)[O-]
REMARK SMILES IDX 7 1 8 2 9 3 10 4 11 5 12 6 13 7 6 8 5 9 4 10 3 11 2 12 1 13
REMARK H PARENT
REMARK Flexibility Score: inf
ROOT
ATOM      1  C   UNL     1      25.717 156.684 118.883  1.00  0.00     0.000 C 
ENDROOT
BRANCH   1   2
ATOM      2  C   UNL     1      25.664 158.193 119.169  1.00  0.00     0.000 C 
BRANCH   2   3
ATOM      3  C   UNL     1      26.408 159.023 118.108  1.00  0.00     0.006 C 
BRANCH   3   4
ATOM      4  C   UNL     1      27.732 159.589 118.638  1.00  0.00     0.053 C 
BRANCH   4   5
ATOM      5  C   UNL     1      28.617 160.071 117.529  1.00  0.00     0.041 C 
ATOM      6  O   UNL     1      28.118 160.423 116.428  1.00  0.00    -0.550 OA
ATOM      7  O   UNL     1      29.990 160.161 117.723  1.00  0.00    -0.550 OA
ENDBRANCH   4   5
ENDBRANCH   3   4
ENDBRANCH   2   3
ENDBRANCH   1   2
BRANCH   1   8
ATOM      8  C   UNL     1      26.258 155.873 120.070  1.00  0.00     0.000 C 
BRANCH   8   9
ATOM      9  C   UNL     1      26.367 156.750 121.327  1.00  0.00    -0.000 C 
BRANCH   9  10
ATOM     10  C   UNL     1      27.671 156.514 122.106  1.00  0.00    -0.000 C 
BRANCH  10  11
ATOM     11  C   UNL     1      28.808 157.444 121.649  1.00  0.00    -0.000 C 
BRANCH  11  12
ATOM     12  C   UNL     1      30.199 156.877 121.976  1.00  0.00    -0.003 C 
ATOM     13  C   UNL     1      31.322 157.584 121.217  1.00  0.00     0.004 C 
ENDBRANCH  11  12
ENDBRANCH  10  11
ENDBRANCH   9  10
ENDBRANCH   8   9
ENDBRANCH   1   8
TORSDOF 9
ENDMDL
MODEL 4
REMARK VINA RESULT:    -3.327      2.532      4.632
REMARK INTER + INTRA:          -5.813
REMARK INTER:                  -4.829
REMARK INTRA:                  -0.984
REMARK UNBOUND:                -0.735
REMARK SMILES CCCCCCCCCCC(=O)[O-]
REMARK SMILES IDX 7 1 8 2 9 3 10 4 11 5 12 6 13 7 6 8 5 9 4 10 3 11 2 12 1 13
REMARK H PARENT
REMARK Flexibility Score: inf
ROOT
ATOM      1  C   UNL     1      26.180 159.016 117.204  1.00  0.00     0.000 C 
ENDROOT
BRANCH   1   2
ATOM      2  C   UNL     1      25.723 159.412 118.617  1.00  0.00     0.000 C 
BRANCH   2   3
ATOM      3  C   UNL     1      25.926 158.283 119.642  1.00  0.00     0.006 C 
BRANCH   3   4
ATOM      4  C   UNL     1      25.626 156.900 119.049  1.00  0.00     0.053 C 
BRANCH   4   5
ATOM      5  C   UNL     1      26.171 155.796 119.903  1.00  0.00     0.041 C 
ATOM      6  O   UNL     1      26.445 156.008 121.114  1.00  0.00    -0.550 OA
ATOM      7  O   UNL     1      26.346 154.525 119.371  1.00  0.00    -0.550 OA
ENDBRANCH   4   5
ENDBRANCH   3   4
ENDBRANCH   2   3
ENDBRANCH   1   2
BRANCH   1   8
ATOM      8  C   UNL     1      26.860 160.171 116.454  1.00  0.00     0.000 C 
BRANCH   8   9
ATOM      9  C   UNL     1      27.850 160.909 117.369  1.00  0.00    -0.000 C 
BRANCH   9  10
ATOM     10  C   UNL     1      29.189 160.168 117.518  1.00  0.00    -0.000 C 
BRANCH  10  11
ATOM     11  C   UNL     1      29.883 160.464 118.857  1.00  0.00    -0.000 C 
BRANCH  11  12
ATOM     12  C   UNL     1      29.424 159.520 119.980  1.00  0.00    -0.003 C 
ATOM     13  C   UNL     1      28.765 160.258 121.144  1.00  0.00     0.004 C 
ENDBRANCH  11  12
ENDBRANCH  10  11
ENDBRANCH   9  10
ENDBRANCH   8   9
ENDBRANCH   1   8
TORSDOF 9
ENDMDL
MODEL 5
REMARK VINA RESULT:    -3.309      2.713      5.511
REMARK INTER + INTRA:          -5.785
REMARK INTER:                  -4.978
REMARK INTRA:                  -0.807
REMARK UNBOUND:                -0.735
REMARK SMILES CCCCCCCCCCC(=O)[O-]
REMARK SMILES IDX 7 1 8 2 9 3 10 4 11 5 12 6 13 7 6 8 5 9 4 10 3 11 2 12 1 13
REMARK H PARENT
REMARK Flexibility Score: inf
ROOT
ATOM      1  C   UNL     1      30.852 157.221 121.521  1.00  0.00     0.000 C 
ENDROOT
BRANCH   1   2
ATOM      2  C   UNL     1      29.666 158.195 121.613  1.00  0.00     0.000 C 
BRANCH   2   3
ATOM      3  C   UNL     1      28.312 157.471 121.712  1.00  0.00     0.006 C 
BRANCH   3   4
ATOM      4  C   UNL     1      27.398 157.786 120.521  1.00  0.00     0.053 C 
BRANCH   4   5
ATOM      5  C   UNL     1      26.276 156.799 120.402  1.00  0.00     0.041 C 
ATOM      6  O   UNL     1      25.269 157.067 119.695  1.00  0.00    -0.550 OA
ATOM      7  O   UNL     1      26.357 155.571 121.047  1.00  0.00    -0.550 OA
ENDBRANCH   4   5
ENDBRANCH   3   4
ENDBRANCH   2   3
ENDBRANCH   1   2
BRANCH   1   8
ATOM      8  C   UNL     1      32.019 157.782 120.696  1.00  0.00     0.000 C 
BRANCH   8   9
ATOM      9  C   UNL     1      31.709 159.207 120.208  1.00  0.00    -0.000 C 
BRANCH   9  10
ATOM     10  C   UNL     1      32.237 159.478 118.791  1.00  0.00    -0.000 C 
BRANCH  10  11
ATOM     11  C   UNL     1      31.213 160.210 117.908  1.00  0.00    -0.000 C 
BRANCH  11  12
ATOM     12  C   UNL     1      29.819 160.272 118.552  1.00  0.00    -0.003 C 
ATOM     13  C   UNL     1      28.687 160.144 117.532  1.00  0.00     0.004 C 
ENDBRANCH  11  12
ENDBRANCH  10  11
ENDBRANCH   9  10
ENDBRANCH   8   9
ENDBRANCH   1   8
TORSDOF 9
ENDMDL
MODEL 6
REMARK VINA RESULT:    -3.305      2.236      3.420
REMARK INTER + INTRA:          -5.779
REMARK INTER:                  -5.095
REMARK INTRA:                  -0.684
REMARK UNBOUND:                -0.735
REMARK SMILES CCCCCCCCCCC(=O)[O-]
REMARK SMILES IDX 7 1 8 2 9 3 10 4 11 5 12 6 13 7 6 8 5 9 4 10 3 11 2 12 1 13
REMARK H PARENT
REMARK Flexibility Score: inf
ROOT
ATOM      1  C   UNL     1      30.491 157.604 122.125  1.00  0.00     0.000 C 
ENDROOT
BRANCH   1   2
ATOM      2  C   UNL     1      31.564 157.561 121.025  1.00  0.00     0.000 C 
BRANCH   2   3
ATOM      3  C   UNL     1      32.126 158.954 120.692  1.00  0.00     0.006 C 
BRANCH   3   4
ATOM      4  C   UNL     1      31.112 159.822 119.934  1.00  0.00     0.053 C 
BRANCH   4   5
ATOM      5  C   UNL     1      31.402 159.865 118.465  1.00  0.00     0.041 C 
ATOM      6  O   UNL     1      32.572 159.666 118.044  1.00  0.00    -0.550 OA
ATOM      7  O   UNL     1      30.374 160.093 117.558  1.00  0.00    -0.550 OA
ENDBRANCH   4   5
ENDBRANCH   3   4
ENDBRANCH   2   3
ENDBRANCH   1   2
BRANCH   1   8
ATOM      8  C   UNL     1      29.134 157.060 121.652  1.00  0.00     0.000 C 
BRANCH   8   9
ATOM      9  C   UNL     1      28.077 158.176 121.627  1.00  0.00    -0.000 C 
BRANCH   9  10
ATOM     10  C   UNL     1      27.348 158.274 120.277  1.00  0.00    -0.000 C 
BRANCH  10  11
ATOM     11  C   UNL     1      25.931 157.679 120.325  1.00  0.00    -0.000 C 
BRANCH  11  12
ATOM     12  C   UNL     1      25.680 156.662 119.200  1.00  0.00    -0.003 C 
ATOM     13  C   UNL     1      26.111 155.244 119.575  1.00  0.00     0.004 C 
ENDBRANCH  11  12
ENDBRANCH  10  11
ENDBRANCH   9  10
ENDBRANCH   8   9
ENDBRANCH   1   8
TORSDOF 9
ENDMDL
MODEL 7
REMARK VINA RESULT:    -3.255      1.322      3.425
REMARK INTER + INTRA:          -5.703
REMARK INTER:                  -5.016
REMARK INTRA:                  -0.687
REMARK UNBOUND:                -0.735
REMARK SMILES CCCCCCCCCCC(=O)[O-]
REMARK SMILES IDX 7 1 8 2 9 3 10 4 11 5 12 6 13 7 6 8 5 9 4 10 3 11 2 12 1 13
REMARK H PARENT
REMARK Flexibility Score: inf
ROOT
ATOM      1  C   UNL     1      26.972 156.973 121.842  1.00  0.00     0.000 C 
ENDROOT
BRANCH   1   2
ATOM      2  C   UNL     1      28.461 156.695 122.104  1.00  0.00     0.000 C 
BRANCH   2   3
ATOM      3  C   UNL     1      29.382 157.748 121.464  1.00  0.00     0.006 C 
BRANCH   3   4
ATOM      4  C   UNL     1      30.841 157.278 121.398  1.00  0.00     0.053 C 
BRANCH   4   5
ATOM      5  C   UNL     1      31.693 158.212 120.593  1.00  0.00     0.041 C 
ATOM      6  O   UNL     1      32.942 158.059 120.558  1.00  0.00    -0.550 OA
ATOM      7  O   UNL     1      31.103 159.233 119.857  1.00  0.00    -0.550 OA
ENDBRANCH   4   5
ENDBRANCH   3   4
ENDBRANCH   2   3
ENDBRANCH   1   2
BRANCH   1   8
ATOM      8  C   UNL     1      26.435 156.226 120.613  1.00  0.00     0.000 C 
BRANCH   8   9
ATOM      9  C   UNL     1      25.398 157.078 119.864  1.00  0.00    -0.000 C 
BRANCH   9  10
ATOM     10  C   UNL     1      25.703 157.202 118.363  1.00  0.00    -0.000 C 
BRANCH  10  11
ATOM     11  C   UNL     1      25.981 158.652 117.933  1.00  0.00    -0.000 C 
BRANCH  11  12
ATOM     12  C   UNL     1      27.093 159.310 118.766  1.00  0.00    -0.003 C 
ATOM     13  C   UNL     1      28.177 159.956 117.903  1.00  0.00     0.004 C 
ENDBRANCH  11  12
ENDBRANCH  10  11
ENDBRANCH   9  10
ENDBRANCH   8   9
ENDBRANCH   1   8
TORSDOF 9
ENDMDL
MODEL 8
REMARK VINA RESULT:    -3.247      3.439      5.351
REMARK INTER + INTRA:          -5.690
REMARK INTER:                  -4.667
REMARK INTRA:                  -1.024
REMARK UNBOUND:                -0.735
REMARK SMILES CCCCCCCCCCC(=O)[O-]
REMARK SMILES IDX 7 1 8 2 9 3 10 4 11 5 12 6 13 7 6 8 5 9 4 10 3 11 2 12 1 13
REMARK H PARENT
REMARK Flexibility Score: inf
ROOT
ATOM      1  C   UNL     1      30.990 160.212 117.925  1.00  0.00     0.000 C 
ENDROOT
BRANCH   1   2
ATOM      2  C   UNL     1      30.229 161.091 118.930  1.00  0.00     0.000 C 
BRANCH   2   3
ATOM      3  C   UNL     1      28.736 161.231 118.583  1.00  0.00     0.006 C 
BRANCH   3   4
ATOM      4  C   UNL     1      28.100 159.886 118.207  1.00  0.00     0.053 C 
BRANCH   4   5
ATOM      5  C   UNL     1      27.302 159.980 116.942  1.00  0.00     0.041 C 
ATOM      6  O   UNL     1      26.388 159.147 116.706  1.00  0.00    -0.550 OA
ATOM      7  O   UNL     1      27.546 161.008 116.039  1.00  0.00    -0.550 OA
ENDBRANCH   4   5
ENDBRANCH   3   4
ENDBRANCH   2   3
ENDBRANCH   1   2
BRANCH   1   8
ATOM      8  C   UNL     1      32.366 159.770 118.445  1.00  0.00     0.000 C 
BRANCH   8   9
ATOM      9  C   UNL     1      32.620 160.322 119.857  1.00  0.00    -0.000 C 
BRANCH   9  10
ATOM     10  C   UNL     1      32.927 159.217 120.880  1.00  0.00    -0.000 C 
BRANCH  10  11
ATOM     11  C   UNL     1      32.200 157.899 120.563  1.00  0.00    -0.000 C 
BRANCH  11  12
ATOM     12  C   UNL     1      31.141 157.543 121.618  1.00  0.00    -0.003 C 
ATOM     13  C   UNL     1      29.781 158.178 121.332  1.00  0.00     0.004 C 
ENDBRANCH  11  12
ENDBRANCH  10  11
ENDBRANCH   9  10
ENDBRANCH   8   9
ENDBRANCH   1   8
TORSDOF 9
ENDMDL
MODEL 9
REMARK VINA RESULT:    -3.055      3.265      5.459
REMARK INTER + INTRA:          -5.398
REMARK INTER:                  -4.541
REMARK INTRA:                  -0.856
REMARK UNBOUND:                -0.735
REMARK SMILES CCCCCCCCCCC(=O)[O-]
REMARK SMILES IDX 7 1 8 2 9 3 10 4 11 5 12 6 13 7 6 8 5 9 4 10 3 11 2 12 1 13
REMARK H PARENT
REMARK Flexibility Score: inf
ROOT
ATOM      1  C   UNL     1      25.442 157.110 120.080  1.00  0.00     0.000 C 
ENDROOT
BRANCH   1   2
ATOM      2  C   UNL     1      25.701 157.365 118.586  1.00  0.00     0.000 C 
BRANCH   2   3
ATOM      3  C   UNL     1      25.818 158.862 118.253  1.00  0.00     0.006 C 
BRANCH   3   4
ATOM      4  C   UNL     1      26.382 159.100 116.846  1.00  0.00     0.053 C 
BRANCH   4   5
ATOM      5  C   UNL     1      26.419 160.558 116.499  1.00  0.00     0.041 C 
ATOM      6  O   UNL     1      27.442 161.054 115.957  1.00  0.00    -0.550 OA
ATOM      7  O   UNL     1      25.313 161.361 116.745  1.00  0.00    -0.550 OA
ENDBRANCH   4   5
ENDBRANCH   3   4
ENDBRANCH   2   3
ENDBRANCH   1   2
BRANCH   1   8
ATOM      8  C   UNL     1      26.409 156.079 120.682  1.00  0.00     0.000 C 
BRANCH   8   9
ATOM      9  C   UNL     1      27.213 156.694 121.839  1.00  0.00    -0.000 C 
BRANCH   9  10
ATOM     10  C   UNL     1      28.521 157.351 121.371  1.00  0.00    -0.000 C 
BRANCH  10  11
ATOM     11  C   UNL     1      28.400 158.878 121.232  1.00  0.00    -0.000 C 
BRANCH  11  12
ATOM     12  C   UNL     1      29.587 159.496 120.476  1.00  0.00    -0.003 C 
ATOM     13  C   UNL     1      29.187 160.081 119.122  1.00  0.00     0.004 C 
ENDBRANCH  11  12
ENDBRANCH  10  11
ENDBRANCH   9  10
ENDBRANCH   8   9
ENDBRANCH   1   8
TORSDOF 9
ENDMDL
