MODEL 1
REMARK VINA RESULT:    -3.670      0.000      0.000
REMARK INTER + INTRA:         -10.679
REMARK INTER:                  -7.103
REMARK INTRA:                  -3.577
REMARK UNBOUND:                -3.577
REMARK SMILES CCCCCC=CCC=CCCCCCCCCOC(C)=O
REMARK SMILES IDX 12 1 11 2 10 3 9 4 8 5 7 6 6 7 5 8 4 9 3 10 2 11 1 12 13 13
REMARK SMILES IDX 14 14 15 15 16 16 17 17 18 18 19 19 20 20 22 21 21 22
REMARK H PARENT
REMARK Flexibility Score: inf
ROOT
ATOM      1  C   UNL     1     -12.717  -7.826  94.440  1.00  0.00     0.004 C 
ENDROOT
BRANCH   1   2
ATOM      2  C   UNL     1     -13.843  -8.868  94.375  1.00  0.00     0.027 C 
BRANCH   2   3
ATOM      3  C   UNL     1     -13.892  -9.539  93.025  1.00  0.00    -0.031 C 
ATOM      4  C   UNL     1     -13.807 -10.867  92.813  1.00  0.00    -0.027 C 
BRANCH   4   5
ATOM      5  C   UNL     1     -13.646 -11.912  93.887  1.00  0.00     0.054 C 
BRANCH   5   6
ATOM      6  C   UNL     1     -12.188 -12.033  94.256  1.00  0.00    -0.027 C 
ATOM      7  C   UNL     1     -11.669 -11.779  95.472  1.00  0.00    -0.031 C 
BRANCH   7   8
ATOM      8  C   UNL     1     -12.462 -11.348  96.682  1.00  0.00     0.027 C 
BRANCH   8   9
ATOM      9  C   UNL     1     -11.849 -10.124  97.381  1.00  0.00     0.004 C 
BRANCH   9  10
ATOM     10  C   UNL     1     -12.922  -9.177  97.936  1.00  0.00     0.000 C 
BRANCH  10  11
ATOM     11  C   UNL     1     -14.172  -9.956  98.368  1.00  0.00    -0.003 C 
ATOM     12  C   UNL     1     -15.433  -9.361  97.749  1.00  0.00     0.004 C 
ENDBRANCH  10  11
ENDBRANCH   9  10
ENDBRANCH   8   9
ENDBRANCH   7   8
ENDBRANCH   5   6
ENDBRANCH   4   5
ENDBRANCH   2   3
ENDBRANCH   1   2
BRANCH   1  13
ATOM     13  C   UNL     1     -11.631  -8.052  93.374  1.00  0.00     0.000 C 
BRANCH  13  14
ATOM     14  C   UNL     1     -10.285  -8.578  93.915  1.00  0.00     0.000 C 
BRANCH  14  15
ATOM     15  C   UNL     1      -9.614  -9.668  93.060  1.00  0.00     0.000 C 
BRANCH  15  16
ATOM     16  C   UNL     1     -10.367 -10.041  91.769  1.00  0.00     0.003 C 
BRANCH  16  17
ATOM     17  C   UNL     1      -9.565  -9.769  90.479  1.00  0.00     0.042 C 
BRANCH  17  18
ATOM     18  C   UNL     1      -9.954  -8.451  89.807  1.00  0.00     0.233 C 
BRANCH  18  19
ATOM     19  O   UNL     1      -8.842  -7.562  89.832  1.00  0.00    -0.466 OA
BRANCH  19  20
ATOM     20  C   UNL     1      -8.552  -6.748  90.931  1.00  0.00     0.302 C 
ATOM     21  O   UNL     1      -9.436  -6.000  91.429  1.00  0.00    -0.253 OA
ATOM     22  C   UNL     1      -7.195  -6.799  91.547  1.00  0.00     0.139 C 
ENDBRANCH  19  20
ENDBRANCH  18  19
ENDBRANCH  17  18
ENDBRANCH  16  17
ENDBRANCH  15  16
ENDBRANCH  14  15
ENDBRANCH  13  14
ENDBRANCH   1  13
TORSDOF 16
ENDMDL
MODEL 2
REMARK VINA RESULT:    -3.630      2.949      7.066
REMARK INTER + INTRA:         -10.601
REMARK INTER:                  -7.388
REMARK INTRA:                  -3.213
REMARK UNBOUND:                -3.577
REMARK SMILES CCCCCC=CCC=CCCCCCCCCOC(C)=O
REMARK SMILES IDX 12 1 11 2 10 3 9 4 8 5 7 6 6 7 5 8 4 9 3 10 2 11 1 12 13 13
REMARK SMILES IDX 14 14 15 15 16 16 17 17 18 18 19 19 20 20 22 21 21 22
REMARK H PARENT
REMARK Flexibility Score: inf
ROOT
ATOM      1  C   UNL     1      -7.743  -8.378  91.038  1.00  0.00     0.004 C 
ENDROOT
BRANCH   1   2
ATOM      2  C   UNL     1      -7.956  -8.741  89.561  1.00  0.00     0.027 C 
BRANCH   2   3
ATOM      3  C   UNL     1      -7.813 -10.225  89.336  1.00  0.00    -0.031 C 
ATOM      4  C   UNL     1      -8.788 -11.039  88.884  1.00  0.00    -0.027 C 
BRANCH   4   5
ATOM      5  C   UNL     1     -10.188 -10.610  88.529  1.00  0.00     0.054 C 
BRANCH   5   6
ATOM      6  C   UNL     1     -11.057 -10.660  89.761  1.00  0.00    -0.027 C 
ATOM      7  C   UNL     1     -12.049  -9.797  90.050  1.00  0.00    -0.031 C 
BRANCH   7   8
ATOM      8  C   UNL     1     -12.474  -8.640  89.178  1.00  0.00     0.027 C 
BRANCH   8   9
ATOM      9  C   UNL     1     -11.877  -7.303  89.643  1.00  0.00     0.004 C 
BRANCH   9  10
ATOM     10  C   UNL     1     -10.854  -6.748  88.641  1.00  0.00     0.000 C 
BRANCH  10  11
ATOM     11  C   UNL     1      -9.985  -5.663  89.289  1.00  0.00    -0.003 C 
ATOM     12  C   UNL     1     -10.354  -4.277  88.768  1.00  0.00     0.004 C 
ENDBRANCH  10  11
ENDBRANCH   9  10
ENDBRANCH   8   9
ENDBRANCH   7   8
ENDBRANCH   5   6
ENDBRANCH   4   5
ENDBRANCH   2   3
ENDBRANCH   1   2
BRANCH   1  13
ATOM     13  C   UNL     1      -9.053  -8.363  91.844  1.00  0.00     0.000 C 
BRANCH  13  14
ATOM     14  C   UNL     1      -9.217  -9.526  92.845  1.00  0.00     0.000 C 
BRANCH  14  15
ATOM     15  C   UNL     1     -10.580  -9.593  93.556  1.00  0.00     0.000 C 
BRANCH  15  16
ATOM     16  C   UNL     1     -11.524  -8.409  93.272  1.00  0.00     0.003 C 
BRANCH  16  17
ATOM     17  C   UNL     1     -13.019  -8.790  93.269  1.00  0.00     0.042 C 
BRANCH  17  18
ATOM     18  C   UNL     1     -13.604  -8.902  94.678  1.00  0.00     0.233 C 
BRANCH  18  19
ATOM     19  O   UNL     1     -14.188 -10.190  94.847  1.00  0.00    -0.466 OA
BRANCH  19  20
ATOM     20  C   UNL     1     -13.422 -11.346  95.023  1.00  0.00     0.302 C 
ATOM     21  O   UNL     1     -13.500 -12.301  94.204  1.00  0.00    -0.253 OA
ATOM     22  C   UNL     1     -12.472 -11.432  96.169  1.00  0.00     0.139 C 
ENDBRANCH  19  20
ENDBRANCH  18  19
ENDBRANCH  17  18
ENDBRANCH  16  17
ENDBRANCH  15  16
ENDBRANCH  14  15
ENDBRANCH  13  14
ENDBRANCH   1  13
TORSDOF 16
ENDMDL
MODEL 3
REMARK VINA RESULT:    -3.533      1.286      3.942
REMARK INTER + INTRA:         -10.413
REMARK INTER:                  -7.131
REMARK INTRA:                  -3.282
REMARK UNBOUND:                -3.577
REMARK SMILES CCCCCC=CCC=CCCCCCCCCOC(C)=O
REMARK SMILES IDX 12 1 11 2 10 3 9 4 8 5 7 6 6 7 5 8 4 9 3 10 2 11 1 12 13 13
REMARK SMILES IDX 14 14 15 15 16 16 17 17 18 18 19 19 20 20 22 21 21 22
REMARK H PARENT
REMARK Flexibility Score: inf
ROOT
ATOM      1  C   UNL     1     -14.889  -8.817  96.206  1.00  0.00     0.004 C 
ENDROOT
BRANCH   1   2
ATOM      2  C   UNL     1     -15.653  -9.531  97.331  1.00  0.00     0.027 C 
BRANCH   2   3
ATOM      3  C   UNL     1     -15.314  -8.947  98.680  1.00  0.00    -0.031 C 
ATOM      4  C   UNL     1     -14.391  -9.439  99.530  1.00  0.00    -0.027 C 
BRANCH   4   5
ATOM      5  C   UNL     1     -13.541 -10.659  99.283  1.00  0.00     0.054 C 
BRANCH   5   6
ATOM      6  C   UNL     1     -12.192 -10.234  98.760  1.00  0.00    -0.027 C 
ATOM      7  C   UNL     1     -11.684 -10.561  97.556  1.00  0.00    -0.031 C 
BRANCH   7   8
ATOM      8  C   UNL     1     -12.390 -11.395  96.515  1.00  0.00     0.027 C 
BRANCH   8   9
ATOM      9  C   UNL     1     -11.466 -11.788  95.352  1.00  0.00     0.004 C 
BRANCH   9  10
ATOM     10  C   UNL     1     -12.249 -12.070  94.061  1.00  0.00     0.000 C 
BRANCH  10  11
ATOM     11  C   UNL     1     -13.729 -11.700  94.225  1.00  0.00    -0.003 C 
ATOM     12  C   UNL     1     -14.232 -10.898  93.028  1.00  0.00     0.004 C 
ENDBRANCH  10  11
ENDBRANCH   9  10
ENDBRANCH   8   9
ENDBRANCH   7   8
ENDBRANCH   5   6
ENDBRANCH   4   5
ENDBRANCH   2   3
ENDBRANCH   1   2
BRANCH   1  13
ATOM     13  C   UNL     1     -14.160  -7.551  96.688  1.00  0.00     0.000 C 
BRANCH  13  14
ATOM     14  C   UNL     1     -12.750  -7.346  96.098  1.00  0.00     0.000 C 
BRANCH  14  15
ATOM     15  C   UNL     1     -12.456  -8.133  94.809  1.00  0.00     0.000 C 
BRANCH  15  16
ATOM     16  C   UNL     1     -10.962  -8.302  94.473  1.00  0.00     0.003 C 
BRANCH  16  17
ATOM     17  C   UNL     1     -10.683  -8.548  92.975  1.00  0.00     0.042 C 
BRANCH  17  18
ATOM     18  C   UNL     1      -9.706  -9.701  92.737  1.00  0.00     0.233 C 
BRANCH  18  19
ATOM     19  O   UNL     1      -9.588  -9.938  91.338  1.00  0.00    -0.466 OA
BRANCH  19  20
ATOM     20  C   UNL     1      -9.198  -8.943  90.436  1.00  0.00     0.302 C 
ATOM     21  O   UNL     1     -10.004  -8.507  89.570  1.00  0.00    -0.253 OA
ATOM     22  C   UNL     1      -7.828  -8.363  90.527  1.00  0.00     0.139 C 
ENDBRANCH  19  20
ENDBRANCH  18  19
ENDBRANCH  17  18
ENDBRANCH  16  17
ENDBRANCH  15  16
ENDBRANCH  14  15
ENDBRANCH  13  14
ENDBRANCH   1  13
TORSDOF 16
ENDMDL
MODEL 4
REMARK VINA RESULT:    -3.517      1.543      2.857
REMARK INTER + INTRA:         -10.383
REMARK INTER:                  -7.093
REMARK INTRA:                  -3.291
REMARK UNBOUND:                -3.577
REMARK SMILES CCCCCC=CCC=CCCCCCCCCOC(C)=O
REMARK SMILES IDX 12 1 11 2 10 3 9 4 8 5 7 6 6 7 5 8 4 9 3 10 2 11 1 12 13 13
REMARK SMILES IDX 14 14 15 15 16 16 17 17 18 18 19 19 20 20 22 21 21 22
REMARK H PARENT
REMARK Flexibility Score: inf
ROOT
ATOM      1  C   UNL     1     -10.717  -8.131  94.404  1.00  0.00     0.004 C 
ENDROOT
BRANCH   1   2
ATOM      2  C   UNL     1     -11.500  -8.615  93.176  1.00  0.00     0.027 C 
BRANCH   2   3
ATOM      3  C   UNL     1     -12.975  -8.331  93.319  1.00  0.00    -0.031 C 
ATOM      4  C   UNL     1     -13.966  -9.168  92.958  1.00  0.00    -0.027 C 
BRANCH   4   5
ATOM      5  C   UNL     1     -13.776 -10.532  92.345  1.00  0.00     0.054 C 
BRANCH   5   6
ATOM      6  C   UNL     1     -14.278 -11.586  93.300  1.00  0.00    -0.027 C 
ATOM      7  C   UNL     1     -13.515 -12.281  94.165  1.00  0.00    -0.031 C 
BRANCH   7   8
ATOM      8  C   UNL     1     -12.026 -12.108  94.341  1.00  0.00     0.027 C 
BRANCH   8   9
ATOM      9  C   UNL     1     -11.666 -11.429  95.671  1.00  0.00     0.004 C 
BRANCH   9  10
ATOM     10  C   UNL     1     -12.875 -11.325  96.612  1.00  0.00     0.000 C 
BRANCH  10  11
ATOM     11  C   UNL     1     -13.284  -9.861  96.821  1.00  0.00    -0.003 C 
ATOM     12  C   UNL     1     -14.769  -9.657  96.537  1.00  0.00     0.004 C 
ENDBRANCH  10  11
ENDBRANCH   9  10
ENDBRANCH   8   9
ENDBRANCH   7   8
ENDBRANCH   5   6
ENDBRANCH   4   5
ENDBRANCH   2   3
ENDBRANCH   1   2
BRANCH   1  13
ATOM     13  C   UNL     1      -9.208  -7.999  94.137  1.00  0.00     0.000 C 
BRANCH  13  14
ATOM     14  C   UNL     1      -8.634  -9.010  93.123  1.00  0.00     0.000 C 
BRANCH  14  15
ATOM     15  C   UNL     1      -7.549  -8.454  92.183  1.00  0.00     0.000 C 
BRANCH  15  16
ATOM     16  C   UNL     1      -7.946  -8.384  90.697  1.00  0.00     0.003 C 
BRANCH  16  17
ATOM     17  C   UNL     1      -8.698  -7.092  90.313  1.00  0.00     0.042 C 
BRANCH  17  18
ATOM     18  C   UNL     1     -10.150  -7.350  89.906  1.00  0.00     0.233 C 
BRANCH  18  19
ATOM     19  O   UNL     1     -10.333  -8.742  89.668  1.00  0.00    -0.466 OA
BRANCH  19  20
ATOM     20  C   UNL     1     -11.597  -9.319  89.511  1.00  0.00     0.302 C 
ATOM     21  O   UNL     1     -11.733 -10.572  89.478  1.00  0.00    -0.253 OA
ATOM     22  C   UNL     1     -12.800  -8.443  89.425  1.00  0.00     0.139 C 
ENDBRANCH  19  20
ENDBRANCH  18  19
ENDBRANCH  17  18
ENDBRANCH  16  17
ENDBRANCH  15  16
ENDBRANCH  14  15
ENDBRANCH  13  14
ENDBRANCH   1  13
TORSDOF 16
ENDMDL
MODEL 5
REMARK VINA RESULT:    -3.433      1.596      2.898
REMARK INTER + INTRA:         -10.221
REMARK INTER:                  -7.638
REMARK INTRA:                  -2.583
REMARK UNBOUND:                -3.577
REMARK SMILES CCCCCC=CCC=CCCCCCCCCOC(C)=O
REMARK SMILES IDX 12 1 11 2 10 3 9 4 8 5 7 6 6 7 5 8 4 9 3 10 2 11 1 12 13 13
REMARK SMILES IDX 14 14 15 15 16 16 17 17 18 18 19 19 20 20 22 21 21 22
REMARK H PARENT
REMARK Flexibility Score: inf
ROOT
ATOM      1  C   UNL     1     -11.055 -11.393  94.204  1.00  0.00     0.004 C 
ENDROOT
BRANCH   1   2
ATOM      2  C   UNL     1     -12.144 -11.683  95.248  1.00  0.00     0.027 C 
BRANCH   2   3
ATOM      3  C   UNL     1     -13.517 -11.373  94.707  1.00  0.00    -0.031 C 
ATOM      4  C   UNL     1     -14.262 -10.303  95.046  1.00  0.00    -0.027 C 
BRANCH   4   5
ATOM      5  C   UNL     1     -13.855  -9.232  96.025  1.00  0.00     0.054 C 
BRANCH   5   6
ATOM      6  C   UNL     1     -14.820  -9.219  97.185  1.00  0.00    -0.027 C 
ATOM      7  C   UNL     1     -14.712  -9.972  98.296  1.00  0.00    -0.031 C 
BRANCH   7   8
ATOM      8  C   UNL     1     -13.594 -10.946  98.579  1.00  0.00     0.027 C 
BRANCH   8   9
ATOM      9  C   UNL     1     -12.811 -10.588  99.852  1.00  0.00     0.004 C 
BRANCH   9  10
ATOM     10  C   UNL     1     -11.672  -9.598  99.569  1.00  0.00     0.000 C 
BRANCH  10  11
ATOM     11  C   UNL     1     -10.927  -9.970  98.281  1.00  0.00    -0.003 C 
ATOM     12  C   UNL     1     -10.496  -8.724  97.514  1.00  0.00     0.004 C 
ENDBRANCH  10  11
ENDBRANCH   9  10
ENDBRANCH   8   9
ENDBRANCH   7   8
ENDBRANCH   5   6
ENDBRANCH   4   5
ENDBRANCH   2   3
ENDBRANCH   1   2
BRANCH   1  13
ATOM     13  C   UNL     1     -10.740  -9.894  94.069  1.00  0.00     0.000 C 
BRANCH  13  14
ATOM     14  C   UNL     1     -10.661  -9.372  92.620  1.00  0.00     0.000 C 
BRANCH  14  15
ATOM     15  C   UNL     1     -11.325 -10.270  91.560  1.00  0.00     0.000 C 
BRANCH  15  16
ATOM     16  C   UNL     1     -10.901  -9.988  90.107  1.00  0.00     0.003 C 
BRANCH  16  17
ATOM     17  C   UNL     1      -9.415 -10.293  89.821  1.00  0.00     0.042 C 
BRANCH  17  18
ATOM     18  C   UNL     1      -8.586  -9.028  89.589  1.00  0.00     0.233 C 
BRANCH  18  19
ATOM     19  O   UNL     1      -7.565  -8.944  90.578  1.00  0.00    -0.466 OA
BRANCH  19  20
ATOM     20  C   UNL     1      -7.566  -7.969  91.580  1.00  0.00     0.302 C 
ATOM     21  O   UNL     1      -7.256  -8.264  92.766  1.00  0.00    -0.253 OA
ATOM     22  C   UNL     1      -7.897  -6.557  91.233  1.00  0.00     0.139 C 
ENDBRANCH  19  20
ENDBRANCH  18  19
ENDBRANCH  17  18
ENDBRANCH  16  17
ENDBRANCH  15  16
ENDBRANCH  14  15
ENDBRANCH  13  14
ENDBRANCH   1  13
TORSDOF 16
ENDMDL
MODEL 6
REMARK VINA RESULT:    -3.418      1.921      3.366
REMARK INTER + INTRA:         -10.191
REMARK INTER:                  -6.917
REMARK INTRA:                  -3.274
REMARK UNBOUND:                -3.577
REMARK SMILES CCCCCC=CCC=CCCCCCCCCOC(C)=O
REMARK SMILES IDX 12 1 11 2 10 3 9 4 8 5 7 6 6 7 5 8 4 9 3 10 2 11 1 12 13 13
REMARK SMILES IDX 14 14 15 15 16 16 17 17 18 18 19 19 20 20 22 21 21 22
REMARK H PARENT
REMARK Flexibility Score: inf
ROOT
ATOM      1  C   UNL     1     -12.087  -8.539  92.523  1.00  0.00     0.004 C 
ENDROOT
BRANCH   1   2
ATOM      2  C   UNL     1     -12.024 -10.070  92.420  1.00  0.00     0.027 C 
BRANCH   2   3
ATOM      3  C   UNL     1     -10.956 -10.636  93.322  1.00  0.00    -0.031 C 
ATOM      4  C   UNL     1     -11.180 -11.417  94.397  1.00  0.00    -0.027 C 
BRANCH   4   5
ATOM      5  C   UNL     1     -12.536 -11.858  94.886  1.00  0.00     0.054 C 
BRANCH   5   6
ATOM      6  C   UNL     1     -12.676 -11.519  96.350  1.00  0.00    -0.027 C 
ATOM      7  C   UNL     1     -13.537 -10.619  96.861  1.00  0.00    -0.031 C 
BRANCH   7   8
ATOM      8  C   UNL     1     -14.525  -9.808  96.058  1.00  0.00     0.027 C 
BRANCH   8   9
ATOM      9  C   UNL     1     -13.923  -8.490  95.544  1.00  0.00     0.004 C 
BRANCH   9  10
ATOM     10  C   UNL     1     -12.901  -7.900  96.527  1.00  0.00     0.000 C 
BRANCH  10  11
ATOM     11  C   UNL     1     -11.555  -7.650  95.836  1.00  0.00    -0.003 C 
ATOM     12  C   UNL     1     -10.419  -8.357  96.570  1.00  0.00     0.004 C 
ENDBRANCH  10  11
ENDBRANCH   9  10
ENDBRANCH   8   9
ENDBRANCH   7   8
ENDBRANCH   5   6
ENDBRANCH   4   5
ENDBRANCH   2   3
ENDBRANCH   1   2
BRANCH   1  13
ATOM     13  C   UNL     1     -11.206  -7.833  91.478  1.00  0.00     0.000 C 
BRANCH  13  14
ATOM     14  C   UNL     1     -10.190  -6.825  92.055  1.00  0.00     0.000 C 
BRANCH  14  15
ATOM     15  C   UNL     1      -9.098  -7.433  92.954  1.00  0.00     0.000 C 
BRANCH  15  16
ATOM     16  C   UNL     1      -8.209  -8.492  92.275  1.00  0.00     0.003 C 
BRANCH  16  17
ATOM     17  C   UNL     1      -7.591  -8.024  90.941  1.00  0.00     0.042 C 
BRANCH  17  18
ATOM     18  C   UNL     1      -7.792  -9.034  89.809  1.00  0.00     0.233 C 
BRANCH  18  19
ATOM     19  O   UNL     1      -8.925  -9.847  90.098  1.00  0.00    -0.466 OA
BRANCH  19  20
ATOM     20  C   UNL     1      -9.503 -10.697  89.149  1.00  0.00     0.302 C 
ATOM     21  O   UNL     1      -8.793 -11.503  88.490  1.00  0.00    -0.253 OA
ATOM     22  C   UNL     1     -10.980 -10.677  88.947  1.00  0.00     0.139 C 
ENDBRANCH  19  20
ENDBRANCH  18  19
ENDBRANCH  17  18
ENDBRANCH  16  17
ENDBRANCH  15  16
ENDBRANCH  14  15
ENDBRANCH  13  14
ENDBRANCH   1  13
TORSDOF 16
ENDMDL
MODEL 7
REMARK VINA RESULT:    -3.413      2.911      6.310
REMARK INTER + INTRA:         -10.182
REMARK INTER:                  -6.626
REMARK INTRA:                  -3.556
REMARK UNBOUND:                -3.577
REMARK SMILES CCCCCC=CCC=CCCCCCCCCOC(C)=O
REMARK SMILES IDX 12 1 11 2 10 3 9 4 8 5 7 6 6 7 5 8 4 9 3 10 2 11 1 12 13 13
REMARK SMILES IDX 14 14 15 15 16 16 17 17 18 18 19 19 20 20 22 21 21 22
REMARK H PARENT
REMARK Flexibility Score: inf
ROOT
ATOM      1  C   UNL     1     -11.064  -6.999  92.525  1.00  0.00     0.004 C 
ENDROOT
BRANCH   1   2
ATOM      2  C   UNL     1     -11.928  -7.067  91.257  1.00  0.00     0.027 C 
BRANCH   2   3
ATOM      3  C   UNL     1     -12.797  -8.300  91.251  1.00  0.00    -0.031 C 
ATOM      4  C   UNL     1     -12.709  -9.308  90.362  1.00  0.00    -0.027 C 
BRANCH   4   5
ATOM      5  C   UNL     1     -11.730  -9.379  89.219  1.00  0.00     0.054 C 
BRANCH   5   6
ATOM      6  C   UNL     1     -10.663 -10.399  89.533  1.00  0.00    -0.027 C 
ATOM      7  C   UNL     1      -9.384 -10.117  89.844  1.00  0.00    -0.031 C 
BRANCH   7   8
ATOM      8  C   UNL     1      -8.802  -8.728  89.950  1.00  0.00     0.027 C 
BRANCH   8   9
ATOM      9  C   UNL     1      -7.721  -8.626  91.037  1.00  0.00     0.004 C 
BRANCH   9  10
ATOM     10  C   UNL     1      -7.398  -7.168  91.395  1.00  0.00     0.000 C 
BRANCH  10  11
ATOM     11  C   UNL     1      -7.416  -6.958  92.915  1.00  0.00    -0.003 C 
ATOM     12  C   UNL     1      -6.893  -8.191  93.647  1.00  0.00     0.004 C 
ENDBRANCH  10  11
ENDBRANCH   9  10
ENDBRANCH   8   9
ENDBRANCH   7   8
ENDBRANCH   5   6
ENDBRANCH   4   5
ENDBRANCH   2   3
ENDBRANCH   1   2
BRANCH   1  13
ATOM     13  C   UNL     1     -11.683  -7.758  93.711  1.00  0.00     0.000 C 
BRANCH  13  14
ATOM     14  C   UNL     1     -10.747  -8.778  94.392  1.00  0.00     0.000 C 
BRANCH  14  15
ATOM     15  C   UNL     1     -10.187  -9.876  93.469  1.00  0.00     0.000 C 
BRANCH  15  16
ATOM     16  C   UNL     1     -11.146 -11.049  93.194  1.00  0.00     0.003 C 
BRANCH  16  17
ATOM     17  C   UNL     1     -11.504 -11.869  94.451  1.00  0.00     0.042 C 
BRANCH  17  18
ATOM     18  C   UNL     1     -13.006 -11.883  94.741  1.00  0.00     0.233 C 
BRANCH  18  19
ATOM     19  O   UNL     1     -13.226 -11.572  96.113  1.00  0.00    -0.466 OA
BRANCH  19  20
ATOM     20  C   UNL     1     -13.518 -10.278  96.554  1.00  0.00     0.302 C 
ATOM     21  O   UNL     1     -13.002  -9.827  97.613  1.00  0.00    -0.253 OA
ATOM     22  C   UNL     1     -14.416  -9.409  95.742  1.00  0.00     0.139 C 
ENDBRANCH  19  20
ENDBRANCH  18  19
ENDBRANCH  17  18
ENDBRANCH  16  17
ENDBRANCH  15  16
ENDBRANCH  14  15
ENDBRANCH  13  14
ENDBRANCH   1  13
TORSDOF 16
ENDMDL
MODEL 8
REMARK VINA RESULT:    -3.375      1.549      2.558
REMARK INTER + INTRA:         -10.109
REMARK INTER:                  -6.901
REMARK INTRA:                  -3.208
REMARK UNBOUND:                -3.577
REMARK SMILES CCCCCC=CCC=CCCCCCCCCOC(C)=O
REMARK SMILES IDX 12 1 11 2 10 3 9 4 8 5 7 6 6 7 5 8 4 9 3 10 2 11 1 12 13 13
REMARK SMILES IDX 14 14 15 15 16 16 17 17 18 18 19 19 20 20 22 21 21 22
REMARK H PARENT
REMARK Flexibility Score: inf
ROOT
ATOM      1  C   UNL     1     -10.910  -7.932  93.320  1.00  0.00     0.004 C 
ENDROOT
BRANCH   1   2
ATOM      2  C   UNL     1     -12.158  -8.227  94.164  1.00  0.00     0.027 C 
BRANCH   2   3
ATOM      3  C   UNL     1     -13.420  -8.050  93.358  1.00  0.00    -0.031 C 
ATOM      4  C   UNL     1     -13.954  -8.977  92.538  1.00  0.00    -0.027 C 
BRANCH   4   5
ATOM      5  C   UNL     1     -13.384 -10.348  92.284  1.00  0.00     0.054 C 
BRANCH   5   6
ATOM      6  C   UNL     1     -14.069 -11.351  93.178  1.00  0.00    -0.027 C 
ATOM      7  C   UNL     1     -13.463 -12.086  94.130  1.00  0.00    -0.031 C 
BRANCH   7   8
ATOM      8  C   UNL     1     -11.996 -12.016  94.479  1.00  0.00     0.027 C 
BRANCH   8   9
ATOM      9  C   UNL     1     -11.749 -11.377  95.854  1.00  0.00     0.004 C 
BRANCH   9  10
ATOM     10  C   UNL     1     -12.996 -11.432  96.749  1.00  0.00     0.000 C 
BRANCH  10  11
ATOM     11  C   UNL     1     -13.415 -10.026  97.195  1.00  0.00    -0.003 C 
ATOM     12  C   UNL     1     -14.739  -9.618  96.556  1.00  0.00     0.004 C 
ENDBRANCH  10  11
ENDBRANCH   9  10
ENDBRANCH   8   9
ENDBRANCH   7   8
ENDBRANCH   5   6
ENDBRANCH   4   5
ENDBRANCH   2   3
ENDBRANCH   1   2
BRANCH   1  13
ATOM     13  C   UNL     1      -9.879  -9.072  93.357  1.00  0.00     0.000 C 
BRANCH  13  14
ATOM     14  C   UNL     1      -9.763  -9.890  92.054  1.00  0.00     0.000 C 
BRANCH  14  15
ATOM     15  C   UNL     1      -9.725  -9.060  90.758  1.00  0.00     0.000 C 
BRANCH  15  16
ATOM     16  C   UNL     1      -8.439  -8.240  90.545  1.00  0.00     0.003 C 
BRANCH  16  17
ATOM     17  C   UNL     1      -8.661  -6.713  90.571  1.00  0.00     0.042 C 
BRANCH  17  18
ATOM     18  C   UNL     1      -7.583  -5.972  91.365  1.00  0.00     0.233 C 
BRANCH  18  19
ATOM     19  O   UNL     1      -6.727  -6.918  91.997  1.00  0.00    -0.466 OA
BRANCH  19  20
ATOM     20  C   UNL     1      -6.385  -6.838  93.350  1.00  0.00     0.302 C 
ATOM     21  O   UNL     1      -6.070  -5.733  93.870  1.00  0.00    -0.253 OA
ATOM     22  C   UNL     1      -6.436  -8.064  94.196  1.00  0.00     0.139 C 
ENDBRANCH  19  20
ENDBRANCH  18  19
ENDBRANCH  17  18
ENDBRANCH  16  17
ENDBRANCH  15  16
ENDBRANCH  14  15
ENDBRANCH  13  14
ENDBRANCH   1  13
TORSDOF 16
ENDMDL
MODEL 9
REMARK VINA RESULT:    -3.368      1.596      2.797
REMARK INTER + INTRA:         -10.096
REMARK INTER:                  -6.538
REMARK INTRA:                  -3.558
REMARK UNBOUND:                -3.577
REMARK SMILES CCCCCC=CCC=CCCCCCCCCOC(C)=O
REMARK SMILES IDX 12 1 11 2 10 3 9 4 8 5 7 6 6 7 5 8 4 9 3 10 2 11 1 12 13 13
REMARK SMILES IDX 14 14 15 15 16 16 17 17 18 18 19 19 20 20 22 21 21 22
REMARK H PARENT
REMARK Flexibility Score: inf
ROOT
ATOM      1  C   UNL     1     -11.664  -7.665  94.410  1.00  0.00     0.004 C 
ENDROOT
BRANCH   1   2
ATOM      2  C   UNL     1     -10.326  -8.393  94.607  1.00  0.00     0.027 C 
BRANCH   2   3
ATOM      3  C   UNL     1     -10.047  -9.344  93.470  1.00  0.00    -0.031 C 
ATOM      4  C   UNL     1     -10.420 -10.638  93.430  1.00  0.00    -0.027 C 
BRANCH   4   5
ATOM      5  C   UNL     1     -11.178 -11.360  94.514  1.00  0.00     0.054 C 
BRANCH   5   6
ATOM      6  C   UNL     1     -12.625 -11.497  94.110  1.00  0.00    -0.027 C 
ATOM      7  C   UNL     1     -13.675 -11.006  94.795  1.00  0.00    -0.031 C 
BRANCH   7   8
ATOM      8  C   UNL     1     -13.581 -10.215  96.078  1.00  0.00     0.027 C 
BRANCH   8   9
ATOM      9  C   UNL     1     -13.480 -11.116  97.318  1.00  0.00     0.004 C 
BRANCH   9  10
ATOM     10  C   UNL     1     -12.548 -10.526  98.386  1.00  0.00     0.000 C 
BRANCH  10  11
ATOM     11  C   UNL     1     -11.694  -9.392  97.805  1.00  0.00    -0.003 C 
ATOM     12  C   UNL     1     -10.253  -9.480  98.297  1.00  0.00     0.004 C 
ENDBRANCH  10  11
ENDBRANCH   9  10
ENDBRANCH   8   9
ENDBRANCH   7   8
ENDBRANCH   5   6
ENDBRANCH   4   5
ENDBRANCH   2   3
ENDBRANCH   1   2
BRANCH   1  13
ATOM     13  C   UNL     1     -12.024  -7.467  92.928  1.00  0.00     0.000 C 
BRANCH  13  14
ATOM     14  C   UNL     1     -13.421  -7.978  92.521  1.00  0.00     0.000 C 
BRANCH  14  15
ATOM     15  C   UNL     1     -13.434  -9.037  91.404  1.00  0.00     0.000 C 
BRANCH  15  16
ATOM     16  C   UNL     1     -12.232  -8.986  90.442  1.00  0.00     0.003 C 
BRANCH  16  17
ATOM     17  C   UNL     1     -11.680 -10.375  90.061  1.00  0.00     0.042 C 
BRANCH  17  18
ATOM     18  C   UNL     1     -10.233 -10.321  89.565  1.00  0.00     0.233 C 
BRANCH  18  19
ATOM     19  O   UNL     1      -9.666  -9.059  89.901  1.00  0.00    -0.466 OA
BRANCH  19  20
ATOM     20  C   UNL     1      -8.287  -8.864  90.031  1.00  0.00     0.302 C 
ATOM     21  O   UNL     1      -7.472  -9.603  89.415  1.00  0.00    -0.253 OA
ATOM     22  C   UNL     1      -7.779  -7.744  90.873  1.00  0.00     0.139 C 
ENDBRANCH  19  20
ENDBRANCH  18  19
ENDBRANCH  17  18
ENDBRANCH  16  17
ENDBRANCH  15  16
ENDBRANCH  14  15
ENDBRANCH  13  14
ENDBRANCH   1  13
TORSDOF 16
ENDMDL
