MODEL 1
REMARK VINA RESULT:    -5.129      0.000      0.000
REMARK INTER + INTRA:          -5.129
REMARK INTER:                  -5.129
REMARK INTRA:                   0.000
REMARK UNBOUND:                 0.000
REMARK SMILES C=C1CCC[C@@]2(C)CC(=O)C(=C(C)C)C[C@@H]12
REMARK SMILES IDX 13 1 12 2 11 3 15 4 16 5 2 6 1 7 3 8 4 9 5 10 6 11 8 12 9 13
REMARK SMILES IDX 10 14 7 15 14 16
REMARK H PARENT
REMARK Flexibility Score: inf
ROOT
ATOM      1  C   UNL     1       9.499  62.849  38.125  1.00  0.00     0.039 C 
ATOM      2  C   UNL     1       9.374  64.073  37.247  1.00  0.00    -0.070 C 
ATOM      3  C   UNL     1      10.384  64.453  36.413  1.00  0.00    -0.006 C 
ATOM      4  C   UNL     1      11.681  63.676  36.310  1.00  0.00     0.047 C 
ATOM      5  C   UNL     1      12.918  64.574  36.050  1.00  0.00     0.025 C 
ATOM      6  C   UNL     1      14.106  63.683  35.727  1.00  0.00    -0.073 C 
ATOM      7  C   UNL     1      15.002  63.369  36.675  1.00  0.00     0.008 C 
ATOM      8  C   UNL     1      14.177  63.029  34.362  1.00  0.00     0.031 C 
ATOM      9  C   UNL     1      13.879  64.032  33.239  1.00  0.00     0.005 C 
ATOM     10  C   UNL     1      12.639  64.900  33.528  1.00  0.00     0.008 C 
ATOM     11  C   UNL     1      12.712  65.620  34.908  1.00  0.00    -0.018 C 
ATOM     12  C   UNL     1      11.417  66.436  35.152  1.00  0.00     0.088 C 
ATOM     13  C   UNL     1      10.236  65.568  35.450  1.00  0.00     0.159 C 
ATOM     14  O   UNL     1       9.137  65.797  34.876  1.00  0.00    -0.295 OA
ATOM     15  C   UNL     1      13.888  66.633  34.910  1.00  0.00     0.012 C 
ATOM     16  C   UNL     1       8.101  64.880  37.363  1.00  0.00     0.039 C 
ENDROOT
TORSDOF 0
ENDMDL
MODEL 2
REMARK VINA RESULT:    -5.111     11.315     13.667
REMARK INTER + INTRA:          -5.111
REMARK INTER:                  -5.111
REMARK INTRA:                   0.000
REMARK UNBOUND:                 0.000
REMARK SMILES C=C1CCC[C@@]2(C)CC(=O)C(=C(C)C)C[C@@H]12
REMARK SMILES IDX 13 1 12 2 11 3 15 4 16 5 2 6 1 7 3 8 4 9 5 10 6 11 8 12 9 13
REMARK SMILES IDX 10 14 7 15 14 16
REMARK H PARENT
REMARK Flexibility Score: inf
ROOT
ATOM      1  C   UNL     1      20.065  53.195  34.768  1.00  0.00     0.039 C 
ATOM      2  C   UNL     1      19.230  52.847  33.557  1.00  0.00    -0.070 C 
ATOM      3  C   UNL     1      17.870  52.775  33.631  1.00  0.00    -0.006 C 
ATOM      4  C   UNL     1      17.116  53.044  34.918  1.00  0.00     0.047 C 
ATOM      5  C   UNL     1      15.842  52.176  35.078  1.00  0.00     0.025 C 
ATOM      6  C   UNL     1      15.047  52.693  36.266  1.00  0.00    -0.073 C 
ATOM      7  C   UNL     1      15.148  52.099  37.465  1.00  0.00     0.008 C 
ATOM      8  C   UNL     1      14.265  53.981  36.114  1.00  0.00     0.031 C 
ATOM      9  C   UNL     1      13.446  53.995  34.816  1.00  0.00     0.005 C 
ATOM     10  C   UNL     1      14.259  53.530  33.593  1.00  0.00     0.008 C 
ATOM     11  C   UNL     1      14.935  52.143  33.806  1.00  0.00    -0.018 C 
ATOM     12  C   UNL     1      15.771  51.759  32.558  1.00  0.00     0.088 C 
ATOM     13  C   UNL     1      17.023  52.566  32.434  1.00  0.00     0.159 C 
ATOM     14  O   UNL     1      17.337  53.057  31.315  1.00  0.00    -0.295 OA
ATOM     15  C   UNL     1      13.846  51.048  33.971  1.00  0.00     0.012 C 
ATOM     16  C   UNL     1      19.967  52.542  32.273  1.00  0.00     0.039 C 
ENDROOT
TORSDOF 0
ENDMDL
MODEL 3
REMARK VINA RESULT:    -5.092     11.897     13.494
REMARK INTER + INTRA:          -5.092
REMARK INTER:                  -5.092
REMARK INTRA:                   0.000
REMARK UNBOUND:                 0.000
REMARK SMILES C=C1CCC[C@@]2(C)CC(=O)C(=C(C)C)C[C@@H]12
REMARK SMILES IDX 13 1 12 2 11 3 15 4 16 5 2 6 1 7 3 8 4 9 5 10 6 11 8 12 9 13
REMARK SMILES IDX 10 14 7 15 14 16
REMARK H PARENT
REMARK Flexibility Score: inf
ROOT
ATOM      1  C   UNL     1      15.012  50.744  31.113  1.00  0.00     0.039 C 
ATOM      2  C   UNL     1      14.853  51.155  32.559  1.00  0.00    -0.070 C 
ATOM      3  C   UNL     1      15.795  51.914  33.188  1.00  0.00    -0.006 C 
ATOM      4  C   UNL     1      17.047  52.394  32.483  1.00  0.00     0.047 C 
ATOM      5  C   UNL     1      18.287  52.466  33.411  1.00  0.00     0.025 C 
ATOM      6  C   UNL     1      19.408  53.179  32.671  1.00  0.00    -0.073 C 
ATOM      7  C   UNL     1      20.375  52.479  32.058  1.00  0.00     0.008 C 
ATOM      8  C   UNL     1      19.328  54.682  32.504  1.00  0.00     0.031 C 
ATOM      9  C   UNL     1      18.966  55.379  33.823  1.00  0.00     0.005 C 
ATOM     10  C   UNL     1      17.791  54.701  34.552  1.00  0.00     0.008 C 
ATOM     11  C   UNL     1      18.016  53.176  34.776  1.00  0.00    -0.018 C 
ATOM     12  C   UNL     1      16.780  52.551  35.472  1.00  0.00     0.088 C 
ATOM     13  C   UNL     1      15.600  52.439  34.560  1.00  0.00     0.159 C 
ATOM     14  O   UNL     1      14.462  52.795  34.970  1.00  0.00    -0.295 OA
ATOM     15  C   UNL     1      19.224  52.957  35.726  1.00  0.00     0.012 C 
ATOM     16  C   UNL     1      13.626  50.657  33.288  1.00  0.00     0.039 C 
ENDROOT
TORSDOF 0
ENDMDL
MODEL 4
REMARK VINA RESULT:    -4.970     11.879     14.362
REMARK INTER + INTRA:          -4.970
REMARK INTER:                  -4.970
REMARK INTRA:                   0.000
REMARK UNBOUND:                 0.000
REMARK SMILES C=C1CCC[C@@]2(C)CC(=O)C(=C(C)C)C[C@@H]12
REMARK SMILES IDX 13 1 12 2 11 3 15 4 16 5 2 6 1 7 3 8 4 9 5 10 6 11 8 12 9 13
REMARK SMILES IDX 10 14 7 15 14 16
REMARK H PARENT
REMARK Flexibility Score: inf
ROOT
ATOM      1  C   UNL     1      13.927  63.100  25.247  1.00  0.00     0.039 C 
ATOM      2  C   UNL     1      13.400  62.665  23.899  1.00  0.00    -0.070 C 
ATOM      3  C   UNL     1      14.158  61.912  23.051  1.00  0.00    -0.006 C 
ATOM      4  C   UNL     1      15.561  61.463  23.406  1.00  0.00     0.047 C 
ATOM      5  C   UNL     1      16.513  61.397  22.184  1.00  0.00     0.025 C 
ATOM      6  C   UNL     1      17.803  60.714  22.609  1.00  0.00    -0.073 C 
ATOM      7  C   UNL     1      18.883  61.438  22.938  1.00  0.00     0.008 C 
ATOM      8  C   UNL     1      17.800  59.212  22.807  1.00  0.00     0.031 C 
ATOM      9  C   UNL     1      17.116  58.489  21.638  1.00  0.00     0.005 C 
ATOM     10  C   UNL     1      15.777  59.137  21.238  1.00  0.00     0.008 C 
ATOM     11  C   UNL     1      15.905  60.662  20.947  1.00  0.00    -0.018 C 
ATOM     12  C   UNL     1      14.517  61.256  20.596  1.00  0.00     0.088 C 
ATOM     13  C   UNL     1      13.618  61.363  21.786  1.00  0.00     0.159 C 
ATOM     14  O   UNL     1      12.420  60.982  21.694  1.00  0.00    -0.295 OA
ATOM     15  C   UNL     1      16.815  60.885  19.709  1.00  0.00     0.012 C 
ATOM     16  C   UNL     1      12.015  63.132  23.514  1.00  0.00     0.039 C 
ENDROOT
TORSDOF 0
ENDMDL
MODEL 5
REMARK VINA RESULT:    -4.903     18.650     20.430
REMARK INTER + INTRA:          -4.903
REMARK INTER:                  -4.903
REMARK INTRA:                   0.000
REMARK UNBOUND:                 0.000
REMARK SMILES C=C1CCC[C@@]2(C)CC(=O)C(=C(C)C)C[C@@H]12
REMARK SMILES IDX 13 1 12 2 11 3 15 4 16 5 2 6 1 7 3 8 4 9 5 10 6 11 8 12 9 13
REMARK SMILES IDX 10 14 7 15 14 16
REMARK H PARENT
REMARK Flexibility Score: inf
ROOT
ATOM      1  C   UNL     1       7.641  49.496  22.750  1.00  0.00     0.039 C 
ATOM      2  C   UNL     1       8.993  48.950  22.349  1.00  0.00    -0.070 C 
ATOM      3  C   UNL     1       9.912  49.732  21.715  1.00  0.00    -0.006 C 
ATOM      4  C   UNL     1       9.643  51.186  21.382  1.00  0.00     0.047 C 
ATOM      5  C   UNL     1      10.303  51.646  20.057  1.00  0.00     0.025 C 
ATOM      6  C   UNL     1      10.173  53.157  19.948  1.00  0.00    -0.073 C 
ATOM      7  C   UNL     1       9.194  53.707  19.213  1.00  0.00     0.008 C 
ATOM      8  C   UNL     1      11.068  54.028  20.805  1.00  0.00     0.031 C 
ATOM      9  C   UNL     1      12.530  53.564  20.750  1.00  0.00     0.005 C 
ATOM     10  C   UNL     1      12.678  52.040  20.921  1.00  0.00     0.008 C 
ATOM     11  C   UNL     1      11.803  51.231  19.919  1.00  0.00    -0.018 C 
ATOM     12  C   UNL     1      11.966  49.710  20.175  1.00  0.00     0.088 C 
ATOM     13  C   UNL     1      11.288  49.262  21.430  1.00  0.00     0.159 C 
ATOM     14  O   UNL     1      11.896  48.495  22.224  1.00  0.00    -0.295 OA
ATOM     15  C   UNL     1      12.285  51.495  18.467  1.00  0.00     0.012 C 
ATOM     16  C   UNL     1       9.265  47.493  22.643  1.00  0.00     0.039 C 
ENDROOT
TORSDOF 0
ENDMDL
MODEL 6
REMARK VINA RESULT:    -4.829     11.442     14.064
REMARK INTER + INTRA:          -4.829
REMARK INTER:                  -4.829
REMARK INTRA:                   0.000
REMARK UNBOUND:                 0.000
REMARK SMILES C=C1CCC[C@@]2(C)CC(=O)C(=C(C)C)C[C@@H]12
REMARK SMILES IDX 13 1 12 2 11 3 15 4 16 5 2 6 1 7 3 8 4 9 5 10 6 11 8 12 9 13
REMARK SMILES IDX 10 14 7 15 14 16
REMARK H PARENT
REMARK Flexibility Score: inf
ROOT
ATOM      1  C   UNL     1      20.134  52.250  31.236  1.00  0.00     0.039 C 
ATOM      2  C   UNL     1      20.067  52.771  32.653  1.00  0.00    -0.070 C 
ATOM      3  C   UNL     1      18.885  52.830  33.331  1.00  0.00    -0.006 C 
ATOM      4  C   UNL     1      17.578  52.376  32.715  1.00  0.00     0.047 C 
ATOM      5  C   UNL     1      16.357  53.211  33.179  1.00  0.00     0.025 C 
ATOM      6  C   UNL     1      15.088  52.527  32.696  1.00  0.00    -0.073 C 
ATOM      7  C   UNL     1      14.471  52.940  31.578  1.00  0.00     0.008 C 
ATOM      8  C   UNL     1      14.621  51.274  33.408  1.00  0.00     0.031 C 
ATOM      9  C   UNL     1      14.644  51.448  34.933  1.00  0.00     0.005 C 
ATOM     10  C   UNL     1      15.951  52.086  35.440  1.00  0.00     0.008 C 
ATOM     11  C   UNL     1      16.288  53.428  34.724  1.00  0.00    -0.018 C 
ATOM     12  C   UNL     1      17.634  53.990  35.249  1.00  0.00     0.088 C 
ATOM     13  C   UNL     1      18.813  53.210  34.761  1.00  0.00     0.159 C 
ATOM     14  O   UNL     1      19.723  52.887  35.572  1.00  0.00    -0.295 OA
ATOM     15  C   UNL     1      15.201  54.487  35.054  1.00  0.00     0.012 C 
ATOM     16  C   UNL     1      21.357  53.259  33.272  1.00  0.00     0.039 C 
ENDROOT
TORSDOF 0
ENDMDL
MODEL 7
REMARK VINA RESULT:    -4.812     12.797     13.641
REMARK INTER + INTRA:          -4.812
REMARK INTER:                  -4.812
REMARK INTRA:                   0.000
REMARK UNBOUND:                 0.000
REMARK SMILES C=C1CCC[C@@]2(C)CC(=O)C(=C(C)C)C[C@@H]12
REMARK SMILES IDX 13 1 12 2 11 3 15 4 16 5 2 6 1 7 3 8 4 9 5 10 6 11 8 12 9 13
REMARK SMILES IDX 10 14 7 15 14 16
REMARK H PARENT
REMARK Flexibility Score: inf
ROOT
ATOM      1  C   UNL     1      14.550  51.589  33.837  1.00  0.00     0.039 C 
ATOM      2  C   UNL     1      15.677  51.972  34.768  1.00  0.00    -0.070 C 
ATOM      3  C   UNL     1      16.838  52.508  34.292  1.00  0.00    -0.006 C 
ATOM      4  C   UNL     1      17.066  52.756  32.815  1.00  0.00     0.047 C 
ATOM      5  C   UNL     1      18.538  52.550  32.376  1.00  0.00     0.025 C 
ATOM      6  C   UNL     1      18.696  53.053  30.951  1.00  0.00    -0.073 C 
ATOM      7  C   UNL     1      18.662  52.199  29.917  1.00  0.00     0.008 C 
ATOM      8  C   UNL     1      18.734  54.548  30.707  1.00  0.00     0.031 C 
ATOM      9  C   UNL     1      19.684  55.256  31.683  1.00  0.00     0.005 C 
ATOM     10  C   UNL     1      19.491  54.797  33.141  1.00  0.00     0.008 C 
ATOM     11  C   UNL     1      19.580  53.251  33.306  1.00  0.00    -0.018 C 
ATOM     12  C   UNL     1      19.332  52.857  34.785  1.00  0.00     0.088 C 
ATOM     13  C   UNL     1      17.902  53.012  35.191  1.00  0.00     0.159 C 
ATOM     14  O   UNL     1      17.624  53.571  36.286  1.00  0.00    -0.295 OA
ATOM     15  C   UNL     1      21.010  52.765  32.946  1.00  0.00     0.012 C 
ATOM     16  C   UNL     1      15.480  51.700  36.242  1.00  0.00     0.039 C 
ENDROOT
TORSDOF 0
ENDMDL
MODEL 8
REMARK VINA RESULT:    -4.777     13.112     15.408
REMARK INTER + INTRA:          -4.777
REMARK INTER:                  -4.777
REMARK INTRA:                   0.000
REMARK UNBOUND:                 0.000
REMARK SMILES C=C1CCC[C@@]2(C)CC(=O)C(=C(C)C)C[C@@H]12
REMARK SMILES IDX 13 1 12 2 11 3 15 4 16 5 2 6 1 7 3 8 4 9 5 10 6 11 8 12 9 13
REMARK SMILES IDX 10 14 7 15 14 16
REMARK H PARENT
REMARK Flexibility Score: inf
ROOT
ATOM      1  C   UNL     1      17.969  63.145  24.598  1.00  0.00     0.039 C 
ATOM      2  C   UNL     1      18.367  61.989  23.709  1.00  0.00    -0.070 C 
ATOM      3  C   UNL     1      17.470  61.400  22.869  1.00  0.00    -0.006 C 
ATOM      4  C   UNL     1      16.031  61.866  22.769  1.00  0.00     0.047 C 
ATOM      5  C   UNL     1      15.029  60.715  22.497  1.00  0.00     0.025 C 
ATOM      6  C   UNL     1      13.670  61.318  22.178  1.00  0.00    -0.073 C 
ATOM      7  C   UNL     1      12.726  61.412  23.127  1.00  0.00     0.008 C 
ATOM      8  C   UNL     1      13.456  61.952  20.820  1.00  0.00     0.031 C 
ATOM      9  C   UNL     1      13.972  61.053  19.688  1.00  0.00     0.005 C 
ATOM     10  C   UNL     1      15.376  60.485  19.973  1.00  0.00     0.008 C 
ATOM     11  C   UNL     1      15.466  59.754  21.345  1.00  0.00    -0.018 C 
ATOM     12  C   UNL     1      16.912  59.248  21.586  1.00  0.00     0.088 C 
ATOM     13  C   UNL     1      17.866  60.356  21.895  1.00  0.00     0.159 C 
ATOM     14  O   UNL     1      18.988  60.386  21.322  1.00  0.00    -0.295 OA
ATOM     15  C   UNL     1      14.548  58.501  21.335  1.00  0.00     0.012 C 
ATOM     16  C   UNL     1      19.789  61.489  23.821  1.00  0.00     0.039 C 
ENDROOT
TORSDOF 0
ENDMDL
MODEL 9
REMARK VINA RESULT:    -4.769      2.125      4.686
REMARK INTER + INTRA:          -4.769
REMARK INTER:                  -4.769
REMARK INTRA:                   0.000
REMARK UNBOUND:                 0.000
REMARK SMILES C=C1CCC[C@@]2(C)CC(=O)C(=C(C)C)C[C@@H]12
REMARK SMILES IDX 13 1 12 2 11 3 15 4 16 5 2 6 1 7 3 8 4 9 5 10 6 11 8 12 9 13
REMARK SMILES IDX 10 14 7 15 14 16
REMARK H PARENT
REMARK Flexibility Score: inf
ROOT
ATOM      1  C   UNL     1      14.786  64.449  31.100  1.00  0.00     0.039 C 
ATOM      2  C   UNL     1      14.055  65.309  32.106  1.00  0.00    -0.070 C 
ATOM      3  C   UNL     1      13.866  64.891  33.390  1.00  0.00    -0.006 C 
ATOM      4  C   UNL     1      14.377  63.554  33.887  1.00  0.00     0.047 C 
ATOM      5  C   UNL     1      13.454  62.896  34.944  1.00  0.00     0.025 C 
ATOM      6  C   UNL     1      14.174  61.697  35.541  1.00  0.00    -0.073 C 
ATOM      7  C   UNL     1      13.921  60.457  35.096  1.00  0.00     0.008 C 
ATOM      8  C   UNL     1      15.293  61.941  36.533  1.00  0.00     0.031 C 
ATOM      9  C   UNL     1      14.889  62.968  37.600  1.00  0.00     0.005 C 
ATOM     10  C   UNL     1      14.212  64.215  37.000  1.00  0.00     0.008 C 
ATOM     11  C   UNL     1      13.003  63.865  36.083  1.00  0.00    -0.018 C 
ATOM     12  C   UNL     1      12.399  65.160  35.480  1.00  0.00     0.088 C 
ATOM     13  C   UNL     1      13.271  65.766  34.427  1.00  0.00     0.159 C 
ATOM     14  O   UNL     1      13.488  67.008  34.440  1.00  0.00    -0.295 OA
ATOM     15  C   UNL     1      11.881  63.197  36.923  1.00  0.00     0.012 C 
ATOM     16  C   UNL     1      13.507  66.631  31.619  1.00  0.00     0.039 C 
ENDROOT
TORSDOF 0
ENDMDL
