MODEL 1
REMARK VINA RESULT:    -4.995      0.000      0.000
REMARK INTER + INTRA:         -10.336
REMARK INTER:                  -8.790
REMARK INTRA:                  -1.546
REMARK UNBOUND:                -1.546
REMARK SMILES CCCCCCCCCCCCCCC(=O)[O-]
REMARK SMILES IDX 9 1 10 2 11 3 12 4 13 5 14 6 15 7 16 8 17 9 8 10 7 11 6 12
REMARK SMILES IDX 5 13 4 14 3 15 2 16 1 17
REMARK H PARENT
REMARK Flexibility Score: inf
ROOT
ATOM      1  C   UNL     1       6.921  54.653  21.548  1.00  0.00     0.000 C 
ENDROOT
BRANCH   1   2
ATOM      2  C   UNL     1       7.555  55.945  22.093  1.00  0.00     0.000 C 
BRANCH   2   3
ATOM      3  C   UNL     1       6.672  57.181  21.857  1.00  0.00     0.000 C 
BRANCH   3   4
ATOM      4  C   UNL     1       5.297  57.066  22.532  1.00  0.00     0.000 C 
BRANCH   4   5
ATOM      5  C   UNL     1       4.296  58.051  21.907  1.00  0.00     0.006 C 
BRANCH   5   6
ATOM      6  C   UNL     1       3.583  58.904  22.965  1.00  0.00     0.053 C 
BRANCH   6   7
ATOM      7  C   UNL     1       2.816  60.031  22.344  1.00  0.00     0.041 C 
ATOM      8  O   UNL     1       3.113  60.441  21.191  1.00  0.00    -0.550 OA
ATOM      9  O   UNL     1       1.753  60.607  23.026  1.00  0.00    -0.550 OA
ENDBRANCH   6   7
ENDBRANCH   5   6
ENDBRANCH   4   5
ENDBRANCH   3   4
ENDBRANCH   2   3
ENDBRANCH   1   2
BRANCH   1  10
ATOM     10  C   UNL     1       6.857  53.531  22.599  1.00  0.00     0.000 C 
BRANCH  10  11
ATOM     11  C   UNL     1       6.607  54.003  24.046  1.00  0.00    -0.000 C 
BRANCH  11  12
ATOM     12  C   UNL     1       7.571  53.424  25.102  1.00  0.00    -0.000 C 
BRANCH  12  13
ATOM     13  C   UNL     1       8.335  54.468  25.937  1.00  0.00    -0.000 C 
BRANCH  13  14
ATOM     14  C   UNL     1       9.431  55.187  25.136  1.00  0.00    -0.000 C 
BRANCH  14  15
ATOM     15  C   UNL     1      10.545  54.235  24.666  1.00  0.00    -0.000 C 
BRANCH  15  16
ATOM     16  C   UNL     1      10.492  53.918  23.157  1.00  0.00    -0.003 C 
ATOM     17  C   UNL     1      10.364  52.420  22.883  1.00  0.00     0.004 C 
ENDBRANCH  15  16
ENDBRANCH  14  15
ENDBRANCH  13  14
ENDBRANCH  12  13
ENDBRANCH  11  12
ENDBRANCH  10  11
ENDBRANCH   1  10
TORSDOF 13
ENDMDL
MODEL 2
REMARK VINA RESULT:    -4.781      3.913      5.942
REMARK INTER + INTRA:          -9.961
REMARK INTER:                  -8.589
REMARK INTRA:                  -1.372
REMARK UNBOUND:                -1.546
REMARK SMILES CCCCCCCCCCCCCCC(=O)[O-]
REMARK SMILES IDX 9 1 10 2 11 3 12 4 13 5 14 6 15 7 16 8 17 9 8 10 7 11 6 12
REMARK SMILES IDX 5 13 4 14 3 15 2 16 1 17
REMARK H PARENT
REMARK Flexibility Score: inf
ROOT
ATOM      1  C   UNL     1      10.350  54.023  24.738  1.00  0.00     0.000 C 
ENDROOT
BRANCH   1   2
ATOM      2  C   UNL     1       9.122  54.889  25.065  1.00  0.00     0.000 C 
BRANCH   2   3
ATOM      3  C   UNL     1       7.947  54.063  25.615  1.00  0.00     0.000 C 
BRANCH   3   4
ATOM      4  C   UNL     1       7.027  53.529  24.506  1.00  0.00     0.000 C 
BRANCH   4   5
ATOM      5  C   UNL     1       6.933  54.531  23.344  1.00  0.00     0.006 C 
BRANCH   5   6
ATOM      6  C   UNL     1       6.758  53.833  21.988  1.00  0.00     0.053 C 
BRANCH   6   7
ATOM      7  C   UNL     1       7.514  54.535  20.902  1.00  0.00     0.041 C 
ATOM      8  O   UNL     1       8.033  55.661  21.116  1.00  0.00    -0.550 OA
ATOM      9  O   UNL     1       7.671  53.929  19.662  1.00  0.00    -0.550 OA
ENDBRANCH   6   7
ENDBRANCH   5   6
ENDBRANCH   4   5
ENDBRANCH   3   4
ENDBRANCH   2   3
ENDBRANCH   1   2
BRANCH   1  10
ATOM     10  C   UNL     1      10.563  53.837  23.225  1.00  0.00     0.000 C 
BRANCH  10  11
ATOM     11  C   UNL     1      10.213  52.437  22.682  1.00  0.00    -0.000 C 
BRANCH  11  12
ATOM     12  C   UNL     1       9.860  51.386  23.755  1.00  0.00    -0.000 C 
BRANCH  12  13
ATOM     13  C   UNL     1      10.748  50.128  23.758  1.00  0.00    -0.000 C 
BRANCH  13  14
ATOM     14  C   UNL     1      10.253  49.049  24.732  1.00  0.00    -0.000 C 
BRANCH  14  15
ATOM     15  C   UNL     1      10.401  47.625  24.169  1.00  0.00    -0.000 C 
BRANCH  15  16
ATOM     16  C   UNL     1       9.954  46.521  25.149  1.00  0.00    -0.003 C 
ATOM     17  C   UNL     1      10.355  45.125  24.673  1.00  0.00     0.004 C 
ENDBRANCH  15  16
ENDBRANCH  14  15
ENDBRANCH  13  14
ENDBRANCH  12  13
ENDBRANCH  11  12
ENDBRANCH  10  11
ENDBRANCH   1  10
TORSDOF 13
ENDMDL
MODEL 3
REMARK VINA RESULT:    -4.707      3.590      7.644
REMARK INTER + INTRA:          -9.830
REMARK INTER:                  -9.066
REMARK INTRA:                  -0.765
REMARK UNBOUND:                -1.546
REMARK SMILES CCCCCCCCCCCCCCC(=O)[O-]
REMARK SMILES IDX 9 1 10 2 11 3 12 4 13 5 14 6 15 7 16 8 17 9 8 10 7 11 6 12
REMARK SMILES IDX 5 13 4 14 3 15 2 16 1 17
REMARK H PARENT
REMARK Flexibility Score: inf
ROOT
ATOM      1  C   UNL     1       7.566  55.876  20.791  1.00  0.00     0.000 C 
ENDROOT
BRANCH   1   2
ATOM      2  C   UNL     1       7.591  54.342  20.906  1.00  0.00     0.000 C 
BRANCH   2   3
ATOM      3  C   UNL     1       8.074  53.862  22.285  1.00  0.00     0.000 C 
BRANCH   3   4
ATOM      4  C   UNL     1       9.604  53.892  22.421  1.00  0.00     0.000 C 
BRANCH   4   5
ATOM      5  C   UNL     1      10.029  53.635  23.876  1.00  0.00     0.006 C 
BRANCH   5   6
ATOM      6  C   UNL     1       9.831  54.871  24.765  1.00  0.00     0.053 C 
BRANCH   6   7
ATOM      7  C   UNL     1       9.117  54.530  26.037  1.00  0.00     0.041 C 
ATOM      8  O   UNL     1       9.709  54.631  27.143  1.00  0.00    -0.550 OA
ATOM      9  O   UNL     1       7.787  54.132  26.002  1.00  0.00    -0.550 OA
ENDBRANCH   6   7
ENDBRANCH   5   6
ENDBRANCH   4   5
ENDBRANCH   3   4
ENDBRANCH   2   3
ENDBRANCH   1   2
BRANCH   1  10
ATOM     10  C   UNL     1       7.061  56.561  22.074  1.00  0.00     0.000 C 
BRANCH  10  11
ATOM     11  C   UNL     1       5.539  56.481  22.303  1.00  0.00    -0.000 C 
BRANCH  11  12
ATOM     12  C   UNL     1       4.866  57.804  22.723  1.00  0.00    -0.000 C 
BRANCH  12  13
ATOM     13  C   UNL     1       3.599  58.176  21.932  1.00  0.00    -0.000 C 
BRANCH  13  14
ATOM     14  C   UNL     1       3.543  59.664  21.556  1.00  0.00    -0.000 C 
BRANCH  14  15
ATOM     15  C   UNL     1       2.717  60.498  22.551  1.00  0.00    -0.000 C 
BRANCH  15  16
ATOM     16  C   UNL     1       1.764  59.656  23.424  1.00  0.00    -0.003 C 
ATOM     17  C   UNL     1       0.641  60.494  24.033  1.00  0.00     0.004 C 
ENDBRANCH  15  16
ENDBRANCH  14  15
ENDBRANCH  13  14
ENDBRANCH  12  13
ENDBRANCH  11  12
ENDBRANCH  10  11
ENDBRANCH   1  10
TORSDOF 13
ENDMDL
MODEL 4
REMARK VINA RESULT:    -4.700      1.685      2.996
REMARK INTER + INTRA:          -9.818
REMARK INTER:                  -8.948
REMARK INTRA:                  -0.870
REMARK UNBOUND:                -1.546
REMARK SMILES CCCCCCCCCCCCCCC(=O)[O-]
REMARK SMILES IDX 9 1 10 2 11 3 12 4 13 5 14 6 15 7 16 8 17 9 8 10 7 11 6 12
REMARK SMILES IDX 5 13 4 14 3 15 2 16 1 17
REMARK H PARENT
REMARK Flexibility Score: inf
ROOT
ATOM      1  C   UNL     1       6.035  56.856  21.726  1.00  0.00     0.000 C 
ENDROOT
BRANCH   1   2
ATOM      2  C   UNL     1       4.973  57.515  22.622  1.00  0.00     0.000 C 
BRANCH   2   3
ATOM      3  C   UNL     1       3.667  57.812  21.867  1.00  0.00     0.000 C 
BRANCH   3   4
ATOM      4  C   UNL     1       3.385  59.317  21.739  1.00  0.00     0.000 C 
BRANCH   4   5
ATOM      5  C   UNL     1       2.629  59.839  22.970  1.00  0.00     0.006 C 
BRANCH   5   6
ATOM      6  C   UNL     1       1.345  59.043  23.244  1.00  0.00     0.053 C 
BRANCH   6   7
ATOM      7  C   UNL     1       0.569  59.618  24.389  1.00  0.00     0.041 C 
ATOM      8  O   UNL     1       0.149  58.870  25.311  1.00  0.00    -0.550 OA
ATOM      9  O   UNL     1       0.338  60.986  24.455  1.00  0.00    -0.550 OA
ENDBRANCH   6   7
ENDBRANCH   5   6
ENDBRANCH   4   5
ENDBRANCH   3   4
ENDBRANCH   2   3
ENDBRANCH   1   2
BRANCH   1  10
ATOM     10  C   UNL     1       7.349  56.567  22.474  1.00  0.00     0.000 C 
BRANCH  10  11
ATOM     11  C   UNL     1       8.023  55.227  22.119  1.00  0.00    -0.000 C 
BRANCH  11  12
ATOM     12  C   UNL     1       7.212  53.966  22.485  1.00  0.00    -0.000 C 
BRANCH  12  13
ATOM     13  C   UNL     1       6.870  53.817  23.979  1.00  0.00    -0.000 C 
BRANCH  13  14
ATOM     14  C   UNL     1       8.071  53.371  24.825  1.00  0.00    -0.000 C 
BRANCH  14  15
ATOM     15  C   UNL     1       8.528  54.448  25.825  1.00  0.00    -0.000 C 
BRANCH  15  16
ATOM     16  C   UNL     1       9.860  55.125  25.441  1.00  0.00    -0.003 C 
ATOM     17  C   UNL     1      11.037  54.594  26.258  1.00  0.00     0.004 C 
ENDBRANCH  15  16
ENDBRANCH  14  15
ENDBRANCH  13  14
ENDBRANCH  12  13
ENDBRANCH  11  12
ENDBRANCH  10  11
ENDBRANCH   1  10
TORSDOF 13
ENDMDL
MODEL 5
REMARK VINA RESULT:    -4.675      6.485      9.541
REMARK INTER + INTRA:          -9.773
REMARK INTER:                  -8.330
REMARK INTRA:                  -1.443
REMARK UNBOUND:                -1.546
REMARK SMILES CCCCCCCCCCCCCCC(=O)[O-]
REMARK SMILES IDX 9 1 10 2 11 3 12 4 13 5 14 6 15 7 16 8 17 9 8 10 7 11 6 12
REMARK SMILES IDX 5 13 4 14 3 15 2 16 1 17
REMARK H PARENT
REMARK Flexibility Score: inf
ROOT
ATOM      1  C   UNL     1      10.266  52.565  22.737  1.00  0.00     0.000 C 
ENDROOT
BRANCH   1   2
ATOM      2  C   UNL     1       9.929  51.486  23.780  1.00  0.00     0.000 C 
BRANCH   2   3
ATOM      3  C   UNL     1      10.499  50.107  23.407  1.00  0.00     0.000 C 
BRANCH   3   4
ATOM      4  C   UNL     1      10.483  49.120  24.584  1.00  0.00     0.000 C 
BRANCH   4   5
ATOM      5  C   UNL     1      10.938  47.723  24.133  1.00  0.00     0.006 C 
BRANCH   5   6
ATOM      6  C   UNL     1      12.367  47.401  24.593  1.00  0.00     0.053 C 
BRANCH   6   7
ATOM      7  C   UNL     1      12.446  47.234  26.079  1.00  0.00     0.041 C 
ATOM      8  O   UNL     1      13.227  47.951  26.758  1.00  0.00    -0.550 OA
ATOM      9  O   UNL     1      11.633  46.307  26.719  1.00  0.00    -0.550 OA
ENDBRANCH   6   7
ENDBRANCH   5   6
ENDBRANCH   4   5
ENDBRANCH   3   4
ENDBRANCH   2   3
ENDBRANCH   1   2
BRANCH   1  10
ATOM     10  C   UNL     1      10.389  53.970  23.353  1.00  0.00     0.000 C 
BRANCH  10  11
ATOM     11  C   UNL     1       9.967  54.075  24.833  1.00  0.00    -0.000 C 
BRANCH  11  12
ATOM     12  C   UNL     1       8.592  54.732  25.079  1.00  0.00    -0.000 C 
BRANCH  12  13
ATOM     13  C   UNL     1       7.379  53.907  24.612  1.00  0.00    -0.000 C 
BRANCH  13  14
ATOM     14  C   UNL     1       6.631  54.557  23.438  1.00  0.00    -0.000 C 
BRANCH  14  15
ATOM     15  C   UNL     1       6.823  53.795  22.115  1.00  0.00    -0.000 C 
BRANCH  15  16
ATOM     16  C   UNL     1       7.519  54.627  21.017  1.00  0.00    -0.003 C 
ATOM     17  C   UNL     1       7.899  56.025  21.502  1.00  0.00     0.004 C 
ENDBRANCH  15  16
ENDBRANCH  14  15
ENDBRANCH  13  14
ENDBRANCH  12  13
ENDBRANCH  11  12
ENDBRANCH  10  11
ENDBRANCH   1  10
TORSDOF 13
ENDMDL
MODEL 6
REMARK VINA RESULT:    -4.673      1.163      2.049
REMARK INTER + INTRA:          -9.769
REMARK INTER:                  -8.766
REMARK INTRA:                  -1.004
REMARK UNBOUND:                -1.546
REMARK SMILES CCCCCCCCCCCCCCC(=O)[O-]
REMARK SMILES IDX 9 1 10 2 11 3 12 4 13 5 14 6 15 7 16 8 17 9 8 10 7 11 6 12
REMARK SMILES IDX 5 13 4 14 3 15 2 16 1 17
REMARK H PARENT
REMARK Flexibility Score: inf
ROOT
ATOM      1  C   UNL     1       7.158  55.304  20.726  1.00  0.00     0.000 C 
ENDROOT
BRANCH   1   2
ATOM      2  C   UNL     1       7.610  56.631  21.360  1.00  0.00     0.000 C 
BRANCH   2   3
ATOM      3  C   UNL     1       6.796  56.994  22.613  1.00  0.00     0.000 C 
BRANCH   3   4
ATOM      4  C   UNL     1       5.291  56.738  22.436  1.00  0.00     0.000 C 
BRANCH   4   5
ATOM      5  C   UNL     1       4.531  58.061  22.246  1.00  0.00     0.006 C 
BRANCH   5   6
ATOM      6  C   UNL     1       3.056  57.836  21.885  1.00  0.00     0.053 C 
BRANCH   6   7
ATOM      7  C   UNL     1       2.488  58.997  21.128  1.00  0.00     0.041 C 
ATOM      8  O   UNL     1       2.247  58.895  19.896  1.00  0.00    -0.550 OA
ATOM      9  O   UNL     1       2.194  60.182  21.790  1.00  0.00    -0.550 OA
ENDBRANCH   6   7
ENDBRANCH   5   6
ENDBRANCH   4   5
ENDBRANCH   3   4
ENDBRANCH   2   3
ENDBRANCH   1   2
BRANCH   1  10
ATOM     10  C   UNL     1       7.782  54.074  21.409  1.00  0.00     0.000 C 
BRANCH  10  11
ATOM     11  C   UNL     1       7.063  53.601  22.688  1.00  0.00    -0.000 C 
BRANCH  11  12
ATOM     12  C   UNL     1       7.980  53.004  23.775  1.00  0.00    -0.000 C 
BRANCH  12  13
ATOM     13  C   UNL     1       9.320  52.441  23.266  1.00  0.00    -0.000 C 
BRANCH  13  14
ATOM     14  C   UNL     1      10.535  53.216  23.798  1.00  0.00    -0.000 C 
BRANCH  14  15
ATOM     15  C   UNL     1      10.153  54.579  24.401  1.00  0.00    -0.000 C 
BRANCH  15  16
ATOM     16  C   UNL     1      10.618  54.762  25.861  1.00  0.00    -0.003 C 
ATOM     17  C   UNL     1       9.451  54.751  26.847  1.00  0.00     0.004 C 
ENDBRANCH  15  16
ENDBRANCH  14  15
ENDBRANCH  13  14
ENDBRANCH  12  13
ENDBRANCH  11  12
ENDBRANCH  10  11
ENDBRANCH   1  10
TORSDOF 13
ENDMDL
MODEL 7
REMARK VINA RESULT:    -4.669      1.781      3.031
REMARK INTER + INTRA:          -9.763
REMARK INTER:                  -8.617
REMARK INTRA:                  -1.147
REMARK UNBOUND:                -1.546
REMARK SMILES CCCCCCCCCCCCCCC(=O)[O-]
REMARK SMILES IDX 9 1 10 2 11 3 12 4 13 5 14 6 15 7 16 8 17 9 8 10 7 11 6 12
REMARK SMILES IDX 5 13 4 14 3 15 2 16 1 17
REMARK H PARENT
REMARK Flexibility Score: inf
ROOT
ATOM      1  C   UNL     1       6.449  57.036  21.682  1.00  0.00     0.000 C 
ENDROOT
BRANCH   1   2
ATOM      2  C   UNL     1       5.193  57.235  22.547  1.00  0.00     0.000 C 
BRANCH   2   3
ATOM      3  C   UNL     1       4.164  58.167  21.887  1.00  0.00     0.000 C 
BRANCH   3   4
ATOM      4  C   UNL     1       2.718  57.830  22.282  1.00  0.00     0.000 C 
BRANCH   4   5
ATOM      5  C   UNL     1       1.718  58.603  21.408  1.00  0.00     0.006 C 
BRANCH   5   6
ATOM      6  C   UNL     1       2.393  59.262  20.197  1.00  0.00     0.053 C 
BRANCH   6   7
ATOM      7  C   UNL     1       1.406  59.574  19.114  1.00  0.00     0.041 C 
ATOM      8  O   UNL     1       1.105  58.701  18.259  1.00  0.00    -0.550 OA
ATOM      9  O   UNL     1       0.795  60.820  19.070  1.00  0.00    -0.550 OA
ENDBRANCH   6   7
ENDBRANCH   5   6
ENDBRANCH   4   5
ENDBRANCH   3   4
ENDBRANCH   2   3
ENDBRANCH   1   2
BRANCH   1  10
ATOM     10  C   UNL     1       7.655  56.523  22.491  1.00  0.00     0.000 C 
BRANCH  10  11
ATOM     11  C   UNL     1       8.171  55.129  22.083  1.00  0.00    -0.000 C 
BRANCH  11  12
ATOM     12  C   UNL     1       7.128  53.994  22.160  1.00  0.00    -0.000 C 
BRANCH  12  13
ATOM     13  C   UNL     1       6.652  53.637  23.581  1.00  0.00    -0.000 C 
BRANCH  13  14
ATOM     14  C   UNL     1       7.800  53.200  24.504  1.00  0.00    -0.000 C 
BRANCH  14  15
ATOM     15  C   UNL     1       7.973  54.129  25.718  1.00  0.00    -0.000 C 
BRANCH  15  16
ATOM     16  C   UNL     1       9.253  54.989  25.662  1.00  0.00    -0.003 C 
ATOM     17  C   UNL     1      10.411  54.263  24.978  1.00  0.00     0.004 C 
ENDBRANCH  15  16
ENDBRANCH  14  15
ENDBRANCH  13  14
ENDBRANCH  12  13
ENDBRANCH  11  12
ENDBRANCH  10  11
ENDBRANCH   1  10
TORSDOF 13
ENDMDL
MODEL 8
REMARK VINA RESULT:    -4.564      2.320      3.793
REMARK INTER + INTRA:          -9.578
REMARK INTER:                  -8.705
REMARK INTRA:                  -0.873
REMARK UNBOUND:                -1.546
REMARK SMILES CCCCCCCCCCCCCCC(=O)[O-]
REMARK SMILES IDX 9 1 10 2 11 3 12 4 13 5 14 6 15 7 16 8 17 9 8 10 7 11 6 12
REMARK SMILES IDX 5 13 4 14 3 15 2 16 1 17
REMARK H PARENT
REMARK Flexibility Score: inf
ROOT
ATOM      1  C   UNL     1       5.124  56.942  22.516  1.00  0.00     0.000 C 
ENDROOT
BRANCH   1   2
ATOM      2  C   UNL     1       4.603  58.159  21.732  1.00  0.00     0.000 C 
BRANCH   2   3
ATOM      3  C   UNL     1       3.297  58.721  22.317  1.00  0.00     0.000 C 
BRANCH   3   4
ATOM      4  C   UNL     1       2.083  58.470  21.408  1.00  0.00     0.000 C 
BRANCH   4   5
ATOM      5  C   UNL     1       2.064  59.463  20.235  1.00  0.00     0.006 C 
BRANCH   5   6
ATOM      6  C   UNL     1       1.316  58.906  19.015  1.00  0.00     0.053 C 
BRANCH   6   7
ATOM      7  C   UNL     1       1.577  59.721  17.785  1.00  0.00     0.041 C 
ATOM      8  O   UNL     1       1.163  60.908  17.711  1.00  0.00    -0.550 OA
ATOM      9  O   UNL     1       2.307  59.180  16.735  1.00  0.00    -0.550 OA
ENDBRANCH   6   7
ENDBRANCH   5   6
ENDBRANCH   4   5
ENDBRANCH   3   4
ENDBRANCH   2   3
ENDBRANCH   1   2
BRANCH   1  10
ATOM     10  C   UNL     1       6.661  56.892  22.583  1.00  0.00     0.000 C 
BRANCH  10  11
ATOM     11  C   UNL     1       7.354  56.352  21.316  1.00  0.00    -0.000 C 
BRANCH  11  12
ATOM     12  C   UNL     1       8.000  54.958  21.463  1.00  0.00    -0.000 C 
BRANCH  12  13
ATOM     13  C   UNL     1       7.248  53.982  22.386  1.00  0.00    -0.000 C 
BRANCH  13  14
ATOM     14  C   UNL     1       8.181  53.228  23.346  1.00  0.00    -0.000 C 
BRANCH  14  15
ATOM     15  C   UNL     1       9.648  53.673  23.220  1.00  0.00    -0.000 C 
BRANCH  15  16
ATOM     16  C   UNL     1      10.256  54.186  24.542  1.00  0.00    -0.003 C 
ATOM     17  C   UNL     1       9.425  55.307  25.166  1.00  0.00     0.004 C 
ENDBRANCH  15  16
ENDBRANCH  14  15
ENDBRANCH  13  14
ENDBRANCH  12  13
ENDBRANCH  11  12
ENDBRANCH  10  11
ENDBRANCH   1  10
TORSDOF 13
ENDMDL
MODEL 9
REMARK VINA RESULT:    -4.498      2.904      4.511
REMARK INTER + INTRA:          -9.462
REMARK INTER:                  -8.854
REMARK INTRA:                  -0.608
REMARK UNBOUND:                -1.546
REMARK SMILES CCCCCCCCCCCCCCC(=O)[O-]
REMARK SMILES IDX 9 1 10 2 11 3 12 4 13 5 14 6 15 7 16 8 17 9 8 10 7 11 6 12
REMARK SMILES IDX 5 13 4 14 3 15 2 16 1 17
REMARK H PARENT
REMARK Flexibility Score: inf
ROOT
ATOM      1  C   UNL     1       4.174  58.497  21.902  1.00  0.00     0.000 C 
ENDROOT
BRANCH   1   2
ATOM      2  C   UNL     1       2.858  58.896  22.594  1.00  0.00     0.000 C 
BRANCH   2   3
ATOM      3  C   UNL     1       1.639  58.756  21.667  1.00  0.00     0.000 C 
BRANCH   3   4
ATOM      4  C   UNL     1       2.013  58.831  20.179  1.00  0.00     0.000 C 
BRANCH   4   5
ATOM      5  C   UNL     1       0.915  59.543  19.374  1.00  0.00     0.006 C 
BRANCH   5   6
ATOM      6  C   UNL     1       1.419  60.032  18.009  1.00  0.00     0.053 C 
BRANCH   6   7
ATOM      7  C   UNL     1       1.501  58.914  17.016  1.00  0.00     0.041 C 
ATOM      8  O   UNL     1       2.501  58.811  16.257  1.00  0.00    -0.550 OA
ATOM      9  O   UNL     1       0.488  57.966  16.951  1.00  0.00    -0.550 OA
ENDBRANCH   6   7
ENDBRANCH   5   6
ENDBRANCH   4   5
ENDBRANCH   3   4
ENDBRANCH   2   3
ENDBRANCH   1   2
BRANCH   1  10
ATOM     10  C   UNL     1       4.740  57.164  22.424  1.00  0.00     0.000 C 
BRANCH  10  11
ATOM     11  C   UNL     1       6.276  57.042  22.374  1.00  0.00    -0.000 C 
BRANCH  11  12
ATOM     12  C   UNL     1       6.816  55.606  22.210  1.00  0.00    -0.000 C 
BRANCH  12  13
ATOM     13  C   UNL     1       8.351  55.484  22.163  1.00  0.00    -0.000 C 
BRANCH  13  14
ATOM     14  C   UNL     1       8.869  54.204  22.836  1.00  0.00    -0.000 C 
BRANCH  14  15
ATOM     15  C   UNL     1       8.616  54.186  24.354  1.00  0.00    -0.000 C 
BRANCH  15  16
ATOM     16  C   UNL     1       9.406  55.262  25.127  1.00  0.00    -0.003 C 
ATOM     17  C   UNL     1      10.566  54.667  25.926  1.00  0.00     0.004 C 
ENDBRANCH  15  16
ENDBRANCH  14  15
ENDBRANCH  13  14
ENDBRANCH  12  13
ENDBRANCH  11  12
ENDBRANCH  10  11
ENDBRANCH   1  10
TORSDOF 13
ENDMDL
