MODEL 1
REMARK VINA RESULT:    -3.354      0.000      0.000
REMARK INTER + INTRA:          -5.427
REMARK INTER:                  -4.726
REMARK INTRA:                  -0.701
REMARK UNBOUND:                -0.701
REMARK SMILES CCCCCCCCC(=O)[O-]
REMARK SMILES IDX 6 1 7 2 8 3 9 4 10 5 11 6 5 7 4 8 3 9 2 10 1 11
REMARK H PARENT
REMARK Flexibility Score: inf
ROOT
ATOM      1  C   UNL     1      -8.878  -7.715  -7.702  1.00  0.00     0.000 C 
ENDROOT
BRANCH   1   2
ATOM      2  C   UNL     1      -9.599  -7.934  -6.364  1.00  0.00     0.006 C 
BRANCH   2   3
ATOM      3  C   UNL     1      -9.916  -6.612  -5.651  1.00  0.00     0.053 C 
BRANCH   3   4
ATOM      4  C   UNL     1      -9.029  -6.395  -4.463  1.00  0.00     0.041 C 
ATOM      5  O   UNL     1      -9.228  -7.038  -3.398  1.00  0.00    -0.550 OA
ATOM      6  O   UNL     1      -8.004  -5.460  -4.520  1.00  0.00    -0.550 OA
ENDBRANCH   3   4
ENDBRANCH   2   3
ENDBRANCH   1   2
BRANCH   1   7
ATOM      7  C   UNL     1      -8.212  -9.008  -8.186  1.00  0.00     0.000 C 
BRANCH   7   8
ATOM      8  C   UNL     1      -6.718  -9.025  -7.828  1.00  0.00    -0.000 C 
BRANCH   8   9
ATOM      9  C   UNL     1      -6.225  -7.675  -7.281  1.00  0.00    -0.000 C 
BRANCH   9  10
ATOM     10  C   UNL     1      -5.401  -7.824  -5.994  1.00  0.00    -0.003 C 
ATOM     11  C   UNL     1      -6.181  -8.591  -4.929  1.00  0.00     0.004 C 
ENDBRANCH   9  10
ENDBRANCH   8   9
ENDBRANCH   7   8
ENDBRANCH   1   7
TORSDOF 7
ENDMDL
MODEL 2
REMARK VINA RESULT:    -3.224      3.308      4.838
REMARK INTER + INTRA:          -5.245
REMARK INTER:                  -4.759
REMARK INTRA:                  -0.485
REMARK UNBOUND:                -0.701
REMARK SMILES CCCCCCCCC(=O)[O-]
REMARK SMILES IDX 6 1 7 2 8 3 9 4 10 5 11 6 5 7 4 8 3 9 2 10 1 11
REMARK H PARENT
REMARK Flexibility Score: inf
ROOT
ATOM      1  C   UNL     1      -7.439  -8.047  -7.667  1.00  0.00     0.000 C 
ENDROOT
BRANCH   1   2
ATOM      2  C   UNL     1      -6.046  -8.584  -8.030  1.00  0.00     0.006 C 
BRANCH   2   3
ATOM      3  C   UNL     1      -4.930  -7.594  -7.675  1.00  0.00     0.053 C 
BRANCH   3   4
ATOM      4  C   UNL     1      -4.061  -7.289  -8.856  1.00  0.00     0.041 C 
ATOM      5  O   UNL     1      -3.604  -8.223  -9.565  1.00  0.00    -0.550 OA
ATOM      6  O   UNL     1      -3.728  -5.974  -9.155  1.00  0.00    -0.550 OA
ENDBRANCH   3   4
ENDBRANCH   2   3
ENDBRANCH   1   2
BRANCH   1   7
ATOM      7  C   UNL     1      -8.154  -8.987  -6.690  1.00  0.00     0.000 C 
BRANCH   7   8
ATOM      8  C   UNL     1      -7.801  -8.641  -5.236  1.00  0.00    -0.000 C 
BRANCH   8   9
ATOM      9  C   UNL     1      -7.593  -7.133  -5.019  1.00  0.00    -0.000 C 
BRANCH   9  10
ATOM     10  C   UNL     1      -8.755  -6.480  -4.257  1.00  0.00    -0.003 C 
ATOM     11  C   UNL     1      -9.880  -6.081  -5.209  1.00  0.00     0.004 C 
ENDBRANCH   9  10
ENDBRANCH   8   9
ENDBRANCH   7   8
ENDBRANCH   1   7
TORSDOF 7
ENDMDL
MODEL 3
REMARK VINA RESULT:    -3.221      0.643      1.184
REMARK INTER + INTRA:          -5.240
REMARK INTER:                  -4.466
REMARK INTRA:                  -0.774
REMARK UNBOUND:                -0.701
REMARK SMILES CCCCCCCCC(=O)[O-]
REMARK SMILES IDX 6 1 7 2 8 3 9 4 10 5 11 6 5 7 4 8 3 9 2 10 1 11
REMARK H PARENT
REMARK Flexibility Score: inf
ROOT
ATOM      1  C   UNL     1      -9.887  -8.530  -7.478  1.00  0.00     0.000 C 
ENDROOT
BRANCH   1   2
ATOM      2  C   UNL     1      -9.904  -8.158  -5.988  1.00  0.00     0.006 C 
BRANCH   2   3
ATOM      3  C   UNL     1      -9.731  -6.651  -5.763  1.00  0.00     0.053 C 
BRANCH   3   4
ATOM      4  C   UNL     1      -9.049  -6.358  -4.462  1.00  0.00     0.041 C 
ATOM      5  O   UNL     1      -8.105  -5.525  -4.414  1.00  0.00    -0.550 OA
ATOM      6  O   UNL     1      -9.434  -7.027  -3.307  1.00  0.00    -0.550 OA
ENDBRANCH   3   4
ENDBRANCH   2   3
ENDBRANCH   1   2
BRANCH   1   7
ATOM      7  C   UNL     1      -8.512  -8.259  -8.098  1.00  0.00     0.000 C 
BRANCH   7   8
ATOM      8  C   UNL     1      -7.476  -9.281  -7.607  1.00  0.00    -0.000 C 
BRANCH   8   9
ATOM      9  C   UNL     1      -6.086  -8.661  -7.395  1.00  0.00    -0.000 C 
BRANCH   9  10
ATOM     10  C   UNL     1      -6.031  -7.736  -6.170  1.00  0.00    -0.003 C 
ATOM     11  C   UNL     1      -6.075  -8.539  -4.873  1.00  0.00     0.004 C 
ENDBRANCH   9  10
ENDBRANCH   8   9
ENDBRANCH   7   8
ENDBRANCH   1   7
TORSDOF 7
ENDMDL
MODEL 4
REMARK VINA RESULT:    -3.190      1.214      2.579
REMARK INTER + INTRA:          -5.195
REMARK INTER:                  -4.496
REMARK INTRA:                  -0.699
REMARK UNBOUND:                -0.701
REMARK SMILES CCCCCCCCC(=O)[O-]
REMARK SMILES IDX 6 1 7 2 8 3 9 4 10 5 11 6 5 7 4 8 3 9 2 10 1 11
REMARK H PARENT
REMARK Flexibility Score: inf
ROOT
ATOM      1  C   UNL     1      -6.434  -7.280  -5.464  1.00  0.00     0.000 C 
ENDROOT
BRANCH   1   2
ATOM      2  C   UNL     1      -7.442  -8.333  -4.978  1.00  0.00     0.006 C 
BRANCH   2   3
ATOM      3  C   UNL     1      -8.888  -7.956  -5.323  1.00  0.00     0.053 C 
BRANCH   3   4
ATOM      4  C   UNL     1      -9.386  -6.827  -4.474  1.00  0.00     0.041 C 
ATOM      5  O   UNL     1      -9.595  -7.002  -3.245  1.00  0.00    -0.550 OA
ATOM      6  O   UNL     1      -9.650  -5.589  -5.046  1.00  0.00    -0.550 OA
ENDBRANCH   3   4
ENDBRANCH   2   3
ENDBRANCH   1   2
BRANCH   1   7
ATOM      7  C   UNL     1      -5.261  -7.938  -6.200  1.00  0.00     0.000 C 
BRANCH   7   8
ATOM      8  C   UNL     1      -5.278  -7.579  -7.693  1.00  0.00    -0.000 C 
BRANCH   8   9
ATOM      9  C   UNL     1      -5.279  -8.820  -8.600  1.00  0.00    -0.000 C 
BRANCH   9  10
ATOM     10  C   UNL     1      -6.350  -9.845  -8.200  1.00  0.00    -0.003 C 
ATOM     11  C   UNL     1      -7.735  -9.401  -8.665  1.00  0.00     0.004 C 
ENDBRANCH   9  10
ENDBRANCH   8   9
ENDBRANCH   7   8
ENDBRANCH   1   7
TORSDOF 7
ENDMDL
MODEL 5
REMARK VINA RESULT:    -2.993      0.998      2.887
REMARK INTER + INTRA:          -4.919
REMARK INTER:                  -4.320
REMARK INTRA:                  -0.599
REMARK UNBOUND:                -0.701
REMARK SMILES CCCCCCCCC(=O)[O-]
REMARK SMILES IDX 6 1 7 2 8 3 9 4 10 5 11 6 5 7 4 8 3 9 2 10 1 11
REMARK H PARENT
REMARK Flexibility Score: inf
ROOT
ATOM      1  C   UNL     1      -5.868  -7.780  -6.655  1.00  0.00     0.000 C 
ENDROOT
BRANCH   1   2
ATOM      2  C   UNL     1      -6.330  -7.473  -5.222  1.00  0.00     0.006 C 
BRANCH   2   3
ATOM      3  C   UNL     1      -7.796  -7.858  -4.989  1.00  0.00     0.053 C 
BRANCH   3   4
ATOM      4  C   UNL     1      -8.554  -6.768  -4.296  1.00  0.00     0.041 C 
ATOM      5  O   UNL     1      -9.448  -7.053  -3.455  1.00  0.00    -0.550 OA
ATOM      6  O   UNL     1      -8.297  -5.438  -4.601  1.00  0.00    -0.550 OA
ENDBRANCH   3   4
ENDBRANCH   2   3
ENDBRANCH   1   2
BRANCH   1   7
ATOM      7  C   UNL     1      -6.176  -9.233  -7.033  1.00  0.00     0.000 C 
BRANCH   7   8
ATOM      8  C   UNL     1      -6.896  -9.307  -8.388  1.00  0.00    -0.000 C 
BRANCH   8   9
ATOM      9  C   UNL     1      -8.393  -9.626  -8.248  1.00  0.00    -0.000 C 
BRANCH   9  10
ATOM     10  C   UNL     1      -9.288  -8.557  -8.893  1.00  0.00    -0.003 C 
ATOM     11  C   UNL     1      -9.832  -7.591  -7.844  1.00  0.00     0.004 C 
ENDBRANCH   9  10
ENDBRANCH   8   9
ENDBRANCH   7   8
ENDBRANCH   1   7
TORSDOF 7
ENDMDL
MODEL 6
REMARK VINA RESULT:    -2.730      1.898      3.484
REMARK INTER + INTRA:          -4.548
REMARK INTER:                  -3.817
REMARK INTRA:                  -0.731
REMARK UNBOUND:                -0.701
REMARK SMILES CCCCCCCCC(=O)[O-]
REMARK SMILES IDX 6 1 7 2 8 3 9 4 10 5 11 6 5 7 4 8 3 9 2 10 1 11
REMARK H PARENT
REMARK Flexibility Score: inf
ROOT
ATOM      1  C   UNL     1      -9.691  -6.509  -5.700  1.00  0.00     0.000 C 
ENDROOT
BRANCH   1   2
ATOM      2  C   UNL     1      -8.746  -7.100  -4.643  1.00  0.00     0.006 C 
BRANCH   2   3
ATOM      3  C   UNL     1      -7.270  -6.950  -5.033  1.00  0.00     0.053 C 
BRANCH   3   4
ATOM      4  C   UNL     1      -6.568  -8.272  -5.072  1.00  0.00     0.041 C 
ATOM      5  O   UNL     1      -7.070  -9.274  -4.497  1.00  0.00    -0.550 OA
ATOM      6  O   UNL     1      -5.342  -8.392  -5.714  1.00  0.00    -0.550 OA
ENDBRANCH   3   4
ENDBRANCH   2   3
ENDBRANCH   1   2
BRANCH   1   7
ATOM      7  C   UNL     1      -9.795  -7.429  -6.922  1.00  0.00     0.000 C 
BRANCH   7   8
ATOM      8  C   UNL     1     -10.009  -8.889  -6.494  1.00  0.00    -0.000 C 
BRANCH   8   9
ATOM      9  C   UNL     1      -9.295  -9.888  -7.418  1.00  0.00    -0.000 C 
BRANCH   9  10
ATOM     10  C   UNL     1      -8.192  -9.230  -8.260  1.00  0.00    -0.003 C 
ATOM     11  C   UNL     1      -8.464  -9.400  -9.752  1.00  0.00     0.004 C 
ENDBRANCH   9  10
ENDBRANCH   8   9
ENDBRANCH   7   8
ENDBRANCH   1   7
TORSDOF 7
ENDMDL
MODEL 7
REMARK VINA RESULT:    -2.696      1.564      3.450
REMARK INTER + INTRA:          -4.501
REMARK INTER:                  -3.924
REMARK INTRA:                  -0.577
REMARK UNBOUND:                -0.701
REMARK SMILES CCCCCCCCC(=O)[O-]
REMARK SMILES IDX 6 1 7 2 8 3 9 4 10 5 11 6 5 7 4 8 3 9 2 10 1 11
REMARK H PARENT
REMARK Flexibility Score: inf
ROOT
ATOM      1  C   UNL     1      -5.630  -8.941  -8.104  1.00  0.00     0.000 C 
ENDROOT
BRANCH   1   2
ATOM      2  C   UNL     1      -5.322  -8.138  -6.831  1.00  0.00     0.006 C 
BRANCH   2   3
ATOM      3  C   UNL     1      -6.576  -7.484  -6.238  1.00  0.00     0.053 C 
BRANCH   3   4
ATOM      4  C   UNL     1      -6.863  -7.983  -4.855  1.00  0.00     0.041 C 
ATOM      5  O   UNL     1      -7.884  -7.584  -4.236  1.00  0.00    -0.550 OA
ATOM      6  O   UNL     1      -5.985  -8.864  -4.237  1.00  0.00    -0.550 OA
ENDBRANCH   3   4
ENDBRANCH   2   3
ENDBRANCH   1   2
BRANCH   1   7
ATOM      7  C   UNL     1      -6.969  -9.678  -7.980  1.00  0.00     0.000 C 
BRANCH   7   8
ATOM      8  C   UNL     1      -7.799  -9.531  -9.264  1.00  0.00    -0.000 C 
BRANCH   8   9
ATOM      9  C   UNL     1      -9.291  -9.292  -8.982  1.00  0.00    -0.000 C 
BRANCH   9  10
ATOM     10  C   UNL     1      -9.547  -7.977  -8.232  1.00  0.00    -0.003 C 
ATOM     11  C   UNL     1     -10.125  -8.241  -6.844  1.00  0.00     0.004 C 
ENDBRANCH   9  10
ENDBRANCH   8   9
ENDBRANCH   7   8
ENDBRANCH   1   7
TORSDOF 7
ENDMDL
MODEL 8
REMARK VINA RESULT:    -0.550      2.685      4.681
REMARK INTER + INTRA:          -1.475
REMARK INTER:                  -0.859
REMARK INTRA:                  -0.616
REMARK UNBOUND:                -0.701
REMARK SMILES CCCCCCCCC(=O)[O-]
REMARK SMILES IDX 6 1 7 2 8 3 9 4 10 5 11 6 5 7 4 8 3 9 2 10 1 11
REMARK H PARENT
REMARK Flexibility Score: inf
ROOT
ATOM      1  C   UNL     1      -7.263  -8.579  -4.999  1.00  0.00     0.000 C 
ENDROOT
BRANCH   1   2
ATOM      2  C   UNL     1      -5.939  -9.017  -5.644  1.00  0.00     0.006 C 
BRANCH   2   3
ATOM      3  C   UNL     1      -5.140  -7.829  -6.194  1.00  0.00     0.053 C 
BRANCH   3   4
ATOM      4  C   UNL     1      -5.180  -7.778  -7.691  1.00  0.00     0.041 C 
ATOM      5  O   UNL     1      -5.835  -8.637  -8.337  1.00  0.00    -0.550 OA
ATOM      6  O   UNL     1      -4.469  -6.800  -8.374  1.00  0.00    -0.550 OA
ENDBRANCH   3   4
ENDBRANCH   2   3
ENDBRANCH   1   2
BRANCH   1   7
ATOM      7  C   UNL     1      -7.285  -7.065  -4.758  1.00  0.00     0.000 C 
BRANCH   7   8
ATOM      8  C   UNL     1      -8.726  -6.540  -4.691  1.00  0.00    -0.000 C 
BRANCH   8   9
ATOM      9  C   UNL     1      -9.726  -7.461  -5.409  1.00  0.00    -0.000 C 
BRANCH   9  10
ATOM     10  C   UNL     1     -10.125  -6.933  -6.795  1.00  0.00    -0.003 C 
ATOM     11  C   UNL     1      -9.384  -7.680  -7.901  1.00  0.00     0.004 C 
ENDBRANCH   9  10
ENDBRANCH   8   9
ENDBRANCH   7   8
ENDBRANCH   1   7
TORSDOF 7
ENDMDL
