MODEL 1
REMARK VINA RESULT:    -4.797      0.000      0.000
REMARK INTER + INTRA:          -4.937
REMARK INTER:                  -4.937
REMARK INTRA:                   0.000
REMARK UNBOUND:                 0.000
REMARK SMILES Oc1ccc2[nH]ccc2c1
REMARK SMILES IDX 3 1 4 2 5 3 9 4 8 5 7 6 6 7 10 8 2 9 1 11
REMARK H PARENT 6 10 1 12
REMARK Flexibility Score: inf
ROOT
ATOM      1  C   UNL     1     157.370 139.324 159.390  1.00  0.00     0.048 A 
ATOM      2  C   UNL     1     157.415 138.355 158.369  1.00  0.00     0.030 A 
ATOM      3  C   UNL     1     157.122 137.037 158.710  1.00  0.00     0.046 A 
ATOM      4  C   UNL     1     156.800 136.679 159.993  1.00  0.00     0.003 A 
ATOM      5  C   UNL     1     156.568 135.321 159.995  1.00  0.00     0.028 A 
ATOM      6  C   UNL     1     156.768 134.915 158.679  1.00  0.00     0.083 A 
ATOM      7  N   UNL     1     157.107 135.967 157.899  1.00  0.00    -0.361 N 
ATOM      8  C   UNL     1     156.746 137.612 161.026  1.00  0.00     0.056 A 
ATOM      9  C   UNL     1     157.038 138.958 160.715  1.00  0.00     0.116 A 
ATOM     10  H   UNL     1     157.312 135.947 156.875  1.00  0.00     0.166 HD
ENDROOT
BRANCH   9  11
ATOM     11  O   UNL     1     157.001 139.935 161.706  1.00  0.00    -0.508 OA
ATOM     12  H   UNL     1     156.688 139.722 162.646  1.00  0.00     0.293 HD
ENDBRANCH   9  11
TORSDOF 1
ENDMDL
MODEL 2
REMARK VINA RESULT:    -4.729      2.548      3.626
REMARK INTER + INTRA:          -4.867
REMARK INTER:                  -4.867
REMARK INTRA:                   0.000
REMARK UNBOUND:                 0.000
REMARK SMILES Oc1ccc2[nH]ccc2c1
REMARK SMILES IDX 3 1 4 2 5 3 9 4 8 5 7 6 6 7 10 8 2 9 1 11
REMARK H PARENT 6 10 1 12
REMARK Flexibility Score: inf
ROOT
ATOM      1  C   UNL     1     157.031 137.364 158.209  1.00  0.00     0.048 A 
ATOM      2  C   UNL     1     157.369 138.651 158.670  1.00  0.00     0.030 A 
ATOM      3  C   UNL     1     157.344 138.876 160.045  1.00  0.00     0.046 A 
ATOM      4  C   UNL     1     157.005 137.888 160.931  1.00  0.00     0.003 A 
ATOM      5  C   UNL     1     157.077 138.426 162.196  1.00  0.00     0.028 A 
ATOM      6  C   UNL     1     157.467 139.749 162.007  1.00  0.00     0.083 A 
ATOM      7  N   UNL     1     157.629 140.018 160.692  1.00  0.00    -0.361 N 
ATOM      8  C   UNL     1     156.666 136.604 160.508  1.00  0.00     0.056 A 
ATOM      9  C   UNL     1     156.680 136.342 159.120  1.00  0.00     0.116 A 
ATOM     10  H   UNL     1     157.916 140.929 160.269  1.00  0.00     0.166 HD
ENDROOT
BRANCH   9  11
ATOM     11  O   UNL     1     156.351 135.079 158.638  1.00  0.00    -0.508 OA
ATOM     12  H   UNL     1     155.531 134.930 158.061  1.00  0.00     0.293 HD
ENDBRANCH   9  11
TORSDOF 1
ENDMDL
MODEL 3
REMARK VINA RESULT:    -4.654      2.526      4.011
REMARK INTER + INTRA:          -4.790
REMARK INTER:                  -4.790
REMARK INTRA:                   0.000
REMARK UNBOUND:                 0.000
REMARK SMILES Oc1ccc2[nH]ccc2c1
REMARK SMILES IDX 3 1 4 2 5 3 9 4 8 5 7 6 6 7 10 8 2 9 1 11
REMARK H PARENT 6 10 1 12
REMARK Flexibility Score: inf
ROOT
ATOM      1  C   UNL     1     156.644 136.344 160.525  1.00  0.00     0.048 A 
ATOM      2  C   UNL     1     157.012 137.570 161.109  1.00  0.00     0.030 A 
ATOM      3  C   UNL     1     157.427 138.596 160.262  1.00  0.00     0.046 A 
ATOM      4  C   UNL     1     157.479 138.431 158.903  1.00  0.00     0.003 A 
ATOM      5  C   UNL     1     157.923 139.617 158.361  1.00  0.00     0.028 A 
ATOM      6  C   UNL     1     158.122 140.462 159.449  1.00  0.00     0.083 A 
ATOM      7  N   UNL     1     157.818 139.834 160.607  1.00  0.00    -0.361 N 
ATOM      8  C   UNL     1     157.121 137.231 158.293  1.00  0.00     0.056 A 
ATOM      9  C   UNL     1     156.697 136.170 159.123  1.00  0.00     0.116 A 
ATOM     10  H   UNL     1     157.877 140.232 161.571  1.00  0.00     0.166 HD
ENDROOT
BRANCH   9  11
ATOM     11  O   UNL     1     156.326 134.948 158.570  1.00  0.00    -0.508 OA
ATOM     12  H   UNL     1     156.998 134.199 158.445  1.00  0.00     0.293 HD
ENDBRANCH   9  11
TORSDOF 1
ENDMDL
MODEL 4
REMARK VINA RESULT:    -4.497      1.302      2.122
REMARK INTER + INTRA:          -4.628
REMARK INTER:                  -4.628
REMARK INTRA:                   0.000
REMARK UNBOUND:                 0.000
REMARK SMILES Oc1ccc2[nH]ccc2c1
REMARK SMILES IDX 3 1 4 2 5 3 9 4 8 5 7 6 6 7 10 8 2 9 1 11
REMARK H PARENT 6 10 1 12
REMARK Flexibility Score: inf
ROOT
ATOM      1  C   UNL     1     157.507 139.299 161.324  1.00  0.00     0.048 A 
ATOM      2  C   UNL     1     157.122 137.959 161.519  1.00  0.00     0.030 A 
ATOM      3  C   UNL     1     156.986 137.152 160.392  1.00  0.00     0.046 A 
ATOM      4  C   UNL     1     157.215 137.632 159.130  1.00  0.00     0.003 A 
ATOM      5  C   UNL     1     156.997 136.596 158.249  1.00  0.00     0.028 A 
ATOM      6  C   UNL     1     156.637 135.512 159.045  1.00  0.00     0.083 A 
ATOM      7  N   UNL     1     156.631 135.857 160.352  1.00  0.00    -0.361 N 
ATOM      8  C   UNL     1     157.597 138.952 158.902  1.00  0.00     0.056 A 
ATOM      9  C   UNL     1     157.745 139.798 160.023  1.00  0.00     0.116 A 
ATOM     10  H   UNL     1     156.399 135.240 161.162  1.00  0.00     0.166 HD
ENDROOT
BRANCH   9  11
ATOM     11  O   UNL     1     158.125 141.127 159.858  1.00  0.00    -0.508 OA
ATOM     12  H   UNL     1     158.652 141.618 160.571  1.00  0.00     0.293 HD
ENDBRANCH   9  11
TORSDOF 1
ENDMDL
MODEL 5
REMARK VINA RESULT:    -3.897     20.284     20.967
REMARK INTER + INTRA:          -4.011
REMARK INTER:                  -4.011
REMARK INTRA:                   0.000
REMARK UNBOUND:                 0.000
REMARK SMILES Oc1ccc2[nH]ccc2c1
REMARK SMILES IDX 3 1 4 2 5 3 9 4 8 5 7 6 6 7 10 8 2 9 1 11
REMARK H PARENT 6 10 1 12
REMARK Flexibility Score: inf
ROOT
ATOM      1  C   UNL     1     148.444 146.598 142.875  1.00  0.00     0.048 A 
ATOM      2  C   UNL     1     147.548 147.615 143.254  1.00  0.00     0.030 A 
ATOM      3  C   UNL     1     146.440 147.254 144.017  1.00  0.00     0.046 A 
ATOM      4  C   UNL     1     146.216 145.957 144.395  1.00  0.00     0.003 A 
ATOM      5  C   UNL     1     145.053 145.936 145.132  1.00  0.00     0.028 A 
ATOM      6  C   UNL     1     144.619 147.258 145.163  1.00  0.00     0.083 A 
ATOM      7  N   UNL     1     145.469 148.059 144.481  1.00  0.00    -0.361 N 
ATOM      8  C   UNL     1     147.083 144.927 144.037  1.00  0.00     0.056 A 
ATOM      9  C   UNL     1     148.217 145.258 143.263  1.00  0.00     0.116 A 
ATOM     10  H   UNL     1     145.386 149.091 144.345  1.00  0.00     0.166 HD
ENDROOT
BRANCH   9  11
ATOM     11  O   UNL     1     149.119 144.271 142.876  1.00  0.00    -0.508 OA
ATOM     12  H   UNL     1     149.028 143.315 143.200  1.00  0.00     0.293 HD
ENDBRANCH   9  11
TORSDOF 1
ENDMDL
MODEL 6
REMARK VINA RESULT:    -3.621      2.406      3.096
REMARK INTER + INTRA:          -3.727
REMARK INTER:                  -3.727
REMARK INTRA:                   0.000
REMARK UNBOUND:                 0.000
REMARK SMILES Oc1ccc2[nH]ccc2c1
REMARK SMILES IDX 3 1 4 2 5 3 9 4 8 5 7 6 6 7 10 8 2 9 1 11
REMARK H PARENT 6 10 1 12
REMARK Flexibility Score: inf
ROOT
ATOM      1  C   UNL     1     158.123 140.475 160.296  1.00  0.00     0.048 A 
ATOM      2  C   UNL     1     157.978 139.855 161.552  1.00  0.00     0.030 A 
ATOM      3  C   UNL     1     157.659 138.499 161.574  1.00  0.00     0.046 A 
ATOM      4  C   UNL     1     157.489 137.780 160.421  1.00  0.00     0.003 A 
ATOM      5  C   UNL     1     157.186 136.486 160.783  1.00  0.00     0.028 A 
ATOM      6  C   UNL     1     157.188 136.488 162.175  1.00  0.00     0.083 A 
ATOM      7  N   UNL     1     157.477 137.720 162.653  1.00  0.00    -0.361 N 
ATOM      8  C   UNL     1     157.625 138.362 159.163  1.00  0.00     0.056 A 
ATOM      9  C   UNL     1     157.948 139.736 159.104  1.00  0.00     0.116 A 
ATOM     10  H   UNL     1     157.544 138.003 163.656  1.00  0.00     0.166 HD
ENDROOT
BRANCH   9  11
ATOM     11  O   UNL     1     158.097 140.373 157.875  1.00  0.00    -0.508 OA
ATOM     12  H   UNL     1     157.355 140.937 157.478  1.00  0.00     0.293 HD
ENDBRANCH   9  11
TORSDOF 1
ENDMDL
MODEL 7
REMARK VINA RESULT:    -3.546     20.523     21.076
REMARK INTER + INTRA:          -3.649
REMARK INTER:                  -3.649
REMARK INTRA:                   0.000
REMARK UNBOUND:                 0.000
REMARK SMILES Oc1ccc2[nH]ccc2c1
REMARK SMILES IDX 3 1 4 2 5 3 9 4 8 5 7 6 6 7 10 8 2 9 1 11
REMARK H PARENT 6 10 1 12
REMARK Flexibility Score: inf
ROOT
ATOM      1  C   UNL     1     144.836 146.388 145.109  1.00  0.00     0.048 A 
ATOM      2  C   UNL     1     145.695 145.329 144.760  1.00  0.00     0.030 A 
ATOM      3  C   UNL     1     146.823 145.630 144.001  1.00  0.00     0.046 A 
ATOM      4  C   UNL     1     147.101 146.911 143.599  1.00  0.00     0.003 A 
ATOM      5  C   UNL     1     148.272 146.871 142.875  1.00  0.00     0.028 A 
ATOM      6  C   UNL     1     148.654 145.533 142.875  1.00  0.00     0.083 A 
ATOM      7  N   UNL     1     147.766 144.779 143.564  1.00  0.00    -0.361 N 
ATOM      8  C   UNL     1     146.271 147.981 143.927  1.00  0.00     0.056 A 
ATOM      9  C   UNL     1     145.118 147.710 144.696  1.00  0.00     0.116 A 
ATOM     10  H   UNL     1     147.809 143.748 143.721  1.00  0.00     0.166 HD
ENDROOT
BRANCH   9  11
ATOM     11  O   UNL     1     144.252 148.739 145.055  1.00  0.00    -0.508 OA
ATOM     12  H   UNL     1     144.444 149.339 145.848  1.00  0.00     0.293 HD
ENDBRANCH   9  11
TORSDOF 1
ENDMDL
MODEL 8
REMARK VINA RESULT:    -3.394     11.093     12.126
REMARK INTER + INTRA:          -3.493
REMARK INTER:                  -3.493
REMARK INTRA:                   0.000
REMARK UNBOUND:                 0.000
REMARK SMILES Oc1ccc2[nH]ccc2c1
REMARK SMILES IDX 3 1 4 2 5 3 9 4 8 5 7 6 6 7 10 8 2 9 1 11
REMARK H PARENT 6 10 1 12
REMARK Flexibility Score: inf
ROOT
ATOM      1  C   UNL     1     150.719 141.008 150.368  1.00  0.00     0.048 A 
ATOM      2  C   UNL     1     150.982 140.858 148.993  1.00  0.00     0.030 A 
ATOM      3  C   UNL     1     152.226 141.268 148.521  1.00  0.00     0.046 A 
ATOM      4  C   UNL     1     153.173 141.802 149.355  1.00  0.00     0.003 A 
ATOM      5  C   UNL     1     154.277 142.100 148.587  1.00  0.00     0.028 A 
ATOM      6  C   UNL     1     153.933 141.722 147.293  1.00  0.00     0.083 A 
ATOM      7  N   UNL     1     152.680 141.215 147.258  1.00  0.00    -0.361 N 
ATOM      8  C   UNL     1     152.945 141.964 150.719  1.00  0.00     0.056 A 
ATOM      9  C   UNL     1     151.693 141.559 151.231  1.00  0.00     0.116 A 
ATOM     10  H   UNL     1     152.172 140.856 146.419  1.00  0.00     0.166 HD
ENDROOT
BRANCH   9  11
ATOM     11  O   UNL     1     151.408 141.696 152.587  1.00  0.00    -0.508 OA
ATOM     12  H   UNL     1     150.504 142.024 152.906  1.00  0.00     0.293 HD
ENDBRANCH   9  11
TORSDOF 1
ENDMDL
