MODEL 1
REMARK VINA RESULT:    -4.545      0.000      0.000
REMARK INTER + INTRA:          -4.678
REMARK INTER:                  -4.678
REMARK INTRA:                   0.000
REMARK UNBOUND:                 0.000
REMARK SMILES O=c1ccc2cc(O)ccc2o1
REMARK SMILES IDX 9 1 10 2 11 3 5 4 4 5 3 6 2 7 1 8 12 9 6 10 7 11 8 12
REMARK H PARENT 8 13
REMARK Flexibility Score: inf
ROOT
ATOM      1  C   UNL     1      -5.338  -2.163  -7.491  1.00  0.00     0.050 A 
ATOM      2  C   UNL     1      -5.787  -3.267  -6.760  1.00  0.00     0.052 A 
ATOM      3  C   UNL     1      -5.304  -3.494  -5.467  1.00  0.00     0.138 A 
ATOM      4  C   UNL     1      -4.361  -2.606  -4.905  1.00  0.00     0.021 A 
ATOM      5  C   UNL     1      -3.896  -2.859  -3.610  1.00  0.00     0.019 A 
ATOM      6  C   UNL     1      -4.372  -3.972  -2.918  1.00  0.00     0.094 A 
ATOM      7  C   UNL     1      -5.306  -4.809  -3.538  1.00  0.00     0.336 A 
ATOM      8  O   UNL     1      -5.749  -5.818  -2.930  1.00  0.00    -0.246 OA
ATOM      9  O   UNL     1      -5.733  -4.545  -4.771  1.00  0.00    -0.423 OA
ATOM     10  C   UNL     1      -3.913  -1.501  -5.643  1.00  0.00     0.058 A 
ATOM     11  C   UNL     1      -4.403  -1.280  -6.939  1.00  0.00     0.116 A 
ENDROOT
BRANCH  11  12
ATOM     12  O   UNL     1      -3.967  -0.187  -7.684  1.00  0.00    -0.508 OA
ATOM     13  H   UNL     1      -4.598   0.334  -8.281  1.00  0.00     0.293 HD
ENDBRANCH  11  12
TORSDOF 1
ENDMDL
MODEL 2
REMARK VINA RESULT:    -4.276      0.846      4.771
REMARK INTER + INTRA:          -4.401
REMARK INTER:                  -4.401
REMARK INTRA:                   0.000
REMARK UNBOUND:                 0.000
REMARK SMILES O=c1ccc2cc(O)ccc2o1
REMARK SMILES IDX 9 1 10 2 11 3 5 4 4 5 3 6 2 7 1 8 12 9 6 10 7 11 8 12
REMARK H PARENT 8 13
REMARK Flexibility Score: inf
ROOT
ATOM      1  C   UNL     1      -4.181  -3.930  -2.991  1.00  0.00     0.050 A 
ATOM      2  C   UNL     1      -3.731  -2.785  -3.655  1.00  0.00     0.052 A 
ATOM      3  C   UNL     1      -4.288  -2.426  -4.887  1.00  0.00     0.138 A 
ATOM      4  C   UNL     1      -5.303  -3.223  -5.457  1.00  0.00     0.021 A 
ATOM      5  C   UNL     1      -5.841  -2.839  -6.690  1.00  0.00     0.019 A 
ATOM      6  C   UNL     1      -5.361  -1.689  -7.315  1.00  0.00     0.094 A 
ATOM      7  C   UNL     1      -4.353  -0.947  -6.692  1.00  0.00     0.336 A 
ATOM      8  O   UNL     1      -3.908   0.095  -7.240  1.00  0.00    -0.246 OA
ATOM      9  O   UNL     1      -3.859  -1.334  -5.518  1.00  0.00    -0.423 OA
ATOM     10  C   UNL     1      -5.750  -4.372  -4.787  1.00  0.00     0.058 A 
ATOM     11  C   UNL     1      -5.187  -4.725  -3.551  1.00  0.00     0.116 A 
ENDROOT
BRANCH  11  12
ATOM     12  O   UNL     1      -5.621  -5.863  -2.875  1.00  0.00    -0.508 OA
ATOM     13  H   UNL     1      -6.444  -6.374  -3.170  1.00  0.00     0.293 HD
ENDBRANCH  11  12
TORSDOF 1
ENDMDL
MODEL 3
REMARK VINA RESULT:    -4.057     14.669     16.299
REMARK INTER + INTRA:          -4.175
REMARK INTER:                  -4.175
REMARK INTRA:                   0.000
REMARK UNBOUND:                 0.000
REMARK SMILES O=c1ccc2cc(O)ccc2o1
REMARK SMILES IDX 9 1 10 2 11 3 5 4 4 5 3 6 2 7 1 8 12 9 6 10 7 11 8 12
REMARK H PARENT 8 13
REMARK Flexibility Score: inf
ROOT
ATOM      1  C   UNL     1      -5.313 -17.185  -6.751  1.00  0.00     0.050 A 
ATOM      2  C   UNL     1      -6.296 -17.126  -7.744  1.00  0.00     0.052 A 
ATOM      3  C   UNL     1      -6.225 -17.977  -8.852  1.00  0.00     0.138 A 
ATOM      4  C   UNL     1      -5.157 -18.893  -8.965  1.00  0.00     0.021 A 
ATOM      5  C   UNL     1      -5.112 -19.731 -10.084  1.00  0.00     0.019 A 
ATOM      6  C   UNL     1      -6.114 -19.637 -11.049  1.00  0.00     0.094 A 
ATOM      7  C   UNL     1      -7.142 -18.705 -10.871  1.00  0.00     0.336 A 
ATOM      8  O   UNL     1      -8.057 -18.606 -11.730  1.00  0.00    -0.246 OA
ATOM      9  O   UNL     1      -7.162 -17.920  -9.796  1.00  0.00    -0.423 OA
ATOM     10  C   UNL     1      -4.173 -18.948  -7.967  1.00  0.00     0.058 A 
ATOM     11  C   UNL     1      -4.252 -18.092  -6.858  1.00  0.00     0.116 A 
ENDROOT
BRANCH  11  12
ATOM     12  O   UNL     1      -3.282 -18.135  -5.859  1.00  0.00    -0.508 OA
ATOM     13  H   UNL     1      -3.364 -17.579  -5.016  1.00  0.00     0.293 HD
ENDBRANCH  11  12
TORSDOF 1
ENDMDL
MODEL 4
REMARK VINA RESULT:    -4.003     12.292     13.683
REMARK INTER + INTRA:          -4.120
REMARK INTER:                  -4.120
REMARK INTRA:                   0.000
REMARK UNBOUND:                 0.000
REMARK SMILES O=c1ccc2cc(O)ccc2o1
REMARK SMILES IDX 9 1 10 2 11 3 5 4 4 5 3 6 2 7 1 8 12 9 6 10 7 11 8 12
REMARK H PARENT 8 13
REMARK Flexibility Score: inf
ROOT
ATOM      1  C   UNL     1      -5.907 -15.217  -3.686  1.00  0.00     0.050 A 
ATOM      2  C   UNL     1      -6.715 -15.801  -4.668  1.00  0.00     0.052 A 
ATOM      3  C   UNL     1      -6.143 -16.280  -5.851  1.00  0.00     0.138 A 
ATOM      4  C   UNL     1      -4.750 -16.171  -6.051  1.00  0.00     0.021 A 
ATOM      5  C   UNL     1      -4.207 -16.659  -7.245  1.00  0.00     0.019 A 
ATOM      6  C   UNL     1      -5.051 -17.234  -8.194  1.00  0.00     0.094 A 
ATOM      7  C   UNL     1      -6.422 -17.308  -7.928  1.00  0.00     0.336 A 
ATOM      8  O   UNL     1      -7.200 -17.824  -8.772  1.00  0.00    -0.246 OA
ATOM      9  O   UNL     1      -6.913 -16.837  -6.784  1.00  0.00    -0.423 OA
ATOM     10  C   UNL     1      -3.945 -15.584  -5.065  1.00  0.00     0.058 A 
ATOM     11  C   UNL     1      -4.526 -15.106  -3.880  1.00  0.00     0.116 A 
ENDROOT
BRANCH  11  12
ATOM     12  O   UNL     1      -3.739 -14.520  -2.891  1.00  0.00    -0.508 OA
ATOM     13  H   UNL     1      -3.180 -13.696  -3.078  1.00  0.00     0.293 HD
ENDBRANCH  11  12
TORSDOF 1
ENDMDL
MODEL 5
REMARK VINA RESULT:    -3.905     12.852     14.750
REMARK INTER + INTRA:          -4.019
REMARK INTER:                  -4.019
REMARK INTRA:                   0.000
REMARK UNBOUND:                 0.000
REMARK SMILES O=c1ccc2cc(O)ccc2o1
REMARK SMILES IDX 9 1 10 2 11 3 5 4 4 5 3 6 2 7 1 8 12 9 6 10 7 11 8 12
REMARK H PARENT 8 13
REMARK Flexibility Score: inf
ROOT
ATOM      1  C   UNL     1      -3.123 -16.852  -3.838  1.00  0.00     0.050 A 
ATOM      2  C   UNL     1      -3.270 -18.012  -4.605  1.00  0.00     0.052 A 
ATOM      3  C   UNL     1      -3.862 -17.944  -5.870  1.00  0.00     0.138 A 
ATOM      4  C   UNL     1      -4.311 -16.702  -6.369  1.00  0.00     0.021 A 
ATOM      5  C   UNL     1      -4.899 -16.665  -7.638  1.00  0.00     0.019 A 
ATOM      6  C   UNL     1      -5.025 -17.847  -8.367  1.00  0.00     0.094 A 
ATOM      7  C   UNL     1      -4.557 -19.042  -7.810  1.00  0.00     0.336 A 
ATOM      8  O   UNL     1      -4.661 -20.119  -8.452  1.00  0.00    -0.246 OA
ATOM      9  O   UNL     1      -4.001 -19.049  -6.600  1.00  0.00    -0.423 OA
ATOM     10  C   UNL     1      -4.162 -15.541  -5.596  1.00  0.00     0.058 A 
ATOM     11  C   UNL     1      -3.566 -15.618  -4.327  1.00  0.00     0.116 A 
ENDROOT
BRANCH  11  12
ATOM     12  O   UNL     1      -3.412 -14.474  -3.547  1.00  0.00    -0.508 OA
ATOM     13  H   UNL     1      -3.785 -13.579  -3.840  1.00  0.00     0.293 HD
ENDBRANCH  11  12
TORSDOF 1
ENDMDL
MODEL 6
REMARK VINA RESULT:    -3.884     15.914     16.743
REMARK INTER + INTRA:          -3.998
REMARK INTER:                  -3.998
REMARK INTRA:                   0.000
REMARK UNBOUND:                 0.000
REMARK SMILES O=c1ccc2cc(O)ccc2o1
REMARK SMILES IDX 9 1 10 2 11 3 5 4 4 5 3 6 2 7 1 8 12 9 6 10 7 11 8 12
REMARK H PARENT 8 13
REMARK Flexibility Score: inf
ROOT
ATOM      1  C   UNL     1      -8.533 -18.579 -10.274  1.00  0.00     0.050 A 
ATOM      2  C   UNL     1      -7.878 -18.337  -9.063  1.00  0.00     0.052 A 
ATOM      3  C   UNL     1      -6.523 -18.651  -8.924  1.00  0.00     0.138 A 
ATOM      4  C   UNL     1      -5.819 -19.215 -10.011  1.00  0.00     0.021 A 
ATOM      5  C   UNL     1      -4.464 -19.520  -9.842  1.00  0.00     0.019 A 
ATOM      6  C   UNL     1      -3.853 -19.260  -8.616  1.00  0.00     0.094 A 
ATOM      7  C   UNL     1      -4.612 -18.700  -7.584  1.00  0.00     0.336 A 
ATOM      8  O   UNL     1      -4.078 -18.458  -6.471  1.00  0.00    -0.246 OA
ATOM      9  O   UNL     1      -5.900 -18.419  -7.771  1.00  0.00    -0.423 OA
ATOM     10  C   UNL     1      -6.481 -19.458 -11.224  1.00  0.00     0.058 A 
ATOM     11  C   UNL     1      -7.841 -19.138 -11.354  1.00  0.00     0.116 A 
ENDROOT
BRANCH  11  12
ATOM     12  O   UNL     1      -8.511 -19.373 -12.553  1.00  0.00    -0.508 OA
ATOM     13  H   UNL     1      -8.034 -19.329 -13.445  1.00  0.00     0.293 HD
ENDBRANCH  11  12
TORSDOF 1
ENDMDL
MODEL 7
REMARK VINA RESULT:    -3.842     15.331     16.836
REMARK INTER + INTRA:          -3.955
REMARK INTER:                  -3.955
REMARK INTRA:                   0.000
REMARK UNBOUND:                 0.000
REMARK SMILES O=c1ccc2cc(O)ccc2o1
REMARK SMILES IDX 9 1 10 2 11 3 5 4 4 5 3 6 2 7 1 8 12 9 6 10 7 11 8 12
REMARK H PARENT 8 13
REMARK Flexibility Score: inf
ROOT
ATOM      1  C   UNL     1      -3.620 -19.033  -8.873  1.00  0.00     0.050 A 
ATOM      2  C   UNL     1      -4.320 -19.504  -9.988  1.00  0.00     0.052 A 
ATOM      3  C   UNL     1      -5.679 -19.210 -10.137  1.00  0.00     0.138 A 
ATOM      4  C   UNL     1      -6.341 -18.437  -9.159  1.00  0.00     0.021 A 
ATOM      5  C   UNL     1      -7.701 -18.159  -9.335  1.00  0.00     0.019 A 
ATOM      6  C   UNL     1      -8.358 -18.650 -10.463  1.00  0.00     0.094 A 
ATOM      7  C   UNL     1      -7.638 -19.409 -11.391  1.00  0.00     0.336 A 
ATOM      8  O   UNL     1      -8.213 -19.860 -12.416  1.00  0.00    -0.246 OA
ATOM      9  O   UNL     1      -6.345 -19.659 -11.199  1.00  0.00    -0.423 OA
ATOM     10  C   UNL     1      -5.635 -17.967  -8.041  1.00  0.00     0.058 A 
ATOM     11  C   UNL     1      -4.271 -18.266  -7.899  1.00  0.00     0.116 A 
ENDROOT
BRANCH  11  12
ATOM     12  O   UNL     1      -3.557 -17.807  -6.795  1.00  0.00    -0.508 OA
ATOM     13  H   UNL     1      -2.544 -17.814  -6.779  1.00  0.00     0.293 HD
ENDBRANCH  11  12
TORSDOF 1
ENDMDL
MODEL 8
REMARK VINA RESULT:    -3.783     15.072     16.472
REMARK INTER + INTRA:          -3.893
REMARK INTER:                  -3.893
REMARK INTRA:                   0.000
REMARK UNBOUND:                 0.000
REMARK SMILES O=c1ccc2cc(O)ccc2o1
REMARK SMILES IDX 9 1 10 2 11 3 5 4 4 5 3 6 2 7 1 8 12 9 6 10 7 11 8 12
REMARK H PARENT 8 13
REMARK Flexibility Score: inf
ROOT
ATOM      1  C   UNL     1      -6.487 -19.875 -11.505  1.00  0.00     0.050 A 
ATOM      2  C   UNL     1      -5.533 -19.745 -10.492  1.00  0.00     0.052 A 
ATOM      3  C   UNL     1      -5.807 -18.960  -9.367  1.00  0.00     0.138 A 
ATOM      4  C   UNL     1      -7.049 -18.298  -9.260  1.00  0.00     0.021 A 
ATOM      5  C   UNL     1      -7.295 -17.520  -8.124  1.00  0.00     0.019 A 
ATOM      6  C   UNL     1      -6.313 -17.420  -7.139  1.00  0.00     0.094 A 
ATOM      7  C   UNL     1      -5.105 -18.104  -7.312  1.00  0.00     0.336 A 
ATOM      8  O   UNL     1      -4.207 -18.027  -6.434  1.00  0.00    -0.246 OA
ATOM      9  O   UNL     1      -4.897 -18.839  -8.403  1.00  0.00    -0.423 OA
ATOM     10  C   UNL     1      -8.003 -18.430 -10.280  1.00  0.00     0.058 A 
ATOM     11  C   UNL     1      -7.720 -19.221 -11.405  1.00  0.00     0.116 A 
ENDROOT
BRANCH  11  12
ATOM     12  O   UNL     1      -8.658 -19.361 -12.425  1.00  0.00    -0.508 OA
ATOM     13  H   UNL     1      -9.616 -19.053 -12.311  1.00  0.00     0.293 HD
ENDBRANCH  11  12
TORSDOF 1
ENDMDL
MODEL 9
REMARK VINA RESULT:    -3.778     13.903     15.440
REMARK INTER + INTRA:          -3.889
REMARK INTER:                  -3.889
REMARK INTRA:                   0.000
REMARK UNBOUND:                 0.000
REMARK SMILES O=c1ccc2cc(O)ccc2o1
REMARK SMILES IDX 9 1 10 2 11 3 5 4 4 5 3 6 2 7 1 8 12 9 6 10 7 11 8 12
REMARK H PARENT 8 13
REMARK Flexibility Score: inf
ROOT
ATOM      1  C   UNL     1      -5.030 -19.380  -9.922  1.00  0.00     0.050 A 
ATOM      2  C   UNL     1      -6.284 -18.906  -9.525  1.00  0.00     0.052 A 
ATOM      3  C   UNL     1      -6.396 -18.073  -8.407  1.00  0.00     0.138 A 
ATOM      4  C   UNL     1      -5.239 -17.714  -7.681  1.00  0.00     0.021 A 
ATOM      5  C   UNL     1      -5.383 -16.880  -6.568  1.00  0.00     0.019 A 
ATOM      6  C   UNL     1      -6.653 -16.431  -6.209  1.00  0.00     0.094 A 
ATOM      7  C   UNL     1      -7.755 -16.827  -6.975  1.00  0.00     0.336 A 
ATOM      8  O   UNL     1      -8.909 -16.432  -6.668  1.00  0.00    -0.246 OA
ATOM      9  O   UNL     1      -7.590 -17.621  -8.031  1.00  0.00    -0.423 OA
ATOM     10  C   UNL     1      -3.984 -18.193  -8.083  1.00  0.00     0.058 A 
ATOM     11  C   UNL     1      -3.880 -19.028  -9.206  1.00  0.00     0.116 A 
ENDROOT
BRANCH  11  12
ATOM     12  O   UNL     1      -2.640 -19.512  -9.617  1.00  0.00    -0.508 OA
ATOM     13  H   UNL     1      -1.862 -19.590  -8.973  1.00  0.00     0.293 HD
ENDBRANCH  11  12
TORSDOF 1
ENDMDL
