MODEL 1
REMARK VINA RESULT:    -3.840      0.000      0.000
REMARK INTER + INTRA:          -4.177
REMARK INTER:                  -4.177
REMARK INTRA:                   0.000
REMARK UNBOUND:                 0.000
REMARK SMILES Oc1cccc(O)c1O
REMARK SMILES IDX 4 1 5 2 6 3 8 4 2 5 3 6 7 7 1 9 9 11
REMARK H PARENT 7 8 1 10 9 12
REMARK Flexibility Score: inf
ROOT
ATOM      1  C   UNL     1       6.979  23.520  -6.574  1.00  0.00     0.008 A 
ATOM      2  C   UNL     1       6.545  22.243  -6.928  1.00  0.00     0.050 A 
ATOM      3  C   UNL     1       7.377  21.131  -6.750  1.00  0.00     0.161 A 
ATOM      4  C   UNL     1       8.673  21.311  -6.203  1.00  0.00     0.200 A 
ATOM      5  C   UNL     1       9.101  22.606  -5.849  1.00  0.00     0.161 A 
ATOM      6  C   UNL     1       8.252  23.700  -6.036  1.00  0.00     0.050 A 
ENDROOT
BRANCH   3   7
ATOM      7  O   UNL     1       6.882  19.881  -7.125  1.00  0.00    -0.504 OA
ATOM      8  H   UNL     1       6.620  19.635  -8.069  1.00  0.00     0.293 HD
ENDBRANCH   3   7
BRANCH   5   9
ATOM      9  O   UNL     1      10.369  22.823  -5.308  1.00  0.00    -0.504 OA
ATOM     10  H   UNL     1      11.017  22.067  -5.125  1.00  0.00     0.293 HD
ENDBRANCH   5   9
BRANCH   4  11
ATOM     11  O   UNL     1       9.551  20.242  -6.000  1.00  0.00    -0.502 OA
ATOM     12  H   UNL     1       9.966  19.699  -6.743  1.00  0.00     0.293 HD
ENDBRANCH   4  11
TORSDOF 3
ENDMDL
MODEL 2
REMARK VINA RESULT:    -3.667      1.145      2.037
REMARK INTER + INTRA:          -3.989
REMARK INTER:                  -3.989
REMARK INTRA:                   0.000
REMARK UNBOUND:                 0.000
REMARK SMILES Oc1cccc(O)c1O
REMARK SMILES IDX 4 1 5 2 6 3 8 4 2 5 3 6 7 7 1 9 9 11
REMARK H PARENT 7 8 1 10 9 12
REMARK Flexibility Score: inf
ROOT
ATOM      1  C   UNL     1       6.805  22.524  -7.125  1.00  0.00     0.008 A 
ATOM      2  C   UNL     1       7.648  21.416  -7.031  1.00  0.00     0.050 A 
ATOM      3  C   UNL     1       8.691  21.390  -6.098  1.00  0.00     0.161 A 
ATOM      4  C   UNL     1       8.889  22.503  -5.242  1.00  0.00     0.200 A 
ATOM      5  C   UNL     1       8.031  23.617  -5.346  1.00  0.00     0.161 A 
ATOM      6  C   UNL     1       6.996  23.619  -6.284  1.00  0.00     0.050 A 
ENDROOT
BRANCH   3   7
ATOM      7  O   UNL     1       9.498  20.252  -6.056  1.00  0.00    -0.504 OA
ATOM      8  H   UNL     1       9.316  19.450  -5.470  1.00  0.00     0.293 HD
ENDBRANCH   3   7
BRANCH   5   9
ATOM      9  O   UNL     1       8.194  24.731  -4.521  1.00  0.00    -0.504 OA
ATOM     10  H   UNL     1       9.078  24.954  -4.080  1.00  0.00     0.293 HD
ENDBRANCH   5   9
BRANCH   4  11
ATOM     11  O   UNL     1       9.912  22.538  -4.290  1.00  0.00    -0.502 OA
ATOM     12  H   UNL     1       9.778  22.791  -3.322  1.00  0.00     0.293 HD
ENDBRANCH   4  11
TORSDOF 3
ENDMDL
MODEL 3
REMARK VINA RESULT:    -3.504     22.771     23.340
REMARK INTER + INTRA:          -3.811
REMARK INTER:                  -3.811
REMARK INTRA:                   0.000
REMARK UNBOUND:                 0.000
REMARK SMILES Oc1cccc(O)c1O
REMARK SMILES IDX 4 1 5 2 6 3 8 4 2 5 3 6 7 7 1 9 9 11
REMARK H PARENT 7 8 1 10 9 12
REMARK Flexibility Score: inf
ROOT
ATOM      1  C   UNL     1      -1.848  11.225   9.463  1.00  0.00     0.008 A 
ATOM      2  C   UNL     1      -1.829   9.899   9.032  1.00  0.00     0.050 A 
ATOM      3  C   UNL     1      -1.814   8.848   9.957  1.00  0.00     0.161 A 
ATOM      4  C   UNL     1      -1.819   9.140  11.345  1.00  0.00     0.200 A 
ATOM      5  C   UNL     1      -1.838  10.484  11.768  1.00  0.00     0.161 A 
ATOM      6  C   UNL     1      -1.853  11.516  10.826  1.00  0.00     0.050 A 
ENDROOT
BRANCH   3   7
ATOM      7  O   UNL     1      -1.796   7.543   9.460  1.00  0.00    -0.504 OA
ATOM      8  H   UNL     1      -2.461   7.182   8.791  1.00  0.00     0.293 HD
ENDBRANCH   3   7
BRANCH   5   9
ATOM      9  O   UNL     1      -1.843  10.812  13.125  1.00  0.00    -0.504 OA
ATOM     10  H   UNL     1      -2.570  11.380  13.542  1.00  0.00     0.293 HD
ENDBRANCH   5   9
BRANCH   4  11
ATOM     11  O   UNL     1      -1.805   8.137  12.318  1.00  0.00    -0.502 OA
ATOM     12  H   UNL     1      -1.967   7.159  12.127  1.00  0.00     0.293 HD
ENDBRANCH   4  11
TORSDOF 3
ENDMDL
MODEL 4
REMARK VINA RESULT:    -3.488     22.816     23.497
REMARK INTER + INTRA:          -3.794
REMARK INTER:                  -3.794
REMARK INTRA:                   0.000
REMARK UNBOUND:                 0.000
REMARK SMILES Oc1cccc(O)c1O
REMARK SMILES IDX 4 1 5 2 6 3 8 4 2 5 3 6 7 7 1 9 9 11
REMARK H PARENT 7 8 1 10 9 12
REMARK Flexibility Score: inf
ROOT
ATOM      1  C   UNL     1      -2.033  11.232   9.461  1.00  0.00     0.008 A 
ATOM      2  C   UNL     1      -2.083  11.527  10.823  1.00  0.00     0.050 A 
ATOM      3  C   UNL     1      -2.027  10.505  11.778  1.00  0.00     0.161 A 
ATOM      4  C   UNL     1      -1.917   9.157  11.351  1.00  0.00     0.200 A 
ATOM      5  C   UNL     1      -1.867   8.870   9.972  1.00  0.00     0.161 A 
ATOM      6  C   UNL     1      -1.925   9.908   9.038  1.00  0.00     0.050 A 
ENDROOT
BRANCH   3   7
ATOM      7  O   UNL     1      -2.082  10.869  13.125  1.00  0.00    -0.504 OA
ATOM      8  H   UNL     1      -2.851  11.370  13.546  1.00  0.00     0.293 HD
ENDBRANCH   3   7
BRANCH   5   9
ATOM      9  O   UNL     1      -1.759   7.557   9.513  1.00  0.00    -0.504 OA
ATOM     10  H   UNL     1      -2.126   6.769  10.034  1.00  0.00     0.293 HD
ENDBRANCH   5   9
BRANCH   4  11
ATOM     11  O   UNL     1      -1.856   8.092  12.255  1.00  0.00    -0.502 OA
ATOM     12  H   UNL     1      -2.296   7.196  12.107  1.00  0.00     0.293 HD
ENDBRANCH   4  11
TORSDOF 3
ENDMDL
MODEL 5
REMARK VINA RESULT:    -3.319      1.681      2.764
REMARK INTER + INTRA:          -3.610
REMARK INTER:                  -3.610
REMARK INTRA:                   0.000
REMARK UNBOUND:                 0.000
REMARK SMILES Oc1cccc(O)c1O
REMARK SMILES IDX 4 1 5 2 6 3 8 4 2 5 3 6 7 7 1 9 9 11
REMARK H PARENT 7 8 1 10 9 12
REMARK Flexibility Score: inf
ROOT
ATOM      1  C   UNL     1       9.671  24.345  -6.357  1.00  0.00     0.008 A 
ATOM      2  C   UNL     1      10.239  23.083  -6.535  1.00  0.00     0.050 A 
ATOM      3  C   UNL     1       9.438  21.934  -6.541  1.00  0.00     0.161 A 
ATOM      4  C   UNL     1       8.037  22.060  -6.365  1.00  0.00     0.200 A 
ATOM      5  C   UNL     1       7.474  23.340  -6.186  1.00  0.00     0.161 A 
ATOM      6  C   UNL     1       8.294  24.472  -6.184  1.00  0.00     0.050 A 
ENDROOT
BRANCH   3   7
ATOM      7  O   UNL     1      10.070  20.703  -6.724  1.00  0.00    -0.504 OA
ATOM      8  H   UNL     1      10.998  20.593  -7.105  1.00  0.00     0.293 HD
ENDBRANCH   3   7
BRANCH   5   9
ATOM      9  O   UNL     1       6.100  23.505  -6.010  1.00  0.00    -0.504 OA
ATOM     10  H   UNL     1       5.687  24.400  -5.780  1.00  0.00     0.293 HD
ENDBRANCH   5   9
BRANCH   4  11
ATOM     11  O   UNL     1       7.184  20.953  -6.362  1.00  0.00    -0.502 OA
ATOM     12  H   UNL     1       7.427  20.048  -6.738  1.00  0.00     0.293 HD
ENDBRANCH   4  11
TORSDOF 3
ENDMDL
MODEL 6
REMARK VINA RESULT:    -3.287      1.655      2.586
REMARK INTER + INTRA:          -3.575
REMARK INTER:                  -3.575
REMARK INTRA:                   0.000
REMARK UNBOUND:                 0.000
REMARK SMILES Oc1cccc(O)c1O
REMARK SMILES IDX 4 1 5 2 6 3 8 4 2 5 3 6 7 7 1 9 9 11
REMARK H PARENT 7 8 1 10 9 12
REMARK Flexibility Score: inf
ROOT
ATOM      1  C   UNL     1       9.724  24.114  -6.271  1.00  0.00     0.008 A 
ATOM      2  C   UNL     1       8.371  24.438  -6.368  1.00  0.00     0.050 A 
ATOM      3  C   UNL     1       7.398  23.433  -6.416  1.00  0.00     0.161 A 
ATOM      4  C   UNL     1       7.796  22.073  -6.364  1.00  0.00     0.200 A 
ATOM      5  C   UNL     1       9.166  21.757  -6.265  1.00  0.00     0.161 A 
ATOM      6  C   UNL     1      10.119  22.778  -6.218  1.00  0.00     0.050 A 
ENDROOT
BRANCH   3   7
ATOM      7  O   UNL     1       6.062  23.826  -6.514  1.00  0.00    -0.504 OA
ATOM      8  H   UNL     1       5.459  23.596  -7.291  1.00  0.00     0.293 HD
ENDBRANCH   3   7
BRANCH   5   9
ATOM      9  O   UNL     1       9.598  20.431  -6.211  1.00  0.00    -0.504 OA
ATOM     10  H   UNL     1      10.573  20.175  -6.302  1.00  0.00     0.293 HD
ENDBRANCH   5   9
BRANCH   4  11
ATOM     11  O   UNL     1       6.873  21.024  -6.407  1.00  0.00    -0.502 OA
ATOM     12  H   UNL     1       6.897  20.222  -5.794  1.00  0.00     0.293 HD
ENDBRANCH   4  11
TORSDOF 3
ENDMDL
MODEL 7
REMARK VINA RESULT:    -3.201      1.702      3.551
REMARK INTER + INTRA:          -3.481
REMARK INTER:                  -3.481
REMARK INTRA:                   0.000
REMARK UNBOUND:                 0.000
REMARK SMILES Oc1cccc(O)c1O
REMARK SMILES IDX 4 1 5 2 6 3 8 4 2 5 3 6 7 7 1 9 9 11
REMARK H PARENT 7 8 1 10 9 12
REMARK Flexibility Score: inf
ROOT
ATOM      1  C   UNL     1      10.208  21.687  -7.020  1.00  0.00     0.008 A 
ATOM      2  C   UNL     1       9.793  23.007  -6.848  1.00  0.00     0.050 A 
ATOM      3  C   UNL     1       8.442  23.310  -6.641  1.00  0.00     0.161 A 
ATOM      4  C   UNL     1       7.489  22.260  -6.604  1.00  0.00     0.200 A 
ATOM      5  C   UNL     1       7.920  20.929  -6.779  1.00  0.00     0.161 A 
ATOM      6  C   UNL     1       9.274  20.652  -6.985  1.00  0.00     0.050 A 
ENDROOT
BRANCH   3   7
ATOM      7  O   UNL     1       8.094  24.652  -6.476  1.00  0.00    -0.504 OA
ATOM      8  H   UNL     1       7.443  25.145  -7.069  1.00  0.00     0.293 HD
ENDBRANCH   3   7
BRANCH   5   9
ATOM      9  O   UNL     1       7.013  19.869  -6.750  1.00  0.00    -0.504 OA
ATOM     10  H   UNL     1       7.254  18.961  -6.371  1.00  0.00     0.293 HD
ENDBRANCH   5   9
BRANCH   4  11
ATOM     11  O   UNL     1       6.127  22.497  -6.400  1.00  0.00    -0.502 OA
ATOM     12  H   UNL     1       5.733  22.834  -5.534  1.00  0.00     0.293 HD
ENDBRANCH   4  11
TORSDOF 3
ENDMDL
MODEL 8
REMARK VINA RESULT:    -1.230      1.144      2.811
REMARK INTER + INTRA:          -1.338
REMARK INTER:                  -1.338
REMARK INTRA:                   0.000
REMARK UNBOUND:                 0.000
REMARK SMILES Oc1cccc(O)c1O
REMARK SMILES IDX 4 1 5 2 6 3 8 4 2 5 3 6 7 7 1 9 9 11
REMARK H PARENT 7 8 1 10 9 12
REMARK Flexibility Score: inf
ROOT
ATOM      1  C   UNL     1       6.764  22.514  -7.125  1.00  0.00     0.008 A 
ATOM      2  C   UNL     1       6.959  23.636  -6.320  1.00  0.00     0.050 A 
ATOM      3  C   UNL     1       8.015  23.681  -5.402  1.00  0.00     0.161 A 
ATOM      4  C   UNL     1       8.893  22.573  -5.294  1.00  0.00     0.200 A 
ATOM      5  C   UNL     1       8.686  21.445  -6.112  1.00  0.00     0.161 A 
ATOM      6  C   UNL     1       7.625  21.423  -7.021  1.00  0.00     0.050 A 
ENDROOT
BRANCH   3   7
ATOM      7  O   UNL     1       8.154  24.834  -4.627  1.00  0.00    -0.504 OA
ATOM      8  H   UNL     1       7.519  25.099  -3.887  1.00  0.00     0.293 HD
ENDBRANCH   3   7
BRANCH   5   9
ATOM      9  O   UNL     1       9.528  20.334  -6.035  1.00  0.00    -0.504 OA
ATOM     10  H   UNL     1       9.846  19.956  -5.151  1.00  0.00     0.293 HD
ENDBRANCH   5   9
BRANCH   4  11
ATOM     11  O   UNL     1       9.965  22.557  -4.398  1.00  0.00    -0.502 OA
ATOM     12  H   UNL     1      10.577  23.342  -4.230  1.00  0.00     0.293 HD
ENDBRANCH   4  11
TORSDOF 3
ENDMDL
