MODEL 1
REMARK VINA RESULT:    -3.850      0.000      0.000
REMARK INTER + INTRA:          -4.676
REMARK INTER:                  -4.638
REMARK INTRA:                  -0.038
REMARK UNBOUND:                -0.038
REMARK SMILES CCCCCO
REMARK SMILES IDX 4 1 3 2 2 3 1 4 5 5 6 6
REMARK H PARENT 6 7
REMARK Flexibility Score: inf
ROOT
ATOM      1  C   UNL     1      34.638 -18.528 -28.162  1.00  0.00     0.028 C 
ENDROOT
BRANCH   1   2
ATOM      2  C   UNL     1      33.206 -17.989 -28.346  1.00  0.00     0.002 C 
BRANCH   2   3
ATOM      3  C   UNL     1      32.107 -19.065 -28.348  1.00  0.00    -0.003 C 
ATOM      4  C   UNL     1      31.702 -19.505 -29.754  1.00  0.00     0.004 C 
ENDBRANCH   2   3
ENDBRANCH   1   2
BRANCH   1   5
ATOM      5  C   UNL     1      35.499 -18.449 -29.431  1.00  0.00     0.156 C 
BRANCH   5   6
ATOM      6  O   UNL     1      36.512 -19.421 -29.416  1.00  0.00    -0.396 OA
ATOM      7  H   UNL     1      36.679 -19.670 -30.362  1.00  0.00     0.210 HD
ENDBRANCH   5   6
ENDBRANCH   1   5
TORSDOF 4
ENDMDL
MODEL 2
REMARK VINA RESULT:    -3.843      2.021      2.228
REMARK INTER + INTRA:          -4.667
REMARK INTER:                  -4.635
REMARK INTRA:                  -0.032
REMARK UNBOUND:                -0.038
REMARK SMILES CCCCCO
REMARK SMILES IDX 4 1 3 2 2 3 1 4 5 5 6 6
REMARK H PARENT 6 7
REMARK Flexibility Score: inf
ROOT
ATOM      1  C   UNL     1      33.451 -18.562 -28.064  1.00  0.00     0.028 C 
ENDROOT
BRANCH   1   2
ATOM      2  C   UNL     1      32.074 -18.398 -28.738  1.00  0.00     0.002 C 
BRANCH   2   3
ATOM      3  C   UNL     1      31.707 -19.511 -29.734  1.00  0.00    -0.003 C 
ATOM      4  C   UNL     1      32.860 -19.888 -30.663  1.00  0.00     0.004 C 
ENDBRANCH   2   3
ENDBRANCH   1   2
BRANCH   1   5
ATOM      5  C   UNL     1      34.441 -17.435 -28.392  1.00  0.00     0.156 C 
BRANCH   5   6
ATOM      6  O   UNL     1      34.035 -16.222 -27.815  1.00  0.00    -0.396 OA
ATOM      7  H   UNL     1      34.721 -15.548 -28.061  1.00  0.00     0.210 HD
ENDBRANCH   5   6
ENDBRANCH   1   5
TORSDOF 4
ENDMDL
MODEL 3
REMARK VINA RESULT:    -3.787      1.322      2.118
REMARK INTER + INTRA:          -4.600
REMARK INTER:                  -4.591
REMARK INTRA:                  -0.009
REMARK UNBOUND:                -0.038
REMARK SMILES CCCCCO
REMARK SMILES IDX 4 1 3 2 2 3 1 4 5 5 6 6
REMARK H PARENT 6 7
REMARK Flexibility Score: inf
ROOT
ATOM      1  C   UNL     1      36.391 -17.673 -29.453  1.00  0.00     0.028 C 
ENDROOT
BRANCH   1   2
ATOM      2  C   UNL     1      35.217 -18.611 -29.109  1.00  0.00     0.002 C 
BRANCH   2   3
ATOM      3  C   UNL     1      34.107 -17.970 -28.257  1.00  0.00    -0.003 C 
ATOM      4  C   UNL     1      32.747 -18.642 -28.444  1.00  0.00     0.004 C 
ENDBRANCH   2   3
ENDBRANCH   1   2
BRANCH   1   5
ATOM      5  C   UNL     1      37.262 -18.168 -30.616  1.00  0.00     0.156 C 
BRANCH   5   6
ATOM      6  O   UNL     1      38.062 -19.251 -30.222  1.00  0.00    -0.396 OA
ATOM      7  H   UNL     1      37.483 -20.057 -30.252  1.00  0.00     0.210 HD
ENDBRANCH   5   6
ENDBRANCH   1   5
TORSDOF 4
ENDMDL
MODEL 4
REMARK VINA RESULT:    -3.497      1.500      2.684
REMARK INTER + INTRA:          -4.251
REMARK INTER:                  -4.239
REMARK INTRA:                  -0.012
REMARK UNBOUND:                -0.038
REMARK SMILES CCCCCO
REMARK SMILES IDX 4 1 3 2 2 3 1 4 5 5 6 6
REMARK H PARENT 6 7
REMARK Flexibility Score: inf
ROOT
ATOM      1  C   UNL     1      32.139 -20.070 -30.275  1.00  0.00     0.028 C 
ENDROOT
BRANCH   1   2
ATOM      2  C   UNL     1      31.730 -18.770 -29.554  1.00  0.00     0.002 C 
BRANCH   2   3
ATOM      3  C   UNL     1      32.319 -18.602 -28.143  1.00  0.00    -0.003 C 
ATOM      4  C   UNL     1      33.689 -17.925 -28.143  1.00  0.00     0.004 C 
ENDBRANCH   2   3
ENDBRANCH   1   2
BRANCH   1   5
ATOM      5  C   UNL     1      33.244 -19.877 -31.323  1.00  0.00     0.156 C 
BRANCH   5   6
ATOM      6  O   UNL     1      34.507 -19.794 -30.718  1.00  0.00    -0.396 OA
ATOM      7  H   UNL     1      35.169 -19.722 -31.453  1.00  0.00     0.210 HD
ENDBRANCH   5   6
ENDBRANCH   1   5
TORSDOF 4
ENDMDL
MODEL 5
REMARK VINA RESULT:    -3.448      1.722      3.267
REMARK INTER + INTRA:          -4.192
REMARK INTER:                  -4.105
REMARK INTRA:                  -0.087
REMARK UNBOUND:                -0.038
REMARK SMILES CCCCCO
REMARK SMILES IDX 4 1 3 2 2 3 1 4 5 5 6 6
REMARK H PARENT 6 7
REMARK Flexibility Score: inf
ROOT
ATOM      1  C   UNL     1      32.074 -18.429 -28.818  1.00  0.00     0.028 C 
ENDROOT
BRANCH   1   2
ATOM      2  C   UNL     1      33.385 -18.679 -28.047  1.00  0.00     0.002 C 
BRANCH   2   3
ATOM      3  C   UNL     1      34.551 -17.757 -28.443  1.00  0.00    -0.003 C 
ATOM      4  C   UNL     1      35.666 -18.489 -29.188  1.00  0.00     0.004 C 
ENDBRANCH   2   3
ENDBRANCH   1   2
BRANCH   1   5
ATOM      5  C   UNL     1      31.690 -19.567 -29.775  1.00  0.00     0.156 C 
BRANCH   5   6
ATOM      6  O   UNL     1      32.757 -19.893 -30.626  1.00  0.00    -0.396 OA
ATOM      7  H   UNL     1      33.236 -20.651 -30.200  1.00  0.00     0.210 HD
ENDBRANCH   5   6
ENDBRANCH   1   5
TORSDOF 4
ENDMDL
MODEL 6
REMARK VINA RESULT:    -3.389      2.341      3.959
REMARK INTER + INTRA:          -4.120
REMARK INTER:                  -4.111
REMARK INTRA:                  -0.009
REMARK UNBOUND:                -0.038
REMARK SMILES CCCCCO
REMARK SMILES IDX 4 1 3 2 2 3 1 4 5 5 6 6
REMARK H PARENT 6 7
REMARK Flexibility Score: inf
ROOT
ATOM      1  C   UNL     1      34.419 -17.987 -28.340  1.00  0.00     0.028 C 
ENDROOT
BRANCH   1   2
ATOM      2  C   UNL     1      35.502 -18.677 -29.193  1.00  0.00     0.002 C 
BRANCH   2   3
ATOM      3  C   UNL     1      36.606 -17.741 -29.714  1.00  0.00    -0.003 C 
ATOM      4  C   UNL     1      36.891 -17.922 -31.205  1.00  0.00     0.004 C 
ENDBRANCH   2   3
ENDBRANCH   1   2
BRANCH   1   5
ATOM      5  C   UNL     1      33.024 -18.611 -28.484  1.00  0.00     0.156 C 
BRANCH   5   6
ATOM      6  O   UNL     1      32.021 -17.691 -28.142  1.00  0.00    -0.396 OA
ATOM      7  H   UNL     1      31.163 -18.078 -28.457  1.00  0.00     0.210 HD
ENDBRANCH   5   6
ENDBRANCH   1   5
TORSDOF 4
ENDMDL
MODEL 7
REMARK VINA RESULT:    -1.979      1.621      2.239
REMARK INTER + INTRA:          -2.422
REMARK INTER:                  -2.521
REMARK INTRA:                   0.100
REMARK UNBOUND:                -0.038
REMARK SMILES CCCCCO
REMARK SMILES IDX 4 1 3 2 2 3 1 4 5 5 6 6
REMARK H PARENT 6 7
REMARK Flexibility Score: inf
ROOT
ATOM      1  C   UNL     1      35.427 -19.065 -28.418  1.00  0.00     0.028 C 
ENDROOT
BRANCH   1   2
ATOM      2  C   UNL     1      34.018 -18.623 -27.978  1.00  0.00     0.002 C 
BRANCH   2   3
ATOM      3  C   UNL     1      33.537 -17.296 -28.590  1.00  0.00    -0.003 C 
ATOM      4  C   UNL     1      34.211 -16.073 -27.970  1.00  0.00     0.004 C 
ENDBRANCH   2   3
ENDBRANCH   1   2
BRANCH   1   5
ATOM      5  C   UNL     1      35.884 -18.450 -29.748  1.00  0.00     0.156 C 
BRANCH   5   6
ATOM      6  O   UNL     1      37.169 -18.895 -30.096  1.00  0.00    -0.396 OA
ATOM      7  H   UNL     1      37.275 -19.795 -29.692  1.00  0.00     0.210 HD
ENDBRANCH   5   6
ENDBRANCH   1   5
TORSDOF 4
ENDMDL
MODEL 8
REMARK VINA RESULT:    -1.928      2.551      4.269
REMARK INTER + INTRA:          -2.360
REMARK INTER:                  -2.318
REMARK INTRA:                  -0.043
REMARK UNBOUND:                -0.038
REMARK SMILES CCCCCO
REMARK SMILES IDX 4 1 3 2 2 3 1 4 5 5 6 6
REMARK H PARENT 6 7
REMARK Flexibility Score: inf
ROOT
ATOM      1  C   UNL     1      35.181 -18.765 -29.834  1.00  0.00     0.028 C 
ENDROOT
BRANCH   1   2
ATOM      2  C   UNL     1      36.096 -18.288 -30.979  1.00  0.00     0.002 C 
BRANCH   2   3
ATOM      3  C   UNL     1      37.556 -18.026 -30.572  1.00  0.00    -0.003 C 
ATOM      4  C   UNL     1      38.319 -19.304 -30.225  1.00  0.00     0.004 C 
ENDBRANCH   2   3
ENDBRANCH   1   2
BRANCH   1   5
ATOM      5  C   UNL     1      35.195 -17.847 -28.604  1.00  0.00     0.156 C 
BRANCH   5   6
ATOM      6  O   UNL     1      34.170 -18.187 -27.708  1.00  0.00    -0.396 OA
ATOM      7  H   UNL     1      34.179 -17.498 -26.993  1.00  0.00     0.210 HD
ENDBRANCH   5   6
ENDBRANCH   1   5
TORSDOF 4
ENDMDL
MODEL 9
REMARK VINA RESULT:    -1.923      2.952      3.888
REMARK INTER + INTRA:          -2.354
REMARK INTER:                  -2.325
REMARK INTRA:                  -0.029
REMARK UNBOUND:                -0.038
REMARK SMILES CCCCCO
REMARK SMILES IDX 4 1 3 2 2 3 1 4 5 5 6 6
REMARK H PARENT 6 7
REMARK Flexibility Score: inf
ROOT
ATOM      1  C   UNL     1      35.939 -17.506 -28.653  1.00  0.00     0.028 C 
ENDROOT
BRANCH   1   2
ATOM      2  C   UNL     1      35.948 -18.775 -29.527  1.00  0.00     0.002 C 
BRANCH   2   3
ATOM      3  C   UNL     1      35.698 -18.529 -31.025  1.00  0.00    -0.003 C 
ATOM      4  C   UNL     1      36.929 -17.998 -31.758  1.00  0.00     0.004 C 
ENDBRANCH   2   3
ENDBRANCH   1   2
BRANCH   1   5
ATOM      5  C   UNL     1      34.533 -16.965 -28.359  1.00  0.00     0.156 C 
BRANCH   5   6
ATOM      6  O   UNL     1      34.518 -15.562 -28.371  1.00  0.00    -0.396 OA
ATOM      7  H   UNL     1      34.903 -15.267 -27.505  1.00  0.00     0.210 HD
ENDBRANCH   5   6
ENDBRANCH   1   5
TORSDOF 4
ENDMDL
