MODEL 1
REMARK VINA RESULT:    -3.762      0.000      0.000
REMARK INTER + INTRA:          -5.662
REMARK INTER:                  -5.741
REMARK INTRA:                   0.080
REMARK UNBOUND:                 0.080
REMARK SMILES CC1=CCC[C@H](C)C(=O)C[C@H](C(C)C)C(=O)C1
REMARK SMILES IDX 8 1 9 2 6 3 7 4 5 5 4 6 3 7 2 8 1 9 10 11 11 12 15 13 16 14
REMARK SMILES IDX 17 15 12 17 13 18 14 19
REMARK H PARENT
REMARK Flexibility Score: 70.00
ROOT
ATOM      1  C   UNL     1      17.250 -24.203 -25.385  1.00  0.00     0.136 C 
ATOM      2  O   UNL     1      17.374 -25.414 -25.508  1.00  0.00    -0.299 OA
ENDROOT
BRANCH   1   3
ATOM      3  C   UNL     1      18.049 -23.291 -26.300  1.00  0.00     0.053 C 
ATOM      4  C   UNL     1      17.102 -22.377 -27.087  1.00  0.00     0.016 C 
BRANCH   3   5
ATOM      5  C   UNL     1      19.108 -22.463 -25.531  1.00  0.00     0.015 C 
BRANCH   5   6
ATOM      6  C   UNL     1      18.645 -21.055 -25.097  1.00  0.00     0.028 C 
BRANCH   6   7
ATOM      7  C   UNL     1      19.046 -20.641 -23.700  1.00  0.00    -0.028 C 
ATOM      8  C   UNL     1      18.320 -20.832 -22.574  1.00  0.00    -0.070 CG0
ATOM      9  C   UNL     1      18.871 -20.291 -21.278  1.00  0.00     0.039 C 
ATOM     10  G   UNL     1      16.982 -21.548 -22.555  1.00  0.00     0.000 G0
ENDBRANCH   6   7
ENDBRANCH   5   6
ENDBRANCH   3   5
ENDBRANCH   1   3
BRANCH   1  11
ATOM     11  C   UNL     1      16.262 -23.675 -24.365  1.00  0.00     0.087 C 
BRANCH  11  12
ATOM     12  C   UNL     1      16.599 -24.151 -22.929  1.00  0.00     0.066 C 
BRANCH  12  13
ATOM     13  C   UNL     1      17.091 -22.986 -22.080  1.00  0.00     0.140 C 
ATOM     14  O   UNL     1      17.634 -23.207 -21.008  1.00  0.00    -0.299 OA
BRANCH  13  15
ATOM     15  C   UNL     1      16.975 -21.554 -22.539  1.00  0.00     0.106 CG0
ATOM     16  G   UNL     1      18.307 -20.828 -22.561  1.00  0.00     0.000 G0
ENDBRANCH  13  15
ENDBRANCH  12  13
BRANCH  12  17
ATOM     17  C   UNL     1      15.418 -24.931 -22.272  1.00  0.00    -0.006 C 
ATOM     18  C   UNL     1      15.693 -26.428 -22.040  1.00  0.00     0.008 C 
ATOM     19  C   UNL     1      14.117 -24.748 -23.068  1.00  0.00     0.008 C 
ENDBRANCH  12  17
ENDBRANCH  11  12
ENDBRANCH   1  11
TORSDOF 1
ENDMDL
MODEL 2
REMARK VINA RESULT:    -3.735      2.242      4.836
REMARK INTER + INTRA:          -5.621
REMARK INTER:                  -5.286
REMARK INTRA:                  -0.335
REMARK UNBOUND:                 0.080
REMARK SMILES CC1=CCC[C@H](C)C(=O)C[C@H](C(C)C)C(=O)C1
REMARK SMILES IDX 8 1 9 2 6 3 7 4 5 5 4 6 3 7 2 8 1 9 10 11 11 12 15 13 16 14
REMARK SMILES IDX 17 15 12 17 13 18 14 19
REMARK H PARENT
REMARK Flexibility Score: 70.00
ROOT
ATOM      1  C   UNL     1      18.552 -21.002 -22.516  1.00  0.00     0.136 C 
ATOM      2  O   UNL     1      19.173 -20.123 -21.937  1.00  0.00    -0.299 OA
ENDROOT
BRANCH   1   3
ATOM      3  C   UNL     1      17.964 -22.140 -21.700  1.00  0.00     0.053 C 
ATOM      4  C   UNL     1      19.085 -23.057 -21.192  1.00  0.00     0.016 C 
BRANCH   3   5
ATOM      5  C   UNL     1      17.086 -21.635 -20.528  1.00  0.00     0.015 C 
BRANCH   5   6
ATOM      6  C   UNL     1      15.599 -21.413 -20.877  1.00  0.00     0.028 C 
BRANCH   6   7
ATOM      7  C   UNL     1      14.962 -22.491 -21.724  1.00  0.00    -0.028 C 
ATOM      8  C   UNL     1      14.691 -22.407 -23.047  1.00  0.00    -0.070 CG0
ATOM      9  C   UNL     1      13.996 -23.576 -23.701  1.00  0.00     0.039 C 
ATOM     10  G   UNL     1      15.037 -21.197 -23.895  1.00  0.00     0.000 G0
ENDBRANCH   6   7
ENDBRANCH   5   6
ENDBRANCH   3   5
ENDBRANCH   1   3
BRANCH   1  11
ATOM     11  C   UNL     1      18.351 -20.882 -24.013  1.00  0.00     0.087 C 
BRANCH  11  12
ATOM     12  C   UNL     1      17.455 -22.017 -24.572  1.00  0.00     0.066 C 
BRANCH  12  13
ATOM     13  C   UNL     1      16.078 -21.479 -24.941  1.00  0.00     0.140 C 
ATOM     14  O   UNL     1      15.793 -21.307 -26.117  1.00  0.00    -0.299 OA
BRANCH  13  15
ATOM     15  C   UNL     1      15.025 -21.191 -23.901  1.00  0.00     0.106 CG0
ATOM     16  G   UNL     1      14.680 -22.402 -23.055  1.00  0.00     0.000 G0
ENDBRANCH  13  15
ENDBRANCH  12  13
BRANCH  12  17
ATOM     17  C   UNL     1      18.142 -22.793 -25.737  1.00  0.00    -0.006 C 
ATOM     18  C   UNL     1      17.669 -24.249 -25.900  1.00  0.00     0.008 C 
ATOM     19  C   UNL     1      19.673 -22.744 -25.616  1.00  0.00     0.008 C 
ENDBRANCH  12  17
ENDBRANCH  11  12
ENDBRANCH   1  11
TORSDOF 1
ENDMDL
MODEL 3
REMARK VINA RESULT:    -3.708      1.837      3.952
REMARK INTER + INTRA:          -5.578
REMARK INTER:                  -5.156
REMARK INTRA:                  -0.422
REMARK UNBOUND:                 0.080
REMARK SMILES CC1=CCC[C@H](C)C(=O)C[C@H](C(C)C)C(=O)C1
REMARK SMILES IDX 8 1 9 2 6 3 7 4 5 5 4 6 3 7 2 8 1 9 10 11 11 12 15 13 16 14
REMARK SMILES IDX 17 15 12 17 13 18 14 19
REMARK H PARENT
REMARK Flexibility Score: 70.00
ROOT
ATOM      1  C   UNL     1      18.105 -24.432 -24.084  1.00  0.00     0.136 C 
ATOM      2  O   UNL     1      18.664 -25.386 -24.606  1.00  0.00    -0.299 OA
ENDROOT
BRANCH   1   3
ATOM      3  C   UNL     1      16.628 -24.546 -23.748  1.00  0.00     0.053 C 
ATOM      4  C   UNL     1      15.888 -25.279 -24.874  1.00  0.00     0.016 C 
BRANCH   3   5
ATOM      5  C   UNL     1      16.385 -25.235 -22.382  1.00  0.00     0.015 C 
BRANCH   5   6
ATOM      6  C   UNL     1      16.200 -24.272 -21.190  1.00  0.00     0.028 C 
BRANCH   6   7
ATOM      7  C   UNL     1      17.457 -23.944 -20.417  1.00  0.00    -0.028 C 
ATOM      8  C   UNL     1      18.076 -22.741 -20.379  1.00  0.00    -0.070 CG0
ATOM      9  C   UNL     1      19.358 -22.633 -19.592  1.00  0.00     0.039 C 
ATOM     10  G   UNL     1      17.553 -21.510 -21.096  1.00  0.00     0.000 G0
ENDBRANCH   6   7
ENDBRANCH   5   6
ENDBRANCH   3   5
ENDBRANCH   1   3
BRANCH   1  11
ATOM     11  C   UNL     1      18.927 -23.205 -23.746  1.00  0.00     0.087 C 
BRANCH  11  12
ATOM     12  C   UNL     1      18.058 -21.924 -23.676  1.00  0.00     0.066 C 
BRANCH  12  13
ATOM     13  C   UNL     1      18.303 -21.181 -22.369  1.00  0.00     0.140 C 
ATOM     14  O   UNL     1      19.107 -20.261 -22.339  1.00  0.00    -0.299 OA
BRANCH  13  15
ATOM     15  C   UNL     1      17.550 -21.512 -21.105  1.00  0.00     0.106 CG0
ATOM     16  G   UNL     1      18.084 -22.746 -20.402  1.00  0.00     0.000 G0
ENDBRANCH  13  15
ENDBRANCH  12  13
BRANCH  12  17
ATOM     17  C   UNL     1      18.233 -21.021 -24.936  1.00  0.00    -0.006 C 
ATOM     18  C   UNL     1      16.964 -20.873 -25.796  1.00  0.00     0.008 C 
ATOM     19  C   UNL     1      19.409 -21.494 -25.804  1.00  0.00     0.008 C 
ENDBRANCH  12  17
ENDBRANCH  11  12
ENDBRANCH   1  11
TORSDOF 1
ENDMDL
MODEL 4
REMARK VINA RESULT:    -3.694     14.509     16.908
REMARK INTER + INTRA:          -5.558
REMARK INTER:                  -5.269
REMARK INTRA:                  -0.289
REMARK UNBOUND:                 0.080
REMARK SMILES CC1=CCC[C@H](C)C(=O)C[C@H](C(C)C)C(=O)C1
REMARK SMILES IDX 8 1 9 2 6 3 7 4 5 5 4 6 3 7 2 8 1 9 10 11 11 12 15 13 16 14
REMARK SMILES IDX 17 15 12 17 13 18 14 19
REMARK H PARENT
REMARK Flexibility Score: 70.00
ROOT
ATOM      1  C   UNL     1      24.159 -13.311 -15.278  1.00  0.00     0.136 C 
ATOM      2  O   UNL     1      23.418 -13.839 -16.094  1.00  0.00    -0.299 OA
ENDROOT
BRANCH   1   3
ATOM      3  C   UNL     1      25.219 -14.161 -14.597  1.00  0.00     0.053 C 
ATOM      4  C   UNL     1      24.740 -15.615 -14.495  1.00  0.00     0.016 C 
BRANCH   3   5
ATOM      5  C   UNL     1      26.591 -14.076 -15.308  1.00  0.00     0.015 C 
BRANCH   5   6
ATOM      6  C   UNL     1      27.675 -13.289 -14.541  1.00  0.00     0.028 C 
BRANCH   6   7
ATOM      7  C   UNL     1      28.186 -12.045 -15.232  1.00  0.00    -0.028 C 
ATOM      8  C   UNL     1      27.937 -10.768 -14.857  1.00  0.00    -0.070 CG0
ATOM      9  C   UNL     1      28.494  -9.660 -15.716  1.00  0.00     0.039 C 
ATOM     10  G   UNL     1      27.121 -10.402 -13.632  1.00  0.00     0.000 G0
ENDBRANCH   6   7
ENDBRANCH   5   6
ENDBRANCH   3   5
ENDBRANCH   1   3
BRANCH   1  11
ATOM     11  C   UNL     1      24.023 -11.822 -15.031  1.00  0.00     0.087 C 
BRANCH  11  12
ATOM     12  C   UNL     1      24.661 -11.396 -13.684  1.00  0.00     0.066 C 
BRANCH  12  13
ATOM     13  C   UNL     1      25.646 -10.253 -13.897  1.00  0.00     0.140 C 
ATOM     14  O   UNL     1      25.237  -9.165 -14.273  1.00  0.00    -0.299 OA
BRANCH  13  15
ATOM     15  C   UNL     1      27.120 -10.402 -13.613  1.00  0.00     0.106 CG0
ATOM     16  G   UNL     1      27.926 -10.771 -14.845  1.00  0.00     0.000 G0
ENDBRANCH  13  15
ENDBRANCH  12  13
BRANCH  12  17
ATOM     17  C   UNL     1      23.590 -11.086 -12.594  1.00  0.00    -0.006 C 
ATOM     18  C   UNL     1      23.918 -11.648 -11.199  1.00  0.00     0.008 C 
ATOM     19  C   UNL     1      22.193 -11.549 -13.036  1.00  0.00     0.008 C 
ENDBRANCH  12  17
ENDBRANCH  11  12
ENDBRANCH   1  11
TORSDOF 1
ENDMDL
MODEL 5
REMARK VINA RESULT:    -3.690      1.768      2.157
REMARK INTER + INTRA:          -5.552
REMARK INTER:                  -5.406
REMARK INTRA:                  -0.146
REMARK UNBOUND:                 0.080
REMARK SMILES CC1=CCC[C@H](C)C(=O)C[C@H](C(C)C)C(=O)C1
REMARK SMILES IDX 8 1 9 2 6 3 7 4 5 5 4 6 3 7 2 8 1 9 10 11 11 12 15 13 16 14
REMARK SMILES IDX 17 15 12 17 13 18 14 19
REMARK H PARENT
REMARK Flexibility Score: 70.00
ROOT
ATOM      1  C   UNL     1      19.153 -24.117 -24.292  1.00  0.00     0.136 C 
ATOM      2  O   UNL     1      20.288 -24.245 -23.857  1.00  0.00    -0.299 OA
ENDROOT
BRANCH   1   3
ATOM      3  C   UNL     1      18.958 -23.425 -25.631  1.00  0.00     0.053 C 
ATOM      4  C   UNL     1      17.527 -23.650 -26.135  1.00  0.00     0.016 C 
BRANCH   3   5
ATOM      5  C   UNL     1      19.294 -21.915 -25.570  1.00  0.00     0.015 C 
BRANCH   5   6
ATOM      6  C   UNL     1      18.265 -21.048 -24.813  1.00  0.00     0.028 C 
BRANCH   6   7
ATOM      7  C   UNL     1      18.608 -20.739 -23.373  1.00  0.00    -0.028 C 
ATOM      8  C   UNL     1      17.898 -21.123 -22.287  1.00  0.00    -0.070 CG0
ATOM      9  C   UNL     1      18.377 -20.662 -20.933  1.00  0.00     0.039 C 
ATOM     10  G   UNL     1      16.645 -21.976 -22.367  1.00  0.00     0.000 G0
ENDBRANCH   6   7
ENDBRANCH   5   6
ENDBRANCH   3   5
ENDBRANCH   1   3
BRANCH   1  11
ATOM     11  C   UNL     1      18.002 -24.707 -23.503  1.00  0.00     0.087 C 
BRANCH  11  12
ATOM     12  C   UNL     1      18.001 -24.227 -22.029  1.00  0.00     0.066 C 
BRANCH  12  13
ATOM     13  C   UNL     1      16.789 -23.346 -21.754  1.00  0.00     0.140 C 
ATOM     14  O   UNL     1      15.929 -23.729 -20.976  1.00  0.00    -0.299 OA
BRANCH  13  15
ATOM     15  C   UNL     1      16.630 -21.982 -22.378  1.00  0.00     0.106 CG0
ATOM     16  G   UNL     1      17.892 -21.143 -22.299  1.00  0.00     0.000 G0
ENDBRANCH  13  15
ENDBRANCH  12  13
BRANCH  12  17
ATOM     17  C   UNL     1      18.141 -25.409 -21.022  1.00  0.00    -0.006 C 
ATOM     18  C   UNL     1      19.000 -25.095 -19.784  1.00  0.00     0.008 C 
ATOM     19  C   UNL     1      18.657 -26.679 -21.718  1.00  0.00     0.008 C 
ENDBRANCH  12  17
ENDBRANCH  11  12
ENDBRANCH   1  11
TORSDOF 1
ENDMDL
MODEL 6
REMARK VINA RESULT:    -3.681     13.751     15.955
REMARK INTER + INTRA:          -5.539
REMARK INTER:                  -5.256
REMARK INTRA:                  -0.283
REMARK UNBOUND:                 0.080
REMARK SMILES CC1=CCC[C@H](C)C(=O)C[C@H](C(C)C)C(=O)C1
REMARK SMILES IDX 8 1 9 2 6 3 7 4 5 5 4 6 3 7 2 8 1 9 10 11 11 12 15 13 16 14
REMARK SMILES IDX 17 15 12 17 13 18 14 19
REMARK H PARENT
REMARK Flexibility Score: 70.00
ROOT
ATOM      1  C   UNL     1      24.121 -13.481 -14.877  1.00  0.00     0.136 C 
ATOM      2  O   UNL     1      23.651 -13.451 -16.005  1.00  0.00    -0.299 OA
ENDROOT
BRANCH   1   3
ATOM      3  C   UNL     1      23.683 -14.587 -13.932  1.00  0.00     0.053 C 
ATOM      4  C   UNL     1      22.183 -14.462 -13.637  1.00  0.00     0.016 C 
BRANCH   3   5
ATOM      5  C   UNL     1      24.027 -15.997 -14.473  1.00  0.00     0.015 C 
BRANCH   5   6
ATOM      6  C   UNL     1      25.473 -16.464 -14.199  1.00  0.00     0.028 C 
BRANCH   6   7
ATOM      7  C   UNL     1      26.347 -16.625 -15.423  1.00  0.00    -0.028 C 
ATOM      8  C   UNL     1      27.483 -15.938 -15.684  1.00  0.00    -0.070 CG0
ATOM      9  C   UNL     1      28.183 -16.204 -16.994  1.00  0.00     0.039 C 
ATOM     10  G   UNL     1      28.076 -14.912 -14.736  1.00  0.00     0.000 G0
ENDBRANCH   6   7
ENDBRANCH   5   6
ENDBRANCH   3   5
ENDBRANCH   1   3
BRANCH   1  11
ATOM     11  C   UNL     1      25.163 -12.448 -14.497  1.00  0.00     0.087 C 
BRANCH  11  12
ATOM     12  C   UNL     1      26.392 -13.089 -13.804  1.00  0.00     0.066 C 
BRANCH  12  13
ATOM     13  C   UNL     1      27.410 -13.551 -14.839  1.00  0.00     0.140 C 
ATOM     14  O   UNL     1      27.725 -12.803 -15.752  1.00  0.00    -0.299 OA
BRANCH  13  15
ATOM     15  C   UNL     1      28.087 -14.896 -14.753  1.00  0.00     0.106 CG0
ATOM     16  G   UNL     1      27.483 -15.925 -15.690  1.00  0.00     0.000 G0
ENDBRANCH  13  15
ENDBRANCH  12  13
BRANCH  12  17
ATOM     17  C   UNL     1      27.006 -12.160 -12.712  1.00  0.00    -0.006 C 
ATOM     18  C   UNL     1      27.826 -12.895 -11.637  1.00  0.00     0.008 C 
ATOM     19  C   UNL     1      25.929 -11.285 -12.052  1.00  0.00     0.008 C 
ENDBRANCH  12  17
ENDBRANCH  11  12
ENDBRANCH   1  11
TORSDOF 1
ENDMDL
MODEL 7
REMARK VINA RESULT:    -3.678      2.139      4.015
REMARK INTER + INTRA:          -5.533
REMARK INTER:                  -5.425
REMARK INTRA:                  -0.108
REMARK UNBOUND:                 0.080
REMARK SMILES CC1=CCC[C@H](C)C(=O)C[C@H](C(C)C)C(=O)C1
REMARK SMILES IDX 8 1 9 2 6 3 7 4 5 5 4 6 3 7 2 8 1 9 10 11 11 12 15 13 16 14
REMARK SMILES IDX 17 15 12 17 13 18 14 19
REMARK H PARENT
REMARK Flexibility Score: 70.00
ROOT
ATOM      1  C   UNL     1      18.765 -21.149 -23.628  1.00  0.00     0.136 C 
ATOM      2  O   UNL     1      19.000 -20.220 -22.868  1.00  0.00    -0.299 OA
ENDROOT
BRANCH   1   3
ATOM      3  C   UNL     1      18.822 -20.898 -25.125  1.00  0.00     0.053 C 
ATOM      4  C   UNL     1      19.606 -22.022 -25.816  1.00  0.00     0.016 C 
BRANCH   3   5
ATOM      5  C   UNL     1      17.415 -20.737 -25.751  1.00  0.00     0.015 C 
BRANCH   5   6
ATOM      6  C   UNL     1      16.848 -22.009 -26.417  1.00  0.00     0.028 C 
BRANCH   6   7
ATOM      7  C   UNL     1      15.451 -22.400 -25.991  1.00  0.00    -0.028 C 
ATOM      8  C   UNL     1      15.135 -23.239 -24.977  1.00  0.00    -0.070 CG0
ATOM      9  C   UNL     1      13.677 -23.548 -24.746  1.00  0.00     0.039 C 
ATOM     10  G   UNL     1      16.170 -23.889 -24.077  1.00  0.00     0.000 G0
ENDBRANCH   6   7
ENDBRANCH   5   6
ENDBRANCH   3   5
ENDBRANCH   1   3
BRANCH   1  11
ATOM     11  C   UNL     1      18.488 -22.517 -23.038  1.00  0.00     0.087 C 
BRANCH  11  12
ATOM     12  C   UNL     1      17.252 -22.507 -22.102  1.00  0.00     0.066 C 
BRANCH  12  13
ATOM     13  C   UNL     1      16.153 -23.404 -22.657  1.00  0.00     0.140 C 
ATOM     14  O   UNL     1      15.204 -23.704 -21.949  1.00  0.00    -0.299 OA
BRANCH  13  15
ATOM     15  C   UNL     1      16.170 -23.906 -24.080  1.00  0.00     0.106 CG0
ATOM     16  G   UNL     1      15.136 -23.228 -24.959  1.00  0.00     0.000 G0
ENDBRANCH  13  15
ENDBRANCH  12  13
BRANCH  12  17
ATOM     17  C   UNL     1      17.627 -22.839 -20.626  1.00  0.00    -0.006 C 
ATOM     18  C   UNL     1      17.499 -21.653 -19.653  1.00  0.00     0.008 C 
ATOM     19  C   UNL     1      19.032 -23.454 -20.530  1.00  0.00     0.008 C 
ENDBRANCH  12  17
ENDBRANCH  11  12
ENDBRANCH   1  11
TORSDOF 1
ENDMDL
MODEL 8
REMARK VINA RESULT:    -3.675      1.901      2.414
REMARK INTER + INTRA:          -5.529
REMARK INTER:                  -5.162
REMARK INTRA:                  -0.367
REMARK UNBOUND:                 0.080
REMARK SMILES CC1=CCC[C@H](C)C(=O)C[C@H](C(C)C)C(=O)C1
REMARK SMILES IDX 8 1 9 2 6 3 7 4 5 5 4 6 3 7 2 8 1 9 10 11 11 12 15 13 16 14
REMARK SMILES IDX 17 15 12 17 13 18 14 19
REMARK H PARENT
REMARK Flexibility Score: 70.00
ROOT
ATOM      1  C   UNL     1      17.037 -23.966 -25.311  1.00  0.00     0.136 C 
ATOM      2  O   UNL     1      16.259 -24.764 -25.813  1.00  0.00    -0.299 OA
ENDROOT
BRANCH   1   3
ATOM      3  C   UNL     1      18.525 -24.272 -25.352  1.00  0.00     0.053 C 
ATOM      4  C   UNL     1      19.323 -22.975 -25.542  1.00  0.00     0.016 C 
BRANCH   3   5
ATOM      5  C   UNL     1      19.005 -25.041 -24.097  1.00  0.00     0.015 C 
BRANCH   5   6
ATOM      6  C   UNL     1      20.036 -24.290 -23.228  1.00  0.00     0.028 C 
BRANCH   6   7
ATOM      7  C   UNL     1      19.616 -24.032 -21.798  1.00  0.00    -0.028 C 
ATOM      8  C   UNL     1      18.908 -22.966 -21.357  1.00  0.00    -0.070 CG0
ATOM      9  C   UNL     1      18.638 -22.862 -19.877  1.00  0.00     0.039 C 
ATOM     10  G   UNL     1      18.387 -21.874 -22.273  1.00  0.00     0.000 G0
ENDBRANCH   6   7
ENDBRANCH   5   6
ENDBRANCH   3   5
ENDBRANCH   1   3
BRANCH   1  11
ATOM     11  C   UNL     1      16.483 -22.683 -24.725  1.00  0.00     0.087 C 
BRANCH  11  12
ATOM     12  C   UNL     1      16.122 -22.837 -23.226  1.00  0.00     0.066 C 
BRANCH  12  13
ATOM     13  C   UNL     1      16.892 -21.827 -22.384  1.00  0.00     0.140 C 
ATOM     14  O   UNL     1      16.281 -20.979 -21.751  1.00  0.00    -0.299 OA
BRANCH  13  15
ATOM     15  C   UNL     1      18.395 -21.862 -22.264  1.00  0.00     0.106 CG0
ATOM     16  G   UNL     1      18.891 -22.972 -21.355  1.00  0.00     0.000 G0
ENDBRANCH  13  15
ENDBRANCH  12  13
BRANCH  12  17
ATOM     17  C   UNL     1      14.583 -22.792 -22.981  1.00  0.00    -0.006 C 
ATOM     18  C   UNL     1      13.995 -24.080 -22.377  1.00  0.00     0.008 C 
ATOM     19  C   UNL     1      13.823 -22.414 -24.262  1.00  0.00     0.008 C 
ENDBRANCH  12  17
ENDBRANCH  11  12
ENDBRANCH   1  11
TORSDOF 1
ENDMDL
MODEL 9
REMARK VINA RESULT:    -3.639      2.862      4.362
REMARK INTER + INTRA:          -5.474
REMARK INTER:                  -5.403
REMARK INTRA:                  -0.071
REMARK UNBOUND:                 0.080
REMARK SMILES CC1=CCC[C@H](C)C(=O)C[C@H](C(C)C)C(=O)C1
REMARK SMILES IDX 8 1 9 2 6 3 7 4 5 5 4 6 3 7 2 8 1 9 10 11 11 12 15 13 16 14
REMARK SMILES IDX 17 15 12 17 13 18 14 19
REMARK H PARENT
REMARK Flexibility Score: 70.00
ROOT
ATOM      1  C   UNL     1      19.578 -25.321 -23.511  1.00  0.00     0.136 C 
ATOM      2  O   UNL     1      19.246 -26.034 -24.448  1.00  0.00    -0.299 OA
ENDROOT
BRANCH   1   3
ATOM      3  C   UNL     1      19.994 -25.978 -22.206  1.00  0.00     0.053 C 
ATOM      4  C   UNL     1      20.196 -27.484 -22.417  1.00  0.00     0.016 C 
BRANCH   3   5
ATOM      5  C   UNL     1      21.260 -25.328 -21.595  1.00  0.00     0.015 C 
BRANCH   5   6
ATOM      6  C   UNL     1      20.994 -24.364 -20.419  1.00  0.00     0.028 C 
BRANCH   6   7
ATOM      7  C   UNL     1      19.563 -24.309 -19.934  1.00  0.00    -0.028 C 
ATOM      8  C   UNL     1      18.625 -23.415 -20.324  1.00  0.00    -0.070 CG0
ATOM      9  C   UNL     1      17.265 -23.492 -19.676  1.00  0.00     0.039 C 
ATOM     10  G   UNL     1      18.878 -22.339 -21.363  1.00  0.00     0.000 G0
ENDBRANCH   6   7
ENDBRANCH   5   6
ENDBRANCH   3   5
ENDBRANCH   1   3
BRANCH   1  11
ATOM     11  C   UNL     1      19.614 -23.821 -23.718  1.00  0.00     0.087 C 
BRANCH  11  12
ATOM     12  C   UNL     1      18.191 -23.208 -23.782  1.00  0.00     0.066 C 
BRANCH  12  13
ATOM     13  C   UNL     1      17.906 -22.385 -22.533  1.00  0.00     0.140 C 
ATOM     14  O   UNL     1      16.853 -21.773 -22.440  1.00  0.00    -0.299 OA
BRANCH  13  15
ATOM     15  C   UNL     1      18.867 -22.331 -21.371  1.00  0.00     0.106 CG0
ATOM     16  G   UNL     1      18.616 -23.419 -20.344  1.00  0.00     0.000 G0
ENDBRANCH  13  15
ENDBRANCH  12  13
BRANCH  12  17
ATOM     17  C   UNL     1      17.946 -22.420 -25.105  1.00  0.00    -0.006 C 
ATOM     18  C   UNL     1      17.900 -23.295 -26.371  1.00  0.00     0.008 C 
ATOM     19  C   UNL     1      18.972 -21.289 -25.280  1.00  0.00     0.008 C 
ENDBRANCH  12  17
ENDBRANCH  11  12
ENDBRANCH   1  11
TORSDOF 1
ENDMDL
