MODEL 1
REMARK VINA RESULT:    14.332      0.000      0.000
REMARK INTER + INTRA:          15.670
REMARK INTER:                  15.589
REMARK INTRA:                   0.081
REMARK UNBOUND:                 0.081
REMARK SMILES CC1(C)CC[C@@]2(C(=O)[O-])CC[C@@]3(C)C(=CC[C@@H]4[C@]5(C)CC[C@H](O)C(C)(C)[C@H]5CC[C@@]43C)[C@H]2C1
REMARK SMILES IDX 6 1 5 2 10 3 32 4 4 5 11 6 14 7 33 8 2 9 12 10 15 11 1 12
REMARK SMILES IDX 3 13 13 14 30 15 16 16 17 17 29 18 31 19 18 20 28 21 27 22
REMARK SMILES IDX 20 23 19 24 24 25 21 26 22 27 25 28 26 29 7 30 8 31 9 32
REMARK SMILES IDX 23 33
REMARK H PARENT 23 34
REMARK Flexibility Score: inf
ROOT
ATOM      1  C   UNL     1       7.450 -53.184 576.364  1.00  0.00     0.017 C 
ATOM      2  C   UNL     1       7.328 -53.195 577.928  1.00  0.00     0.014 C 
ATOM      3  C   UNL     1       8.452 -54.291 575.913  1.00  0.00     0.014 C 
ATOM      4  C   UNL     1       6.022 -53.375 575.710  1.00  0.00     0.028 C 
ATOM      5  C   UNL     1       6.124 -52.363 578.387  1.00  0.00     0.007 C 
ATOM      6  C   UNL     1       7.761 -55.633 575.603  1.00  0.00     0.013 C 
ATOM      7  C   UNL     1       6.069 -54.210 574.421  1.00  0.00    -0.064 C 
ATOM      8  C   UNL     1       4.963 -53.930 576.700  1.00  0.00     0.015 C 
ATOM      9  C   UNL     1       4.770 -53.017 577.952  1.00  0.00    -0.035 C 
ATOM     10  C   UNL     1       6.796 -55.573 574.345  1.00  0.00    -0.006 C 
ATOM     11  C   UNL     1       5.433 -53.732 573.340  1.00  0.00    -0.027 C 
ATOM     12  C   UNL     1       4.236 -53.881 579.124  1.00  0.00     0.011 C 
ATOM     13  C   UNL     1       3.733 -51.916 577.641  1.00  0.00     0.011 C 
ATOM     14  C   UNL     1       5.687 -56.638 574.622  1.00  0.00     0.017 C 
ATOM     15  C   UNL     1       7.521 -55.831 572.863  1.00  0.00    -0.020 C 
ATOM     16  C   UNL     1       5.634 -54.341 572.002  1.00  0.00     0.032 C 
ATOM     17  C   UNL     1       7.139 -54.684 571.810  1.00  0.00     0.006 C 
ATOM     18  C   UNL     1       7.080 -57.202 572.223  1.00  0.00     0.008 C 
ATOM     19  C   UNL     1       9.075 -55.931 573.018  1.00  0.00     0.012 C 
ATOM     20  C   UNL     1       7.570 -54.937 570.274  1.00  0.00    -0.025 C 
ATOM     21  C   UNL     1       7.560 -57.471 570.787  1.00  0.00     0.005 C 
ATOM     22  C   UNL     1       7.095 -56.364 569.817  1.00  0.00     0.003 C 
ATOM     23  C   UNL     1       6.897 -53.903 569.300  1.00  0.00     0.010 C 
ATOM     24  C   UNL     1       9.123 -54.736 570.155  1.00  0.00     0.012 C 
ATOM     25  C   UNL     1       7.310 -56.705 568.279  1.00  0.00    -0.006 C 
ATOM     26  C   UNL     1       7.167 -54.170 567.806  1.00  0.00     0.033 C 
ATOM     27  C   UNL     1       6.693 -55.574 567.389  1.00  0.00     0.120 C 
ATOM     28  C   UNL     1       8.797 -56.906 567.881  1.00  0.00     0.014 C 
ATOM     29  C   UNL     1       6.583 -58.031 567.926  1.00  0.00     0.014 C 
ENDROOT
BRANCH   1  30
ATOM     30  C   UNL     1       8.033 -51.847 575.898  1.00  0.00     0.048 C 
ATOM     31  O   UNL     1       8.013 -50.828 576.640  1.00  0.00    -0.550 OA
ATOM     32  O   UNL     1       8.719 -51.775 574.689  1.00  0.00    -0.550 OA
ENDBRANCH   1  30
BRANCH  27  33
ATOM     33  O   UNL     1       5.287 -55.629 567.439  1.00  0.00    -0.393 OA
ATOM     34  H   UNL     1       4.973 -54.717 567.691  1.00  0.00     0.210 HD
ENDBRANCH  27  33
TORSDOF 2
ENDMDL
MODEL 2
REMARK VINA RESULT:    14.584      2.095      3.603
REMARK INTER + INTRA:          15.944
REMARK INTER:                  15.994
REMARK INTRA:                  -0.050
REMARK UNBOUND:                 0.081
REMARK SMILES CC1(C)CC[C@@]2(C(=O)[O-])CC[C@@]3(C)C(=CC[C@@H]4[C@]5(C)CC[C@H](O)C(C)(C)[C@H]5CC[C@@]43C)[C@H]2C1
REMARK SMILES IDX 6 1 5 2 10 3 32 4 4 5 11 6 14 7 33 8 2 9 12 10 15 11 1 12
REMARK SMILES IDX 3 13 13 14 30 15 16 16 17 17 29 18 31 19 18 20 28 21 27 22
REMARK SMILES IDX 20 23 19 24 24 25 21 26 22 27 25 28 26 29 7 30 8 31 9 32
REMARK SMILES IDX 23 33
REMARK H PARENT 23 34
REMARK Flexibility Score: inf
ROOT
ATOM      1  C   UNL     1       5.902 -53.707 576.221  1.00  0.00     0.017 C 
ATOM      2  C   UNL     1       5.987 -52.852 577.534  1.00  0.00     0.014 C 
ATOM      3  C   UNL     1       5.555 -52.777 575.018  1.00  0.00     0.014 C 
ATOM      4  C   UNL     1       7.260 -54.486 575.995  1.00  0.00     0.028 C 
ATOM      5  C   UNL     1       6.642 -53.655 578.664  1.00  0.00     0.007 C 
ATOM      6  C   UNL     1       6.806 -52.243 574.295  1.00  0.00     0.013 C 
ATOM      7  C   UNL     1       7.639 -54.597 574.510  1.00  0.00    -0.064 C 
ATOM      8  C   UNL     1       8.438 -53.921 576.834  1.00  0.00     0.015 C 
ATOM      9  C   UNL     1       8.152 -53.944 578.369  1.00  0.00    -0.035 C 
ATOM     10  C   UNL     1       7.649 -53.372 573.566  1.00  0.00    -0.006 C 
ATOM     11  C   UNL     1       7.990 -55.804 574.040  1.00  0.00    -0.027 C 
ATOM     12  C   UNL     1       9.011 -52.850 579.055  1.00  0.00     0.011 C 
ATOM     13  C   UNL     1       8.546 -55.317 578.954  1.00  0.00     0.011 C 
ATOM     14  C   UNL     1       9.125 -52.863 573.581  1.00  0.00     0.017 C 
ATOM     15  C   UNL     1       7.160 -53.754 572.016  1.00  0.00    -0.020 C 
ATOM     16  C   UNL     1       8.127 -56.049 572.583  1.00  0.00     0.032 C 
ATOM     17  C   UNL     1       6.969 -55.335 571.828  1.00  0.00     0.006 C 
ATOM     18  C   UNL     1       8.211 -53.291 570.937  1.00  0.00     0.008 C 
ATOM     19  C   UNL     1       5.837 -53.001 571.651  1.00  0.00     0.012 C 
ATOM     20  C   UNL     1       6.737 -55.864 570.319  1.00  0.00    -0.025 C 
ATOM     21  C   UNL     1       7.943 -53.732 569.488  1.00  0.00     0.005 C 
ATOM     22  C   UNL     1       7.842 -55.269 569.372  1.00  0.00     0.003 C 
ATOM     23  C   UNL     1       6.855 -57.428 570.223  1.00  0.00     0.010 C 
ATOM     24  C   UNL     1       5.278 -55.486 569.880  1.00  0.00     0.012 C 
ATOM     25  C   UNL     1       7.842 -55.817 567.880  1.00  0.00    -0.006 C 
ATOM     26  C   UNL     1       6.771 -57.984 568.788  1.00  0.00     0.033 C 
ATOM     27  C   UNL     1       7.863 -57.382 567.885  1.00  0.00     0.120 C 
ATOM     28  C   UNL     1       6.637 -55.331 567.031  1.00  0.00     0.014 C 
ATOM     29  C   UNL     1       9.118 -55.331 567.140  1.00  0.00     0.014 C 
ENDROOT
BRANCH   1  30
ATOM     30  C   UNL     1       4.761 -54.723 576.335  1.00  0.00     0.048 C 
ATOM     31  O   UNL     1       4.698 -55.725 575.572  1.00  0.00    -0.550 OA
ATOM     32  O   UNL     1       3.847 -54.622 577.379  1.00  0.00    -0.550 OA
ENDBRANCH   1  30
BRANCH  27  33
ATOM     33  O   UNL     1       9.125 -57.850 568.298  1.00  0.00    -0.393 OA
ATOM     34  H   UNL     1       9.034 -58.832 568.444  1.00  0.00     0.210 HD
ENDBRANCH  27  33
TORSDOF 2
ENDMDL
