MODEL 1
REMARK VINA RESULT:    -6.804      0.000      0.000
REMARK INTER + INTRA:          -8.286
REMARK INTER:                  -7.997
REMARK INTRA:                  -0.290
REMARK UNBOUND:                -0.290
REMARK SMILES O=c1c(O)c(-c2ccc(O)cc2)oc2cc(O)cc(O)c12
REMARK SMILES IDX 5 1 3 2 2 3 1 4 21 5 19 6 18 7 16 8 15 9 14 10 13 11 6 12
REMARK SMILES IDX 7 13 8 14 9 15 12 16 11 17 10 18 4 20 20 22 17 24
REMARK H PARENT 10 19 4 21 20 23 17 25
REMARK Flexibility Score: inf
ROOT
ATOM      1  C   UNL     1      21.196   6.323  31.237  1.00  0.00     0.180 A 
ATOM      2  C   UNL     1      19.831   6.643  31.327  1.00  0.00     0.208 A 
ATOM      3  C   UNL     1      19.263   7.488  30.359  1.00  0.00     0.238 A 
ATOM      4  O   UNL     1      18.029   7.727  30.414  1.00  0.00    -0.285 OA
ATOM      5  C   UNL     1      20.073   8.015  29.324  1.00  0.00     0.111 A 
ATOM      6  C   UNL     1      19.613   8.912  28.313  1.00  0.00     0.134 A 
ATOM      7  C   UNL     1      20.469   9.266  27.263  1.00  0.00     0.093 A 
ATOM      8  C   UNL     1      21.788   8.807  27.222  1.00  0.00     0.123 A 
ATOM      9  C   UNL     1      22.263   7.979  28.236  1.00  0.00     0.094 A 
ATOM     10  C   UNL     1      21.423   7.579  29.278  1.00  0.00     0.146 A 
ATOM     11  O   UNL     1      21.913   6.780  30.217  1.00  0.00    -0.452 OA
ENDROOT
BRANCH   1  12
ATOM     12  C   UNL     1      21.871   5.460  32.235  1.00  0.00     0.021 A 
ATOM     13  C   UNL     1      22.541   6.008  33.343  1.00  0.00     0.016 A 
ATOM     14  C   UNL     1      23.191   5.173  34.259  1.00  0.00     0.047 A 
ATOM     15  C   UNL     1      23.190   3.785  34.069  1.00  0.00     0.115 A 
ATOM     16  C   UNL     1      21.893   4.069  32.042  1.00  0.00     0.016 A 
ATOM     17  C   UNL     1      22.542   3.237  32.959  1.00  0.00     0.047 A 
BRANCH  15  18
ATOM     18  O   UNL     1      23.833   2.944  34.975  1.00  0.00    -0.508 OA
ATOM     19  H   UNL     1      24.583   3.279  35.568  1.00  0.00     0.293 HD
ENDBRANCH  15  18
ENDBRANCH   1  12
BRANCH   2  20
ATOM     20  O   UNL     1      19.045   6.094  32.345  1.00  0.00    -0.502 OA
ATOM     21  H   UNL     1      19.441   5.736  33.205  1.00  0.00     0.293 HD
ENDBRANCH   2  20
BRANCH   6  22
ATOM     22  O   UNL     1      18.345   9.500  28.310  1.00  0.00    -0.507 OA
ATOM     23  H   UNL     1      18.149  10.444  28.609  1.00  0.00     0.293 HD
ENDBRANCH   6  22
BRANCH   8  24
ATOM     24  O   UNL     1      22.637   9.177  26.182  1.00  0.00    -0.508 OA
ATOM     25  H   UNL     1      22.781  10.149  25.935  1.00  0.00     0.293 HD
ENDBRANCH   8  24
TORSDOF 5
ENDMDL
MODEL 2
REMARK VINA RESULT:    -6.778      0.974      1.147
REMARK INTER + INTRA:          -8.257
REMARK INTER:                  -7.965
REMARK INTRA:                  -0.292
REMARK UNBOUND:                -0.290
REMARK SMILES O=c1c(O)c(-c2ccc(O)cc2)oc2cc(O)cc(O)c12
REMARK SMILES IDX 5 1 3 2 2 3 1 4 21 5 19 6 18 7 16 8 15 9 14 10 13 11 6 12
REMARK SMILES IDX 7 13 8 14 9 15 12 16 11 17 10 18 4 20 20 22 17 24
REMARK H PARENT 10 19 4 21 20 23 17 25
REMARK Flexibility Score: inf
ROOT
ATOM      1  C   UNL     1      21.368   5.353  31.753  1.00  0.00     0.180 A 
ATOM      2  C   UNL     1      20.042   5.788  31.924  1.00  0.00     0.208 A 
ATOM      3  C   UNL     1      19.521   6.751  31.044  1.00  0.00     0.238 A 
ATOM      4  O   UNL     1      18.317   7.096  31.168  1.00  0.00    -0.285 OA
ATOM      5  C   UNL     1      20.337   7.277  30.013  1.00  0.00     0.111 A 
ATOM      6  C   UNL     1      19.927   8.285  29.090  1.00  0.00     0.134 A 
ATOM      7  C   UNL     1      20.773   8.637  28.031  1.00  0.00     0.093 A 
ATOM      8  C   UNL     1      22.040   8.064  27.901  1.00  0.00     0.123 A 
ATOM      9  C   UNL     1      22.473   7.123  28.832  1.00  0.00     0.094 A 
ATOM     10  C   UNL     1      21.638   6.725  29.878  1.00  0.00     0.146 A 
ATOM     11  O   UNL     1      22.086   5.818  30.737  1.00  0.00    -0.452 OA
ENDROOT
BRANCH   1  12
ATOM     12  C   UNL     1      21.994   4.361  32.656  1.00  0.00     0.021 A 
ATOM     13  C   UNL     1      22.737   4.762  33.781  1.00  0.00     0.016 A 
ATOM     14  C   UNL     1      23.340   3.807  34.607  1.00  0.00     0.047 A 
ATOM     15  C   UNL     1      23.219   2.443  34.309  1.00  0.00     0.115 A 
ATOM     16  C   UNL     1      21.896   2.992  32.355  1.00  0.00     0.016 A 
ATOM     17  C   UNL     1      22.498   2.040  33.182  1.00  0.00     0.047 A 
BRANCH  15  18
ATOM     18  O   UNL     1      23.814   1.483  35.125  1.00  0.00    -0.508 OA
ATOM     19  H   UNL     1      23.285   0.702  35.497  1.00  0.00     0.293 HD
ENDBRANCH  15  18
ENDBRANCH   1  12
BRANCH   2  20
ATOM     20  O   UNL     1      19.246   5.239  32.934  1.00  0.00    -0.502 OA
ATOM     21  H   UNL     1      18.931   4.276  32.916  1.00  0.00     0.293 HD
ENDBRANCH   2  20
BRANCH   6  22
ATOM     22  O   UNL     1      18.720   8.984  29.183  1.00  0.00    -0.507 OA
ATOM     23  H   UNL     1      17.807   8.573  29.061  1.00  0.00     0.293 HD
ENDBRANCH   6  22
BRANCH   8  24
ATOM     24  O   UNL     1      22.882   8.431  26.853  1.00  0.00    -0.508 OA
ATOM     25  H   UNL     1      22.713   8.121  25.903  1.00  0.00     0.293 HD
ENDBRANCH   8  24
TORSDOF 5
ENDMDL
MODEL 3
REMARK VINA RESULT:    -6.623     10.778     12.820
REMARK INTER + INTRA:          -8.074
REMARK INTER:                  -7.850
REMARK INTRA:                  -0.224
REMARK UNBOUND:                -0.290
REMARK SMILES O=c1c(O)c(-c2ccc(O)cc2)oc2cc(O)cc(O)c12
REMARK SMILES IDX 5 1 3 2 2 3 1 4 21 5 19 6 18 7 16 8 15 9 14 10 13 11 6 12
REMARK SMILES IDX 7 13 8 14 9 15 12 16 11 17 10 18 4 20 20 22 17 24
REMARK H PARENT 10 19 4 21 20 23 17 25
REMARK Flexibility Score: inf
ROOT
ATOM      1  C   UNL     1      27.132   1.410  23.139  1.00  0.00     0.180 A 
ATOM      2  C   UNL     1      26.547   1.073  21.906  1.00  0.00     0.208 A 
ATOM      3  C   UNL     1      27.034  -0.042  21.204  1.00  0.00     0.238 A 
ATOM      4  O   UNL     1      26.471  -0.371  20.127  1.00  0.00    -0.285 OA
ATOM      5  C   UNL     1      28.107  -0.796  21.737  1.00  0.00     0.111 A 
ATOM      6  C   UNL     1      28.705  -1.921  21.093  1.00  0.00     0.134 A 
ATOM      7  C   UNL     1      29.674  -2.671  21.772  1.00  0.00     0.093 A 
ATOM      8  C   UNL     1      30.112  -2.297  23.045  1.00  0.00     0.123 A 
ATOM      9  C   UNL     1      29.577  -1.167  23.657  1.00  0.00     0.094 A 
ATOM     10  C   UNL     1      28.583  -0.419  23.020  1.00  0.00     0.146 A 
ATOM     11  O   UNL     1      28.092   0.644  23.643  1.00  0.00    -0.452 OA
ENDROOT
BRANCH   1  12
ATOM     12  C   UNL     1      26.691   2.587  23.924  1.00  0.00     0.021 A 
ATOM     13  C   UNL     1      25.477   2.580  24.634  1.00  0.00     0.016 A 
ATOM     14  C   UNL     1      25.070   3.712  25.349  1.00  0.00     0.047 A 
ATOM     15  C   UNL     1      25.864   4.866  25.351  1.00  0.00     0.115 A 
ATOM     16  C   UNL     1      27.471   3.755  23.915  1.00  0.00     0.016 A 
ATOM     17  C   UNL     1      27.062   4.884  24.631  1.00  0.00     0.047 A 
BRANCH  15  18
ATOM     18  O   UNL     1      25.470   5.998  26.060  1.00  0.00    -0.508 OA
ATOM     19  H   UNL     1      25.261   6.872  25.590  1.00  0.00     0.293 HD
ENDBRANCH  15  18
ENDBRANCH   1  12
BRANCH   2  20
ATOM     20  O   UNL     1      25.474   1.818  21.409  1.00  0.00    -0.502 OA
ATOM     21  H   UNL     1      25.318   1.952  20.417  1.00  0.00     0.293 HD
ENDBRANCH   2  20
BRANCH   6  22
ATOM     22  O   UNL     1      28.406  -2.323  19.788  1.00  0.00    -0.507 OA
ATOM     23  H   UNL     1      28.615  -3.233  19.405  1.00  0.00     0.293 HD
ENDBRANCH   6  22
BRANCH   8  24
ATOM     24  O   UNL     1      31.087  -3.040  23.706  1.00  0.00    -0.508 OA
ATOM     25  H   UNL     1      31.620  -2.650  24.475  1.00  0.00     0.293 HD
ENDBRANCH   8  24
TORSDOF 5
ENDMDL
MODEL 4
REMARK VINA RESULT:    -6.129      9.491     11.337
REMARK INTER + INTRA:          -7.494
REMARK INTER:                  -7.197
REMARK INTRA:                  -0.297
REMARK UNBOUND:                -0.290
REMARK SMILES O=c1c(O)c(-c2ccc(O)cc2)oc2cc(O)cc(O)c12
REMARK SMILES IDX 5 1 3 2 2 3 1 4 21 5 19 6 18 7 16 8 15 9 14 10 13 11 6 12
REMARK SMILES IDX 7 13 8 14 9 15 12 16 11 17 10 18 4 20 20 22 17 24
REMARK H PARENT 10 19 4 21 20 23 17 25
REMARK Flexibility Score: inf
ROOT
ATOM      1  C   UNL     1      27.425   1.584  23.390  1.00  0.00     0.180 A 
ATOM      2  C   UNL     1      27.959   2.878  23.265  1.00  0.00     0.208 A 
ATOM      3  C   UNL     1      27.340   3.939  23.946  1.00  0.00     0.238 A 
ATOM      4  O   UNL     1      27.854   5.086  23.874  1.00  0.00    -0.285 OA
ATOM      5  C   UNL     1      26.188   3.695  24.732  1.00  0.00     0.111 A 
ATOM      6  C   UNL     1      25.457   4.701  25.433  1.00  0.00     0.134 A 
ATOM      7  C   UNL     1      24.410   4.326  26.284  1.00  0.00     0.093 A 
ATOM      8  C   UNL     1      24.026   2.989  26.408  1.00  0.00     0.123 A 
ATOM      9  C   UNL     1      24.694   2.007  25.682  1.00  0.00     0.094 A 
ATOM     10  C   UNL     1      25.767   2.345  24.852  1.00  0.00     0.146 A 
ATOM     11  O   UNL     1      26.383   1.377  24.186  1.00  0.00    -0.452 OA
ENDROOT
BRANCH   1  12
ATOM     12  C   UNL     1      28.006   0.420  22.681  1.00  0.00     0.021 A 
ATOM     13  C   UNL     1      27.625   0.098  21.366  1.00  0.00     0.016 A 
ATOM     14  C   UNL     1      28.170  -1.020  20.726  1.00  0.00     0.047 A 
ATOM     15  C   UNL     1      29.090  -1.836  21.397  1.00  0.00     0.115 A 
ATOM     16  C   UNL     1      28.914  -0.416  23.353  1.00  0.00     0.016 A 
ATOM     17  C   UNL     1      29.457  -1.532  22.711  1.00  0.00     0.047 A 
BRANCH  15  18
ATOM     18  O   UNL     1      29.640  -2.951  20.769  1.00  0.00    -0.508 OA
ATOM     19  H   UNL     1      30.527  -3.342  21.065  1.00  0.00     0.293 HD
ENDBRANCH  15  18
ENDBRANCH   1  12
BRANCH   2  20
ATOM     20  O   UNL     1      29.110   3.094  22.502  1.00  0.00    -0.502 OA
ATOM     21  H   UNL     1      29.909   3.606  22.855  1.00  0.00     0.293 HD
ENDBRANCH   2  20
BRANCH   6  22
ATOM     22  O   UNL     1      25.700   6.072  25.308  1.00  0.00    -0.507 OA
ATOM     23  H   UNL     1      25.643   6.589  24.444  1.00  0.00     0.293 HD
ENDBRANCH   6  22
BRANCH   8  24
ATOM     24  O   UNL     1      22.973   2.627  27.245  1.00  0.00    -0.508 OA
ATOM     25  H   UNL     1      22.784   3.126  28.107  1.00  0.00     0.293 HD
ENDBRANCH   8  24
TORSDOF 5
ENDMDL
MODEL 5
REMARK VINA RESULT:    -6.076      8.830     10.871
REMARK INTER + INTRA:          -7.431
REMARK INTER:                  -7.150
REMARK INTRA:                  -0.281
REMARK UNBOUND:                -0.290
REMARK SMILES O=c1c(O)c(-c2ccc(O)cc2)oc2cc(O)cc(O)c12
REMARK SMILES IDX 5 1 3 2 2 3 1 4 21 5 19 6 18 7 16 8 15 9 14 10 13 11 6 12
REMARK SMILES IDX 7 13 8 14 9 15 12 16 11 17 10 18 4 20 20 22 17 24
REMARK H PARENT 10 19 4 21 20 23 17 25
REMARK Flexibility Score: inf
ROOT
ATOM      1  C   UNL     1      27.496   3.143  23.680  1.00  0.00     0.180 A 
ATOM      2  C   UNL     1      26.292   3.495  24.313  1.00  0.00     0.208 A 
ATOM      3  C   UNL     1      26.285   4.574  25.213  1.00  0.00     0.238 A 
ATOM      4  O   UNL     1      25.194   4.919  25.736  1.00  0.00    -0.285 OA
ATOM      5  C   UNL     1      27.486   5.276  25.479  1.00  0.00     0.111 A 
ATOM      6  C   UNL     1      27.604   6.359  26.402  1.00  0.00     0.134 A 
ATOM      7  C   UNL     1      28.811   7.063  26.488  1.00  0.00     0.093 A 
ATOM      8  C   UNL     1      29.923   6.683  25.733  1.00  0.00     0.123 A 
ATOM      9  C   UNL     1      29.835   5.590  24.874  1.00  0.00     0.094 A 
ATOM     10  C   UNL     1      28.634   4.890  24.739  1.00  0.00     0.146 A 
ATOM     11  O   UNL     1      28.590   3.862  23.901  1.00  0.00    -0.452 OA
ENDROOT
BRANCH   1  12
ATOM     12  C   UNL     1      27.587   2.001  22.740  1.00  0.00     0.021 A 
ATOM     13  C   UNL     1      27.709   0.679  23.203  1.00  0.00     0.016 A 
ATOM     14  C   UNL     1      27.818  -0.380  22.295  1.00  0.00     0.047 A 
ATOM     15  C   UNL     1      27.819  -0.128  20.917  1.00  0.00     0.115 A 
ATOM     16  C   UNL     1      27.610   2.246  21.357  1.00  0.00     0.016 A 
ATOM     17  C   UNL     1      27.717   1.186  20.452  1.00  0.00     0.047 A 
BRANCH  15  18
ATOM     18  O   UNL     1      27.925  -1.175  20.004  1.00  0.00    -0.508 OA
ATOM     19  H   UNL     1      27.182  -1.383  19.348  1.00  0.00     0.293 HD
ENDBRANCH  15  18
ENDBRANCH   1  12
BRANCH   2  20
ATOM     20  O   UNL     1      25.113   2.803  24.020  1.00  0.00    -0.502 OA
ATOM     21  H   UNL     1      24.242   3.276  23.814  1.00  0.00     0.293 HD
ENDBRANCH   2  20
BRANCH   6  22
ATOM     22  O   UNL     1      26.583   6.760  27.268  1.00  0.00    -0.507 OA
ATOM     23  H   UNL     1      25.598   6.641  27.089  1.00  0.00     0.293 HD
ENDBRANCH   6  22
BRANCH   8  24
ATOM     24  O   UNL     1      31.125   7.380  25.837  1.00  0.00    -0.508 OA
ATOM     25  H   UNL     1      31.167   8.307  26.245  1.00  0.00     0.293 HD
ENDBRANCH   8  24
TORSDOF 5
ENDMDL
MODEL 6
REMARK VINA RESULT:    -6.035      2.172      7.140
REMARK INTER + INTRA:          -7.383
REMARK INTER:                  -7.225
REMARK INTRA:                  -0.158
REMARK UNBOUND:                -0.290
REMARK SMILES O=c1c(O)c(-c2ccc(O)cc2)oc2cc(O)cc(O)c12
REMARK SMILES IDX 5 1 3 2 2 3 1 4 21 5 19 6 18 7 16 8 15 9 14 10 13 11 6 12
REMARK SMILES IDX 7 13 8 14 9 15 12 16 11 17 10 18 4 20 20 22 17 24
REMARK H PARENT 10 19 4 21 20 23 17 25
REMARK Flexibility Score: inf
ROOT
ATOM      1  C   UNL     1      22.240   8.077  29.793  1.00  0.00     0.180 A 
ATOM      2  C   UNL     1      23.603   8.409  29.699  1.00  0.00     0.208 A 
ATOM      3  C   UNL     1      24.503   7.860  30.627  1.00  0.00     0.238 A 
ATOM      4  O   UNL     1      25.729   8.117  30.506  1.00  0.00    -0.285 OA
ATOM      5  C   UNL     1      24.026   6.998  31.644  1.00  0.00     0.111 A 
ATOM      6  C   UNL     1      24.842   6.416  32.661  1.00  0.00     0.134 A 
ATOM      7  C   UNL     1      24.287   5.476  33.538  1.00  0.00     0.093 A 
ATOM      8  C   UNL     1      22.931   5.145  33.475  1.00  0.00     0.123 A 
ATOM      9  C   UNL     1      22.114   5.753  32.525  1.00  0.00     0.094 A 
ATOM     10  C   UNL     1      22.646   6.668  31.613  1.00  0.00     0.146 A 
ATOM     11  O   UNL     1      21.835   7.215  30.717  1.00  0.00    -0.452 OA
ENDROOT
BRANCH   1  12
ATOM     12  C   UNL     1      21.228   8.638  28.867  1.00  0.00     0.021 A 
ATOM     13  C   UNL     1      20.230   9.519  29.320  1.00  0.00     0.016 A 
ATOM     14  C   UNL     1      19.271  10.016  28.432  1.00  0.00     0.047 A 
ATOM     15  C   UNL     1      19.289   9.627  27.085  1.00  0.00     0.115 A 
ATOM     16  C   UNL     1      21.227   8.238  27.520  1.00  0.00     0.016 A 
ATOM     17  C   UNL     1      20.268   8.736  26.635  1.00  0.00     0.047 A 
BRANCH  15  18
ATOM     18  O   UNL     1      18.340  10.117  26.192  1.00  0.00    -0.508 OA
ATOM     19  H   UNL     1      17.571   9.542  25.868  1.00  0.00     0.293 HD
ENDBRANCH  15  18
ENDBRANCH   1  12
BRANCH   2  20
ATOM     20  O   UNL     1      24.056   9.244  28.674  1.00  0.00    -0.502 OA
ATOM     21  H   UNL     1      23.564  10.087  28.401  1.00  0.00     0.293 HD
ENDBRANCH   2  20
BRANCH   6  22
ATOM     22  O   UNL     1      26.185   6.745  32.868  1.00  0.00    -0.507 OA
ATOM     23  H   UNL     1      26.880   6.809  32.140  1.00  0.00     0.293 HD
ENDBRANCH   6  22
BRANCH   8  24
ATOM     24  O   UNL     1      22.383   4.220  34.362  1.00  0.00    -0.508 OA
ATOM     25  H   UNL     1      22.297   4.420  35.351  1.00  0.00     0.293 HD
ENDBRANCH   8  24
TORSDOF 5
ENDMDL
MODEL 7
REMARK VINA RESULT:    -6.017      1.691      6.923
REMARK INTER + INTRA:          -7.362
REMARK INTER:                  -7.107
REMARK INTRA:                  -0.255
REMARK UNBOUND:                -0.290
REMARK SMILES O=c1c(O)c(-c2ccc(O)cc2)oc2cc(O)cc(O)c12
REMARK SMILES IDX 5 1 3 2 2 3 1 4 21 5 19 6 18 7 16 8 15 9 14 10 13 11 6 12
REMARK SMILES IDX 7 13 8 14 9 15 12 16 11 17 10 18 4 20 20 22 17 24
REMARK H PARENT 10 19 4 21 20 23 17 25
REMARK Flexibility Score: inf
ROOT
ATOM      1  C   UNL     1      21.778   7.241  30.712  1.00  0.00     0.180 A 
ATOM      2  C   UNL     1      22.595   8.014  31.556  1.00  0.00     0.208 A 
ATOM      3  C   UNL     1      23.188   7.406  32.674  1.00  0.00     0.238 A 
ATOM      4  O   UNL     1      23.962   8.089  33.395  1.00  0.00    -0.285 OA
ATOM      5  C   UNL     1      22.946   6.036  32.942  1.00  0.00     0.111 A 
ATOM      6  C   UNL     1      23.464   5.327  34.068  1.00  0.00     0.134 A 
ATOM      7  C   UNL     1      23.266   3.945  34.163  1.00  0.00     0.093 A 
ATOM      8  C   UNL     1      22.514   3.257  33.207  1.00  0.00     0.123 A 
ATOM      9  C   UNL     1      21.955   3.950  32.137  1.00  0.00     0.094 A 
ATOM     10  C   UNL     1      22.165   5.324  31.995  1.00  0.00     0.146 A 
ATOM     11  O   UNL     1      21.623   5.944  30.954  1.00  0.00    -0.452 OA
ENDROOT
BRANCH   1  12
ATOM     12  C   UNL     1      21.097   7.818  29.530  1.00  0.00     0.021 A 
ATOM     13  C   UNL     1      21.786   8.040  28.324  1.00  0.00     0.016 A 
ATOM     14  C   UNL     1      21.127   8.608  27.229  1.00  0.00     0.047 A 
ATOM     15  C   UNL     1      19.778   8.974  27.331  1.00  0.00     0.115 A 
ATOM     16  C   UNL     1      19.750   8.206  29.629  1.00  0.00     0.016 A 
ATOM     17  C   UNL     1      19.094   8.773  28.533  1.00  0.00     0.047 A 
BRANCH  15  18
ATOM     18  O   UNL     1      19.112   9.539  26.246  1.00  0.00    -0.508 OA
ATOM     19  H   UNL     1      18.884   8.995  25.422  1.00  0.00     0.293 HD
ENDBRANCH  15  18
ENDBRANCH   1  12
BRANCH   2  20
ATOM     20  O   UNL     1      22.839   9.358  31.260  1.00  0.00    -0.502 OA
ATOM     21  H   UNL     1      23.660   9.663  30.753  1.00  0.00     0.293 HD
ENDBRANCH   2  20
BRANCH   6  22
ATOM     22  O   UNL     1      24.149   5.934  35.124  1.00  0.00    -0.507 OA
ATOM     23  H   UNL     1      23.707   6.370  35.920  1.00  0.00     0.293 HD
ENDBRANCH   6  22
BRANCH   8  24
ATOM     24  O   UNL     1      22.310   1.883  33.318  1.00  0.00    -0.508 OA
ATOM     25  H   UNL     1      21.465   1.504  33.731  1.00  0.00     0.293 HD
ENDBRANCH   8  24
TORSDOF 5
ENDMDL
MODEL 8
REMARK VINA RESULT:    -5.891      1.369      2.973
REMARK INTER + INTRA:          -7.214
REMARK INTER:                  -6.991
REMARK INTRA:                  -0.224
REMARK UNBOUND:                -0.290
REMARK SMILES O=c1c(O)c(-c2ccc(O)cc2)oc2cc(O)cc(O)c12
REMARK SMILES IDX 5 1 3 2 2 3 1 4 21 5 19 6 18 7 16 8 15 9 14 10 13 11 6 12
REMARK SMILES IDX 7 13 8 14 9 15 12 16 11 17 10 18 4 20 20 22 17 24
REMARK H PARENT 10 19 4 21 20 23 17 25
REMARK Flexibility Score: inf
ROOT
ATOM      1  C   UNL     1      22.312   6.763  30.982  1.00  0.00     0.180 A 
ATOM      2  C   UNL     1      23.465   7.414  30.510  1.00  0.00     0.208 A 
ATOM      3  C   UNL     1      23.342   8.349  29.469  1.00  0.00     0.238 A 
ATOM      4  O   UNL     1      24.369   8.969  29.088  1.00  0.00    -0.285 OA
ATOM      5  C   UNL     1      22.070   8.610  28.904  1.00  0.00     0.111 A 
ATOM      6  C   UNL     1      21.834   9.507  27.819  1.00  0.00     0.134 A 
ATOM      7  C   UNL     1      20.519   9.785  27.427  1.00  0.00     0.093 A 
ATOM      8  C   UNL     1      19.436   9.148  28.037  1.00  0.00     0.123 A 
ATOM      9  C   UNL     1      19.659   8.226  29.056  1.00  0.00     0.094 A 
ATOM     10  C   UNL     1      20.958   7.955  29.494  1.00  0.00     0.146 A 
ATOM     11  O   UNL     1      21.126   7.078  30.475  1.00  0.00    -0.452 OA
ENDROOT
BRANCH   1  12
ATOM     12  C   UNL     1      22.366   5.746  32.058  1.00  0.00     0.021 A 
ATOM     13  C   UNL     1      22.568   6.111  33.401  1.00  0.00     0.016 A 
ATOM     14  C   UNL     1      22.639   5.132  34.396  1.00  0.00     0.047 A 
ATOM     15  C   UNL     1      22.524   3.776  34.060  1.00  0.00     0.115 A 
ATOM     16  C   UNL     1      22.272   4.384  31.727  1.00  0.00     0.016 A 
ATOM     17  C   UNL     1      22.343   3.407  32.724  1.00  0.00     0.047 A 
BRANCH  15  18
ATOM     18  O   UNL     1      22.592   2.792  35.043  1.00  0.00    -0.508 OA
ATOM     19  H   UNL     1      22.830   1.833  34.817  1.00  0.00     0.293 HD
ENDBRANCH  15  18
ENDBRANCH   1  12
BRANCH   2  20
ATOM     20  O   UNL     1      24.708   7.159  31.098  1.00  0.00    -0.502 OA
ATOM     21  H   UNL     1      24.951   6.256  31.485  1.00  0.00     0.293 HD
ENDBRANCH   2  20
BRANCH   6  22
ATOM     22  O   UNL     1      22.849  10.125  27.083  1.00  0.00    -0.507 OA
ATOM     23  H   UNL     1      22.799  11.060  26.708  1.00  0.00     0.293 HD
ENDBRANCH   6  22
BRANCH   8  24
ATOM     24  O   UNL     1      18.131   9.419  27.630  1.00  0.00    -0.508 OA
ATOM     25  H   UNL     1      17.922   9.718  26.684  1.00  0.00     0.293 HD
ENDBRANCH   8  24
TORSDOF 5
ENDMDL
MODEL 9
REMARK VINA RESULT:    -5.721     10.869     12.884
REMARK INTER + INTRA:          -7.015
REMARK INTER:                  -6.726
REMARK INTRA:                  -0.288
REMARK UNBOUND:                -0.290
REMARK SMILES O=c1c(O)c(-c2ccc(O)cc2)oc2cc(O)cc(O)c12
REMARK SMILES IDX 5 1 3 2 2 3 1 4 21 5 19 6 18 7 16 8 15 9 14 10 13 11 6 12
REMARK SMILES IDX 7 13 8 14 9 15 12 16 11 17 10 18 4 20 20 22 17 24
REMARK H PARENT 10 19 4 21 20 23 17 25
REMARK Flexibility Score: inf
ROOT
ATOM      1  C   UNL     1      28.212   0.996  22.075  1.00  0.00     0.180 A 
ATOM      2  C   UNL     1      29.164   2.028  22.023  1.00  0.00     0.208 A 
ATOM      3  C   UNL     1      28.935   3.203  22.759  1.00  0.00     0.238 A 
ATOM      4  O   UNL     1      29.817   4.102  22.752  1.00  0.00    -0.285 OA
ATOM      5  C   UNL     1      27.751   3.335  23.524  1.00  0.00     0.111 A 
ATOM      6  C   UNL     1      27.398   4.497  24.276  1.00  0.00     0.134 A 
ATOM      7  C   UNL     1      26.266   4.468  25.099  1.00  0.00     0.093 A 
ATOM      8  C   UNL     1      25.439   3.343  25.148  1.00  0.00     0.123 A 
ATOM      9  C   UNL     1      25.743   2.227  24.372  1.00  0.00     0.094 A 
ATOM     10  C   UNL     1      26.885   2.212  23.568  1.00  0.00     0.146 A 
ATOM     11  O   UNL     1      27.144   1.124  22.853  1.00  0.00    -0.452 OA
ENDROOT
BRANCH   1  12
ATOM     12  C   UNL     1      28.370  -0.261  21.306  1.00  0.00     0.021 A 
ATOM     13  C   UNL     1      29.079  -1.356  21.832  1.00  0.00     0.016 A 
ATOM     14  C   UNL     1      29.235  -2.524  21.077  1.00  0.00     0.047 A 
ATOM     15  C   UNL     1      28.699  -2.604  19.786  1.00  0.00     0.115 A 
ATOM     16  C   UNL     1      27.853  -0.343  20.003  1.00  0.00     0.016 A 
ATOM     17  C   UNL     1      28.010  -1.512  19.251  1.00  0.00     0.047 A 
BRANCH  15  18
ATOM     18  O   UNL     1      28.847  -3.763  19.026  1.00  0.00    -0.508 OA
ATOM     19  H   UNL     1      29.735  -4.009  18.604  1.00  0.00     0.293 HD
ENDBRANCH  15  18
ENDBRANCH   1  12
BRANCH   2  20
ATOM     20  O   UNL     1      30.336   1.868  21.280  1.00  0.00    -0.502 OA
ATOM     21  H   UNL     1      30.329   1.595  20.305  1.00  0.00     0.293 HD
ENDBRANCH   2  20
BRANCH   6  22
ATOM     22  O   UNL     1      28.104   5.702  24.227  1.00  0.00    -0.507 OA
ATOM     23  H   UNL     1      29.103   5.788  24.342  1.00  0.00     0.293 HD
ENDBRANCH   6  22
BRANCH   8  24
ATOM     24  O   UNL     1      24.306   3.328  25.958  1.00  0.00    -0.508 OA
ATOM     25  H   UNL     1      24.375   3.228  26.964  1.00  0.00     0.293 HD
ENDBRANCH   8  24
TORSDOF 5
ENDMDL
