MODEL 1
REMARK VINA RESULT:    -4.796      0.000      0.000
REMARK INTER + INTRA:          -5.674
REMARK INTER:                  -5.637
REMARK INTRA:                  -0.037
REMARK UNBOUND:                -0.037
REMARK SMILES O=C([O-])CCC(=O)[O-]
REMARK SMILES IDX 4 1 2 2 1 3 3 4 5 5 6 6 7 7 8 8
REMARK H PARENT
REMARK Flexibility Score: inf
ROOT
ATOM      1  C   UNL     1      -0.686   2.631  -2.637  1.00  0.00     0.059 C 
ENDROOT
BRANCH   1   2
ATOM      2  C   UNL     1       0.583   3.090  -3.289  1.00  0.00     0.042 C 
ATOM      3  O   UNL     1       1.041   4.238  -3.047  1.00  0.00    -0.550 OA
ATOM      4  O   UNL     1       1.237   2.265  -4.196  1.00  0.00    -0.550 OA
ENDBRANCH   1   2
BRANCH   1   5
ATOM      5  C   UNL     1      -1.123   3.584  -1.518  1.00  0.00     0.059 C 
BRANCH   5   6
ATOM      6  C   UNL     1      -2.150   2.956  -0.628  1.00  0.00     0.042 C 
ATOM      7  O   UNL     1      -1.915   1.850  -0.072  1.00  0.00    -0.550 OA
ATOM      8  O   UNL     1      -3.383   3.569  -0.445  1.00  0.00    -0.550 OA
ENDBRANCH   5   6
ENDBRANCH   1   5
TORSDOF 3
ENDMDL
MODEL 2
REMARK VINA RESULT:    -4.789      0.043      4.395
REMARK INTER + INTRA:          -5.667
REMARK INTER:                  -5.630
REMARK INTRA:                  -0.037
REMARK UNBOUND:                -0.037
REMARK SMILES O=C([O-])CCC(=O)[O-]
REMARK SMILES IDX 4 1 2 2 1 3 3 4 5 5 6 6 7 7 8 8
REMARK H PARENT
REMARK Flexibility Score: inf
ROOT
ATOM      1  C   UNL     1      -1.122   3.600  -1.523  1.00  0.00     0.059 C 
ENDROOT
BRANCH   1   2
ATOM      2  C   UNL     1      -2.134   2.972  -0.614  1.00  0.00     0.042 C 
ATOM      3  O   UNL     1      -1.864   1.902  -0.008  1.00  0.00    -0.550 OA
ATOM      4  O   UNL     1      -3.391   3.546  -0.470  1.00  0.00    -0.550 OA
ENDBRANCH   1   2
BRANCH   1   5
ATOM      5  C   UNL     1      -0.664   2.627  -2.616  1.00  0.00     0.059 C 
BRANCH   5   6
ATOM      6  C   UNL     1       0.586   3.102  -3.290  1.00  0.00     0.042 C 
ATOM      7  O   UNL     1       1.024   4.263  -3.069  1.00  0.00    -0.550 OA
ATOM      8  O   UNL     1       1.247   2.280  -4.194  1.00  0.00    -0.550 OA
ENDBRANCH   5   6
ENDBRANCH   1   5
TORSDOF 3
ENDMDL
MODEL 3
REMARK VINA RESULT:    -4.755      0.082      1.147
REMARK INTER + INTRA:          -5.626
REMARK INTER:                  -5.591
REMARK INTRA:                  -0.035
REMARK UNBOUND:                -0.037
REMARK SMILES O=C([O-])CCC(=O)[O-]
REMARK SMILES IDX 4 1 2 2 1 3 3 4 5 5 6 6 7 7 8 8
REMARK H PARENT
REMARK Flexibility Score: inf
ROOT
ATOM      1  C   UNL     1      -0.747   2.595  -2.651  1.00  0.00     0.059 C 
ENDROOT
BRANCH   1   2
ATOM      2  C   UNL     1       0.535   3.033  -3.293  1.00  0.00     0.042 C 
ATOM      3  O   UNL     1       1.145   2.262  -4.080  1.00  0.00    -0.550 OA
ATOM      4  O   UNL     1       1.077   4.275  -2.989  1.00  0.00    -0.550 OA
ENDBRANCH   1   2
BRANCH   1   5
ATOM      5  C   UNL     1      -1.167   3.545  -1.524  1.00  0.00     0.059 C 
BRANCH   5   6
ATOM      6  C   UNL     1      -2.199   2.924  -0.634  1.00  0.00     0.042 C 
ATOM      7  O   UNL     1      -1.963   1.828  -0.059  1.00  0.00    -0.550 OA
ATOM      8  O   UNL     1      -3.437   3.533  -0.472  1.00  0.00    -0.550 OA
ENDBRANCH   5   6
ENDBRANCH   1   5
TORSDOF 3
ENDMDL
MODEL 4
REMARK VINA RESULT:    -4.648      0.905      1.124
REMARK INTER + INTRA:          -5.501
REMARK INTER:                  -5.382
REMARK INTRA:                  -0.119
REMARK UNBOUND:                -0.037
REMARK SMILES O=C([O-])CCC(=O)[O-]
REMARK SMILES IDX 4 1 2 2 1 3 3 4 5 5 6 6 7 7 8 8
REMARK H PARENT
REMARK Flexibility Score: inf
ROOT
ATOM      1  C   UNL     1      -0.845   2.600  -2.660  1.00  0.00     0.059 C 
ENDROOT
BRANCH   1   2
ATOM      2  C   UNL     1       0.480   3.121  -3.127  1.00  0.00     0.042 C 
ATOM      3  O   UNL     1       0.891   4.245  -2.739  1.00  0.00    -0.550 OA
ATOM      4  O   UNL     1       1.242   2.381  -4.023  1.00  0.00    -0.550 OA
ENDBRANCH   1   2
BRANCH   1   5
ATOM      5  C   UNL     1      -0.982   2.688  -1.136  1.00  0.00     0.059 C 
BRANCH   5   6
ATOM      6  C   UNL     1      -2.052   3.654  -0.732  1.00  0.00     0.042 C 
ATOM      7  O   UNL     1      -3.198   3.237  -0.418  1.00  0.00    -0.550 OA
ATOM      8  O   UNL     1      -1.797   5.021  -0.741  1.00  0.00    -0.550 OA
ENDBRANCH   5   6
ENDBRANCH   1   5
TORSDOF 3
ENDMDL
MODEL 5
REMARK VINA RESULT:    -4.307      1.476      4.069
REMARK INTER + INTRA:          -5.100
REMARK INTER:                  -5.021
REMARK INTRA:                  -0.079
REMARK UNBOUND:                -0.037
REMARK SMILES O=C([O-])CCC(=O)[O-]
REMARK SMILES IDX 4 1 2 2 1 3 3 4 5 5 6 6 7 7 8 8
REMARK H PARENT
REMARK Flexibility Score: inf
ROOT
ATOM      1  C   UNL     1      -1.109   3.273  -1.236  1.00  0.00     0.059 C 
ENDROOT
BRANCH   1   2
ATOM      2  C   UNL     1      -1.313   1.904  -0.662  1.00  0.00     0.042 C 
ATOM      3  O   UNL     1      -2.175   1.132  -1.156  1.00  0.00    -0.550 OA
ATOM      4  O   UNL     1      -0.578   1.498   0.445  1.00  0.00    -0.550 OA
ENDBRANCH   1   2
BRANCH   1   5
ATOM      5  C   UNL     1       0.342   3.488  -1.684  1.00  0.00     0.059 C 
BRANCH   5   6
ATOM      6  C   UNL     1       0.474   3.430  -3.174  1.00  0.00     0.042 C 
ATOM      7  O   UNL     1      -0.332   2.744  -3.856  1.00  0.00    -0.550 OA
ATOM      8  O   UNL     1       1.514   4.100  -3.808  1.00  0.00    -0.550 OA
ENDBRANCH   5   6
ENDBRANCH   1   5
TORSDOF 3
ENDMDL
MODEL 6
REMARK VINA RESULT:    -3.927     11.399     12.684
REMARK INTER + INTRA:          -4.653
REMARK INTER:                  -4.569
REMARK INTRA:                  -0.084
REMARK UNBOUND:                -0.037
REMARK SMILES O=C([O-])CCC(=O)[O-]
REMARK SMILES IDX 4 1 2 2 1 3 3 4 5 5 6 6 7 7 8 8
REMARK H PARENT
REMARK Flexibility Score: inf
ROOT
ATOM      1  C   UNL     1      -2.088  -8.443   0.179  1.00  0.00     0.059 C 
ENDROOT
BRANCH   1   2
ATOM      2  C   UNL     1      -1.988  -9.590   1.138  1.00  0.00     0.042 C 
ATOM      3  O   UNL     1      -3.027 -10.069   1.663  1.00  0.00    -0.550 OA
ATOM      4  O   UNL     1      -0.743 -10.103   1.482  1.00  0.00    -0.550 OA
ENDBRANCH   1   2
BRANCH   1   5
ATOM      5  C   UNL     1      -1.392  -8.755  -1.150  1.00  0.00     0.059 C 
BRANCH   5   6
ATOM      6  C   UNL     1      -0.054  -8.089  -1.242  1.00  0.00     0.042 C 
ATOM      7  O   UNL     1       0.036  -6.834  -1.171  1.00  0.00    -0.550 OA
ATOM      8  O   UNL     1       1.091  -8.850  -1.449  1.00  0.00    -0.550 OA
ENDBRANCH   5   6
ENDBRANCH   1   5
TORSDOF 3
ENDMDL
MODEL 7
REMARK VINA RESULT:    -3.637     11.638     12.282
REMARK INTER + INTRA:          -4.312
REMARK INTER:                  -4.227
REMARK INTRA:                  -0.085
REMARK UNBOUND:                -0.037
REMARK SMILES O=C([O-])CCC(=O)[O-]
REMARK SMILES IDX 4 1 2 2 1 3 3 4 5 5 6 6 7 7 8 8
REMARK H PARENT
REMARK Flexibility Score: inf
ROOT
ATOM      1  C   UNL     1       0.655  -9.357   0.016  1.00  0.00     0.059 C 
ENDROOT
BRANCH   1   2
ATOM      2  C   UNL     1       0.951  -8.623  -1.256  1.00  0.00     0.042 C 
ATOM      3  O   UNL     1       0.384  -7.526  -1.501  1.00  0.00    -0.550 OA
ATOM      4  O   UNL     1       1.822  -9.172  -2.189  1.00  0.00    -0.550 OA
ENDBRANCH   1   2
BRANCH   1   5
ATOM      5  C   UNL     1      -0.669 -10.125  -0.068  1.00  0.00     0.059 C 
BRANCH   5   6
ATOM      6  C   UNL     1      -1.771  -9.405   0.645  1.00  0.00     0.042 C 
ATOM      7  O   UNL     1      -2.255  -8.347   0.161  1.00  0.00    -0.550 OA
ATOM      8  O   UNL     1      -2.238  -9.878   1.865  1.00  0.00    -0.550 OA
ENDBRANCH   5   6
ENDBRANCH   1   5
TORSDOF 3
ENDMDL
MODEL 8
REMARK VINA RESULT:    -3.599     12.847     13.281
REMARK INTER + INTRA:          -4.267
REMARK INTER:                  -4.171
REMARK INTRA:                  -0.096
REMARK UNBOUND:                -0.037
REMARK SMILES O=C([O-])CCC(=O)[O-]
REMARK SMILES IDX 4 1 2 2 1 3 3 4 5 5 6 6 7 7 8 8
REMARK H PARENT
REMARK Flexibility Score: inf
ROOT
ATOM      1  C   UNL     1       7.504   1.228   7.901  1.00  0.00     0.059 C 
ENDROOT
BRANCH   1   2
ATOM      2  C   UNL     1       7.964   2.124   6.792  1.00  0.00     0.042 C 
ATOM      3  O   UNL     1       9.012   1.851   6.151  1.00  0.00    -0.550 OA
ATOM      4  O   UNL     1       7.257   3.282   6.495  1.00  0.00    -0.550 OA
ENDBRANCH   1   2
BRANCH   1   5
ATOM      5  C   UNL     1       8.499   0.090   8.159  1.00  0.00     0.059 C 
BRANCH   5   6
ATOM      6  C   UNL     1       8.034  -1.198   7.552  1.00  0.00     0.042 C 
ATOM      7  O   UNL     1       7.026  -1.792   8.021  1.00  0.00    -0.550 OA
ATOM      8  O   UNL     1       8.737  -1.766   6.497  1.00  0.00    -0.550 OA
ENDBRANCH   5   6
ENDBRANCH   1   5
TORSDOF 3
ENDMDL
MODEL 9
REMARK VINA RESULT:    -3.596     12.834     13.338
REMARK INTER + INTRA:          -4.264
REMARK INTER:                  -4.170
REMARK INTRA:                  -0.095
REMARK UNBOUND:                -0.037
REMARK SMILES O=C([O-])CCC(=O)[O-]
REMARK SMILES IDX 4 1 2 2 1 3 3 4 5 5 6 6 7 7 8 8
REMARK H PARENT
REMARK Flexibility Score: inf
ROOT
ATOM      1  C   UNL     1       8.525   0.100   8.136  1.00  0.00     0.059 C 
ENDROOT
BRANCH   1   2
ATOM      2  C   UNL     1       8.053  -1.188   7.533  1.00  0.00     0.042 C 
ATOM      3  O   UNL     1       7.013  -1.748   7.970  1.00  0.00    -0.550 OA
ATOM      4  O   UNL     1       8.784  -1.791   6.518  1.00  0.00    -0.550 OA
ENDBRANCH   1   2
BRANCH   1   5
ATOM      5  C   UNL     1       7.526   1.237   7.895  1.00  0.00     0.059 C 
BRANCH   5   6
ATOM      6  C   UNL     1       7.954   2.118   6.762  1.00  0.00     0.042 C 
ATOM      7  O   UNL     1       9.012   1.864   6.127  1.00  0.00    -0.550 OA
ATOM      8  O   UNL     1       7.208   3.244   6.434  1.00  0.00    -0.550 OA
ENDBRANCH   5   6
ENDBRANCH   1   5
TORSDOF 3
ENDMDL
