MODEL 1
REMARK VINA RESULT:    18.115      0.000      0.000
REMARK INTER + INTRA:          26.083
REMARK INTER:                  24.469
REMARK INTRA:                   1.614
REMARK UNBOUND:                 1.614
REMARK SMILES O=c1c(-c2ccc(O)cc2)coc2c([C@H]3O[C@H](CO)[C@H](O)[C@@H](O)[C@@H]3O)c(O)ccc12
REMARK SMILES IDX 3 1 11 2 12 3 13 4 30 5 2 6 1 7 29 8 28 9 26 10 14 11 4 12
REMARK SMILES IDX 5 13 6 14 7 15 10 16 9 17 8 18 15 20 24 21 16 22 22 23 17 24
REMARK SMILES IDX 20 25 25 26 23 28 18 30 19 31 21 33 27 35
REMARK H PARENT 8 19 25 27 23 29 19 32 21 34 27 36
REMARK Flexibility Score: inf
ROOT
ATOM      1  C   UNL     1      13.256  21.323   2.858  1.00  0.00     0.065 A 
ATOM      2  C   UNL     1      13.243  22.484   2.078  1.00  0.00     0.208 A 
ATOM      3  O   UNL     1      13.072  22.423   0.762  1.00  0.00    -0.463 OA
ATOM      4  C   UNL     1      12.896  21.286   0.096  1.00  0.00     0.147 A 
ATOM      5  C   UNL     1      12.836  20.068   0.822  1.00  0.00     0.066 A 
ATOM      6  C   UNL     1      13.036  20.094   2.214  1.00  0.00     0.200 A 
ATOM      7  O   UNL     1      12.985  19.026   2.886  1.00  0.00    -0.288 OA
ATOM      8  C   UNL     1      12.531  18.875   0.154  1.00  0.00     0.020 A 
ATOM      9  C   UNL     1      12.198  18.899  -1.194  1.00  0.00     0.047 A 
ATOM     10  C   UNL     1      12.234  20.097  -1.915  1.00  0.00     0.125 A 
ATOM     11  C   UNL     1      12.729  21.288  -1.319  1.00  0.00     0.069 A 
ENDROOT
BRANCH   1  12
ATOM     12  C   UNL     1      13.477  21.416   4.323  1.00  0.00    -0.011 A 
ATOM     13  C   UNL     1      13.236  20.309   5.157  1.00  0.00     0.013 A 
ATOM     14  C   UNL     1      13.458  20.398   6.535  1.00  0.00     0.047 A 
ATOM     15  C   UNL     1      13.930  21.588   7.097  1.00  0.00     0.115 A 
ATOM     16  C   UNL     1      13.954  22.610   4.896  1.00  0.00     0.013 A 
ATOM     17  C   UNL     1      14.176  22.695   6.274  1.00  0.00     0.047 A 
BRANCH  15  18
ATOM     18  O   UNL     1      14.151  21.662   8.470  1.00  0.00    -0.508 OA
ATOM     19  H   UNL     1      14.105  20.837   9.058  1.00  0.00     0.293 HD
ENDBRANCH  15  18
ENDBRANCH   1  12
BRANCH  11  20
ATOM     20  C   UNL     1      12.886  22.555  -2.193  1.00  0.00     0.188 C 
ATOM     21  C   UNL     1      14.248  22.671  -2.959  1.00  0.00     0.179 C 
ATOM     22  O   UNL     1      12.525  23.781  -1.555  1.00  0.00    -0.362 OA
ATOM     23  C   UNL     1      15.354  23.294  -2.096  1.00  0.00     0.177 C 
ATOM     24  C   UNL     1      13.530  24.306  -0.691  1.00  0.00     0.176 C 
ATOM     25  C   UNL     1      14.857  24.581  -1.431  1.00  0.00     0.177 C 
BRANCH  21  26
ATOM     26  O   UNL     1      14.050  23.437  -4.122  1.00  0.00    -0.387 OA
ATOM     27  H   UNL     1      14.034  22.808  -4.890  1.00  0.00     0.211 HD
ENDBRANCH  21  26
BRANCH  23  28
ATOM     28  O   UNL     1      15.753  22.363  -1.119  1.00  0.00    -0.387 OA
ATOM     29  H   UNL     1      16.736  22.258  -1.205  1.00  0.00     0.211 HD
ENDBRANCH  23  28
BRANCH  24  30
ATOM     30  C   UNL     1      13.013  25.599  -0.041  1.00  0.00     0.191 C 
BRANCH  30  31
ATOM     31  O   UNL     1      14.033  26.558   0.006  1.00  0.00    -0.394 OA
ATOM     32  H   UNL     1      13.629  27.409  -0.305  1.00  0.00     0.210 HD
ENDBRANCH  30  31
ENDBRANCH  24  30
BRANCH  25  33
ATOM     33  O   UNL     1      14.761  25.629  -2.370  1.00  0.00    -0.388 OA
ATOM     34  H   UNL     1      14.047  26.252  -2.079  1.00  0.00     0.211 HD
ENDBRANCH  25  33
ENDBRANCH  11  20
BRANCH  10  35
ATOM     35  O   UNL     1      11.728  20.105  -3.215  1.00  0.00    -0.507 OA
ATOM     36  H   UNL     1      12.330  20.017  -4.025  1.00  0.00     0.293 HD
ENDBRANCH  10  35
TORSDOF 9
ENDMDL
