MODEL 1
REMARK VINA RESULT:     9.831      0.000      0.000
REMARK INTER + INTRA:          10.406
REMARK INTER:                  10.406
REMARK INTRA:                   0.000
REMARK UNBOUND:                 0.000
REMARK SMILES Cc1cc(O)c(C)c(C)c1O
REMARK SMILES IDX 1 1 2 2 3 3 4 4 6 5 8 6 10 7 9 8 7 9 11 10 5 12
REMARK H PARENT 11 11 5 13
REMARK Flexibility Score: inf
ROOT
ATOM      1  C   UNL     1       4.058  40.875  25.535  1.00  0.00     0.048 C 
ATOM      2  C   UNL     1       5.286  41.530  24.963  1.00  0.00    -0.005 A 
ATOM      3  C   UNL     1       6.540  40.940  25.143  1.00  0.00     0.053 A 
ATOM      4  C   UNL     1       7.687  41.509  24.593  1.00  0.00     0.119 A 
ATOM      5  C   UNL     1       7.591  42.695  23.825  1.00  0.00    -0.003 A 
ATOM      6  C   UNL     1       6.340  43.369  23.743  1.00  0.00    -0.002 A 
ATOM      7  C   UNL     1       5.178  42.739  24.256  1.00  0.00     0.121 A 
ATOM      8  C   UNL     1       6.230  44.737  23.106  1.00  0.00     0.049 C 
ATOM      9  C   UNL     1       8.817  43.233  23.122  1.00  0.00     0.049 C 
ENDROOT
BRANCH   7  10
ATOM     10  O   UNL     1       3.901  43.283  24.069  1.00  0.00    -0.507 OA
ATOM     11  H   UNL     1       3.136  43.157  24.717  1.00  0.00     0.293 HD
ENDBRANCH   7  10
BRANCH   4  12
ATOM     12  O   UNL     1       8.906  40.875  24.842  1.00  0.00    -0.508 OA
ATOM     13  H   UNL     1       9.056  40.227  25.604  1.00  0.00     0.293 HD
ENDBRANCH   4  12
TORSDOF 2
ENDMDL
MODEL 2
REMARK VINA RESULT:    11.032      1.500      3.340
REMARK INTER + INTRA:          11.677
REMARK INTER:                  11.677
REMARK INTRA:                   0.000
REMARK UNBOUND:                 0.000
REMARK SMILES Cc1cc(O)c(C)c(C)c1O
REMARK SMILES IDX 1 1 2 2 3 3 4 4 6 5 8 6 10 7 9 8 7 9 11 10 5 12
REMARK H PARENT 11 11 5 13
REMARK Flexibility Score: inf
ROOT
ATOM      1  C   UNL     1       9.325  40.894  24.213  1.00  0.00     0.048 C 
ATOM      2  C   UNL     1       7.973  41.554  24.245  1.00  0.00    -0.005 A 
ATOM      3  C   UNL     1       6.917  40.948  24.929  1.00  0.00     0.053 A 
ATOM      4  C   UNL     1       5.665  41.558  25.002  1.00  0.00     0.119 A 
ATOM      5  C   UNL     1       5.454  42.818  24.390  1.00  0.00    -0.003 A 
ATOM      6  C   UNL     1       6.485  43.380  23.588  1.00  0.00    -0.002 A 
ATOM      7  C   UNL     1       7.768  42.775  23.581  1.00  0.00     0.121 A 
ATOM      8  C   UNL     1       6.239  44.620  22.756  1.00  0.00     0.049 C 
ATOM      9  C   UNL     1       4.136  43.533  24.586  1.00  0.00     0.049 C 
ENDROOT
BRANCH   7  10
ATOM     10  O   UNL     1       8.859  43.367  22.934  1.00  0.00    -0.507 OA
ATOM     11  H   UNL     1       8.962  44.364  22.804  1.00  0.00     0.293 HD
ENDBRANCH   7  10
BRANCH   4  12
ATOM     12  O   UNL     1       4.652  40.875  25.679  1.00  0.00    -0.508 OA
ATOM     13  H   UNL     1       3.666  41.051  25.538  1.00  0.00     0.293 HD
ENDBRANCH   4  12
TORSDOF 2
ENDMDL
MODEL 3
REMARK VINA RESULT:    11.203     11.965     12.402
REMARK INTER + INTRA:          11.858
REMARK INTER:                  11.858
REMARK INTRA:                   0.000
REMARK UNBOUND:                 0.000
REMARK SMILES Cc1cc(O)c(C)c(C)c1O
REMARK SMILES IDX 1 1 2 2 3 3 4 4 6 5 8 6 10 7 9 8 7 9 11 10 5 12
REMARK H PARENT 11 11 5 13
REMARK Flexibility Score: inf
ROOT
ATOM      1  C   UNL     1      -2.960  50.378  22.565  1.00  0.00     0.048 C 
ATOM      2  C   UNL     1      -1.882  50.997  21.718  1.00  0.00    -0.005 A 
ATOM      3  C   UNL     1      -0.760  51.569  22.325  1.00  0.00     0.053 A 
ATOM      4  C   UNL     1       0.268  52.116  21.560  1.00  0.00     0.119 A 
ATOM      5  C   UNL     1       0.194  52.084  20.146  1.00  0.00    -0.003 A 
ATOM      6  C   UNL     1      -0.998  51.619  19.524  1.00  0.00    -0.002 A 
ATOM      7  C   UNL     1      -2.002  51.010  20.319  1.00  0.00     0.121 A 
ATOM      8  C   UNL     1      -1.203  51.751  18.031  1.00  0.00     0.049 C 
ATOM      9  C   UNL     1       1.372  52.559  19.324  1.00  0.00     0.049 C 
ENDROOT
BRANCH   7  10
ATOM     10  O   UNL     1      -3.125  50.399  19.746  1.00  0.00    -0.507 OA
ATOM     11  H   UNL     1      -3.736  49.768  20.245  1.00  0.00     0.293 HD
ENDBRANCH   7  10
BRANCH   4  12
ATOM     12  O   UNL     1       1.342  52.695  22.240  1.00  0.00    -0.508 OA
ATOM     13  H   UNL     1       1.332  53.637  22.607  1.00  0.00     0.293 HD
ENDBRANCH   4  12
TORSDOF 2
ENDMDL
MODEL 4
REMARK VINA RESULT:    11.604      1.202      4.392
REMARK INTER + INTRA:          12.283
REMARK INTER:                  12.283
REMARK INTRA:                   0.000
REMARK UNBOUND:                 0.000
REMARK SMILES Cc1cc(O)c(C)c(C)c1O
REMARK SMILES IDX 1 1 2 2 3 3 4 4 6 5 8 6 10 7 9 8 7 9 11 10 5 12
REMARK H PARENT 11 11 5 13
REMARK Flexibility Score: inf
ROOT
ATOM      1  C   UNL     1      10.077  42.694  22.737  1.00  0.00     0.048 C 
ATOM      2  C   UNL     1       8.701  42.663  23.345  1.00  0.00    -0.005 A 
ATOM      3  C   UNL     1       7.715  43.540  22.885  1.00  0.00     0.053 A 
ATOM      4  C   UNL     1       6.424  43.505  23.408  1.00  0.00     0.119 A 
ATOM      5  C   UNL     1       6.090  42.561  24.409  1.00  0.00    -0.003 A 
ATOM      6  C   UNL     1       7.117  41.752  24.970  1.00  0.00    -0.002 A 
ATOM      7  C   UNL     1       8.406  41.760  24.379  1.00  0.00     0.121 A 
ATOM      8  C   UNL     1       6.851  40.876  26.174  1.00  0.00     0.049 C 
ATOM      9  C   UNL     1       4.656  42.441  24.876  1.00  0.00     0.049 C 
ENDROOT
BRANCH   7  10
ATOM     10  O   UNL     1       9.411  40.875  24.791  1.00  0.00    -0.507 OA
ATOM     11  H   UNL     1      10.230  40.661  24.240  1.00  0.00     0.293 HD
ENDBRANCH   7  10
BRANCH   4  12
ATOM     12  O   UNL     1       5.503  44.433  22.916  1.00  0.00    -0.508 OA
ATOM     13  H   UNL     1       5.608  45.434  23.016  1.00  0.00     0.293 HD
ENDBRANCH   4  12
TORSDOF 2
ENDMDL
MODEL 5
REMARK VINA RESULT:    11.721     11.803     12.752
REMARK INTER + INTRA:          12.406
REMARK INTER:                  12.406
REMARK INTRA:                   0.000
REMARK UNBOUND:                 0.000
REMARK SMILES Cc1cc(O)c(C)c(C)c1O
REMARK SMILES IDX 1 1 2 2 3 3 4 4 6 5 8 6 10 7 9 8 7 9 11 10 5 12
REMARK H PARENT 11 11 5 13
REMARK Flexibility Score: inf
ROOT
ATOM      1  C   UNL     1       1.605  52.655  22.361  1.00  0.00     0.048 C 
ATOM      2  C   UNL     1       0.423  52.117  21.604  1.00  0.00    -0.005 A 
ATOM      3  C   UNL     1      -0.602  51.456  22.287  1.00  0.00     0.053 A 
ATOM      4  C   UNL     1      -1.724  50.979  21.611  1.00  0.00     0.119 A 
ATOM      5  C   UNL     1      -1.847  51.176  20.214  1.00  0.00    -0.003 A 
ATOM      6  C   UNL     1      -0.754  51.735  19.494  1.00  0.00    -0.002 A 
ATOM      7  C   UNL     1       0.348  52.268  20.209  1.00  0.00     0.121 A 
ATOM      8  C   UNL     1      -0.758  51.780  17.982  1.00  0.00     0.049 C 
ATOM      9  C   UNL     1      -3.125  50.776  19.511  1.00  0.00     0.049 C 
ENDROOT
BRANCH   7  10
ATOM     10  O   UNL     1       1.378  52.965  19.564  1.00  0.00    -0.507 OA
ATOM     11  H   UNL     1       1.306  53.929  19.271  1.00  0.00     0.293 HD
ENDBRANCH   7  10
BRANCH   4  12
ATOM     12  O   UNL     1      -2.691  50.304  22.360  1.00  0.00    -0.508 OA
ATOM     13  H   UNL     1      -3.362  50.768  22.958  1.00  0.00     0.293 HD
ENDBRANCH   4  12
TORSDOF 2
ENDMDL
MODEL 6
REMARK VINA RESULT:    12.433      1.335      2.995
REMARK INTER + INTRA:          13.160
REMARK INTER:                  13.160
REMARK INTRA:                   0.000
REMARK UNBOUND:                 0.000
REMARK SMILES Cc1cc(O)c(C)c(C)c1O
REMARK SMILES IDX 1 1 2 2 3 3 4 4 6 5 8 6 10 7 9 8 7 9 11 10 5 12
REMARK H PARENT 11 11 5 13
REMARK Flexibility Score: inf
ROOT
ATOM      1  C   UNL     1       5.480  45.000  22.882  1.00  0.00     0.048 C 
ATOM      2  C   UNL     1       6.367  43.890  23.377  1.00  0.00    -0.005 A 
ATOM      3  C   UNL     1       7.662  43.753  22.869  1.00  0.00     0.053 A 
ATOM      4  C   UNL     1       8.514  42.754  23.338  1.00  0.00     0.119 A 
ATOM      5  C   UNL     1       8.079  41.870  24.355  1.00  0.00    -0.003 A 
ATOM      6  C   UNL     1       6.724  41.924  24.786  1.00  0.00    -0.002 A 
ATOM      7  C   UNL     1       5.896  42.986  24.342  1.00  0.00     0.121 A 
ATOM      8  C   UNL     1       6.160  40.875  25.719  1.00  0.00     0.049 C 
ATOM      9  C   UNL     1       9.052  40.877  24.951  1.00  0.00     0.049 C 
ENDROOT
BRANCH   7  10
ATOM     10  O   UNL     1       4.604  43.175  24.850  1.00  0.00    -0.507 OA
ATOM     11  H   UNL     1       4.412  43.515  25.782  1.00  0.00     0.293 HD
ENDBRANCH   7  10
BRANCH   4  12
ATOM     12  O   UNL     1       9.783  42.664  22.760  1.00  0.00    -0.508 OA
ATOM     13  H   UNL     1      10.519  42.067  23.113  1.00  0.00     0.293 HD
ENDBRANCH   4  12
TORSDOF 2
ENDMDL
