MODEL 1
REMARK VINA RESULT:    -4.445      0.000      0.000
REMARK INTER + INTRA:          -4.445
REMARK INTER:                  -4.445
REMARK INTRA:                   0.000
REMARK UNBOUND:                 0.000
REMARK SMILES CC(C)=C1CC[C@@H](C)CC1=O
REMARK SMILES IDX 8 1 7 2 6 3 5 4 4 5 2 6 1 7 3 8 10 9 11 10 9 11
REMARK H PARENT
REMARK Flexibility Score: inf
ROOT
ATOM      1  C   UNL     1      -8.603   3.178  51.295  1.00  0.00     0.008 C 
ATOM      2  C   UNL     1      -7.631   4.369  51.269  1.00  0.00    -0.006 C 
ATOM      3  C   UNL     1      -6.324   4.073  52.026  1.00  0.00     0.008 C 
ATOM      4  C   UNL     1      -6.531   3.904  53.540  1.00  0.00     0.039 C 
ATOM      5  C   UNL     1      -7.351   5.030  54.157  1.00  0.00    -0.006 C 
ATOM      6  C   UNL     1      -7.160   5.415  55.453  1.00  0.00    -0.070 C 
ATOM      7  C   UNL     1      -6.139   4.728  56.332  1.00  0.00     0.039 C 
ATOM      8  C   UNL     1      -7.924   6.567  56.063  1.00  0.00     0.039 C 
ATOM      9  C   UNL     1      -8.442   5.595  53.309  1.00  0.00     0.159 C 
ATOM     10  O   UNL     1      -9.511   6.025  53.819  1.00  0.00    -0.295 OA
ATOM     11  C   UNL     1      -8.284   5.648  51.817  1.00  0.00     0.084 C 
ENDROOT
TORSDOF 0
ENDMDL
MODEL 2
REMARK VINA RESULT:    -4.413     11.261     12.836
REMARK INTER + INTRA:          -4.413
REMARK INTER:                  -4.413
REMARK INTRA:                   0.000
REMARK UNBOUND:                 0.000
REMARK SMILES CC(C)=C1CC[C@@H](C)CC1=O
REMARK SMILES IDX 8 1 7 2 6 3 5 4 4 5 2 6 1 7 3 8 10 9 11 10 9 11
REMARK H PARENT
REMARK Flexibility Score: inf
ROOT
ATOM      1  C   UNL     1       2.999  -1.173  56.078  1.00  0.00     0.008 C 
ATOM      2  C   UNL     1       3.546  -1.609  54.710  1.00  0.00    -0.006 C 
ATOM      3  C   UNL     1       2.784  -0.959  53.541  1.00  0.00     0.008 C 
ATOM      4  C   UNL     1       1.328  -1.437  53.432  1.00  0.00     0.039 C 
ATOM      5  C   UNL     1       1.196  -2.954  53.477  1.00  0.00    -0.006 C 
ATOM      6  C   UNL     1       0.179  -3.594  52.828  1.00  0.00    -0.070 C 
ATOM      7  C   UNL     1      -0.865  -2.822  52.054  1.00  0.00     0.039 C 
ATOM      8  C   UNL     1       0.067  -5.102  52.814  1.00  0.00     0.039 C 
ATOM      9  C   UNL     1       2.159  -3.676  54.360  1.00  0.00     0.159 C 
ATOM     10  O   UNL     1       1.830  -4.735  54.960  1.00  0.00    -0.295 OA
ATOM     11  C   UNL     1       3.547  -3.138  54.558  1.00  0.00     0.084 C 
ENDROOT
TORSDOF 0
ENDMDL
MODEL 3
REMARK VINA RESULT:    -4.394      0.898      1.044
REMARK INTER + INTRA:          -4.394
REMARK INTER:                  -4.394
REMARK INTRA:                   0.000
REMARK UNBOUND:                 0.000
REMARK SMILES CC(C)=C1CC[C@@H](C)CC1=O
REMARK SMILES IDX 8 1 7 2 6 3 5 4 4 5 2 6 1 7 3 8 10 9 11 10 9 11
REMARK H PARENT
REMARK Flexibility Score: inf
ROOT
ATOM      1  C   UNL     1      -9.777   3.836  50.999  1.00  0.00     0.008 C 
ATOM      2  C   UNL     1      -8.880   5.084  50.985  1.00  0.00    -0.006 C 
ATOM      3  C   UNL     1      -7.397   4.740  51.214  1.00  0.00     0.008 C 
ATOM      4  C   UNL     1      -7.116   4.202  52.626  1.00  0.00     0.039 C 
ATOM      5  C   UNL     1      -7.717   5.070  53.724  1.00  0.00    -0.006 C 
ATOM      6  C   UNL     1      -7.135   5.155  54.956  1.00  0.00    -0.070 C 
ATOM      7  C   UNL     1      -5.881   4.378  55.285  1.00  0.00     0.039 C 
ATOM      8  C   UNL     1      -7.687   6.055  56.037  1.00  0.00     0.039 C 
ATOM      9  C   UNL     1      -9.028   5.715  53.414  1.00  0.00     0.159 C 
ATOM     10  O   UNL     1      -9.890   5.912  54.312  1.00  0.00    -0.295 OA
ATOM     11  C   UNL     1      -9.346   6.132  52.007  1.00  0.00     0.084 C 
ENDROOT
TORSDOF 0
ENDMDL
MODEL 4
REMARK VINA RESULT:    -4.379      9.711     10.923
REMARK INTER + INTRA:          -4.379
REMARK INTER:                  -4.379
REMARK INTRA:                   0.000
REMARK UNBOUND:                 0.000
REMARK SMILES CC(C)=C1CC[C@@H](C)CC1=O
REMARK SMILES IDX 8 1 7 2 6 3 5 4 4 5 2 6 1 7 3 8 10 9 11 10 9 11
REMARK H PARENT
REMARK Flexibility Score: inf
ROOT
ATOM      1  C   UNL     1       3.571  -2.537  54.364  1.00  0.00     0.008 C 
ATOM      2  C   UNL     1       2.694  -1.635  53.481  1.00  0.00    -0.006 C 
ATOM      3  C   UNL     1       2.974  -0.139  53.713  1.00  0.00     0.008 C 
ATOM      4  C   UNL     1       2.560   0.341  55.113  1.00  0.00     0.039 C 
ATOM      5  C   UNL     1       1.145  -0.080  55.490  1.00  0.00    -0.006 C 
ATOM      6  C   UNL     1       0.383   0.680  56.331  1.00  0.00    -0.070 C 
ATOM      7  C   UNL     1       0.919   1.958  56.934  1.00  0.00     0.039 C 
ATOM      8  C   UNL     1      -1.042   0.307  56.671  1.00  0.00     0.039 C 
ATOM      9  C   UNL     1       0.695  -1.413  54.990  1.00  0.00     0.159 C 
ATOM     10  O   UNL     1      -0.098  -2.129  55.658  1.00  0.00    -0.295 OA
ATOM     11  C   UNL     1       1.198  -1.930  53.673  1.00  0.00     0.084 C 
ENDROOT
TORSDOF 0
ENDMDL
MODEL 5
REMARK VINA RESULT:    -4.376      1.671      4.313
REMARK INTER + INTRA:          -4.376
REMARK INTER:                  -4.376
REMARK INTRA:                   0.000
REMARK UNBOUND:                 0.000
REMARK SMILES CC(C)=C1CC[C@@H](C)CC1=O
REMARK SMILES IDX 8 1 7 2 6 3 5 4 4 5 2 6 1 7 3 8 10 9 11 10 9 11
REMARK H PARENT
REMARK Flexibility Score: inf
ROOT
ATOM      1  C   UNL     1      -7.542   3.780  56.648  1.00  0.00     0.008 C 
ATOM      2  C   UNL     1      -6.656   4.848  55.987  1.00  0.00    -0.006 C 
ATOM      3  C   UNL     1      -7.475   6.038  55.454  1.00  0.00     0.008 C 
ATOM      4  C   UNL     1      -8.392   5.659  54.280  1.00  0.00     0.039 C 
ATOM      5  C   UNL     1      -7.669   4.879  53.189  1.00  0.00    -0.006 C 
ATOM      6  C   UNL     1      -8.059   4.965  51.884  1.00  0.00    -0.070 C 
ATOM      7  C   UNL     1      -9.232   5.824  51.471  1.00  0.00     0.039 C 
ATOM      8  C   UNL     1      -7.317   4.243  50.782  1.00  0.00     0.039 C 
ATOM      9  C   UNL     1      -6.605   3.936  53.645  1.00  0.00     0.159 C 
ATOM     10  O   UNL     1      -6.376   2.860  53.030  1.00  0.00    -0.295 OA
ATOM     11  C   UNL     1      -5.790   4.254  54.865  1.00  0.00     0.084 C 
ENDROOT
TORSDOF 0
ENDMDL
MODEL 6
REMARK VINA RESULT:    -4.252     10.346     11.244
REMARK INTER + INTRA:          -4.252
REMARK INTER:                  -4.252
REMARK INTRA:                   0.000
REMARK UNBOUND:                 0.000
REMARK SMILES CC(C)=C1CC[C@@H](C)CC1=O
REMARK SMILES IDX 8 1 7 2 6 3 5 4 4 5 2 6 1 7 3 8 10 9 11 10 9 11
REMARK H PARENT
REMARK Flexibility Score: inf
ROOT
ATOM      1  C   UNL     1       1.765  -0.863  53.250  1.00  0.00     0.008 C 
ATOM      2  C   UNL     1       2.770   0.153  53.815  1.00  0.00    -0.006 C 
ATOM      3  C   UNL     1       3.795  -0.502  54.758  1.00  0.00     0.008 C 
ATOM      4  C   UNL     1       3.165  -1.033  56.056  1.00  0.00     0.039 C 
ATOM      5  C   UNL     1       2.270  -0.009  56.743  1.00  0.00    -0.006 C 
ATOM      6  C   UNL     1       2.113  -0.006  58.100  1.00  0.00    -0.070 C 
ATOM      7  C   UNL     1       2.806  -1.029  58.971  1.00  0.00     0.039 C 
ATOM      8  C   UNL     1       1.275   1.037  58.802  1.00  0.00     0.039 C 
ATOM      9  C   UNL     1       1.493   0.898  55.848  1.00  0.00     0.159 C 
ATOM     10  O   UNL     1       0.350   1.317  56.173  1.00  0.00    -0.295 OA
ATOM     11  C   UNL     1       2.064   1.318  54.524  1.00  0.00     0.084 C 
ENDROOT
TORSDOF 0
ENDMDL
MODEL 7
REMARK VINA RESULT:    -4.235      1.955      3.179
REMARK INTER + INTRA:          -4.235
REMARK INTER:                  -4.235
REMARK INTRA:                   0.000
REMARK UNBOUND:                 0.000
REMARK SMILES CC(C)=C1CC[C@@H](C)CC1=O
REMARK SMILES IDX 8 1 7 2 6 3 5 4 4 5 2 6 1 7 3 8 10 9 11 10 9 11
REMARK H PARENT
REMARK Flexibility Score: inf
ROOT
ATOM      1  C   UNL     1     -10.472   6.076  50.720  1.00  0.00     0.008 C 
ATOM      2  C   UNL     1     -10.648   4.748  51.474  1.00  0.00    -0.006 C 
ATOM      3  C   UNL     1     -10.628   4.937  53.002  1.00  0.00     0.008 C 
ATOM      4  C   UNL     1      -9.260   5.390  53.534  1.00  0.00     0.039 C 
ATOM      5  C   UNL     1      -8.108   4.542  53.010  1.00  0.00    -0.006 C 
ATOM      6  C   UNL     1      -6.976   4.353  53.751  1.00  0.00    -0.070 C 
ATOM      7  C   UNL     1      -6.814   4.991  55.112  1.00  0.00     0.039 C 
ATOM      8  C   UNL     1      -5.849   3.468  53.270  1.00  0.00     0.039 C 
ATOM      9  C   UNL     1      -8.240   4.040  51.611  1.00  0.00     0.159 C 
ATOM     10  O   UNL     1      -7.230   3.893  50.870  1.00  0.00    -0.295 OA
ATOM     11  C   UNL     1      -9.595   3.712  51.054  1.00  0.00     0.084 C 
ENDROOT
TORSDOF 0
ENDMDL
MODEL 8
REMARK VINA RESULT:    -4.211      1.583      2.540
REMARK INTER + INTRA:          -4.211
REMARK INTER:                  -4.211
REMARK INTRA:                   0.000
REMARK UNBOUND:                 0.000
REMARK SMILES CC(C)=C1CC[C@@H](C)CC1=O
REMARK SMILES IDX 8 1 7 2 6 3 5 4 4 5 2 6 1 7 3 8 10 9 11 10 9 11
REMARK H PARENT
REMARK Flexibility Score: inf
ROOT
ATOM      1  C   UNL     1      -6.999   4.821  50.630  1.00  0.00     0.008 C 
ATOM      2  C   UNL     1      -7.978   4.009  51.494  1.00  0.00    -0.006 C 
ATOM      3  C   UNL     1      -8.964   4.908  52.262  1.00  0.00     0.008 C 
ATOM      4  C   UNL     1      -8.282   5.771  53.335  1.00  0.00     0.039 C 
ATOM      5  C   UNL     1      -7.356   4.969  54.241  1.00  0.00    -0.006 C 
ATOM      6  C   UNL     1      -7.142   5.340  55.538  1.00  0.00    -0.070 C 
ATOM      7  C   UNL     1      -7.802   6.570  56.121  1.00  0.00     0.039 C 
ATOM      8  C   UNL     1      -6.273   4.524  56.467  1.00  0.00     0.039 C 
ATOM      9  C   UNL     1      -6.615   3.844  53.600  1.00  0.00     0.159 C 
ATOM     10  O   UNL     1      -5.458   3.520  53.981  1.00  0.00    -0.295 OA
ATOM     11  C   UNL     1      -7.239   3.079  52.469  1.00  0.00     0.084 C 
ENDROOT
TORSDOF 0
ENDMDL
MODEL 9
REMARK VINA RESULT:    -4.188      1.363      3.703
REMARK INTER + INTRA:          -4.188
REMARK INTER:                  -4.188
REMARK INTRA:                   0.000
REMARK UNBOUND:                 0.000
REMARK SMILES CC(C)=C1CC[C@@H](C)CC1=O
REMARK SMILES IDX 8 1 7 2 6 3 5 4 4 5 2 6 1 7 3 8 10 9 11 10 9 11
REMARK H PARENT
REMARK Flexibility Score: inf
ROOT
ATOM      1  C   UNL     1      -6.001   4.385  56.311  1.00  0.00     0.008 C 
ATOM      2  C   UNL     1      -6.859   3.317  55.614  1.00  0.00    -0.006 C 
ATOM      3  C   UNL     1      -6.211   2.802  54.316  1.00  0.00     0.008 C 
ATOM      4  C   UNL     1      -6.138   3.872  53.215  1.00  0.00     0.039 C 
ATOM      5  C   UNL     1      -7.464   4.588  52.993  1.00  0.00    -0.006 C 
ATOM      6  C   UNL     1      -7.801   5.086  51.767  1.00  0.00    -0.070 C 
ATOM      7  C   UNL     1      -6.865   4.962  50.586  1.00  0.00     0.039 C 
ATOM      8  C   UNL     1      -9.137   5.747  51.516  1.00  0.00     0.039 C 
ATOM      9  C   UNL     1      -8.305   4.815  54.206  1.00  0.00     0.159 C 
ATOM     10  O   UNL     1      -9.035   5.836  54.314  1.00  0.00    -0.295 OA
ATOM     11  C   UNL     1      -8.282   3.824  55.333  1.00  0.00     0.084 C 
ENDROOT
TORSDOF 0
ENDMDL
