MODEL 1
REMARK VINA RESULT:    21.141      0.000      0.000
REMARK INTER + INTRA:          45.751
REMARK INTER:                  45.859
REMARK INTRA:                  -0.109
REMARK UNBOUND:                -0.109
REMARK SMILES CCCCCCCCCCCCCCCCCCCCCC(=O)[O-]
REMARK SMILES IDX 12 1 11 2 10 3 9 4 8 5 7 6 6 7 5 8 4 9 3 10 2 11 1 12 13 13
REMARK SMILES IDX 14 14 15 15 16 16 17 17 18 18 19 19 20 20 21 21 22 22 23 23
REMARK SMILES IDX 24 24
REMARK H PARENT
REMARK Flexibility Score: inf
ROOT
ATOM      1  C   UNL     1     -15.894 -13.308 -23.176  1.00  0.00     0.000 C 
ENDROOT
BRANCH   1   2
ATOM      2  C   UNL     1     -14.938 -12.198 -22.723  1.00  0.00     0.000 C 
BRANCH   2   3
ATOM      3  C   UNL     1     -14.118 -11.661 -23.906  1.00  0.00     0.000 C 
BRANCH   3   4
ATOM      4  C   UNL     1     -13.813 -10.157 -23.793  1.00  0.00    -0.000 C 
BRANCH   4   5
ATOM      5  C   UNL     1     -14.973  -9.291 -23.268  1.00  0.00    -0.000 C 
BRANCH   5   6
ATOM      6  C   UNL     1     -14.579  -7.817 -23.072  1.00  0.00    -0.000 C 
BRANCH   6   7
ATOM      7  C   UNL     1     -13.211  -7.645 -22.386  1.00  0.00    -0.000 C 
BRANCH   7   8
ATOM      8  C   UNL     1     -12.487  -8.953 -22.014  1.00  0.00    -0.000 C 
BRANCH   8   9
ATOM      9  C   UNL     1     -12.256  -9.104 -20.501  1.00  0.00    -0.000 C 
BRANCH   9  10
ATOM     10  C   UNL     1     -12.479  -7.790 -19.735  1.00  0.00    -0.000 C 
BRANCH  10  11
ATOM     11  C   UNL     1     -12.897  -8.014 -18.274  1.00  0.00    -0.003 C 
ATOM     12  C   UNL     1     -12.885  -9.498 -17.921  1.00  0.00     0.004 C 
ENDBRANCH  10  11
ENDBRANCH   9  10
ENDBRANCH   8   9
ENDBRANCH   7   8
ENDBRANCH   6   7
ENDBRANCH   5   6
ENDBRANCH   4   5
ENDBRANCH   3   4
ENDBRANCH   2   3
ENDBRANCH   1   2
BRANCH   1  13
ATOM     13  C   UNL     1     -16.768 -13.794 -22.010  1.00  0.00     0.000 C 
BRANCH  13  14
ATOM     14  C   UNL     1     -15.969 -14.010 -20.713  1.00  0.00     0.000 C 
BRANCH  14  15
ATOM     15  C   UNL     1     -16.127 -15.401 -20.065  1.00  0.00     0.000 C 
BRANCH  15  16
ATOM     16  C   UNL     1     -17.405 -15.597 -19.230  1.00  0.00     0.000 C 
BRANCH  16  17
ATOM     17  C   UNL     1     -17.223 -15.199 -17.757  1.00  0.00     0.000 C 
BRANCH  17  18
ATOM     18  C   UNL     1     -16.520 -16.287 -16.929  1.00  0.00     0.000 C 
BRANCH  18  19
ATOM     19  C   UNL     1     -17.228 -16.612 -15.597  1.00  0.00     0.000 C 
BRANCH  19  20
ATOM     20  C   UNL     1     -18.737 -16.331 -15.660  1.00  0.00     0.006 C 
BRANCH  20  21
ATOM     21  C   UNL     1     -19.495 -17.521 -16.264  1.00  0.00     0.053 C 
BRANCH  21  22
ATOM     22  C   UNL     1     -20.846 -17.718 -15.642  1.00  0.00     0.041 C 
ATOM     23  O   UNL     1     -21.497 -16.743 -15.177  1.00  0.00    -0.550 OA
ATOM     24  O   UNL     1     -21.359 -19.004 -15.516  1.00  0.00    -0.550 OA
ENDBRANCH  21  22
ENDBRANCH  20  21
ENDBRANCH  19  20
ENDBRANCH  18  19
ENDBRANCH  17  18
ENDBRANCH  16  17
ENDBRANCH  15  16
ENDBRANCH  14  15
ENDBRANCH  13  14
ENDBRANCH   1  13
TORSDOF 20
ENDMDL
MODEL 2
REMARK VINA RESULT:    21.234      3.628      9.813
REMARK INTER + INTRA:          45.953
REMARK INTER:                  45.161
REMARK INTRA:                   0.791
REMARK UNBOUND:                -0.109
REMARK SMILES CCCCCCCCCCCCCCCCCCCCCC(=O)[O-]
REMARK SMILES IDX 12 1 11 2 10 3 9 4 8 5 7 6 6 7 5 8 4 9 3 10 2 11 1 12 13 13
REMARK SMILES IDX 14 14 15 15 16 16 17 17 18 18 19 19 20 20 21 21 22 22 23 23
REMARK SMILES IDX 24 24
REMARK H PARENT
REMARK Flexibility Score: inf
ROOT
ATOM      1  C   UNL     1     -15.565 -12.250 -22.548  1.00  0.00     0.000 C 
ENDROOT
BRANCH   1   2
ATOM      2  C   UNL     1     -16.577 -13.394 -22.417  1.00  0.00     0.000 C 
BRANCH   2   3
ATOM      3  C   UNL     1     -16.039 -14.505 -21.503  1.00  0.00     0.000 C 
BRANCH   3   4
ATOM      4  C   UNL     1     -16.888 -14.705 -20.234  1.00  0.00    -0.000 C 
BRANCH   4   5
ATOM      5  C   UNL     1     -16.453 -15.874 -19.333  1.00  0.00    -0.000 C 
BRANCH   5   6
ATOM      6  C   UNL     1     -17.492 -16.216 -18.252  1.00  0.00    -0.000 C 
BRANCH   6   7
ATOM      7  C   UNL     1     -17.232 -15.495 -16.916  1.00  0.00    -0.000 C 
BRANCH   7   8
ATOM      8  C   UNL     1     -16.898 -16.411 -15.723  1.00  0.00    -0.000 C 
BRANCH   8   9
ATOM      9  C   UNL     1     -18.114 -17.202 -15.213  1.00  0.00    -0.000 C 
BRANCH   9  10
ATOM     10  C   UNL     1     -19.280 -17.205 -16.215  1.00  0.00    -0.000 C 
BRANCH  10  11
ATOM     11  C   UNL     1     -20.361 -18.240 -15.871  1.00  0.00    -0.003 C 
ATOM     12  C   UNL     1     -21.650 -17.558 -15.419  1.00  0.00     0.004 C 
ENDBRANCH  10  11
ENDBRANCH   9  10
ENDBRANCH   8   9
ENDBRANCH   7   8
ENDBRANCH   6   7
ENDBRANCH   5   6
ENDBRANCH   4   5
ENDBRANCH   3   4
ENDBRANCH   2   3
ENDBRANCH   1   2
BRANCH   1  13
ATOM     13  C   UNL     1     -14.646 -12.463 -23.760  1.00  0.00     0.000 C 
BRANCH  13  14
ATOM     14  C   UNL     1     -13.909 -11.180 -24.184  1.00  0.00     0.000 C 
BRANCH  14  15
ATOM     15  C   UNL     1     -14.132  -9.958 -23.267  1.00  0.00     0.000 C 
BRANCH  15  16
ATOM     16  C   UNL     1     -14.517  -8.655 -23.990  1.00  0.00     0.000 C 
BRANCH  16  17
ATOM     17  C   UNL     1     -14.838  -7.506 -23.020  1.00  0.00     0.000 C 
BRANCH  17  18
ATOM     18  C   UNL     1     -13.741  -7.294 -21.964  1.00  0.00     0.000 C 
BRANCH  18  19
ATOM     19  C   UNL     1     -12.602  -8.334 -22.032  1.00  0.00     0.000 C 
BRANCH  19  20
ATOM     20  C   UNL     1     -12.132  -8.769 -20.636  1.00  0.00     0.006 C 
BRANCH  20  21
ATOM     21  C   UNL     1     -12.819  -7.944 -19.540  1.00  0.00     0.053 C 
BRANCH  21  22
ATOM     22  C   UNL     1     -12.630  -8.532 -18.172  1.00  0.00     0.041 C 
ATOM     23  O   UNL     1     -13.082  -9.674 -17.887  1.00  0.00    -0.550 OA
ATOM     24  O   UNL     1     -12.005  -7.779 -17.185  1.00  0.00    -0.550 OA
ENDBRANCH  21  22
ENDBRANCH  20  21
ENDBRANCH  19  20
ENDBRANCH  18  19
ENDBRANCH  17  18
ENDBRANCH  16  17
ENDBRANCH  15  16
ENDBRANCH  14  15
ENDBRANCH  13  14
ENDBRANCH   1  13
TORSDOF 20
ENDMDL
MODEL 3
REMARK VINA RESULT:    21.644      4.921      9.488
REMARK INTER + INTRA:          46.841
REMARK INTER:                  46.462
REMARK INTRA:                   0.379
REMARK UNBOUND:                -0.109
REMARK SMILES CCCCCCCCCCCCCCCCCCCCCC(=O)[O-]
REMARK SMILES IDX 12 1 11 2 10 3 9 4 8 5 7 6 6 7 5 8 4 9 3 10 2 11 1 12 13 13
REMARK SMILES IDX 14 14 15 15 16 16 17 17 18 18 19 19 20 20 21 21 22 22 23 23
REMARK SMILES IDX 24 24
REMARK H PARENT
REMARK Flexibility Score: inf
ROOT
ATOM      1  C   UNL     1     -15.123 -12.135 -22.508  1.00  0.00     0.000 C 
ENDROOT
BRANCH   1   2
ATOM      2  C   UNL     1     -15.864 -13.424 -22.137  1.00  0.00     0.000 C 
BRANCH   2   3
ATOM      3  C   UNL     1     -17.287 -13.428 -22.717  1.00  0.00     0.000 C 
BRANCH   3   4
ATOM      4  C   UNL     1     -17.325 -13.791 -24.213  1.00  0.00    -0.000 C 
BRANCH   4   5
ATOM      5  C   UNL     1     -18.724 -13.770 -24.856  1.00  0.00    -0.000 C 
BRANCH   5   6
ATOM      6  C   UNL     1     -19.415 -12.401 -24.741  1.00  0.00    -0.000 C 
BRANCH   6   7
ATOM      7  C   UNL     1     -20.950 -12.505 -24.652  1.00  0.00    -0.000 C 
BRANCH   7   8
ATOM      8  C   UNL     1     -21.543 -13.876 -25.028  1.00  0.00    -0.000 C 
BRANCH   8   9
ATOM      9  C   UNL     1     -22.078 -14.654 -23.814  1.00  0.00    -0.000 C 
BRANCH   9  10
ATOM     10  C   UNL     1     -21.905 -13.884 -22.495  1.00  0.00    -0.000 C 
BRANCH  10  11
ATOM     11  C   UNL     1     -22.283 -14.717 -21.262  1.00  0.00    -0.003 C 
ATOM     12  C   UNL     1     -22.824 -16.085 -21.668  1.00  0.00     0.004 C 
ENDBRANCH  10  11
ENDBRANCH   9  10
ENDBRANCH   8   9
ENDBRANCH   7   8
ENDBRANCH   6   7
ENDBRANCH   5   6
ENDBRANCH   4   5
ENDBRANCH   3   4
ENDBRANCH   2   3
ENDBRANCH   1   2
BRANCH   1  13
ATOM     13  C   UNL     1     -14.287 -12.326 -23.783  1.00  0.00     0.000 C 
BRANCH  13  14
ATOM     14  C   UNL     1     -13.849 -10.993 -24.415  1.00  0.00     0.000 C 
BRANCH  14  15
ATOM     15  C   UNL     1     -13.889  -9.771 -23.473  1.00  0.00     0.000 C 
BRANCH  15  16
ATOM     16  C   UNL     1     -14.781  -8.608 -23.941  1.00  0.00     0.000 C 
BRANCH  16  17
ATOM     17  C   UNL     1     -14.760  -7.413 -22.975  1.00  0.00     0.000 C 
BRANCH  17  18
ATOM     18  C   UNL     1     -13.432  -7.288 -22.211  1.00  0.00     0.000 C 
BRANCH  18  19
ATOM     19  C   UNL     1     -12.798  -8.644 -21.838  1.00  0.00     0.000 C 
BRANCH  19  20
ATOM     20  C   UNL     1     -11.909  -8.544 -20.589  1.00  0.00     0.006 C 
BRANCH  20  21
ATOM     21  C   UNL     1     -12.597  -7.730 -19.485  1.00  0.00     0.053 C 
BRANCH  21  22
ATOM     22  C   UNL     1     -12.948  -8.564 -18.288  1.00  0.00     0.041 C 
ATOM     23  O   UNL     1     -12.652  -9.789 -18.239  1.00  0.00    -0.550 OA
ATOM     24  O   UNL     1     -13.670  -7.994 -17.246  1.00  0.00    -0.550 OA
ENDBRANCH  21  22
ENDBRANCH  20  21
ENDBRANCH  19  20
ENDBRANCH  18  19
ENDBRANCH  17  18
ENDBRANCH  16  17
ENDBRANCH  15  16
ENDBRANCH  14  15
ENDBRANCH  13  14
ENDBRANCH   1  13
TORSDOF 20
ENDMDL
MODEL 4
REMARK VINA RESULT:    22.017      3.627     10.263
REMARK INTER + INTRA:          47.651
REMARK INTER:                  48.653
REMARK INTRA:                  -1.002
REMARK UNBOUND:                -0.109
REMARK SMILES CCCCCCCCCCCCCCCCCCCCCC(=O)[O-]
REMARK SMILES IDX 12 1 11 2 10 3 9 4 8 5 7 6 6 7 5 8 4 9 3 10 2 11 1 12 13 13
REMARK SMILES IDX 14 14 15 15 16 16 17 17 18 18 19 19 20 20 21 21 22 22 23 23
REMARK SMILES IDX 24 24
REMARK H PARENT
REMARK Flexibility Score: inf
ROOT
ATOM      1  C   UNL     1     -16.413 -13.830 -22.066  1.00  0.00     0.000 C 
ENDROOT
BRANCH   1   2
ATOM      2  C   UNL     1     -15.880 -14.634 -20.874  1.00  0.00     0.000 C 
BRANCH   2   3
ATOM      3  C   UNL     1     -17.033 -15.235 -20.056  1.00  0.00     0.000 C 
BRANCH   3   4
ATOM      4  C   UNL     1     -16.594 -15.716 -18.661  1.00  0.00    -0.000 C 
BRANCH   4   5
ATOM      5  C   UNL     1     -17.631 -15.512 -17.541  1.00  0.00    -0.000 C 
BRANCH   5   6
ATOM      6  C   UNL     1     -17.194 -16.126 -16.201  1.00  0.00    -0.000 C 
BRANCH   6   7
ATOM      7  C   UNL     1     -18.297 -16.972 -15.537  1.00  0.00    -0.000 C 
BRANCH   7   8
ATOM      8  C   UNL     1     -19.493 -17.327 -16.441  1.00  0.00    -0.000 C 
BRANCH   8   9
ATOM      9  C   UNL     1     -20.349 -18.477 -15.883  1.00  0.00    -0.000 C 
BRANCH   9  10
ATOM     10  C   UNL     1     -21.772 -18.030 -15.515  1.00  0.00    -0.000 C 
BRANCH  10  11
ATOM     11  C   UNL     1     -21.794 -16.920 -14.454  1.00  0.00    -0.003 C 
ATOM     12  C   UNL     1     -22.576 -15.705 -14.946  1.00  0.00     0.004 C 
ENDBRANCH  10  11
ENDBRANCH   9  10
ENDBRANCH   8   9
ENDBRANCH   7   8
ENDBRANCH   6   7
ENDBRANCH   5   6
ENDBRANCH   4   5
ENDBRANCH   3   4
ENDBRANCH   2   3
ENDBRANCH   1   2
BRANCH   1  13
ATOM     13  C   UNL     1     -15.794 -12.425 -22.105  1.00  0.00     0.000 C 
BRANCH  13  14
ATOM     14  C   UNL     1     -14.907 -12.196 -23.341  1.00  0.00     0.000 C 
BRANCH  14  15
ATOM     15  C   UNL     1     -13.802 -11.132 -23.172  1.00  0.00     0.000 C 
BRANCH  15  16
ATOM     16  C   UNL     1     -13.934  -9.896 -24.079  1.00  0.00     0.000 C 
BRANCH  16  17
ATOM     17  C   UNL     1     -14.946  -8.869 -23.547  1.00  0.00     0.000 C 
BRANCH  17  18
ATOM     18  C   UNL     1     -14.272  -7.615 -22.966  1.00  0.00     0.000 C 
BRANCH  18  19
ATOM     19  C   UNL     1     -13.021  -7.918 -22.114  1.00  0.00     0.000 C 
BRANCH  19  20
ATOM     20  C   UNL     1     -13.280  -7.717 -20.614  1.00  0.00     0.006 C 
BRANCH  20  21
ATOM     21  C   UNL     1     -12.246  -8.473 -19.769  1.00  0.00     0.053 C 
BRANCH  21  22
ATOM     22  C   UNL     1     -12.663  -8.608 -18.333  1.00  0.00     0.041 C 
ATOM     23  O   UNL     1     -12.658  -7.613 -17.558  1.00  0.00    -0.550 OA
ATOM     24  O   UNL     1     -12.996  -9.861 -17.833  1.00  0.00    -0.550 OA
ENDBRANCH  21  22
ENDBRANCH  20  21
ENDBRANCH  19  20
ENDBRANCH  18  19
ENDBRANCH  17  18
ENDBRANCH  16  17
ENDBRANCH  15  16
ENDBRANCH  14  15
ENDBRANCH  13  14
ENDBRANCH   1  13
TORSDOF 20
ENDMDL
MODEL 5
REMARK VINA RESULT:    22.424      1.893      3.885
REMARK INTER + INTRA:          48.533
REMARK INTER:                  49.442
REMARK INTRA:                  -0.910
REMARK UNBOUND:                -0.109
REMARK SMILES CCCCCCCCCCCCCCCCCCCCCC(=O)[O-]
REMARK SMILES IDX 12 1 11 2 10 3 9 4 8 5 7 6 6 7 5 8 4 9 3 10 2 11 1 12 13 13
REMARK SMILES IDX 14 14 15 15 16 16 17 17 18 18 19 19 20 20 21 21 22 22 23 23
REMARK SMILES IDX 24 24
REMARK H PARENT
REMARK Flexibility Score: inf
ROOT
ATOM      1  C   UNL     1     -16.342 -15.749 -19.831  1.00  0.00     0.000 C 
ENDROOT
BRANCH   1   2
ATOM      2  C   UNL     1     -15.709 -14.626 -20.660  1.00  0.00     0.000 C 
BRANCH   2   3
ATOM      3  C   UNL     1     -16.759 -13.932 -21.541  1.00  0.00     0.000 C 
BRANCH   3   4
ATOM      4  C   UNL     1     -16.164 -13.334 -22.829  1.00  0.00    -0.000 C 
BRANCH   4   5
ATOM      5  C   UNL     1     -15.102 -12.241 -22.613  1.00  0.00    -0.000 C 
BRANCH   5   6
ATOM      6  C   UNL     1     -14.400 -11.822 -23.916  1.00  0.00    -0.000 C 
BRANCH   6   7
ATOM      7  C   UNL     1     -13.606 -10.509 -23.778  1.00  0.00    -0.000 C 
BRANCH   7   8
ATOM      8  C   UNL     1     -14.409  -9.301 -23.261  1.00  0.00    -0.000 C 
BRANCH   8   9
ATOM      9  C   UNL     1     -13.516  -8.139 -22.794  1.00  0.00    -0.000 C 
BRANCH   9  10
ATOM     10  C   UNL     1     -12.651  -8.510 -21.578  1.00  0.00    -0.000 C 
BRANCH  10  11
ATOM     11  C   UNL     1     -13.014  -7.706 -20.321  1.00  0.00    -0.003 C 
ATOM     12  C   UNL     1     -12.540  -8.420 -19.058  1.00  0.00     0.004 C 
ENDBRANCH  10  11
ENDBRANCH   9  10
ENDBRANCH   8   9
ENDBRANCH   7   8
ENDBRANCH   6   7
ENDBRANCH   5   6
ENDBRANCH   4   5
ENDBRANCH   3   4
ENDBRANCH   2   3
ENDBRANCH   1   2
BRANCH   1  13
ATOM     13  C   UNL     1     -16.873 -15.215 -18.492  1.00  0.00     0.000 C 
BRANCH  13  14
ATOM     14  C   UNL     1     -17.396 -16.330 -17.569  1.00  0.00     0.000 C 
BRANCH  14  15
ATOM     15  C   UNL     1     -17.673 -15.903 -16.112  1.00  0.00     0.000 C 
BRANCH  15  16
ATOM     16  C   UNL     1     -18.820 -16.654 -15.413  1.00  0.00     0.000 C 
BRANCH  16  17
ATOM     17  C   UNL     1     -19.407 -17.784 -16.274  1.00  0.00     0.000 C 
BRANCH  17  18
ATOM     18  C   UNL     1     -20.934 -17.904 -16.140  1.00  0.00     0.000 C 
BRANCH  18  19
ATOM     19  C   UNL     1     -21.460 -17.608 -14.720  1.00  0.00     0.000 C 
BRANCH  19  20
ATOM     20  C   UNL     1     -22.400 -16.395 -14.692  1.00  0.00     0.006 C 
BRANCH  20  21
ATOM     21  C   UNL     1     -22.785 -16.027 -13.253  1.00  0.00     0.053 C 
BRANCH  21  22
ATOM     22  C   UNL     1     -23.940 -15.070 -13.192  1.00  0.00     0.041 C 
ATOM     23  O   UNL     1     -24.787 -15.013 -14.124  1.00  0.00    -0.550 OA
ATOM     24  O   UNL     1     -24.040 -14.187 -12.123  1.00  0.00    -0.550 OA
ENDBRANCH  21  22
ENDBRANCH  20  21
ENDBRANCH  19  20
ENDBRANCH  18  19
ENDBRANCH  17  18
ENDBRANCH  16  17
ENDBRANCH  15  16
ENDBRANCH  14  15
ENDBRANCH  13  14
ENDBRANCH   1  13
TORSDOF 20
ENDMDL
MODEL 6
REMARK VINA RESULT:    22.448      3.885      9.592
REMARK INTER + INTRA:          48.586
REMARK INTER:                  49.488
REMARK INTRA:                  -0.902
REMARK UNBOUND:                -0.109
REMARK SMILES CCCCCCCCCCCCCCCCCCCCCC(=O)[O-]
REMARK SMILES IDX 12 1 11 2 10 3 9 4 8 5 7 6 6 7 5 8 4 9 3 10 2 11 1 12 13 13
REMARK SMILES IDX 14 14 15 15 16 16 17 17 18 18 19 19 20 20 21 21 22 22 23 23
REMARK SMILES IDX 24 24
REMARK H PARENT
REMARK Flexibility Score: inf
ROOT
ATOM      1  C   UNL     1     -16.670 -13.423 -22.055  1.00  0.00     0.000 C 
ENDROOT
BRANCH   1   2
ATOM      2  C   UNL     1     -15.913 -14.256 -21.014  1.00  0.00     0.000 C 
BRANCH   2   3
ATOM      3  C   UNL     1     -16.867 -15.197 -20.262  1.00  0.00     0.000 C 
BRANCH   3   4
ATOM      4  C   UNL     1     -16.571 -15.274 -18.753  1.00  0.00    -0.000 C 
BRANCH   4   5
ATOM      5  C   UNL     1     -17.644 -15.990 -17.912  1.00  0.00    -0.000 C 
BRANCH   5   6
ATOM      6  C   UNL     1     -17.563 -15.640 -16.416  1.00  0.00    -0.000 C 
BRANCH   6   7
ATOM      7  C   UNL     1     -17.249 -16.858 -15.528  1.00  0.00    -0.000 C 
BRANCH   7   8
ATOM      8  C   UNL     1     -15.957 -16.755 -14.695  1.00  0.00    -0.000 C 
BRANCH   8   9
ATOM      9  C   UNL     1     -16.220 -16.435 -13.213  1.00  0.00    -0.000 C 
BRANCH   9  10
ATOM     10  C   UNL     1     -15.057 -15.674 -12.557  1.00  0.00    -0.000 C 
BRANCH  10  11
ATOM     11  C   UNL     1     -15.398 -15.159 -11.151  1.00  0.00    -0.003 C 
ATOM     12  C   UNL     1     -16.882 -14.824 -11.034  1.00  0.00     0.004 C 
ENDBRANCH  10  11
ENDBRANCH   9  10
ENDBRANCH   8   9
ENDBRANCH   7   8
ENDBRANCH   6   7
ENDBRANCH   5   6
ENDBRANCH   4   5
ENDBRANCH   3   4
ENDBRANCH   2   3
ENDBRANCH   1   2
BRANCH   1  13
ATOM     13  C   UNL     1     -15.807 -13.185 -23.304  1.00  0.00     0.000 C 
BRANCH  13  14
ATOM     14  C   UNL     1     -14.529 -12.383 -23.004  1.00  0.00     0.000 C 
BRANCH  14  15
ATOM     15  C   UNL     1     -14.153 -11.323 -24.061  1.00  0.00     0.000 C 
BRANCH  15  16
ATOM     16  C   UNL     1     -13.701  -9.963 -23.498  1.00  0.00     0.000 C 
BRANCH  16  17
ATOM     17  C   UNL     1     -14.759  -8.862 -23.676  1.00  0.00     0.000 C 
BRANCH  17  18
ATOM     18  C   UNL     1     -14.426  -7.584 -22.889  1.00  0.00     0.000 C 
BRANCH  18  19
ATOM     19  C   UNL     1     -13.108  -7.669 -22.091  1.00  0.00     0.000 C 
BRANCH  19  20
ATOM     20  C   UNL     1     -13.331  -7.477 -20.584  1.00  0.00     0.006 C 
BRANCH  20  21
ATOM     21  C   UNL     1     -12.365  -8.346 -19.767  1.00  0.00     0.053 C 
BRANCH  21  22
ATOM     22  C   UNL     1     -12.904  -8.686 -18.409  1.00  0.00     0.041 C 
ATOM     23  O   UNL     1     -13.415  -7.800 -17.671  1.00  0.00    -0.550 OA
ATOM     24  O   UNL     1     -12.778  -9.984 -17.929  1.00  0.00    -0.550 OA
ENDBRANCH  21  22
ENDBRANCH  20  21
ENDBRANCH  19  20
ENDBRANCH  18  19
ENDBRANCH  17  18
ENDBRANCH  16  17
ENDBRANCH  15  16
ENDBRANCH  14  15
ENDBRANCH  13  14
ENDBRANCH   1  13
TORSDOF 20
ENDMDL
MODEL 7
REMARK VINA RESULT:    22.514      4.053      5.196
REMARK INTER + INTRA:          48.727
REMARK INTER:                  49.295
REMARK INTRA:                  -0.568
REMARK UNBOUND:                -0.109
REMARK SMILES CCCCCCCCCCCCCCCCCCCCCC(=O)[O-]
REMARK SMILES IDX 12 1 11 2 10 3 9 4 8 5 7 6 6 7 5 8 4 9 3 10 2 11 1 12 13 13
REMARK SMILES IDX 14 14 15 15 16 16 17 17 18 18 19 19 20 20 21 21 22 22 23 23
REMARK SMILES IDX 24 24
REMARK H PARENT
REMARK Flexibility Score: inf
ROOT
ATOM      1  C   UNL     1     -15.440 -11.785 -22.531  1.00  0.00     0.000 C 
ENDROOT
BRANCH   1   2
ATOM      2  C   UNL     1     -14.202 -12.049 -23.395  1.00  0.00     0.000 C 
BRANCH   2   3
ATOM      3  C   UNL     1     -13.886 -10.840 -24.289  1.00  0.00     0.000 C 
BRANCH   3   4
ATOM      4  C   UNL     1     -13.564  -9.566 -23.486  1.00  0.00    -0.000 C 
BRANCH   4   5
ATOM      5  C   UNL     1     -14.639  -8.466 -23.545  1.00  0.00    -0.000 C 
BRANCH   5   6
ATOM      6  C   UNL     1     -14.328  -7.275 -22.622  1.00  0.00    -0.000 C 
BRANCH   6   7
ATOM      7  C   UNL     1     -14.299  -7.659 -21.131  1.00  0.00    -0.000 C 
BRANCH   7   8
ATOM      8  C   UNL     1     -12.975  -7.370 -20.398  1.00  0.00    -0.000 C 
BRANCH   8   9
ATOM      9  C   UNL     1     -12.306  -8.637 -19.840  1.00  0.00    -0.000 C 
BRANCH   9  10
ATOM     10  C   UNL     1     -12.711  -8.928 -18.386  1.00  0.00    -0.000 C 
BRANCH  10  11
ATOM     11  C   UNL     1     -13.495  -7.775 -17.742  1.00  0.00    -0.003 C 
ATOM     12  C   UNL     1     -14.934  -8.188 -17.446  1.00  0.00     0.004 C 
ENDBRANCH  10  11
ENDBRANCH   9  10
ENDBRANCH   8   9
ENDBRANCH   7   8
ENDBRANCH   6   7
ENDBRANCH   5   6
ENDBRANCH   4   5
ENDBRANCH   3   4
ENDBRANCH   2   3
ENDBRANCH   1   2
BRANCH   1  13
ATOM     13  C   UNL     1     -15.897 -13.066 -21.817  1.00  0.00     0.000 C 
BRANCH  13  14
ATOM     14  C   UNL     1     -17.076 -13.757 -22.524  1.00  0.00     0.000 C 
BRANCH  14  15
ATOM     15  C   UNL     1     -16.851 -14.081 -24.017  1.00  0.00     0.000 C 
BRANCH  15  16
ATOM     16  C   UNL     1     -17.560 -13.141 -25.008  1.00  0.00     0.000 C 
BRANCH  16  17
ATOM     17  C   UNL     1     -19.066 -13.422 -25.125  1.00  0.00     0.000 C 
BRANCH  17  18
ATOM     18  C   UNL     1     -19.895 -12.670 -24.070  1.00  0.00     0.000 C 
BRANCH  18  19
ATOM     19  C   UNL     1     -21.412 -12.943 -24.159  1.00  0.00     0.000 C 
BRANCH  19  20
ATOM     20  C   UNL     1     -21.717 -14.414 -24.478  1.00  0.00     0.006 C 
BRANCH  20  21
ATOM     21  C   UNL     1     -22.848 -14.949 -23.589  1.00  0.00     0.053 C 
BRANCH  21  22
ATOM     22  C   UNL     1     -22.479 -14.964 -22.135  1.00  0.00     0.041 C 
ATOM     23  O   UNL     1     -22.819 -15.921 -21.387  1.00  0.00    -0.550 OA
ATOM     24  O   UNL     1     -21.811 -13.875 -21.588  1.00  0.00    -0.550 OA
ENDBRANCH  21  22
ENDBRANCH  20  21
ENDBRANCH  19  20
ENDBRANCH  18  19
ENDBRANCH  17  18
ENDBRANCH  16  17
ENDBRANCH  15  16
ENDBRANCH  14  15
ENDBRANCH  13  14
ENDBRANCH   1  13
TORSDOF 20
ENDMDL
MODEL 8
REMARK VINA RESULT:    22.635      4.324      5.557
REMARK INTER + INTRA:          48.991
REMARK INTER:                  49.133
REMARK INTRA:                  -0.143
REMARK UNBOUND:                -0.109
REMARK SMILES CCCCCCCCCCCCCCCCCCCCCC(=O)[O-]
REMARK SMILES IDX 12 1 11 2 10 3 9 4 8 5 7 6 6 7 5 8 4 9 3 10 2 11 1 12 13 13
REMARK SMILES IDX 14 14 15 15 16 16 17 17 18 18 19 19 20 20 21 21 22 22 23 23
REMARK SMILES IDX 24 24
REMARK H PARENT
REMARK Flexibility Score: inf
ROOT
ATOM      1  C   UNL     1     -13.804 -10.532 -24.304  1.00  0.00     0.000 C 
ENDROOT
BRANCH   1   2
ATOM      2  C   UNL     1     -13.716  -9.459 -23.213  1.00  0.00     0.000 C 
BRANCH   2   3
ATOM      3  C   UNL     1     -14.365  -8.147 -23.677  1.00  0.00     0.000 C 
BRANCH   3   4
ATOM      4  C   UNL     1     -15.025  -7.362 -22.529  1.00  0.00    -0.000 C 
BRANCH   4   5
ATOM      5  C   UNL     1     -14.069  -6.477 -21.707  1.00  0.00    -0.000 C 
BRANCH   5   6
ATOM      6  C   UNL     1     -13.812  -7.026 -20.294  1.00  0.00    -0.000 C 
BRANCH   6   7
ATOM      7  C   UNL     1     -12.595  -7.968 -20.225  1.00  0.00    -0.000 C 
BRANCH   7   8
ATOM      8  C   UNL     1     -12.142  -8.362 -18.806  1.00  0.00    -0.000 C 
BRANCH   8   9
ATOM      9  C   UNL     1     -13.296  -8.876 -17.927  1.00  0.00    -0.000 C 
BRANCH   9  10
ATOM     10  C   UNL     1     -14.259  -7.756 -17.501  1.00  0.00    -0.000 C 
BRANCH  10  11
ATOM     11  C   UNL     1     -15.693  -8.255 -17.277  1.00  0.00    -0.003 C 
ATOM     12  C   UNL     1     -15.779  -9.142 -16.038  1.00  0.00     0.004 C 
ENDBRANCH  10  11
ENDBRANCH   9  10
ENDBRANCH   8   9
ENDBRANCH   7   8
ENDBRANCH   6   7
ENDBRANCH   5   6
ENDBRANCH   4   5
ENDBRANCH   3   4
ENDBRANCH   2   3
ENDBRANCH   1   2
BRANCH   1  13
ATOM     13  C   UNL     1     -14.071 -11.918 -23.696  1.00  0.00     0.000 C 
BRANCH  13  14
ATOM     14  C   UNL     1     -15.352 -11.960 -22.845  1.00  0.00     0.000 C 
BRANCH  14  15
ATOM     15  C   UNL     1     -15.952 -13.366 -22.627  1.00  0.00     0.000 C 
BRANCH  15  16
ATOM     16  C   UNL     1     -16.943 -13.834 -23.707  1.00  0.00     0.000 C 
BRANCH  16  17
ATOM     17  C   UNL     1     -18.376 -13.337 -23.459  1.00  0.00     0.000 C 
BRANCH  17  18
ATOM     18  C   UNL     1     -19.105 -12.950 -24.757  1.00  0.00     0.000 C 
BRANCH  18  19
ATOM     19  C   UNL     1     -20.644 -12.961 -24.634  1.00  0.00     0.000 C 
BRANCH  19  20
ATOM     20  C   UNL     1     -21.230 -14.364 -24.845  1.00  0.00     0.006 C 
BRANCH  20  21
ATOM     21  C   UNL     1     -22.496 -14.567 -24.001  1.00  0.00     0.053 C 
BRANCH  21  22
ATOM     22  C   UNL     1     -22.233 -14.440 -22.529  1.00  0.00     0.041 C 
ATOM     23  O   UNL     1     -21.654 -13.424 -22.056  1.00  0.00    -0.550 OA
ATOM     24  O   UNL     1     -22.573 -15.488 -21.681  1.00  0.00    -0.550 OA
ENDBRANCH  21  22
ENDBRANCH  20  21
ENDBRANCH  19  20
ENDBRANCH  18  19
ENDBRANCH  17  18
ENDBRANCH  16  17
ENDBRANCH  15  16
ENDBRANCH  14  15
ENDBRANCH  13  14
ENDBRANCH   1  13
TORSDOF 20
ENDMDL
MODEL 9
REMARK VINA RESULT:    22.852      4.603      5.684
REMARK INTER + INTRA:          49.462
REMARK INTER:                  51.159
REMARK INTRA:                  -1.697
REMARK UNBOUND:                -0.109
REMARK SMILES CCCCCCCCCCCCCCCCCCCCCC(=O)[O-]
REMARK SMILES IDX 12 1 11 2 10 3 9 4 8 5 7 6 6 7 5 8 4 9 3 10 2 11 1 12 13 13
REMARK SMILES IDX 14 14 15 15 16 16 17 17 18 18 19 19 20 20 21 21 22 22 23 23
REMARK SMILES IDX 24 24
REMARK H PARENT
REMARK Flexibility Score: inf
ROOT
ATOM      1  C   UNL     1     -14.257  -9.758 -23.082  1.00  0.00     0.000 C 
ENDROOT
BRANCH   1   2
ATOM      2  C   UNL     1     -14.027  -8.404 -23.763  1.00  0.00     0.000 C 
BRANCH   2   3
ATOM      3  C   UNL     1     -15.271  -7.510 -23.646  1.00  0.00     0.000 C 
BRANCH   3   4
ATOM      4  C   UNL     1     -16.402  -8.157 -22.827  1.00  0.00    -0.000 C 
BRANCH   4   5
ATOM      5  C   UNL     1     -17.139  -7.208 -21.864  1.00  0.00    -0.000 C 
BRANCH   5   6
ATOM      6  C   UNL     1     -16.527  -7.193 -20.453  1.00  0.00    -0.000 C 
BRANCH   6   7
ATOM      7  C   UNL     1     -15.395  -6.160 -20.298  1.00  0.00    -0.000 C 
BRANCH   7   8
ATOM      8  C   UNL     1     -13.981  -6.671 -20.635  1.00  0.00    -0.000 C 
BRANCH   8   9
ATOM      9  C   UNL     1     -13.262  -7.294 -19.427  1.00  0.00    -0.000 C 
BRANCH   9  10
ATOM     10  C   UNL     1     -12.415  -8.518 -19.810  1.00  0.00    -0.000 C 
BRANCH  10  11
ATOM     11  C   UNL     1     -12.434  -9.617 -18.739  1.00  0.00    -0.003 C 
ATOM     12  C   UNL     1     -13.154  -9.144 -17.479  1.00  0.00     0.004 C 
ENDBRANCH  10  11
ENDBRANCH   9  10
ENDBRANCH   8   9
ENDBRANCH   7   8
ENDBRANCH   6   7
ENDBRANCH   5   6
ENDBRANCH   4   5
ENDBRANCH   3   4
ENDBRANCH   2   3
ENDBRANCH   1   2
BRANCH   1  13
ATOM     13  C   UNL     1     -13.867 -10.917 -24.011  1.00  0.00     0.000 C 
BRANCH  13  14
ATOM     14  C   UNL     1     -14.295 -12.291 -23.465  1.00  0.00     0.000 C 
BRANCH  14  15
ATOM     15  C   UNL     1     -15.549 -12.281 -22.566  1.00  0.00     0.000 C 
BRANCH  15  16
ATOM     16  C   UNL     1     -16.526 -13.450 -22.787  1.00  0.00     0.000 C 
BRANCH  16  17
ATOM     17  C   UNL     1     -17.204 -13.410 -24.166  1.00  0.00     0.000 C 
BRANCH  17  18
ATOM     18  C   UNL     1     -18.705 -13.736 -24.102  1.00  0.00     0.000 C 
BRANCH  18  19
ATOM     19  C   UNL     1     -19.614 -12.580 -24.571  1.00  0.00     0.000 C 
BRANCH  19  20
ATOM     20  C   UNL     1     -21.038 -13.057 -24.890  1.00  0.00     0.006 C 
BRANCH  20  21
ATOM     21  C   UNL     1     -21.308 -14.439 -24.278  1.00  0.00     0.053 C 
BRANCH  21  22
ATOM     22  C   UNL     1     -22.119 -14.362 -23.018  1.00  0.00     0.041 C 
ATOM     23  O   UNL     1     -23.161 -15.057 -22.872  1.00  0.00    -0.550 OA
ATOM     24  O   UNL     1     -21.753 -13.462 -22.024  1.00  0.00    -0.550 OA
ENDBRANCH  21  22
ENDBRANCH  20  21
ENDBRANCH  19  20
ENDBRANCH  18  19
ENDBRANCH  17  18
ENDBRANCH  16  17
ENDBRANCH  15  16
ENDBRANCH  14  15
ENDBRANCH  13  14
ENDBRANCH   1  13
TORSDOF 20
ENDMDL
