MODEL 1
REMARK VINA RESULT:    -4.674      0.000      0.000
REMARK INTER + INTRA:          -5.490
REMARK INTER:                  -5.357
REMARK INTRA:                  -0.133
REMARK UNBOUND:                -0.133
REMARK SMILES O=C([O-])C=Cc1ccc(O)cc1
REMARK SMILES IDX 6 1 7 2 12 3 8 4 11 5 9 6 5 7 4 8 2 9 1 10 3 11 10 12
REMARK H PARENT 10 13
REMARK Flexibility Score: inf
ROOT
ATOM      1  C   UNL     1      19.578  -0.932 -18.373  1.00  0.00    -0.025 A 
ATOM      2  C   UNL     1      20.750  -0.195 -18.109  1.00  0.00     0.012 A 
ATOM      3  C   UNL     1      19.127  -1.035 -19.701  1.00  0.00     0.012 A 
ATOM      4  C   UNL     1      21.435   0.442 -19.148  1.00  0.00     0.047 A 
ATOM      5  C   UNL     1      19.815  -0.396 -20.737  1.00  0.00     0.047 A 
ATOM      6  C   UNL     1      20.967   0.345 -20.465  1.00  0.00     0.115 A 
ENDROOT
BRANCH   1   7
ATOM      7  C   UNL     1      18.819  -1.637 -17.310  1.00  0.00     0.010 C 
ATOM      8  C   UNL     1      18.425  -1.058 -16.167  1.00  0.00     0.025 C 
BRANCH   8   9
ATOM      9  C   UNL     1      17.663  -1.786 -15.139  1.00  0.00     0.064 C 
ATOM     10  O   UNL     1      16.544  -1.368 -14.736  1.00  0.00    -0.545 OA
ATOM     11  O   UNL     1      18.187  -2.955 -14.602  1.00  0.00    -0.545 OA
ENDBRANCH   8   9
ENDBRANCH   1   7
BRANCH   6  12
ATOM     12  O   UNL     1      21.642   0.977 -21.506  1.00  0.00    -0.508 OA
ATOM     13  H   UNL     1      21.730   0.546 -22.420  1.00  0.00     0.293 HD
ENDBRANCH   6  12
TORSDOF 3
ENDMDL
MODEL 2
REMARK VINA RESULT:    -4.598     14.020     17.118
REMARK INTER + INTRA:          -5.403
REMARK INTER:                  -5.249
REMARK INTRA:                  -0.153
REMARK UNBOUND:                -0.133
REMARK SMILES O=C([O-])C=Cc1ccc(O)cc1
REMARK SMILES IDX 6 1 7 2 12 3 8 4 11 5 9 6 5 7 4 8 2 9 1 10 3 11 10 12
REMARK H PARENT 10 13
REMARK Flexibility Score: inf
ROOT
ATOM      1  C   UNL     1       7.963  -6.927  -7.819  1.00  0.00    -0.025 A 
ATOM      2  C   UNL     1       7.868  -8.169  -7.157  1.00  0.00     0.012 A 
ATOM      3  C   UNL     1       8.017  -5.752  -7.050  1.00  0.00     0.012 A 
ATOM      4  C   UNL     1       7.802  -8.223  -5.761  1.00  0.00     0.047 A 
ATOM      5  C   UNL     1       7.950  -5.811  -5.654  1.00  0.00     0.047 A 
ATOM      6  C   UNL     1       7.841  -7.044  -5.007  1.00  0.00     0.115 A 
ENDROOT
BRANCH   1   7
ATOM      7  C   UNL     1       8.048  -6.814  -9.296  1.00  0.00     0.010 C 
ATOM      8  C   UNL     1       8.194  -5.650  -9.947  1.00  0.00     0.025 C 
BRANCH   8   9
ATOM      9  C   UNL     1       8.286  -5.576 -11.414  1.00  0.00     0.064 C 
ATOM     10  O   UNL     1       8.823  -6.502 -12.082  1.00  0.00    -0.545 OA
ATOM     11  O   UNL     1       7.774  -4.469 -12.076  1.00  0.00    -0.545 OA
ENDBRANCH   8   9
ENDBRANCH   1   7
BRANCH   6  12
ATOM     12  O   UNL     1       7.775  -7.088  -3.616  1.00  0.00    -0.508 OA
ATOM     13  H   UNL     1       8.215  -7.833  -3.088  1.00  0.00     0.293 HD
ENDBRANCH   6  12
TORSDOF 3
ENDMDL
MODEL 3
REMARK VINA RESULT:    -4.486     14.104     15.773
REMARK INTER + INTRA:          -5.274
REMARK INTER:                  -5.133
REMARK INTRA:                  -0.141
REMARK UNBOUND:                -0.133
REMARK SMILES O=C([O-])C=Cc1ccc(O)cc1
REMARK SMILES IDX 6 1 7 2 12 3 8 4 11 5 9 6 5 7 4 8 2 9 1 10 3 11 10 12
REMARK H PARENT 10 13
REMARK Flexibility Score: inf
ROOT
ATOM      1  C   UNL     1       8.003  -6.755  -9.157  1.00  0.00    -0.025 A 
ATOM      2  C   UNL     1       8.261  -5.570  -9.878  1.00  0.00     0.012 A 
ATOM      3  C   UNL     1       7.835  -7.956  -9.867  1.00  0.00     0.012 A 
ATOM      4  C   UNL     1       8.322  -5.591 -11.274  1.00  0.00     0.047 A 
ATOM      5  C   UNL     1       7.898  -7.972 -11.264  1.00  0.00     0.047 A 
ATOM      6  C   UNL     1       8.139  -6.792 -11.971  1.00  0.00     0.115 A 
ENDROOT
BRANCH   1   7
ATOM      7  C   UNL     1       7.939  -6.791  -7.675  1.00  0.00     0.010 C 
ATOM      8  C   UNL     1       8.185  -5.730  -6.892  1.00  0.00     0.025 C 
BRANCH   8   9
ATOM      9  C   UNL     1       8.100  -5.801  -5.424  1.00  0.00     0.064 C 
ATOM     10  O   UNL     1       8.284  -4.779  -4.710  1.00  0.00    -0.545 OA
ATOM     11  O   UNL     1       7.814  -7.015  -4.814  1.00  0.00    -0.545 OA
ENDBRANCH   8   9
ENDBRANCH   1   7
BRANCH   6  12
ATOM     12  O   UNL     1       8.198  -6.823 -13.362  1.00  0.00    -0.508 OA
ATOM     13  H   UNL     1       9.083  -6.799 -13.856  1.00  0.00     0.293 HD
ENDBRANCH   6  12
TORSDOF 3
ENDMDL
MODEL 4
REMARK VINA RESULT:    -4.385     10.332     11.319
REMARK INTER + INTRA:          -5.158
REMARK INTER:                  -5.007
REMARK INTRA:                  -0.151
REMARK UNBOUND:                -0.133
REMARK SMILES O=C([O-])C=Cc1ccc(O)cc1
REMARK SMILES IDX 6 1 7 2 12 3 8 4 11 5 9 6 5 7 4 8 2 9 1 10 3 11 10 12
REMARK H PARENT 10 13
REMARK Flexibility Score: inf
ROOT
ATOM      1  C   UNL     1      11.865   5.975 -19.231  1.00  0.00    -0.025 A 
ATOM      2  C   UNL     1      11.137   5.112 -20.077  1.00  0.00     0.012 A 
ATOM      3  C   UNL     1      12.651   5.417 -18.208  1.00  0.00     0.012 A 
ATOM      4  C   UNL     1      11.179   3.728 -19.881  1.00  0.00     0.047 A 
ATOM      5  C   UNL     1      12.689   4.032 -18.016  1.00  0.00     0.047 A 
ATOM      6  C   UNL     1      11.954   3.185 -18.848  1.00  0.00     0.115 A 
ENDROOT
BRANCH   1   7
ATOM      7  C   UNL     1      11.865   7.449 -19.402  1.00  0.00     0.010 C 
ATOM      8  C   UNL     1      12.793   8.260 -18.873  1.00  0.00     0.025 C 
BRANCH   8   9
ATOM      9  C   UNL     1      12.768   9.719 -19.073  1.00  0.00     0.064 C 
ATOM     10  O   UNL     1      11.701  10.377 -18.940  1.00  0.00    -0.545 OA
ATOM     11  O   UNL     1      13.939  10.382 -19.415  1.00  0.00    -0.545 OA
ENDBRANCH   8   9
ENDBRANCH   1   7
BRANCH   6  12
ATOM     12  O   UNL     1      12.001   1.808 -18.645  1.00  0.00    -0.508 OA
ATOM     13  H   UNL     1      11.968   1.156 -19.421  1.00  0.00     0.293 HD
ENDBRANCH   6  12
TORSDOF 3
ENDMDL
MODEL 5
REMARK VINA RESULT:    -4.326      9.109     10.138
REMARK INTER + INTRA:          -5.090
REMARK INTER:                  -4.953
REMARK INTRA:                  -0.138
REMARK UNBOUND:                -0.133
REMARK SMILES O=C([O-])C=Cc1ccc(O)cc1
REMARK SMILES IDX 6 1 7 2 12 3 8 4 11 5 9 6 5 7 4 8 2 9 1 10 3 11 10 12
REMARK H PARENT 10 13
REMARK Flexibility Score: inf
ROOT
ATOM      1  C   UNL     1      23.860   7.229 -19.750  1.00  0.00    -0.025 A 
ATOM      2  C   UNL     1      25.078   6.645 -20.155  1.00  0.00     0.012 A 
ATOM      3  C   UNL     1      22.694   6.937 -20.478  1.00  0.00     0.012 A 
ATOM      4  C   UNL     1      25.125   5.813 -21.277  1.00  0.00     0.047 A 
ATOM      5  C   UNL     1      22.746   6.104 -21.600  1.00  0.00     0.047 A 
ATOM      6  C   UNL     1      23.959   5.542 -22.004  1.00  0.00     0.115 A 
ENDROOT
BRANCH   1   7
ATOM      7  C   UNL     1      23.752   8.110 -18.560  1.00  0.00     0.010 C 
ATOM      8  C   UNL     1      24.807   8.664 -17.945  1.00  0.00     0.025 C 
BRANCH   8   9
ATOM      9  C   UNL     1      24.660   9.543 -16.773  1.00  0.00     0.064 C 
ATOM     10  O   UNL     1      24.272  10.736 -16.896  1.00  0.00    -0.545 OA
ATOM     11  O   UNL     1      24.954   9.050 -15.509  1.00  0.00    -0.545 OA
ENDBRANCH   8   9
ENDBRANCH   1   7
BRANCH   6  12
ATOM     12  O   UNL     1      23.996   4.714 -23.123  1.00  0.00    -0.508 OA
ATOM     13  H   UNL     1      23.468   4.931 -23.961  1.00  0.00     0.293 HD
ENDBRANCH   6  12
TORSDOF 3
ENDMDL
MODEL 6
REMARK VINA RESULT:    -4.292     11.663     14.153
REMARK INTER + INTRA:          -5.051
REMARK INTER:                  -4.901
REMARK INTRA:                  -0.150
REMARK UNBOUND:                -0.133
REMARK SMILES O=C([O-])C=Cc1ccc(O)cc1
REMARK SMILES IDX 6 1 7 2 12 3 8 4 11 5 9 6 5 7 4 8 2 9 1 10 3 11 10 12
REMARK H PARENT 10 13
REMARK Flexibility Score: inf
ROOT
ATOM      1  C   UNL     1      10.888  -7.222  -9.030  1.00  0.00    -0.025 A 
ATOM      2  C   UNL     1      10.970  -8.357  -9.863  1.00  0.00     0.012 A 
ATOM      3  C   UNL     1      11.679  -6.101  -9.331  1.00  0.00     0.012 A 
ATOM      4  C   UNL     1      11.845  -8.370 -10.954  1.00  0.00     0.047 A 
ATOM      5  C   UNL     1      12.553  -6.119 -10.424  1.00  0.00     0.047 A 
ATOM      6  C   UNL     1      12.640  -7.252 -11.236  1.00  0.00     0.115 A 
ENDROOT
BRANCH   1   7
ATOM      7  C   UNL     1       9.969  -7.150  -7.867  1.00  0.00     0.010 C 
ATOM      8  C   UNL     1       9.537  -6.000  -7.329  1.00  0.00     0.025 C 
BRANCH   8   9
ATOM      9  C   UNL     1       8.615  -5.966  -6.180  1.00  0.00     0.064 C 
ATOM     10  O   UNL     1       8.678  -5.048  -5.320  1.00  0.00    -0.545 OA
ATOM     11  O   UNL     1       7.660  -6.965  -6.043  1.00  0.00    -0.545 OA
ENDBRANCH   8   9
ENDBRANCH   1   7
BRANCH   6  12
ATOM     12  O   UNL     1      13.514  -7.257 -12.320  1.00  0.00    -0.508 OA
ATOM     13  H   UNL     1      13.564  -6.477 -12.964  1.00  0.00     0.293 HD
ENDBRANCH   6  12
TORSDOF 3
ENDMDL
MODEL 7
REMARK VINA RESULT:    -4.290     10.097     13.973
REMARK INTER + INTRA:          -5.049
REMARK INTER:                  -4.901
REMARK INTRA:                  -0.148
REMARK UNBOUND:                -0.133
REMARK SMILES O=C([O-])C=Cc1ccc(O)cc1
REMARK SMILES IDX 6 1 7 2 12 3 8 4 11 5 9 6 5 7 4 8 2 9 1 10 3 11 10 12
REMARK H PARENT 10 13
REMARK Flexibility Score: inf
ROOT
ATOM      1  C   UNL     1      10.911  -6.113  -9.223  1.00  0.00    -0.025 A 
ATOM      2  C   UNL     1      10.558  -6.417  -7.892  1.00  0.00     0.012 A 
ATOM      3  C   UNL     1       9.895  -5.781 -10.135  1.00  0.00     0.012 A 
ATOM      4  C   UNL     1       9.216  -6.414  -7.498  1.00  0.00     0.047 A 
ATOM      5  C   UNL     1       8.554  -5.779  -9.737  1.00  0.00     0.047 A 
ATOM      6  C   UNL     1       8.211  -6.097  -8.420  1.00  0.00     0.115 A 
ENDROOT
BRANCH   1   7
ATOM      7  C   UNL     1      12.319  -6.090  -9.691  1.00  0.00     0.010 C 
ATOM      8  C   UNL     1      12.751  -5.347 -10.721  1.00  0.00     0.025 C 
BRANCH   8   9
ATOM      9  C   UNL     1      14.159  -5.342 -11.150  1.00  0.00     0.064 C 
ATOM     10  O   UNL     1      14.564  -6.102 -12.071  1.00  0.00    -0.545 OA
ATOM     11  O   UNL     1      15.058  -4.485 -10.530  1.00  0.00    -0.545 OA
ENDBRANCH   8   9
ENDBRANCH   1   7
BRANCH   6  12
ATOM     12  O   UNL     1       6.872  -6.091  -8.037  1.00  0.00    -0.508 OA
ATOM     13  H   UNL     1       6.154  -5.682  -8.625  1.00  0.00     0.293 HD
ENDBRANCH   6  12
TORSDOF 3
ENDMDL
MODEL 8
REMARK VINA RESULT:    -4.281     12.221     15.390
REMARK INTER + INTRA:          -5.039
REMARK INTER:                  -4.886
REMARK INTRA:                  -0.153
REMARK UNBOUND:                -0.133
REMARK SMILES O=C([O-])C=Cc1ccc(O)cc1
REMARK SMILES IDX 6 1 7 2 12 3 8 4 11 5 9 6 5 7 4 8 2 9 1 10 3 11 10 12
REMARK H PARENT 10 13
REMARK Flexibility Score: inf
ROOT
ATOM      1  C   UNL     1       9.296  -6.265  -8.925  1.00  0.00    -0.025 A 
ATOM      2  C   UNL     1       7.915  -5.988  -8.863  1.00  0.00     0.012 A 
ATOM      3  C   UNL     1      10.066  -6.136  -7.756  1.00  0.00     0.012 A 
ATOM      4  C   UNL     1       7.330  -5.568  -7.664  1.00  0.00     0.047 A 
ATOM      5  C   UNL     1       9.477  -5.716  -6.559  1.00  0.00     0.047 A 
ATOM      6  C   UNL     1       8.111  -5.429  -6.510  1.00  0.00     0.115 A 
ENDROOT
BRANCH   1   7
ATOM      7  C   UNL     1       9.965  -6.724 -10.167  1.00  0.00     0.010 C 
ATOM      8  C   UNL     1      11.252  -7.097 -10.227  1.00  0.00     0.025 C 
BRANCH   8   9
ATOM      9  C   UNL     1      11.879  -7.559 -11.477  1.00  0.00     0.064 C 
ATOM     10  O   UNL     1      11.181  -7.913 -12.465  1.00  0.00    -0.545 OA
ATOM     11  O   UNL     1      13.263  -7.605 -11.569  1.00  0.00    -0.545 OA
ENDBRANCH   8   9
ENDBRANCH   1   7
BRANCH   6  12
ATOM     12  O   UNL     1       7.537  -5.011  -5.311  1.00  0.00    -0.508 OA
ATOM     13  H   UNL     1       7.180  -4.070  -5.194  1.00  0.00     0.293 HD
ENDBRANCH   6  12
TORSDOF 3
ENDMDL
MODEL 9
REMARK VINA RESULT:    -2.968      9.029     10.704
REMARK INTER + INTRA:          -3.535
REMARK INTER:                  -3.398
REMARK INTRA:                  -0.136
REMARK UNBOUND:                -0.133
REMARK SMILES O=C([O-])C=Cc1ccc(O)cc1
REMARK SMILES IDX 6 1 7 2 12 3 8 4 11 5 9 6 5 7 4 8 2 9 1 10 3 11 10 12
REMARK H PARENT 10 13
REMARK Flexibility Score: inf
ROOT
ATOM      1  C   UNL     1      25.069   7.099 -18.752  1.00  0.00    -0.025 A 
ATOM      2  C   UNL     1      25.060   8.498 -18.575  1.00  0.00     0.012 A 
ATOM      3  C   UNL     1      25.075   6.273 -17.615  1.00  0.00     0.012 A 
ATOM      4  C   UNL     1      25.082   9.049 -17.290  1.00  0.00     0.047 A 
ATOM      5  C   UNL     1      25.097   6.828 -16.332  1.00  0.00     0.047 A 
ATOM      6  C   UNL     1      25.103   8.215 -16.165  1.00  0.00     0.115 A 
ENDROOT
BRANCH   1   7
ATOM      7  C   UNL     1      25.035   6.461 -20.092  1.00  0.00     0.010 C 
ATOM      8  C   UNL     1      23.904   6.204 -20.766  1.00  0.00     0.025 C 
BRANCH   8   9
ATOM      9  C   UNL     1      23.910   5.580 -22.099  1.00  0.00     0.064 C 
ATOM     10  O   UNL     1      22.860   5.085 -22.593  1.00  0.00    -0.545 OA
ATOM     11  O   UNL     1      25.091   5.535 -22.827  1.00  0.00    -0.545 OA
ENDBRANCH   8   9
ENDBRANCH   1   7
BRANCH   6  12
ATOM     12  O   UNL     1      25.125   8.755 -14.882  1.00  0.00    -0.508 OA
ATOM     13  H   UNL     1      25.079   9.756 -14.726  1.00  0.00     0.293 HD
ENDBRANCH   6  12
TORSDOF 3
ENDMDL
