MODEL 1
REMARK VINA RESULT:    -3.837      0.000      0.000
REMARK INTER + INTRA:          -6.007
REMARK INTER:                  -5.183
REMARK INTRA:                  -0.825
REMARK UNBOUND:                -0.825
REMARK SMILES CCCCCCC=CC(=O)[O-]
REMARK SMILES IDX 5 1 6 2 7 3 8 4 9 5 10 6 11 7 4 8 3 9 2 10 1 11
REMARK H PARENT
REMARK Flexibility Score: inf
ROOT
ATOM      1  C   UNL     1      34.695  27.136  33.434  1.00  0.00     0.004 C 
ENDROOT
BRANCH   1   2
ATOM      2  C   UNL     1      33.537  26.526  32.629  1.00  0.00     0.027 C 
BRANCH   2   3
ATOM      3  C   UNL     1      33.901  25.200  32.015  1.00  0.00    -0.025 C 
ATOM      4  C   UNL     1      33.707  23.991  32.569  1.00  0.00     0.020 C 
BRANCH   4   5
ATOM      5  C   UNL     1      33.055  23.711  33.865  1.00  0.00     0.064 C 
ATOM      6  O   UNL     1      33.702  23.094  34.751  1.00  0.00    -0.545 OA
ATOM      7  O   UNL     1      31.743  24.080  34.130  1.00  0.00    -0.545 OA
ENDBRANCH   4   5
ENDBRANCH   2   3
ENDBRANCH   1   2
BRANCH   1   8
ATOM      8  C   UNL     1      36.025  27.080  32.661  1.00  0.00     0.000 C 
BRANCH   8   9
ATOM      9  C   UNL     1      37.158  26.439  33.479  1.00  0.00    -0.000 C 
BRANCH   9  10
ATOM     10  C   UNL     1      36.637  25.522  34.594  1.00  0.00    -0.003 C 
ATOM     11  C   UNL     1      37.072  24.077  34.364  1.00  0.00     0.004 C 
ENDBRANCH   9  10
ENDBRANCH   8   9
ENDBRANCH   1   8
TORSDOF 6
ENDMDL
MODEL 2
REMARK VINA RESULT:    -3.739      1.553      2.479
REMARK INTER + INTRA:          -5.876
REMARK INTER:                  -5.448
REMARK INTRA:                  -0.428
REMARK UNBOUND:                -0.825
REMARK SMILES CCCCCCC=CC(=O)[O-]
REMARK SMILES IDX 5 1 6 2 7 3 8 4 9 5 10 6 11 7 4 8 3 9 2 10 1 11
REMARK H PARENT
REMARK Flexibility Score: inf
ROOT
ATOM      1  C   UNL     1      34.126  25.203  30.861  1.00  0.00     0.004 C 
ENDROOT
BRANCH   1   2
ATOM      2  C   UNL     1      34.308  23.808  31.481  1.00  0.00     0.027 C 
BRANCH   2   3
ATOM      3  C   UNL     1      33.055  22.977  31.401  1.00  0.00    -0.025 C 
ATOM      4  C   UNL     1      31.964  23.116  32.173  1.00  0.00     0.020 C 
BRANCH   4   5
ATOM      5  C   UNL     1      31.749  24.136  33.220  1.00  0.00     0.064 C 
ATOM      6  O   UNL     1      32.209  23.931  34.373  1.00  0.00    -0.545 OA
ATOM      7  O   UNL     1      31.032  25.301  32.983  1.00  0.00    -0.545 OA
ENDBRANCH   4   5
ENDBRANCH   2   3
ENDBRANCH   1   2
BRANCH   1   8
ATOM      8  C   UNL     1      34.972  26.268  31.583  1.00  0.00     0.000 C 
BRANCH   8   9
ATOM      9  C   UNL     1      34.363  26.695  32.928  1.00  0.00    -0.000 C 
BRANCH   9  10
ATOM     10  C   UNL     1      35.199  27.765  33.643  1.00  0.00    -0.003 C 
ATOM     11  C   UNL     1      36.402  27.143  34.347  1.00  0.00     0.004 C 
ENDBRANCH   9  10
ENDBRANCH   8   9
ENDBRANCH   1   8
TORSDOF 6
ENDMDL
MODEL 3
REMARK VINA RESULT:    -3.709     12.129     12.774
REMARK INTER + INTRA:          -5.834
REMARK INTER:                  -5.300
REMARK INTRA:                  -0.534
REMARK UNBOUND:                -0.825
REMARK SMILES CCCCCCC=CC(=O)[O-]
REMARK SMILES IDX 5 1 6 2 7 3 8 4 9 5 10 6 11 7 4 8 3 9 2 10 1 11
REMARK H PARENT
REMARK Flexibility Score: inf
ROOT
ATOM      1  C   UNL     1      21.007  27.806  33.413  1.00  0.00     0.004 C 
ENDROOT
BRANCH   1   2
ATOM      2  C   UNL     1      21.135  26.279  33.292  1.00  0.00     0.027 C 
BRANCH   2   3
ATOM      3  C   UNL     1      22.416  25.761  33.891  1.00  0.00    -0.025 C 
ATOM      4  C   UNL     1      22.774  24.470  33.998  1.00  0.00     0.020 C 
BRANCH   4   5
ATOM      5  C   UNL     1      22.013  23.302  33.509  1.00  0.00     0.064 C 
ATOM      6  O   UNL     1      21.317  22.644  34.325  1.00  0.00    -0.545 OA
ATOM      7  O   UNL     1      22.062  22.886  32.185  1.00  0.00    -0.545 OA
ENDBRANCH   4   5
ENDBRANCH   2   3
ENDBRANCH   1   2
BRANCH   1   8
ATOM      8  C   UNL     1      22.381  28.498  33.428  1.00  0.00     0.000 C 
BRANCH   8   9
ATOM      9  C   UNL     1      22.390  29.776  34.281  1.00  0.00    -0.000 C 
BRANCH   9  10
ATOM     10  C   UNL     1      23.469  29.752  35.373  1.00  0.00    -0.003 C 
ATOM     11  C   UNL     1      23.387  28.471  36.198  1.00  0.00     0.004 C 
ENDBRANCH   9  10
ENDBRANCH   8   9
ENDBRANCH   1   8
TORSDOF 6
ENDMDL
MODEL 4
REMARK VINA RESULT:    -3.690      0.948      1.422
REMARK INTER + INTRA:          -5.809
REMARK INTER:                  -5.207
REMARK INTRA:                  -0.602
REMARK UNBOUND:                -0.825
REMARK SMILES CCCCCCC=CC(=O)[O-]
REMARK SMILES IDX 5 1 6 2 7 3 8 4 9 5 10 6 11 7 4 8 3 9 2 10 1 11
REMARK H PARENT
REMARK Flexibility Score: inf
ROOT
ATOM      1  C   UNL     1      35.227  26.162  30.910  1.00  0.00     0.004 C 
ENDROOT
BRANCH   1   2
ATOM      2  C   UNL     1      34.000  25.629  31.668  1.00  0.00     0.027 C 
BRANCH   2   3
ATOM      3  C   UNL     1      33.787  24.154  31.449  1.00  0.00    -0.025 C 
ATOM      4  C   UNL     1      33.355  23.273  32.366  1.00  0.00     0.020 C 
BRANCH   4   5
ATOM      5  C   UNL     1      32.954  23.574  33.756  1.00  0.00     0.064 C 
ATOM      6  O   UNL     1      33.679  23.167  34.700  1.00  0.00    -0.545 OA
ATOM      7  O   UNL     1      31.789  24.265  34.058  1.00  0.00    -0.545 OA
ENDBRANCH   4   5
ENDBRANCH   2   3
ENDBRANCH   1   2
BRANCH   1   8
ATOM      8  C   UNL     1      36.150  26.992  31.821  1.00  0.00     0.000 C 
BRANCH   8   9
ATOM      9  C   UNL     1      35.449  27.456  33.108  1.00  0.00    -0.000 C 
BRANCH   9  10
ATOM     10  C   UNL     1      36.245  27.109  34.374  1.00  0.00    -0.003 C 
ATOM     11  C   UNL     1      36.299  25.600  34.592  1.00  0.00     0.004 C 
ENDBRANCH   9  10
ENDBRANCH   8   9
ENDBRANCH   1   8
TORSDOF 6
ENDMDL
MODEL 5
REMARK VINA RESULT:    -3.591      2.049      3.087
REMARK INTER + INTRA:          -5.675
REMARK INTER:                  -5.173
REMARK INTRA:                  -0.502
REMARK UNBOUND:                -0.825
REMARK SMILES CCCCCCC=CC(=O)[O-]
REMARK SMILES IDX 5 1 6 2 7 3 8 4 9 5 10 6 11 7 4 8 3 9 2 10 1 11
REMARK H PARENT
REMARK Flexibility Score: inf
ROOT
ATOM      1  C   UNL     1      33.605  24.214  31.991  1.00  0.00     0.004 C 
ENDROOT
BRANCH   1   2
ATOM      2  C   UNL     1      32.771  24.097  33.277  1.00  0.00     0.027 C 
BRANCH   2   3
ATOM      3  C   UNL     1      31.329  23.765  32.997  1.00  0.00    -0.025 C 
ATOM      4  C   UNL     1      30.765  22.549  33.092  1.00  0.00     0.020 C 
BRANCH   4   5
ATOM      5  C   UNL     1      31.424  21.304  33.536  1.00  0.00     0.064 C 
ATOM      6  O   UNL     1      32.056  20.616  32.692  1.00  0.00    -0.545 OA
ATOM      7  O   UNL     1      31.347  20.851  34.846  1.00  0.00    -0.545 OA
ENDBRANCH   4   5
ENDBRANCH   2   3
ENDBRANCH   1   2
BRANCH   1   8
ATOM      8  C   UNL     1      34.022  25.668  31.706  1.00  0.00     0.000 C 
BRANCH   8   9
ATOM      9  C   UNL     1      33.776  26.599  32.903  1.00  0.00    -0.000 C 
BRANCH   9  10
ATOM     10  C   UNL     1      35.053  27.314  33.370  1.00  0.00    -0.003 C 
ATOM     11  C   UNL     1      35.904  26.399  34.246  1.00  0.00     0.004 C 
ENDBRANCH   9  10
ENDBRANCH   8   9
ENDBRANCH   1   8
TORSDOF 6
ENDMDL
MODEL 6
REMARK VINA RESULT:    -3.520     10.508     11.756
REMARK INTER + INTRA:          -5.579
REMARK INTER:                  -5.235
REMARK INTRA:                  -0.344
REMARK UNBOUND:                -0.825
REMARK SMILES CCCCCCC=CC(=O)[O-]
REMARK SMILES IDX 5 1 6 2 7 3 8 4 9 5 10 6 11 7 4 8 3 9 2 10 1 11
REMARK H PARENT
REMARK Flexibility Score: inf
ROOT
ATOM      1  C   UNL     1      34.997  25.886  45.245  1.00  0.00     0.004 C 
ENDROOT
BRANCH   1   2
ATOM      2  C   UNL     1      35.555  26.358  43.893  1.00  0.00     0.027 C 
BRANCH   2   3
ATOM      3  C   UNL     1      36.903  25.760  43.588  1.00  0.00    -0.025 C 
ATOM      4  C   UNL     1      37.127  24.549  43.051  1.00  0.00     0.020 C 
BRANCH   4   5
ATOM      5  C   UNL     1      36.105  23.579  42.607  1.00  0.00     0.064 C 
ATOM      6  O   UNL     1      35.846  22.589  43.338  1.00  0.00    -0.545 OA
ATOM      7  O   UNL     1      35.440  23.707  41.394  1.00  0.00    -0.545 OA
ENDBRANCH   4   5
ENDBRANCH   2   3
ENDBRANCH   1   2
BRANCH   1   8
ATOM      8  C   UNL     1      34.179  26.985  45.946  1.00  0.00     0.000 C 
BRANCH   8   9
ATOM      9  C   UNL     1      35.066  28.031  46.639  1.00  0.00    -0.000 C 
BRANCH   9  10
ATOM     10  C   UNL     1      34.252  29.091  47.395  1.00  0.00    -0.003 C 
ATOM     11  C   UNL     1      32.763  28.756  47.375  1.00  0.00     0.004 C 
ENDBRANCH   9  10
ENDBRANCH   8   9
ENDBRANCH   1   8
TORSDOF 6
ENDMDL
MODEL 7
REMARK VINA RESULT:    -3.501     10.271     11.503
REMARK INTER + INTRA:          -5.554
REMARK INTER:                  -4.778
REMARK INTRA:                  -0.776
REMARK UNBOUND:                -0.825
REMARK SMILES CCCCCCC=CC(=O)[O-]
REMARK SMILES IDX 5 1 6 2 7 3 8 4 9 5 10 6 11 7 4 8 3 9 2 10 1 11
REMARK H PARENT
REMARK Flexibility Score: inf
ROOT
ATOM      1  C   UNL     1      35.213  27.100  44.922  1.00  0.00     0.004 C 
ENDROOT
BRANCH   1   2
ATOM      2  C   UNL     1      35.590  26.492  43.562  1.00  0.00     0.027 C 
BRANCH   2   3
ATOM      3  C   UNL     1      36.954  25.853  43.577  1.00  0.00    -0.025 C 
ATOM      4  C   UNL     1      37.237  24.584  43.242  1.00  0.00     0.020 C 
BRANCH   4   5
ATOM      5  C   UNL     1      36.283  23.571  42.744  1.00  0.00     0.064 C 
ATOM      6  O   UNL     1      35.921  22.645  43.514  1.00  0.00    -0.545 OA
ATOM      7  O   UNL     1      35.794  23.589  41.444  1.00  0.00    -0.545 OA
ENDBRANCH   4   5
ENDBRANCH   2   3
ENDBRANCH   1   2
BRANCH   1   8
ATOM      8  C   UNL     1      35.081  26.025  46.016  1.00  0.00     0.000 C 
BRANCH   8   9
ATOM      9  C   UNL     1      36.127  26.183  47.130  1.00  0.00    -0.000 C 
BRANCH   9  10
ATOM     10  C   UNL     1      36.980  24.921  47.326  1.00  0.00    -0.003 C 
ATOM     11  C   UNL     1      36.222  23.673  46.882  1.00  0.00     0.004 C 
ENDBRANCH   9  10
ENDBRANCH   8   9
ENDBRANCH   1   8
TORSDOF 6
ENDMDL
MODEL 8
REMARK VINA RESULT:    -3.448     10.155     11.424
REMARK INTER + INTRA:          -5.482
REMARK INTER:                  -4.847
REMARK INTRA:                  -0.635
REMARK UNBOUND:                -0.825
REMARK SMILES CCCCCCC=CC(=O)[O-]
REMARK SMILES IDX 5 1 6 2 7 3 8 4 9 5 10 6 11 7 4 8 3 9 2 10 1 11
REMARK H PARENT
REMARK Flexibility Score: inf
ROOT
ATOM      1  C   UNL     1      36.563  25.848  43.403  1.00  0.00     0.004 C 
ENDROOT
BRANCH   1   2
ATOM      2  C   UNL     1      35.465  24.860  42.976  1.00  0.00     0.027 C 
BRANCH   2   3
ATOM      3  C   UNL     1      36.026  23.629  42.315  1.00  0.00    -0.025 C 
ATOM      4  C   UNL     1      36.636  22.606  42.937  1.00  0.00     0.020 C 
BRANCH   4   5
ATOM      5  C   UNL     1      36.838  22.455  44.392  1.00  0.00     0.064 C 
ATOM      6  O   UNL     1      37.947  22.780  44.890  1.00  0.00    -0.545 OA
ATOM      7  O   UNL     1      35.857  21.939  45.228  1.00  0.00    -0.545 OA
ENDBRANCH   4   5
ENDBRANCH   2   3
ENDBRANCH   1   2
BRANCH   1   8
ATOM      8  C   UNL     1      36.503  26.157  44.910  1.00  0.00     0.000 C 
BRANCH   8   9
ATOM      9  C   UNL     1      35.207  25.656  45.566  1.00  0.00    -0.000 C 
BRANCH   9  10
ATOM     10  C   UNL     1      34.213  26.791  45.854  1.00  0.00    -0.003 C 
ATOM     11  C   UNL     1      34.940  28.111  46.090  1.00  0.00     0.004 C 
ENDBRANCH   9  10
ENDBRANCH   8   9
ENDBRANCH   1   8
TORSDOF 6
ENDMDL
MODEL 9
REMARK VINA RESULT:    -3.399      2.006      3.061
REMARK INTER + INTRA:          -5.415
REMARK INTER:                  -4.766
REMARK INTRA:                  -0.649
REMARK UNBOUND:                -0.825
REMARK SMILES CCCCCCC=CC(=O)[O-]
REMARK SMILES IDX 5 1 6 2 7 3 8 4 9 5 10 6 11 7 4 8 3 9 2 10 1 11
REMARK H PARENT
REMARK Flexibility Score: inf
ROOT
ATOM      1  C   UNL     1      34.726  24.828  33.914  1.00  0.00     0.004 C 
ENDROOT
BRANCH   1   2
ATOM      2  C   UNL     1      33.561  23.825  33.901  1.00  0.00     0.027 C 
BRANCH   2   3
ATOM      3  C   UNL     1      32.358  24.351  33.164  1.00  0.00    -0.025 C 
ATOM      4  C   UNL     1      31.290  23.633  32.779  1.00  0.00     0.020 C 
BRANCH   4   5
ATOM      5  C   UNL     1      31.052  22.199  33.040  1.00  0.00     0.064 C 
ATOM      6  O   UNL     1      31.062  21.394  32.074  1.00  0.00    -0.545 OA
ATOM      7  O   UNL     1      30.788  21.712  34.314  1.00  0.00    -0.545 OA
ENDBRANCH   4   5
ENDBRANCH   2   3
ENDBRANCH   1   2
BRANCH   1   8
ATOM      8  C   UNL     1      34.339  26.166  33.259  1.00  0.00     0.000 C 
BRANCH   8   9
ATOM      9  C   UNL     1      35.345  26.611  32.186  1.00  0.00    -0.000 C 
BRANCH   9  10
ATOM     10  C   UNL     1      35.623  25.517  31.145  1.00  0.00    -0.003 C 
ATOM     11  C   UNL     1      34.421  25.315  30.227  1.00  0.00     0.004 C 
ENDBRANCH   9  10
ENDBRANCH   8   9
ENDBRANCH   1   8
TORSDOF 6
ENDMDL
