MODEL 1
REMARK VINA RESULT:    -4.341      0.000      0.000
REMARK INTER + INTRA:          -5.347
REMARK INTER:                  -5.229
REMARK INTRA:                  -0.118
REMARK UNBOUND:                -0.118
REMARK SMILES CC[C@H](C)[C@H]([NH3+])C(=O)[O-]
REMARK SMILES IDX 3 1 4 2 5 3 6 4 7 8 8 9 9 10 2 11 1 12
REMARK H PARENT 6 5 6 6 6 7
REMARK Flexibility Score: inf
ROOT
ATOM      1  C   UNL     1     181.719 168.922 172.916  1.00  0.00     0.050 C 
ATOM      2  C   UNL     1     180.509 169.561 172.208  1.00  0.00     0.014 C 
ENDROOT
BRANCH   1   3
ATOM      3  C   UNL     1     181.719 167.362 172.827  1.00  0.00     0.230 C 
BRANCH   3   4
ATOM      4  N   UNL     1     182.737 166.761 173.703  1.00  0.00    -0.350 N 
ATOM      5  H   UNL     1     182.838 167.327 174.577  1.00  0.00     0.345 HD
ATOM      6  H   UNL     1     183.664 166.695 173.225  1.00  0.00     0.345 HD
ATOM      7  H   UNL     1     182.438 165.796 173.974  1.00  0.00     0.345 HD
ENDBRANCH   3   4
BRANCH   3   8
ATOM      8  C   UNL     1     181.864 166.855 171.412  1.00  0.00     0.099 C 
ATOM      9  O   UNL     1     180.980 166.123 170.894  1.00  0.00    -0.544 OA
ATOM     10  O   UNL     1     183.000 167.175 170.677  1.00  0.00    -0.544 OA
ENDBRANCH   3   8
ENDBRANCH   1   3
BRANCH   1  11
ATOM     11  C   UNL     1     181.798 169.445 174.373  1.00  0.00     0.006 C 
ATOM     12  C   UNL     1     182.976 170.390 174.616  1.00  0.00     0.004 C 
ENDBRANCH   1  11
TORSDOF 4
ENDMDL
MODEL 2
REMARK VINA RESULT:    -4.304     18.902     19.937
REMARK INTER + INTRA:          -5.303
REMARK INTER:                  -5.227
REMARK INTRA:                  -0.076
REMARK UNBOUND:                -0.118
REMARK SMILES CC[C@H](C)[C@H]([NH3+])C(=O)[O-]
REMARK SMILES IDX 3 1 4 2 5 3 6 4 7 8 8 9 9 10 2 11 1 12
REMARK H PARENT 6 5 6 6 6 7
REMARK Flexibility Score: inf
ROOT
ATOM      1  C   UNL     1     166.274 179.077 172.744  1.00  0.00     0.050 C 
ATOM      2  C   UNL     1     167.598 178.415 172.321  1.00  0.00     0.014 C 
ENDROOT
BRANCH   1   3
ATOM      3  C   UNL     1     166.342 180.638 172.723  1.00  0.00     0.230 C 
BRANCH   3   4
ATOM      4  N   UNL     1     165.374 181.243 173.651  1.00  0.00    -0.350 N 
ATOM      5  H   UNL     1     164.641 180.544 173.911  1.00  0.00     0.345 HD
ATOM      6  H   UNL     1     164.916 182.086 173.234  1.00  0.00     0.345 HD
ATOM      7  H   UNL     1     165.867 181.538 174.526  1.00  0.00     0.345 HD
ENDBRANCH   3   4
BRANCH   3   8
ATOM      8  C   UNL     1     166.183 181.214 171.335  1.00  0.00     0.099 C 
ATOM      9  O   UNL     1     167.067 181.962 170.843  1.00  0.00    -0.544 OA
ATOM     10  O   UNL     1     165.037 180.936 170.600  1.00  0.00    -0.544 OA
ENDBRANCH   3   8
ENDBRANCH   1   3
BRANCH   1  11
ATOM     11  C   UNL     1     165.830 178.510 174.117  1.00  0.00     0.006 C 
ATOM     12  C   UNL     1     166.378 177.111 174.402  1.00  0.00     0.004 C 
ENDBRANCH   1  11
TORSDOF 4
ENDMDL
MODEL 3
REMARK VINA RESULT:    -4.298     11.824     12.898
REMARK INTER + INTRA:          -5.295
REMARK INTER:                  -5.214
REMARK INTRA:                  -0.082
REMARK UNBOUND:                -0.118
REMARK SMILES CC[C@H](C)[C@H]([NH3+])C(=O)[O-]
REMARK SMILES IDX 3 1 4 2 5 3 6 4 7 8 8 9 9 10 2 11 1 12
REMARK H PARENT 6 5 6 6 6 7
REMARK Flexibility Score: inf
ROOT
ATOM      1  C   UNL     1     181.693 179.064 175.329  1.00  0.00     0.050 C 
ATOM      2  C   UNL     1     180.289 178.446 175.467  1.00  0.00     0.014 C 
ENDROOT
BRANCH   1   3
ATOM      3  C   UNL     1     181.669 180.627 175.323  1.00  0.00     0.230 C 
BRANCH   3   4
ATOM      4  N   UNL     1     182.670 181.189 174.403  1.00  0.00    -0.350 N 
ATOM      5  H   UNL     1     183.373 181.750 174.937  1.00  0.00     0.345 HD
ATOM      6  H   UNL     1     182.226 181.794 173.675  1.00  0.00     0.345 HD
ATOM      7  H   UNL     1     183.174 180.410 173.919  1.00  0.00     0.345 HD
ENDBRANCH   3   4
BRANCH   3   8
ATOM      8  C   UNL     1     181.819 181.221 176.705  1.00  0.00     0.099 C 
ATOM      9  O   UNL     1     180.944 181.996 177.172  1.00  0.00    -0.544 OA
ATOM     10  O   UNL     1     182.949 180.933 177.461  1.00  0.00    -0.544 OA
ENDBRANCH   3   8
ENDBRANCH   1   3
BRANCH   1  11
ATOM     11  C   UNL     1     182.400 178.466 174.086  1.00  0.00     0.006 C 
ATOM     12  C   UNL     1     181.438 178.130 172.945  1.00  0.00     0.004 C 
ENDBRANCH   1  11
TORSDOF 4
ENDMDL
MODEL 4
REMARK VINA RESULT:    -4.296     15.337     16.330
REMARK INTER + INTRA:          -5.294
REMARK INTER:                  -5.223
REMARK INTRA:                  -0.071
REMARK UNBOUND:                -0.118
REMARK SMILES CC[C@H](C)[C@H]([NH3+])C(=O)[O-]
REMARK SMILES IDX 3 1 4 2 5 3 6 4 7 8 8 9 9 10 2 11 1 12
REMARK H PARENT 6 5 6 6 6 7
REMARK Flexibility Score: inf
ROOT
ATOM      1  C   UNL     1     166.203 169.000 175.294  1.00  0.00     0.050 C 
ATOM      2  C   UNL     1     167.573 169.658 175.540  1.00  0.00     0.014 C 
ENDROOT
BRANCH   1   3
ATOM      3  C   UNL     1     166.272 167.438 175.290  1.00  0.00     0.230 C 
BRANCH   3   4
ATOM      4  N   UNL     1     165.304 166.847 174.354  1.00  0.00    -0.350 N 
ATOM      5  H   UNL     1     164.329 167.095 174.641  1.00  0.00     0.345 HD
ATOM      6  H   UNL     1     165.397 165.807 174.309  1.00  0.00     0.345 HD
ATOM      7  H   UNL     1     165.467 167.232 173.394  1.00  0.00     0.345 HD
ENDBRANCH   3   4
BRANCH   3   8
ATOM      8  C   UNL     1     166.115 166.841 176.669  1.00  0.00     0.099 C 
ATOM      9  O   UNL     1     166.980 166.052 177.132  1.00  0.00    -0.544 OA
ATOM     10  O   UNL     1     164.991 167.143 177.428  1.00  0.00    -0.544 OA
ENDBRANCH   3   8
ENDBRANCH   1   3
BRANCH   1  11
ATOM     11  C   UNL     1     165.578 169.580 173.999  1.00  0.00     0.006 C 
ATOM     12  C   UNL     1     166.208 170.903 173.562  1.00  0.00     0.004 C 
ENDBRANCH   1  11
TORSDOF 4
ENDMDL
MODEL 5
REMARK VINA RESULT:    -4.262      1.540      1.739
REMARK INTER + INTRA:          -5.252
REMARK INTER:                  -5.215
REMARK INTRA:                  -0.037
REMARK UNBOUND:                -0.118
REMARK SMILES CC[C@H](C)[C@H]([NH3+])C(=O)[O-]
REMARK SMILES IDX 3 1 4 2 5 3 6 4 7 8 8 9 9 10 2 11 1 12
REMARK H PARENT 6 5 6 6 6 7
REMARK Flexibility Score: inf
ROOT
ATOM      1  C   UNL     1     182.328 169.091 173.198  1.00  0.00     0.050 C 
ATOM      2  C   UNL     1     181.323 169.471 174.301  1.00  0.00     0.014 C 
ENDROOT
BRANCH   1   3
ATOM      3  C   UNL     1     181.736 168.083 172.160  1.00  0.00     0.230 C 
BRANCH   3   4
ATOM      4  N   UNL     1     181.793 166.696 172.646  1.00  0.00    -0.350 N 
ATOM      5  H   UNL     1     181.631 166.670 173.679  1.00  0.00     0.345 HD
ATOM      6  H   UNL     1     182.714 166.250 172.429  1.00  0.00     0.345 HD
ATOM      7  H   UNL     1     181.041 166.134 172.185  1.00  0.00     0.345 HD
ENDBRANCH   3   4
BRANCH   3   8
ATOM      8  C   UNL     1     182.379 168.199 170.797  1.00  0.00     0.099 C 
ATOM      9  O   UNL     1     181.802 168.815 169.863  1.00  0.00    -0.544 OA
ATOM     10  O   UNL     1     183.609 167.598 170.561  1.00  0.00    -0.544 OA
ENDBRANCH   3   8
ENDBRANCH   1   3
BRANCH   1  11
ATOM     11  C   UNL     1     183.641 168.586 173.849  1.00  0.00     0.006 C 
ATOM     12  C   UNL     1     184.125 169.468 175.001  1.00  0.00     0.004 C 
ENDBRANCH   1  11
TORSDOF 4
ENDMDL
MODEL 6
REMARK VINA RESULT:    -4.261     19.144     20.231
REMARK INTER + INTRA:          -5.251
REMARK INTER:                  -5.204
REMARK INTRA:                  -0.046
REMARK UNBOUND:                -0.118
REMARK SMILES CC[C@H](C)[C@H]([NH3+])C(=O)[O-]
REMARK SMILES IDX 3 1 4 2 5 3 6 4 7 8 8 9 9 10 2 11 1 12
REMARK H PARENT 6 5 6 6 6 7
REMARK Flexibility Score: inf
ROOT
ATOM      1  C   UNL     1     165.677 178.922 173.143  1.00  0.00     0.050 C 
ATOM      2  C   UNL     1     166.737 178.451 174.156  1.00  0.00     0.014 C 
ENDROOT
BRANCH   1   3
ATOM      3  C   UNL     1     166.238 179.957 172.115  1.00  0.00     0.230 C 
BRANCH   3   4
ATOM      4  N   UNL     1     166.164 181.334 172.626  1.00  0.00    -0.350 N 
ATOM      5  H   UNL     1     167.105 181.787 172.576  1.00  0.00     0.345 HD
ATOM      6  H   UNL     1     165.819 181.361 173.613  1.00  0.00     0.345 HD
ATOM      7  H   UNL     1     165.505 181.891 172.034  1.00  0.00     0.345 HD
ENDBRANCH   3   4
BRANCH   3   8
ATOM      8  C   UNL     1     165.579 179.853 170.759  1.00  0.00     0.099 C 
ATOM      9  O   UNL     1     164.440 180.349 170.556  1.00  0.00    -0.544 OA
ATOM     10  O   UNL     1     166.224 179.180 169.728  1.00  0.00    -0.544 OA
ENDBRANCH   3   8
ENDBRANCH   1   3
BRANCH   1  11
ATOM     11  C   UNL     1     164.431 179.441 173.905  1.00  0.00     0.006 C 
ATOM     12  C   UNL     1     163.943 178.485 174.995  1.00  0.00     0.004 C 
ENDBRANCH   1  11
TORSDOF 4
ENDMDL
MODEL 7
REMARK VINA RESULT:    -4.220     18.964     20.052
REMARK INTER + INTRA:          -5.202
REMARK INTER:                  -5.128
REMARK INTRA:                  -0.074
REMARK UNBOUND:                -0.118
REMARK SMILES CC[C@H](C)[C@H]([NH3+])C(=O)[O-]
REMARK SMILES IDX 3 1 4 2 5 3 6 4 7 8 8 9 9 10 2 11 1 12
REMARK H PARENT 6 5 6 6 6 7
REMARK Flexibility Score: inf
ROOT
ATOM      1  C   UNL     1     166.053 178.860 173.751  1.00  0.00     0.050 C 
ATOM      2  C   UNL     1     167.159 178.486 174.755  1.00  0.00     0.014 C 
ENDROOT
BRANCH   1   3
ATOM      3  C   UNL     1     166.176 180.330 173.233  1.00  0.00     0.230 C 
BRANCH   3   4
ATOM      4  N   UNL     1     165.174 181.215 173.848  1.00  0.00    -0.350 N 
ATOM      5  H   UNL     1     164.767 180.761 174.697  1.00  0.00     0.345 HD
ATOM      6  H   UNL     1     164.406 181.449 173.179  1.00  0.00     0.345 HD
ATOM      7  H   UNL     1     165.633 182.107 174.145  1.00  0.00     0.345 HD
ENDBRANCH   3   4
BRANCH   3   8
ATOM      8  C   UNL     1     166.124 180.428 171.727  1.00  0.00     0.099 C 
ATOM      9  O   UNL     1     165.783 181.500 171.161  1.00  0.00    -0.544 OA
ATOM     10  O   UNL     1     166.428 179.315 170.952  1.00  0.00    -0.544 OA
ENDBRANCH   3   8
ENDBRANCH   1   3
BRANCH   1  11
ATOM     11  C   UNL     1     164.667 178.553 174.373  1.00  0.00     0.006 C 
ATOM     12  C   UNL     1     164.609 177.204 175.091  1.00  0.00     0.004 C 
ENDBRANCH   1  11
TORSDOF 4
ENDMDL
MODEL 8
REMARK VINA RESULT:    -4.198     11.754     13.138
REMARK INTER + INTRA:          -5.176
REMARK INTER:                  -5.290
REMARK INTRA:                   0.114
REMARK UNBOUND:                -0.118
REMARK SMILES CC[C@H](C)[C@H]([NH3+])C(=O)[O-]
REMARK SMILES IDX 3 1 4 2 5 3 6 4 7 8 8 9 9 10 2 11 1 12
REMARK H PARENT 6 5 6 6 6 7
REMARK Flexibility Score: inf
ROOT
ATOM      1  C   UNL     1     182.534 180.210 175.004  1.00  0.00     0.050 C 
ATOM      2  C   UNL     1     183.807 179.499 175.498  1.00  0.00     0.014 C 
ENDROOT
BRANCH   1   3
ATOM      3  C   UNL     1     181.596 180.655 176.173  1.00  0.00     0.230 C 
BRANCH   3   4
ATOM      4  N   UNL     1     181.115 182.034 175.997  1.00  0.00    -0.350 N 
ATOM      5  H   UNL     1     181.454 182.636 176.783  1.00  0.00     0.345 HD
ATOM      6  H   UNL     1     180.072 182.076 175.956  1.00  0.00     0.345 HD
ATOM      7  H   UNL     1     181.495 182.424 175.104  1.00  0.00     0.345 HD
ENDBRANCH   3   4
BRANCH   3   8
ATOM      8  C   UNL     1     182.230 180.479 177.533  1.00  0.00     0.099 C 
ATOM      9  O   UNL     1     182.947 181.385 178.033  1.00  0.00    -0.544 OA
ATOM     10  O   UNL     1     182.043 179.293 178.233  1.00  0.00    -0.544 OA
ENDBRANCH   3   8
ENDBRANCH   1   3
BRANCH   1  11
ATOM     11  C   UNL     1     181.816 179.317 173.961  1.00  0.00     0.006 C 
ATOM     12  C   UNL     1     182.468 177.944 173.786  1.00  0.00     0.004 C 
ENDBRANCH   1  11
TORSDOF 4
ENDMDL
MODEL 9
REMARK VINA RESULT:    -4.185     11.120     12.262
REMARK INTER + INTRA:          -5.160
REMARK INTER:                  -5.083
REMARK INTRA:                  -0.077
REMARK UNBOUND:                -0.118
REMARK SMILES CC[C@H](C)[C@H]([NH3+])C(=O)[O-]
REMARK SMILES IDX 3 1 4 2 5 3 6 4 7 8 8 9 9 10 2 11 1 12
REMARK H PARENT 6 5 6 6 6 7
REMARK Flexibility Score: inf
ROOT
ATOM      1  C   UNL     1     182.709 179.828 176.121  1.00  0.00     0.050 C 
ATOM      2  C   UNL     1     183.821 179.656 177.173  1.00  0.00     0.014 C 
ENDROOT
BRANCH   1   3
ATOM      3  C   UNL     1     183.266 179.955 174.666  1.00  0.00     0.230 C 
BRANCH   3   4
ATOM      4  N   UNL     1     182.767 181.162 173.990  1.00  0.00    -0.350 N 
ATOM      5  H   UNL     1     183.148 182.018 174.455  1.00  0.00     0.345 HD
ATOM      6  H   UNL     1     181.722 181.203 173.995  1.00  0.00     0.345 HD
ATOM      7  H   UNL     1     183.089 181.163 172.994  1.00  0.00     0.345 HD
ENDBRANCH   3   4
BRANCH   3   8
ATOM      8  C   UNL     1     183.003 178.726 173.828  1.00  0.00     0.099 C 
ATOM      9  O   UNL     1     183.858 177.805 173.747  1.00  0.00    -0.544 OA
ATOM     10  O   UNL     1     181.815 178.617 173.115  1.00  0.00    -0.544 OA
ENDBRANCH   3   8
ENDBRANCH   1   3
BRANCH   1  11
ATOM     11  C   UNL     1     181.797 181.015 176.524  1.00  0.00     0.006 C 
ATOM     12  C   UNL     1     182.060 181.528 177.941  1.00  0.00     0.004 C 
ENDBRANCH   1  11
TORSDOF 4
ENDMDL
