MODEL 1
REMARK VINA RESULT:    -3.551      0.000      0.000
REMARK INTER + INTRA:          -5.428
REMARK INTER:                  -5.419
REMARK INTRA:                  -0.010
REMARK UNBOUND:                -0.010
REMARK SMILES CC1=CCC[C@@H](C)C(=O)C[C@H](C(C)C)C(=O)C1
REMARK SMILES IDX 8 1 9 2 6 3 7 4 5 5 4 6 3 7 2 8 1 9 10 11 11 12 15 13 16 14
REMARK SMILES IDX 17 15 12 17 13 18 14 19
REMARK H PARENT
REMARK Flexibility Score: 70.00
ROOT
ATOM      1  C   UNL     1      16.114   8.910  25.183  1.00  0.00     0.136 C 
ATOM      2  O   UNL     1      16.532   8.750  24.045  1.00  0.00    -0.299 OA
ENDROOT
BRANCH   1   3
ATOM      3  C   UNL     1      15.374   7.788  25.891  1.00  0.00     0.053 C 
ATOM      4  C   UNL     1      16.266   6.559  26.134  1.00  0.00     0.016 C 
BRANCH   3   5
ATOM      5  C   UNL     1      14.077   7.407  25.147  1.00  0.00     0.015 C 
BRANCH   5   6
ATOM      6  C   UNL     1      12.938   8.430  25.323  1.00  0.00     0.028 C 
BRANCH   6   7
ATOM      7  C   UNL     1      12.656   8.668  26.783  1.00  0.00    -0.028 C 
ATOM      8  C   UNL     1      12.690   9.880  27.387  1.00  0.00    -0.070 CG0
ATOM      9  C   UNL     1      12.449   9.937  28.873  1.00  0.00     0.039 C 
ATOM     10  G   UNL     1      12.937  11.176  26.629  1.00  0.00     0.000 G0
ENDBRANCH   6   7
ENDBRANCH   5   6
ENDBRANCH   3   5
ENDBRANCH   1   3
BRANCH   1  11
ATOM     11  C   UNL     1      16.341  10.239  25.863  1.00  0.00     0.087 C 
BRANCH  11  12
ATOM     12  C   UNL     1      15.277  11.294  25.458  1.00  0.00     0.066 C 
BRANCH  12  13
ATOM     13  C   UNL     1      14.361  11.636  26.625  1.00  0.00     0.140 C 
ATOM     14  O   UNL     1      14.778  12.326  27.545  1.00  0.00    -0.299 OA
BRANCH  13  15
ATOM     15  C   UNL     1      12.919  11.193  26.631  1.00  0.00     0.106 CG0
ATOM     16  G   UNL     1      12.714   9.889  27.389  1.00  0.00     0.000 G0
ENDBRANCH  13  15
ENDBRANCH  12  13
BRANCH  12  17
ATOM     17  C   UNL     1      15.925  12.558  24.814  1.00  0.00    -0.006 C 
ATOM     18  C   UNL     1      14.867  13.611  24.452  1.00  0.00     0.008 C 
ATOM     19  C   UNL     1      17.040  13.197  25.662  1.00  0.00     0.008 C 
ENDBRANCH  12  17
ENDBRANCH  11  12
ENDBRANCH   1  11
TORSDOF 1
ENDMDL
MODEL 2
REMARK VINA RESULT:    -3.472      1.310      1.861
REMARK INTER + INTRA:          -5.308
REMARK INTER:                  -5.240
REMARK INTRA:                  -0.068
REMARK UNBOUND:                -0.010
REMARK SMILES CC1=CCC[C@@H](C)C(=O)C[C@H](C(C)C)C(=O)C1
REMARK SMILES IDX 8 1 9 2 6 3 7 4 5 5 4 6 3 7 2 8 1 9 10 11 11 12 15 13 16 14
REMARK SMILES IDX 17 15 12 17 13 18 14 19
REMARK H PARENT
REMARK Flexibility Score: 70.00
ROOT
ATOM      1  C   UNL     1      16.434  10.307  25.151  1.00  0.00     0.136 C 
ATOM      2  O   UNL     1      16.751  10.668  24.026  1.00  0.00    -0.299 OA
ENDROOT
BRANCH   1   3
ATOM      3  C   UNL     1      16.326   8.827  25.478  1.00  0.00     0.053 C 
ATOM      4  C   UNL     1      17.690   8.118  25.442  1.00  0.00     0.016 C 
BRANCH   3   5
ATOM      5  C   UNL     1      15.297   8.121  24.570  1.00  0.00     0.015 C 
BRANCH   5   6
ATOM      6  C   UNL     1      14.086   7.550  25.333  1.00  0.00     0.028 C 
BRANCH   6   7
ATOM      7  C   UNL     1      12.906   8.480  25.231  1.00  0.00    -0.028 C 
ATOM      8  C   UNL     1      12.590   9.427  26.146  1.00  0.00    -0.070 CG0
ATOM      9  C   UNL     1      11.334  10.231  25.929  1.00  0.00     0.039 C 
ATOM     10  G   UNL     1      13.455   9.726  27.362  1.00  0.00     0.000 G0
ENDBRANCH   6   7
ENDBRANCH   5   6
ENDBRANCH   3   5
ENDBRANCH   1   3
BRANCH   1  11
ATOM     11  C   UNL     1      16.148  11.355  26.200  1.00  0.00     0.087 C 
BRANCH  11  12
ATOM     12  C   UNL     1      14.656  11.783  26.208  1.00  0.00     0.066 C 
BRANCH  12  13
ATOM     13  C   UNL     1      13.914  11.189  27.398  1.00  0.00     0.140 C 
ATOM     14  O   UNL     1      13.643  11.892  28.360  1.00  0.00    -0.299 OA
BRANCH  13  15
ATOM     15  C   UNL     1      13.446   9.754  27.378  1.00  0.00     0.106 CG0
ATOM     16  G   UNL     1      12.602   9.434  26.154  1.00  0.00     0.000 G0
ENDBRANCH  13  15
ENDBRANCH  12  13
BRANCH  12  17
ATOM     17  C   UNL     1      14.493  13.331  26.113  1.00  0.00    -0.006 C 
ATOM     18  C   UNL     1      15.841  14.026  25.871  1.00  0.00     0.008 C 
ATOM     19  C   UNL     1      13.463  13.794  25.067  1.00  0.00     0.008 C 
ENDBRANCH  12  17
ENDBRANCH  11  12
ENDBRANCH   1  11
TORSDOF 1
ENDMDL
MODEL 3
REMARK VINA RESULT:    -3.361      1.624      4.050
REMARK INTER + INTRA:          -5.139
REMARK INTER:                  -5.328
REMARK INTRA:                   0.188
REMARK UNBOUND:                -0.010
REMARK SMILES CC1=CCC[C@@H](C)C(=O)C[C@H](C(C)C)C(=O)C1
REMARK SMILES IDX 8 1 9 2 6 3 7 4 5 5 4 6 3 7 2 8 1 9 10 11 11 12 15 13 16 14
REMARK SMILES IDX 17 15 12 17 13 18 14 19
REMARK H PARENT
REMARK Flexibility Score: 70.00
ROOT
ATOM      1  C   UNL     1      15.036   8.509  26.124  1.00  0.00     0.136 C 
ATOM      2  O   UNL     1      14.857   7.497  26.788  1.00  0.00    -0.299 OA
ENDROOT
BRANCH   1   3
ATOM      3  C   UNL     1      16.347   8.718  25.386  1.00  0.00     0.053 C 
ATOM      4  C   UNL     1      17.399   7.656  25.745  1.00  0.00     0.016 C 
BRANCH   3   5
ATOM      5  C   UNL     1      16.892  10.147  25.595  1.00  0.00     0.015 C 
BRANCH   5   6
ATOM      6  C   UNL     1      16.743  11.055  24.359  1.00  0.00     0.028 C 
BRANCH   6   7
ATOM      7  C   UNL     1      16.637  12.500  24.769  1.00  0.00    -0.028 C 
ATOM      8  C   UNL     1      15.506  13.091  25.222  1.00  0.00    -0.070 CG0
ATOM      9  C   UNL     1      15.551  14.567  25.527  1.00  0.00     0.039 C 
ATOM     10  G   UNL     1      14.209  12.330  25.454  1.00  0.00     0.000 G0
ENDBRANCH   6   7
ENDBRANCH   5   6
ENDBRANCH   3   5
ENDBRANCH   1   3
BRANCH   1  11
ATOM     11  C   UNL     1      13.936   9.542  26.059  1.00  0.00     0.087 C 
BRANCH  11  12
ATOM     12  C   UNL     1      13.936  10.478  27.297  1.00  0.00     0.066 C 
BRANCH  12  13
ATOM     13  C   UNL     1      13.981  11.943  26.887  1.00  0.00     0.140 C 
ATOM     14  O   UNL     1      13.901  12.817  27.738  1.00  0.00    -0.299 OA
BRANCH  13  15
ATOM     15  C   UNL     1      14.192  12.336  25.445  1.00  0.00     0.106 CG0
ATOM     16  G   UNL     1      15.495  13.092  25.232  1.00  0.00     0.000 G0
ENDBRANCH  13  15
ENDBRANCH  12  13
BRANCH  12  17
ATOM     17  C   UNL     1      12.757  10.162  28.267  1.00  0.00    -0.006 C 
ATOM     18  C   UNL     1      11.712   9.251  27.606  1.00  0.00     0.008 C 
ATOM     19  C   UNL     1      13.192   9.573  29.621  1.00  0.00     0.008 C 
ENDBRANCH  12  17
ENDBRANCH  11  12
ENDBRANCH   1  11
TORSDOF 1
ENDMDL
MODEL 4
REMARK VINA RESULT:    -3.321      1.890      4.210
REMARK INTER + INTRA:          -5.078
REMARK INTER:                  -4.967
REMARK INTRA:                  -0.111
REMARK UNBOUND:                -0.010
REMARK SMILES CC1=CCC[C@@H](C)C(=O)C[C@H](C(C)C)C(=O)C1
REMARK SMILES IDX 8 1 9 2 6 3 7 4 5 5 4 6 3 7 2 8 1 9 10 11 11 12 15 13 16 14
REMARK SMILES IDX 17 15 12 17 13 18 14 19
REMARK H PARENT
REMARK Flexibility Score: 70.00
ROOT
ATOM      1  C   UNL     1      15.980  12.112  26.066  1.00  0.00     0.136 C 
ATOM      2  O   UNL     1      17.118  12.445  25.767  1.00  0.00    -0.299 OA
ENDROOT
BRANCH   1   3
ATOM      3  C   UNL     1      15.240  12.832  27.180  1.00  0.00     0.053 C 
ATOM      4  C   UNL     1      15.198  14.355  26.969  1.00  0.00     0.016 C 
BRANCH   3   5
ATOM      5  C   UNL     1      15.812  12.469  28.566  1.00  0.00     0.015 C 
BRANCH   5   6
ATOM      6  C   UNL     1      14.855  11.626  29.431  1.00  0.00     0.028 C 
BRANCH   6   7
ATOM      7  C   UNL     1      13.433  11.782  28.959  1.00  0.00    -0.028 C 
ATOM      8  C   UNL     1      12.747  10.847  28.259  1.00  0.00    -0.070 CG0
ATOM      9  C   UNL     1      11.351  11.187  27.803  1.00  0.00     0.039 C 
ATOM     10  G   UNL     1      13.313   9.472  27.937  1.00  0.00     0.000 G0
ENDBRANCH   6   7
ENDBRANCH   5   6
ENDBRANCH   3   5
ENDBRANCH   1   3
BRANCH   1  11
ATOM     11  C   UNL     1      15.332  10.974  25.313  1.00  0.00     0.087 C 
BRANCH  11  12
ATOM     12  C   UNL     1      15.235   9.685  26.170  1.00  0.00     0.066 C 
BRANCH  12  13
ATOM     13  C   UNL     1      13.790   9.357  26.520  1.00  0.00     0.140 C 
ATOM     14  O   UNL     1      13.033   8.940  25.655  1.00  0.00    -0.299 OA
BRANCH  13  15
ATOM     15  C   UNL     1      13.293   9.473  27.940  1.00  0.00     0.106 CG0
ATOM     16  G   UNL     1      12.750  10.860  28.254  1.00  0.00     0.000 G0
ENDBRANCH  13  15
ENDBRANCH  12  13
BRANCH  12  17
ATOM     17  C   UNL     1      15.978   8.485  25.505  1.00  0.00    -0.006 C 
ATOM     18  C   UNL     1      17.489   8.743  25.408  1.00  0.00     0.008 C 
ATOM     19  C   UNL     1      15.714   7.127  26.179  1.00  0.00     0.008 C 
ENDBRANCH  12  17
ENDBRANCH  11  12
ENDBRANCH   1  11
TORSDOF 1
ENDMDL
MODEL 5
REMARK VINA RESULT:    -3.272      1.307      1.835
REMARK INTER + INTRA:          -5.003
REMARK INTER:                  -4.861
REMARK INTRA:                  -0.142
REMARK UNBOUND:                -0.010
REMARK SMILES CC1=CCC[C@@H](C)C(=O)C[C@H](C(C)C)C(=O)C1
REMARK SMILES IDX 8 1 9 2 6 3 7 4 5 5 4 6 3 7 2 8 1 9 10 11 11 12 15 13 16 14
REMARK SMILES IDX 17 15 12 17 13 18 14 19
REMARK H PARENT
REMARK Flexibility Score: 70.00
ROOT
ATOM      1  C   UNL     1      15.899   9.406  26.143  1.00  0.00     0.136 C 
ATOM      2  O   UNL     1      16.964   9.341  25.544  1.00  0.00    -0.299 OA
ENDROOT
BRANCH   1   3
ATOM      3  C   UNL     1      14.928   8.238  26.107  1.00  0.00     0.053 C 
ATOM      4  C   UNL     1      15.645   6.883  25.986  1.00  0.00     0.016 C 
BRANCH   3   5
ATOM      5  C   UNL     1      13.868   8.418  25.000  1.00  0.00     0.015 C 
BRANCH   5   6
ATOM      6  C   UNL     1      12.422   8.472  25.529  1.00  0.00     0.028 C 
BRANCH   6   7
ATOM      7  C   UNL     1      11.699   9.676  24.983  1.00  0.00    -0.028 C 
ATOM      8  C   UNL     1      11.632  10.880  25.601  1.00  0.00    -0.070 CG0
ATOM      9  C   UNL     1      10.810  11.964  24.952  1.00  0.00     0.039 C 
ATOM     10  G   UNL     1      12.362  11.186  26.901  1.00  0.00     0.000 G0
ENDBRANCH   6   7
ENDBRANCH   5   6
ENDBRANCH   3   5
ENDBRANCH   1   3
BRANCH   1  11
ATOM     11  C   UNL     1      15.569  10.665  26.909  1.00  0.00     0.087 C 
BRANCH  11  12
ATOM     12  C   UNL     1      14.791  11.691  26.042  1.00  0.00     0.066 C 
BRANCH  12  13
ATOM     13  C   UNL     1      13.510  12.142  26.731  1.00  0.00     0.140 C 
ATOM     14  O   UNL     1      13.389  13.305  27.090  1.00  0.00    -0.299 OA
BRANCH  13  15
ATOM     15  C   UNL     1      12.355  11.189  26.916  1.00  0.00     0.106 CG0
ATOM     16  G   UNL     1      11.638  10.883  25.609  1.00  0.00     0.000 G0
ENDBRANCH  13  15
ENDBRANCH  12  13
BRANCH  12  17
ATOM     17  C   UNL     1      15.691  12.888  25.607  1.00  0.00    -0.006 C 
ATOM     18  C   UNL     1      16.742  13.220  26.677  1.00  0.00     0.008 C 
ATOM     19  C   UNL     1      16.370  12.702  24.238  1.00  0.00     0.008 C 
ENDBRANCH  12  17
ENDBRANCH  11  12
ENDBRANCH   1  11
TORSDOF 1
ENDMDL
MODEL 6
REMARK VINA RESULT:    -3.227      1.710      3.888
REMARK INTER + INTRA:          -4.935
REMARK INTER:                  -4.792
REMARK INTRA:                  -0.143
REMARK UNBOUND:                -0.010
REMARK SMILES CC1=CCC[C@@H](C)C(=O)C[C@H](C(C)C)C(=O)C1
REMARK SMILES IDX 8 1 9 2 6 3 7 4 5 5 4 6 3 7 2 8 1 9 10 11 11 12 15 13 16 14
REMARK SMILES IDX 17 15 12 17 13 18 14 19
REMARK H PARENT
REMARK Flexibility Score: 70.00
ROOT
ATOM      1  C   UNL     1      13.167  12.529  26.118  1.00  0.00     0.136 C 
ATOM      2  O   UNL     1      12.818  13.489  26.791  1.00  0.00    -0.299 OA
ENDROOT
BRANCH   1   3
ATOM      3  C   UNL     1      12.322  11.267  26.089  1.00  0.00     0.053 C 
ATOM      4  C   UNL     1      10.897  11.526  25.573  1.00  0.00     0.016 C 
BRANCH   3   5
ATOM      5  C   UNL     1      12.307  10.565  27.463  1.00  0.00     0.015 C 
BRANCH   5   6
ATOM      6  C   UNL     1      13.452   9.550  27.653  1.00  0.00     0.028 C 
BRANCH   6   7
ATOM      7  C   UNL     1      13.646   8.726  26.408  1.00  0.00    -0.028 C 
ATOM      8  C   UNL     1      14.783   8.698  25.672  1.00  0.00    -0.070 CG0
ATOM      9  C   UNL     1      14.791   7.871  24.412  1.00  0.00     0.039 C 
ATOM     10  G   UNL     1      16.048   9.444  26.072  1.00  0.00     0.000 G0
ENDBRANCH   6   7
ENDBRANCH   5   6
ENDBRANCH   3   5
ENDBRANCH   1   3
BRANCH   1  11
ATOM     11  C   UNL     1      14.450  12.622  25.327  1.00  0.00     0.087 C 
BRANCH  11  12
ATOM     12  C   UNL     1      15.660  12.035  26.100  1.00  0.00     0.066 C 
BRANCH  12  13
ATOM     13  C   UNL     1      16.201  10.785  25.419  1.00  0.00     0.140 C 
ATOM     14  O   UNL     1      16.800  10.881  24.357  1.00  0.00    -0.299 OA
BRANCH  13  15
ATOM     15  C   UNL     1      16.069   9.431  26.071  1.00  0.00     0.106 CG0
ATOM     16  G   UNL     1      14.787   8.715  25.672  1.00  0.00     0.000 G0
ENDBRANCH  13  15
ENDBRANCH  12  13
BRANCH  12  17
ATOM     17  C   UNL     1      16.765  13.105  26.355  1.00  0.00    -0.006 C 
ATOM     18  C   UNL     1      17.006  13.972  25.110  1.00  0.00     0.008 C 
ATOM     19  C   UNL     1      16.507  14.000  27.581  1.00  0.00     0.008 C 
ENDBRANCH  12  17
ENDBRANCH  11  12
ENDBRANCH   1  11
TORSDOF 1
ENDMDL
MODEL 7
REMARK VINA RESULT:    -3.146      2.382      4.211
REMARK INTER + INTRA:          -4.811
REMARK INTER:                  -4.653
REMARK INTRA:                  -0.158
REMARK UNBOUND:                -0.010
REMARK SMILES CC1=CCC[C@@H](C)C(=O)C[C@H](C(C)C)C(=O)C1
REMARK SMILES IDX 8 1 9 2 6 3 7 4 5 5 4 6 3 7 2 8 1 9 10 11 11 12 15 13 16 14
REMARK SMILES IDX 17 15 12 17 13 18 14 19
REMARK H PARENT
REMARK Flexibility Score: 70.00
ROOT
ATOM      1  C   UNL     1      12.272  12.695  24.995  1.00  0.00     0.136 C 
ATOM      2  O   UNL     1      11.160  13.204  25.040  1.00  0.00    -0.299 OA
ENDROOT
BRANCH   1   3
ATOM      3  C   UNL     1      12.479  11.266  25.466  1.00  0.00     0.053 C 
ATOM      4  C   UNL     1      11.485  10.285  24.821  1.00  0.00     0.016 C 
BRANCH   3   5
ATOM      5  C   UNL     1      12.451  11.169  27.006  1.00  0.00     0.015 C 
BRANCH   5   6
ATOM      6  C   UNL     1      13.829  10.890  27.636  1.00  0.00     0.028 C 
BRANCH   6   7
ATOM      7  C   UNL     1      14.697  10.101  26.691  1.00  0.00    -0.028 C 
ATOM      8  C   UNL     1      15.785  10.593  26.051  1.00  0.00    -0.070 CG0
ATOM      9  C   UNL     1      16.506   9.690  25.084  1.00  0.00     0.039 C 
ATOM     10  G   UNL     1      16.316  12.000  26.282  1.00  0.00     0.000 G0
ENDBRANCH   6   7
ENDBRANCH   5   6
ENDBRANCH   3   5
ENDBRANCH   1   3
BRANCH   1  11
ATOM     11  C   UNL     1      13.427  13.514  24.470  1.00  0.00     0.087 C 
BRANCH  11  12
ATOM     12  C   UNL     1      14.504  13.772  25.557  1.00  0.00     0.066 C 
BRANCH  12  13
ATOM     13  C   UNL     1      15.781  12.993  25.271  1.00  0.00     0.140 C 
ATOM     14  O   UNL     1      16.411  13.212  24.246  1.00  0.00    -0.299 OA
BRANCH  13  15
ATOM     15  C   UNL     1      16.320  11.999  26.270  1.00  0.00     0.106 CG0
ATOM     16  G   UNL     1      15.788  10.593  26.036  1.00  0.00     0.000 G0
ENDBRANCH  13  15
ENDBRANCH  12  13
BRANCH  12  17
ATOM     17  C   UNL     1      14.766  15.294  25.769  1.00  0.00    -0.006 C 
ATOM     18  C   UNL     1      14.151  16.134  24.639  1.00  0.00     0.008 C 
ATOM     19  C   UNL     1      14.305  15.830  27.137  1.00  0.00     0.008 C 
ENDBRANCH  12  17
ENDBRANCH  11  12
ENDBRANCH   1  11
TORSDOF 1
ENDMDL
MODEL 8
REMARK VINA RESULT:    -3.118      2.104      4.372
REMARK INTER + INTRA:          -4.769
REMARK INTER:                  -4.696
REMARK INTRA:                  -0.072
REMARK UNBOUND:                -0.010
REMARK SMILES CC1=CCC[C@@H](C)C(=O)C[C@H](C(C)C)C(=O)C1
REMARK SMILES IDX 8 1 9 2 6 3 7 4 5 5 4 6 3 7 2 8 1 9 10 11 11 12 15 13 16 14
REMARK SMILES IDX 17 15 12 17 13 18 14 19
REMARK H PARENT
REMARK Flexibility Score: 70.00
ROOT
ATOM      1  C   UNL     1      15.677  11.506  25.663  1.00  0.00     0.136 C 
ATOM      2  O   UNL     1      16.584  10.777  25.289  1.00  0.00    -0.299 OA
ENDROOT
BRANCH   1   3
ATOM      3  C   UNL     1      15.925  12.990  25.872  1.00  0.00     0.053 C 
ATOM      4  C   UNL     1      17.029  13.536  24.952  1.00  0.00     0.016 C 
BRANCH   3   5
ATOM      5  C   UNL     1      16.213  13.312  27.354  1.00  0.00     0.015 C 
BRANCH   5   6
ATOM      6  C   UNL     1      14.985  13.833  28.126  1.00  0.00     0.028 C 
BRANCH   6   7
ATOM      7  C   UNL     1      14.807  13.077  29.416  1.00  0.00    -0.028 C 
ATOM      8  C   UNL     1      13.925  12.066  29.601  1.00  0.00    -0.070 CG0
ATOM      9  C   UNL     1      13.823  11.458  30.976  1.00  0.00     0.039 C 
ATOM     10  G   UNL     1      13.056  11.509  28.482  1.00  0.00     0.000 G0
ENDBRANCH   6   7
ENDBRANCH   5   6
ENDBRANCH   3   5
ENDBRANCH   1   3
BRANCH   1  11
ATOM     11  C   UNL     1      14.315  10.904  25.918  1.00  0.00     0.087 C 
BRANCH  11  12
ATOM     12  C   UNL     1      14.363   9.772  26.977  1.00  0.00     0.066 C 
BRANCH  12  13
ATOM     13  C   UNL     1      13.435  10.066  28.148  1.00  0.00     0.140 C 
ATOM     14  O   UNL     1      13.036   9.150  28.853  1.00  0.00    -0.299 OA
BRANCH  13  15
ATOM     15  C   UNL     1      13.054  11.484  28.495  1.00  0.00     0.106 CG0
ATOM     16  G   UNL     1      13.912  12.061  29.610  1.00  0.00     0.000 G0
ENDBRANCH  13  15
ENDBRANCH  12  13
BRANCH  12  17
ATOM     17  C   UNL     1      14.105   8.370  26.344  1.00  0.00    -0.006 C 
ATOM     18  C   UNL     1      13.082   8.448  25.201  1.00  0.00     0.008 C 
ATOM     19  C   UNL     1      15.378   7.648  25.867  1.00  0.00     0.008 C 
ENDBRANCH  12  17
ENDBRANCH  11  12
ENDBRANCH   1  11
TORSDOF 1
ENDMDL
MODEL 9
REMARK VINA RESULT:    -2.925      8.475     10.283
REMARK INTER + INTRA:          -4.474
REMARK INTER:                  -4.252
REMARK INTRA:                  -0.222
REMARK UNBOUND:                -0.010
REMARK SMILES CC1=CCC[C@@H](C)C(=O)C[C@H](C(C)C)C(=O)C1
REMARK SMILES IDX 8 1 9 2 6 3 7 4 5 5 4 6 3 7 2 8 1 9 10 11 11 12 15 13 16 14
REMARK SMILES IDX 17 15 12 17 13 18 14 19
REMARK H PARENT
REMARK Flexibility Score: 70.00
ROOT
ATOM      1  C   UNL     1      14.073   6.174  18.348  1.00  0.00     0.136 C 
ATOM      2  O   UNL     1      13.998   7.250  17.772  1.00  0.00    -0.299 OA
ENDROOT
BRANCH   1   3
ATOM      3  C   UNL     1      14.951   5.067  17.791  1.00  0.00     0.053 C 
ATOM      4  C   UNL     1      16.448   5.403  17.885  1.00  0.00     0.016 C 
BRANCH   3   5
ATOM      5  C   UNL     1      14.544   4.693  16.351  1.00  0.00     0.015 C 
BRANCH   5   6
ATOM      6  C   UNL     1      13.520   3.544  16.273  1.00  0.00     0.028 C 
BRANCH   6   7
ATOM      7  C   UNL     1      13.858   2.461  17.265  1.00  0.00    -0.028 C 
ATOM      8  C   UNL     1      13.103   2.142  18.343  1.00  0.00    -0.070 CG0
ATOM      9  C   UNL     1      13.619   1.076  19.276  1.00  0.00     0.039 C 
ATOM     10  G   UNL     1      11.760   2.792  18.637  1.00  0.00     0.000 G0
ENDBRANCH   6   7
ENDBRANCH   5   6
ENDBRANCH   3   5
ENDBRANCH   1   3
BRANCH   1  11
ATOM     11  C   UNL     1      13.273   5.968  19.613  1.00  0.00     0.087 C 
BRANCH  11  12
ATOM     12  C   UNL     1      11.883   5.339  19.332  1.00  0.00     0.066 C 
BRANCH  12  13
ATOM     13  C   UNL     1      11.855   3.863  19.706  1.00  0.00     0.140 C 
ATOM     14  O   UNL     1      11.855   3.532  20.883  1.00  0.00    -0.299 OA
BRANCH  13  15
ATOM     15  C   UNL     1      11.758   2.798  18.641  1.00  0.00     0.106 CG0
ATOM     16  G   UNL     1      13.101   2.147  18.345  1.00  0.00     0.000 G0
ENDBRANCH  13  15
ENDBRANCH  12  13
BRANCH  12  17
ATOM     17  C   UNL     1      10.731   6.148  20.002  1.00  0.00    -0.006 C 
ATOM     18  C   UNL     1      10.950   7.662  19.860  1.00  0.00     0.008 C 
ATOM     19  C   UNL     1       9.323   5.769  19.508  1.00  0.00     0.008 C 
ENDBRANCH  12  17
ENDBRANCH  11  12
ENDBRANCH   1  11
TORSDOF 1
ENDMDL
