MODEL 1
REMARK VINA RESULT:    -4.580      0.000      0.000
REMARK INTER + INTRA:          -9.538
REMARK INTER:                  -8.328
REMARK INTRA:                  -1.210
REMARK UNBOUND:                -1.210
REMARK SMILES CCCCCCCCCCCCCC[C@@H](C)C(=O)[O-]
REMARK SMILES IDX 9 1 10 2 11 3 12 4 13 5 14 6 15 7 16 8 17 9 18 10 19 11 8 12
REMARK SMILES IDX 7 13 6 14 5 15 4 16 3 17 2 18 1 19
REMARK H PARENT
REMARK Flexibility Score: inf
ROOT
ATOM      1  C   UNL     1       9.217  -1.941  39.997  1.00  0.00     0.000 C 
ENDROOT
BRANCH   1   2
ATOM      2  C   UNL     1       9.472  -2.913  41.163  1.00  0.00     0.000 C 
BRANCH   2   3
ATOM      3  C   UNL     1       8.417  -2.800  42.275  1.00  0.00     0.000 C 
BRANCH   3   4
ATOM      4  C   UNL     1       7.896  -4.171  42.735  1.00  0.00     0.000 C 
BRANCH   4   5
ATOM      5  C   UNL     1       8.759  -5.337  42.225  1.00  0.00     0.001 C 
BRANCH   5   6
ATOM      6  C   UNL     1       7.883  -6.537  41.836  1.00  0.00     0.009 C 
BRANCH   6   7
ATOM      7  C   UNL     1       8.513  -7.891  42.233  1.00  0.00     0.032 C 
ATOM      8  C   UNL     1       9.032  -7.889  43.676  1.00  0.00     0.014 C 
BRANCH   7   9
ATOM      9  C   UNL     1       7.502  -8.990  42.063  1.00  0.00     0.044 C 
ATOM     10  O   UNL     1       6.964  -9.189  40.942  1.00  0.00    -0.550 OA
ATOM     11  O   UNL     1       7.156  -9.797  43.141  1.00  0.00    -0.550 OA
ENDBRANCH   7   9
ENDBRANCH   6   7
ENDBRANCH   5   6
ENDBRANCH   4   5
ENDBRANCH   3   4
ENDBRANCH   2   3
ENDBRANCH   1   2
BRANCH   1  12
ATOM     12  C   UNL     1       7.816  -2.087  39.366  1.00  0.00     0.000 C 
BRANCH  12  13
ATOM     13  C   UNL     1       7.623  -3.457  38.695  1.00  0.00    -0.000 C 
BRANCH  13  14
ATOM     14  C   UNL     1       8.699  -3.766  37.640  1.00  0.00    -0.000 C 
BRANCH  14  15
ATOM     15  C   UNL     1       8.157  -3.803  36.195  1.00  0.00    -0.000 C 
BRANCH  15  16
ATOM     16  C   UNL     1       6.745  -3.202  36.084  1.00  0.00    -0.000 C 
BRANCH  16  17
ATOM     17  C   UNL     1       6.757  -1.790  35.461  1.00  0.00    -0.000 C 
BRANCH  17  18
ATOM     18  C   UNL     1       5.627  -1.555  34.445  1.00  0.00    -0.003 C 
ATOM     19  C   UNL     1       5.317  -0.077  34.225  1.00  0.00     0.004 C 
ENDBRANCH  17  18
ENDBRANCH  16  17
ENDBRANCH  15  16
ENDBRANCH  14  15
ENDBRANCH  13  14
ENDBRANCH  12  13
ENDBRANCH   1  12
TORSDOF 14
ENDMDL
MODEL 2
REMARK VINA RESULT:    -4.541      3.717      7.635
REMARK INTER + INTRA:          -9.467
REMARK INTER:                  -8.131
REMARK INTRA:                  -1.337
REMARK UNBOUND:                -1.210
REMARK SMILES CCCCCCCCCCCCCC[C@@H](C)C(=O)[O-]
REMARK SMILES IDX 9 1 10 2 11 3 12 4 13 5 14 6 15 7 16 8 17 9 18 10 19 11 8 12
REMARK SMILES IDX 7 13 6 14 5 15 4 16 3 17 2 18 1 19
REMARK H PARENT
REMARK Flexibility Score: inf
ROOT
ATOM      1  C   UNL     1       9.107  -2.582  42.018  1.00  0.00     0.000 C 
ENDROOT
BRANCH   1   2
ATOM      2  C   UNL     1       8.347  -1.422  41.352  1.00  0.00     0.000 C 
BRANCH   2   3
ATOM      3  C   UNL     1       8.721  -1.234  39.873  1.00  0.00     0.000 C 
BRANCH   3   4
ATOM      4  C   UNL     1       8.354  -2.454  39.011  1.00  0.00     0.000 C 
BRANCH   4   5
ATOM      5  C   UNL     1       6.849  -2.535  38.707  1.00  0.00     0.001 C 
BRANCH   5   6
ATOM      6  C   UNL     1       6.603  -3.162  37.327  1.00  0.00     0.009 C 
BRANCH   6   7
ATOM      7  C   UNL     1       7.434  -2.492  36.210  1.00  0.00     0.032 C 
ATOM      8  C   UNL     1       7.988  -3.512  35.207  1.00  0.00     0.014 C 
BRANCH   7   9
ATOM      9  C   UNL     1       6.588  -1.483  35.485  1.00  0.00     0.044 C 
ATOM     10  O   UNL     1       5.946  -1.818  34.453  1.00  0.00    -0.550 OA
ATOM     11  O   UNL     1       6.506  -0.174  35.947  1.00  0.00    -0.550 OA
ENDBRANCH   7   9
ENDBRANCH   6   7
ENDBRANCH   5   6
ENDBRANCH   4   5
ENDBRANCH   3   4
ENDBRANCH   2   3
ENDBRANCH   1   2
BRANCH   1  12
ATOM     12  C   UNL     1       8.189  -3.583  42.750  1.00  0.00     0.000 C 
BRANCH  12  13
ATOM     13  C   UNL     1       7.855  -4.806  41.879  1.00  0.00    -0.000 C 
BRANCH  13  14
ATOM     14  C   UNL     1       9.097  -5.432  41.221  1.00  0.00    -0.000 C 
BRANCH  14  15
ATOM     15  C   UNL     1       9.128  -6.973  41.295  1.00  0.00    -0.000 C 
BRANCH  15  16
ATOM     16  C   UNL     1       7.782  -7.564  41.750  1.00  0.00    -0.000 C 
BRANCH  16  17
ATOM     17  C   UNL     1       7.961  -8.728  42.747  1.00  0.00    -0.000 C 
BRANCH  17  18
ATOM     18  C   UNL     1       7.144  -9.980  42.386  1.00  0.00    -0.003 C 
ATOM     19  C   UNL     1       6.752 -10.034  40.912  1.00  0.00     0.004 C 
ENDBRANCH  17  18
ENDBRANCH  16  17
ENDBRANCH  15  16
ENDBRANCH  14  15
ENDBRANCH  13  14
ENDBRANCH  12  13
ENDBRANCH   1  12
TORSDOF 14
ENDMDL
MODEL 3
REMARK VINA RESULT:    -4.525      1.688      2.341
REMARK INTER + INTRA:          -9.439
REMARK INTER:                  -7.793
REMARK INTRA:                  -1.646
REMARK UNBOUND:                -1.210
REMARK SMILES CCCCCCCCCCCCCC[C@@H](C)C(=O)[O-]
REMARK SMILES IDX 9 1 10 2 11 3 12 4 13 5 14 6 15 7 16 8 17 9 18 10 19 11 8 12
REMARK SMILES IDX 7 13 6 14 5 15 4 16 3 17 2 18 1 19
REMARK H PARENT
REMARK Flexibility Score: inf
ROOT
ATOM      1  C   UNL     1       8.830  -1.796  41.571  1.00  0.00     0.000 C 
ENDROOT
BRANCH   1   2
ATOM      2  C   UNL     1      10.366  -1.711  41.590  1.00  0.00     0.000 C 
BRANCH   2   3
ATOM      3  C   UNL     1      11.038  -2.900  40.885  1.00  0.00     0.000 C 
BRANCH   3   4
ATOM      4  C   UNL     1      10.861  -4.219  41.655  1.00  0.00     0.000 C 
BRANCH   4   5
ATOM      5  C   UNL     1      10.292  -5.347  40.778  1.00  0.00     0.001 C 
BRANCH   5   6
ATOM      6  C   UNL     1       8.841  -5.666  41.172  1.00  0.00     0.009 C 
BRANCH   6   7
ATOM      7  C   UNL     1       8.601  -5.570  42.695  1.00  0.00     0.032 C 
ATOM      8  C   UNL     1       7.272  -4.882  43.031  1.00  0.00     0.014 C 
BRANCH   7   9
ATOM      9  C   UNL     1       8.623  -6.946  43.300  1.00  0.00     0.044 C 
ATOM     10  O   UNL     1       9.240  -7.881  42.725  1.00  0.00    -0.550 OA
ATOM     11  O   UNL     1       7.964  -7.195  44.499  1.00  0.00    -0.550 OA
ENDBRANCH   7   9
ENDBRANCH   6   7
ENDBRANCH   5   6
ENDBRANCH   4   5
ENDBRANCH   3   4
ENDBRANCH   2   3
ENDBRANCH   1   2
BRANCH   1  12
ATOM     12  C   UNL     1       8.213  -1.522  40.183  1.00  0.00     0.000 C 
BRANCH  12  13
ATOM     13  C   UNL     1       7.466  -2.747  39.630  1.00  0.00    -0.000 C 
BRANCH  13  14
ATOM     14  C   UNL     1       7.496  -2.825  38.094  1.00  0.00    -0.000 C 
BRANCH  14  15
ATOM     15  C   UNL     1       6.251  -2.213  37.417  1.00  0.00    -0.000 C 
BRANCH  15  16
ATOM     16  C   UNL     1       6.397  -0.698  37.184  1.00  0.00    -0.000 C 
BRANCH  16  17
ATOM     17  C   UNL     1       5.331  -0.151  36.212  1.00  0.00    -0.000 C 
BRANCH  17  18
ATOM     18  C   UNL     1       5.830  -0.013  34.764  1.00  0.00    -0.003 C 
ATOM     19  C   UNL     1       5.247  -1.068  33.827  1.00  0.00     0.004 C 
ENDBRANCH  17  18
ENDBRANCH  16  17
ENDBRANCH  15  16
ENDBRANCH  14  15
ENDBRANCH  13  14
ENDBRANCH  12  13
ENDBRANCH   1  12
TORSDOF 14
ENDMDL
MODEL 4
REMARK VINA RESULT:    -4.390      3.193      7.913
REMARK INTER + INTRA:          -9.194
REMARK INTER:                  -8.278
REMARK INTRA:                  -0.916
REMARK UNBOUND:                -1.210
REMARK SMILES CCCCCCCCCCCCCC[C@@H](C)C(=O)[O-]
REMARK SMILES IDX 9 1 10 2 11 3 12 4 13 5 14 6 15 7 16 8 17 9 18 10 19 11 8 12
REMARK SMILES IDX 7 13 6 14 5 15 4 16 3 17 2 18 1 19
REMARK H PARENT
REMARK Flexibility Score: inf
ROOT
ATOM      1  C   UNL     1       8.440  -7.269  41.693  1.00  0.00     0.000 C 
ENDROOT
BRANCH   1   2
ATOM      2  C   UNL     1       7.518  -6.040  41.619  1.00  0.00     0.000 C 
BRANCH   2   3
ATOM      3  C   UNL     1       7.574  -5.174  42.887  1.00  0.00     0.000 C 
BRANCH   3   4
ATOM      4  C   UNL     1       7.975  -3.719  42.593  1.00  0.00     0.000 C 
BRANCH   4   5
ATOM      5  C   UNL     1       8.667  -3.558  41.229  1.00  0.00     0.001 C 
BRANCH   5   6
ATOM      6  C   UNL     1       7.863  -2.621  40.315  1.00  0.00     0.009 C 
BRANCH   6   7
ATOM      7  C   UNL     1       8.316  -2.693  38.840  1.00  0.00     0.032 C 
ATOM      8  C   UNL     1       9.334  -3.815  38.598  1.00  0.00     0.014 C 
BRANCH   7   9
ATOM      9  C   UNL     1       7.121  -2.899  37.952  1.00  0.00     0.044 C 
ATOM     10  O   UNL     1       6.034  -2.314  38.205  1.00  0.00    -0.550 OA
ATOM     11  O   UNL     1       7.205  -3.735  36.843  1.00  0.00    -0.550 OA
ENDBRANCH   7   9
ENDBRANCH   6   7
ENDBRANCH   5   6
ENDBRANCH   4   5
ENDBRANCH   3   4
ENDBRANCH   2   3
ENDBRANCH   1   2
BRANCH   1  12
ATOM     12  C   UNL     1       8.157  -8.182  42.904  1.00  0.00     0.000 C 
BRANCH  12  13
ATOM     13  C   UNL     1       7.489  -9.504  42.488  1.00  0.00    -0.000 C 
BRANCH  13  14
ATOM     14  C   UNL     1       7.059 -10.363  43.690  1.00  0.00    -0.000 C 
BRANCH  14  15
ATOM     15  C   UNL     1       5.856 -11.284  43.395  1.00  0.00    -0.000 C 
BRANCH  15  16
ATOM     16  C   UNL     1       5.292 -11.073  41.978  1.00  0.00    -0.000 C 
BRANCH  16  17
ATOM     17  C   UNL     1       5.738 -12.181  41.000  1.00  0.00    -0.000 C 
BRANCH  17  18
ATOM     18  C   UNL     1       6.271 -11.642  39.662  1.00  0.00    -0.003 C 
ATOM     19  C   UNL     1       7.011 -12.697  38.844  1.00  0.00     0.004 C 
ENDBRANCH  17  18
ENDBRANCH  16  17
ENDBRANCH  15  16
ENDBRANCH  14  15
ENDBRANCH  13  14
ENDBRANCH  12  13
ENDBRANCH   1  12
TORSDOF 14
ENDMDL
MODEL 5
REMARK VINA RESULT:    -4.389      2.431      4.960
REMARK INTER + INTRA:          -9.192
REMARK INTER:                  -7.993
REMARK INTRA:                  -1.199
REMARK UNBOUND:                -1.210
REMARK SMILES CCCCCCCCCCCCCC[C@@H](C)C(=O)[O-]
REMARK SMILES IDX 9 1 10 2 11 3 12 4 13 5 14 6 15 7 16 8 17 9 18 10 19 11 8 12
REMARK SMILES IDX 7 13 6 14 5 15 4 16 3 17 2 18 1 19
REMARK H PARENT
REMARK Flexibility Score: inf
ROOT
ATOM      1  C   UNL     1       8.948  -6.681  41.351  1.00  0.00     0.000 C 
ENDROOT
BRANCH   1   2
ATOM      2  C   UNL     1       8.923  -7.457  42.680  1.00  0.00     0.000 C 
BRANCH   2   3
ATOM      3  C   UNL     1       7.948  -8.645  42.659  1.00  0.00     0.000 C 
BRANCH   3   4
ATOM      4  C   UNL     1       7.824  -9.331  44.029  1.00  0.00     0.000 C 
BRANCH   4   5
ATOM      5  C   UNL     1       6.915 -10.570  43.992  1.00  0.00     0.001 C 
BRANCH   5   6
ATOM      6  C   UNL     1       6.372 -10.809  42.575  1.00  0.00     0.009 C 
BRANCH   6   7
ATOM      7  C   UNL     1       7.081 -11.977  41.854  1.00  0.00     0.032 C 
ATOM      8  C   UNL     1       6.882 -13.314  42.577  1.00  0.00     0.014 C 
BRANCH   7   9
ATOM      9  C   UNL     1       6.571 -12.087  40.444  1.00  0.00     0.044 C 
ATOM     10  O   UNL     1       5.346 -12.288  40.228  1.00  0.00    -0.550 OA
ATOM     11  O   UNL     1       7.444 -11.966  39.369  1.00  0.00    -0.550 OA
ENDBRANCH   7   9
ENDBRANCH   6   7
ENDBRANCH   5   6
ENDBRANCH   4   5
ENDBRANCH   3   4
ENDBRANCH   2   3
ENDBRANCH   1   2
BRANCH   1  12
ATOM     12  C   UNL     1       7.861  -5.589  41.252  1.00  0.00     0.000 C 
BRANCH  12  13
ATOM     13  C   UNL     1       7.510  -4.996  42.627  1.00  0.00    -0.000 C 
BRANCH  13  14
ATOM     14  C   UNL     1       8.093  -3.588  42.840  1.00  0.00    -0.000 C 
BRANCH  14  15
ATOM     15  C   UNL     1       8.873  -3.050  41.622  1.00  0.00    -0.000 C 
BRANCH  15  16
ATOM     16  C   UNL     1       8.332  -1.694  41.133  1.00  0.00    -0.000 C 
BRANCH  16  17
ATOM     17  C   UNL     1       7.876  -1.743  39.660  1.00  0.00    -0.000 C 
BRANCH  17  18
ATOM     18  C   UNL     1       8.588  -2.825  38.831  1.00  0.00    -0.003 C 
ATOM     19  C   UNL     1       7.626  -3.676  38.005  1.00  0.00     0.004 C 
ENDBRANCH  17  18
ENDBRANCH  16  17
ENDBRANCH  15  16
ENDBRANCH  14  15
ENDBRANCH  13  14
ENDBRANCH  12  13
ENDBRANCH   1  12
TORSDOF 14
ENDMDL
MODEL 6
REMARK VINA RESULT:    -4.380      1.644      3.155
REMARK INTER + INTRA:          -9.175
REMARK INTER:                  -7.930
REMARK INTRA:                  -1.245
REMARK UNBOUND:                -1.210
REMARK SMILES CCCCCCCCCCCCCC[C@@H](C)C(=O)[O-]
REMARK SMILES IDX 9 1 10 2 11 3 12 4 13 5 14 6 15 7 16 8 17 9 18 10 19 11 8 12
REMARK SMILES IDX 7 13 6 14 5 15 4 16 3 17 2 18 1 19
REMARK H PARENT
REMARK Flexibility Score: inf
ROOT
ATOM      1  C   UNL     1       9.982  -3.950  41.981  1.00  0.00     0.000 C 
ENDROOT
BRANCH   1   2
ATOM      2  C   UNL     1       9.205  -4.973  41.133  1.00  0.00     0.000 C 
BRANCH   2   3
ATOM      3  C   UNL     1       7.770  -5.199  41.638  1.00  0.00     0.000 C 
BRANCH   3   4
ATOM      4  C   UNL     1       7.513  -6.657  42.051  1.00  0.00     0.000 C 
BRANCH   4   5
ATOM      5  C   UNL     1       8.805  -7.487  42.139  1.00  0.00     0.001 C 
BRANCH   5   6
ATOM      6  C   UNL     1       8.583  -8.904  41.591  1.00  0.00     0.009 C 
BRANCH   6   7
ATOM      7  C   UNL     1       7.152  -9.427  41.847  1.00  0.00     0.032 C 
ATOM      8  C   UNL     1       6.602 -10.222  40.657  1.00  0.00     0.014 C 
BRANCH   7   9
ATOM      9  C   UNL     1       7.140 -10.290  43.078  1.00  0.00     0.044 C 
ATOM     10  O   UNL     1       7.321  -9.777  44.214  1.00  0.00    -0.550 OA
ATOM     11  O   UNL     1       6.927 -11.660  42.972  1.00  0.00    -0.550 OA
ENDBRANCH   7   9
ENDBRANCH   6   7
ENDBRANCH   5   6
ENDBRANCH   4   5
ENDBRANCH   3   4
ENDBRANCH   2   3
ENDBRANCH   1   2
BRANCH   1  12
ATOM     12  C   UNL     1       9.077  -2.928  42.700  1.00  0.00     0.000 C 
BRANCH  12  13
ATOM     13  C   UNL     1       8.938  -1.618  41.907  1.00  0.00    -0.000 C 
BRANCH  13  14
ATOM     14  C   UNL     1       9.086  -1.818  40.388  1.00  0.00    -0.000 C 
BRANCH  14  15
ATOM     15  C   UNL     1       7.816  -1.455  39.589  1.00  0.00    -0.000 C 
BRANCH  15  16
ATOM     16  C   UNL     1       7.149  -2.691  38.958  1.00  0.00    -0.000 C 
BRANCH  16  17
ATOM     17  C   UNL     1       6.509  -2.376  37.589  1.00  0.00    -0.000 C 
BRANCH  17  18
ATOM     18  C   UNL     1       7.384  -2.781  36.392  1.00  0.00    -0.003 C 
ATOM     19  C   UNL     1       8.412  -3.856  36.738  1.00  0.00     0.004 C 
ENDBRANCH  17  18
ENDBRANCH  16  17
ENDBRANCH  15  16
ENDBRANCH  14  15
ENDBRANCH  13  14
ENDBRANCH  12  13
ENDBRANCH   1  12
TORSDOF 14
ENDMDL
MODEL 7
REMARK VINA RESULT:    -4.375      3.443      7.138
REMARK INTER + INTRA:          -9.166
REMARK INTER:                  -7.359
REMARK INTRA:                  -1.807
REMARK UNBOUND:                -1.210
REMARK SMILES CCCCCCCCCCCCCC[C@@H](C)C(=O)[O-]
REMARK SMILES IDX 9 1 10 2 11 3 12 4 13 5 14 6 15 7 16 8 17 9 18 10 19 11 8 12
REMARK SMILES IDX 7 13 6 14 5 15 4 16 3 17 2 18 1 19
REMARK H PARENT
REMARK Flexibility Score: inf
ROOT
ATOM      1  C   UNL     1      10.894  -2.510  42.374  1.00  0.00     0.000 C 
ENDROOT
BRANCH   1   2
ATOM      2  C   UNL     1       9.368  -2.314  42.330  1.00  0.00     0.000 C 
BRANCH   2   3
ATOM      3  C   UNL     1       8.962  -0.871  41.991  1.00  0.00     0.000 C 
BRANCH   3   4
ATOM      4  C   UNL     1       8.195  -0.770  40.663  1.00  0.00     0.000 C 
BRANCH   4   5
ATOM      5  C   UNL     1       8.049  -2.127  39.956  1.00  0.00     0.001 C 
BRANCH   5   6
ATOM      6  C   UNL     1       6.975  -2.060  38.859  1.00  0.00     0.009 C 
BRANCH   6   7
ATOM      7  C   UNL     1       7.540  -2.354  37.452  1.00  0.00     0.032 C 
ATOM      8  C   UNL     1       7.828  -3.846  37.241  1.00  0.00     0.014 C 
BRANCH   7   9
ATOM      9  C   UNL     1       6.571  -1.877  36.407  1.00  0.00     0.044 C 
ATOM     10  O   UNL     1       6.011  -0.754  36.527  1.00  0.00    -0.550 OA
ATOM     11  O   UNL     1       6.286  -2.668  35.299  1.00  0.00    -0.550 OA
ENDBRANCH   7   9
ENDBRANCH   6   7
ENDBRANCH   5   6
ENDBRANCH   4   5
ENDBRANCH   3   4
ENDBRANCH   2   3
ENDBRANCH   1   2
BRANCH   1  12
ATOM     12  C   UNL     1      11.348  -3.923  41.952  1.00  0.00     0.000 C 
BRANCH  12  13
ATOM     13  C   UNL     1      10.632  -4.406  40.680  1.00  0.00    -0.000 C 
BRANCH  13  14
ATOM     14  C   UNL     1       9.807  -5.686  40.905  1.00  0.00    -0.000 C 
BRANCH  14  15
ATOM     15  C   UNL     1       8.292  -5.494  40.681  1.00  0.00    -0.000 C 
BRANCH  15  16
ATOM     16  C   UNL     1       7.463  -5.896  41.914  1.00  0.00    -0.000 C 
BRANCH  16  17
ATOM     17  C   UNL     1       8.330  -6.025  43.185  1.00  0.00    -0.000 C 
BRANCH  17  18
ATOM     18  C   UNL     1       8.035  -7.291  44.006  1.00  0.00    -0.003 C 
ATOM     19  C   UNL     1       8.356  -8.580  43.253  1.00  0.00     0.004 C 
ENDBRANCH  17  18
ENDBRANCH  16  17
ENDBRANCH  15  16
ENDBRANCH  14  15
ENDBRANCH  13  14
ENDBRANCH  12  13
ENDBRANCH   1  12
TORSDOF 14
ENDMDL
MODEL 8
REMARK VINA RESULT:    -4.350      3.521      6.781
REMARK INTER + INTRA:          -9.121
REMARK INTER:                  -7.133
REMARK INTRA:                  -1.988
REMARK UNBOUND:                -1.210
REMARK SMILES CCCCCCCCCCCCCC[C@@H](C)C(=O)[O-]
REMARK SMILES IDX 9 1 10 2 11 3 12 4 13 5 14 6 15 7 16 8 17 9 18 10 19 11 8 12
REMARK SMILES IDX 7 13 6 14 5 15 4 16 3 17 2 18 1 19
REMARK H PARENT
REMARK Flexibility Score: inf
ROOT
ATOM      1  C   UNL     1       8.963   0.107  43.843  1.00  0.00     0.000 C 
ENDROOT
BRANCH   1   2
ATOM      2  C   UNL     1       8.885  -1.044  42.824  1.00  0.00     0.000 C 
BRANCH   2   3
ATOM      3  C   UNL     1       8.756  -0.550  41.375  1.00  0.00     0.000 C 
BRANCH   3   4
ATOM      4  C   UNL     1       8.189  -1.624  40.433  1.00  0.00     0.000 C 
BRANCH   4   5
ATOM      5  C   UNL     1       9.118  -2.842  40.292  1.00  0.00     0.001 C 
BRANCH   5   6
ATOM      6  C   UNL     1       8.310  -4.148  40.283  1.00  0.00     0.009 C 
BRANCH   6   7
ATOM      7  C   UNL     1       8.871  -5.204  41.260  1.00  0.00     0.032 C 
ATOM      8  C   UNL     1       9.854  -4.598  42.270  1.00  0.00     0.014 C 
BRANCH   7   9
ATOM      9  C   UNL     1       7.740  -5.867  41.995  1.00  0.00     0.044 C 
ATOM     10  O   UNL     1       7.421  -7.057  41.728  1.00  0.00    -0.550 OA
ATOM     11  O   UNL     1       7.039  -5.175  42.976  1.00  0.00    -0.550 OA
ENDBRANCH   7   9
ENDBRANCH   6   7
ENDBRANCH   5   6
ENDBRANCH   4   5
ENDBRANCH   3   4
ENDBRANCH   2   3
ENDBRANCH   1   2
BRANCH   1  12
ATOM     12  C   UNL     1       8.601  -0.316  45.282  1.00  0.00     0.000 C 
BRANCH  12  13
ATOM     13  C   UNL     1       9.832  -0.342  46.205  1.00  0.00    -0.000 C 
BRANCH  13  14
ATOM     14  C   UNL     1      10.810   0.813  45.932  1.00  0.00    -0.000 C 
BRANCH  14  15
ATOM     15  C   UNL     1      12.266   0.352  45.708  1.00  0.00    -0.000 C 
BRANCH  15  16
ATOM     16  C   UNL     1      12.692   0.453  44.232  1.00  0.00    -0.000 C 
BRANCH  16  17
ATOM     17  C   UNL     1      12.618  -0.909  43.509  1.00  0.00    -0.000 C 
BRANCH  17  18
ATOM     18  C   UNL     1      12.382  -0.789  41.994  1.00  0.00    -0.003 C 
ATOM     19  C   UNL     1      12.610  -2.101  41.247  1.00  0.00     0.004 C 
ENDBRANCH  17  18
ENDBRANCH  16  17
ENDBRANCH  15  16
ENDBRANCH  14  15
ENDBRANCH  13  14
ENDBRANCH  12  13
ENDBRANCH   1  12
TORSDOF 14
ENDMDL
MODEL 9
REMARK VINA RESULT:    -4.315      2.821      7.845
REMARK INTER + INTRA:          -9.057
REMARK INTER:                  -7.819
REMARK INTRA:                  -1.239
REMARK UNBOUND:                -1.210
REMARK SMILES CCCCCCCCCCCCCC[C@@H](C)C(=O)[O-]
REMARK SMILES IDX 9 1 10 2 11 3 12 4 13 5 14 6 15 7 16 8 17 9 18 10 19 11 8 12
REMARK SMILES IDX 7 13 6 14 5 15 4 16 3 17 2 18 1 19
REMARK H PARENT
REMARK Flexibility Score: inf
ROOT
ATOM      1  C   UNL     1       8.391  -6.493  41.619  1.00  0.00     0.000 C 
ENDROOT
BRANCH   1   2
ATOM      2  C   UNL     1       7.523  -5.252  41.893  1.00  0.00     0.000 C 
BRANCH   2   3
ATOM      3  C   UNL     1       8.244  -4.194  42.743  1.00  0.00     0.000 C 
BRANCH   3   4
ATOM      4  C   UNL     1       9.063  -3.210  41.892  1.00  0.00     0.000 C 
BRANCH   4   5
ATOM      5  C   UNL     1       8.235  -2.005  41.417  1.00  0.00     0.001 C 
BRANCH   5   6
ATOM      6  C   UNL     1       8.315  -1.854  39.890  1.00  0.00     0.009 C 
BRANCH   6   7
ATOM      7  C   UNL     1       7.600  -2.998  39.139  1.00  0.00     0.032 C 
ATOM      8  C   UNL     1       6.464  -2.485  38.245  1.00  0.00     0.014 C 
BRANCH   7   9
ATOM      9  C   UNL     1       8.594  -3.756  38.304  1.00  0.00     0.044 C 
ATOM     10  O   UNL     1       9.487  -4.452  38.857  1.00  0.00    -0.550 OA
ATOM     11  O   UNL     1       8.534  -3.697  36.916  1.00  0.00    -0.550 OA
ENDBRANCH   7   9
ENDBRANCH   6   7
ENDBRANCH   5   6
ENDBRANCH   4   5
ENDBRANCH   3   4
ENDBRANCH   2   3
ENDBRANCH   1   2
BRANCH   1  12
ATOM     12  C   UNL     1       8.597  -7.388  42.858  1.00  0.00     0.000 C 
BRANCH  12  13
ATOM     13  C   UNL     1       7.879  -8.741  42.722  1.00  0.00    -0.000 C 
BRANCH  13  14
ATOM     14  C   UNL     1       7.338  -8.993  41.303  1.00  0.00    -0.000 C 
BRANCH  14  15
ATOM     15  C   UNL     1       7.315 -10.483  40.904  1.00  0.00    -0.000 C 
BRANCH  15  16
ATOM     16  C   UNL     1       5.884 -11.043  40.815  1.00  0.00    -0.000 C 
BRANCH  16  17
ATOM     17  C   UNL     1       5.669 -12.253  41.750  1.00  0.00    -0.000 C 
BRANCH  17  18
ATOM     18  C   UNL     1       4.875 -11.914  43.023  1.00  0.00    -0.003 C 
ATOM     19  C   UNL     1       5.757 -11.411  44.163  1.00  0.00     0.004 C 
ENDBRANCH  17  18
ENDBRANCH  16  17
ENDBRANCH  15  16
ENDBRANCH  14  15
ENDBRANCH  13  14
ENDBRANCH  12  13
ENDBRANCH   1  12
TORSDOF 14
ENDMDL
