MODEL 1
REMARK VINA RESULT:    23.706      0.000      0.000
REMARK INTER + INTRA:          26.877
REMARK INTER:                  27.170
REMARK INTRA:                  -0.294
REMARK UNBOUND:                -0.294
REMARK SMILES O=C1C[C@H](c2ccc(O)cc2)Oc2cc(O)cc(O)c21
REMARK SMILES IDX 3 1 4 2 12 3 13 4 14 5 15 6 17 7 18 8 20 9 2 10 1 11 5 12
REMARK SMILES IDX 6 13 11 14 7 15 10 16 8 17 9 18 19 20 16 22
REMARK H PARENT 9 19 19 21 16 23
REMARK Flexibility Score: inf
ROOT
ATOM      1  C   UNL     1      33.187  12.671  42.461  1.00  0.00     0.131 C 
ATOM      2  C   UNL     1      34.718  12.637  42.598  1.00  0.00     0.211 C 
ATOM      3  O   UNL     1      35.323  12.207  41.375  1.00  0.00    -0.484 OA
ATOM      4  C   UNL     1      34.807  11.143  40.626  1.00  0.00     0.138 A 
ATOM      5  C   UNL     1      35.595  10.560  39.629  1.00  0.00     0.093 A 
ATOM      6  C   UNL     1      35.107   9.481  38.887  1.00  0.00     0.123 A 
ATOM      7  C   UNL     1      33.821   8.988  39.139  1.00  0.00     0.093 A 
ATOM      8  C   UNL     1      33.012   9.575  40.123  1.00  0.00     0.133 A 
ATOM      9  C   UNL     1      33.504  10.667  40.871  1.00  0.00     0.102 A 
ATOM     10  C   UNL     1      32.692  11.372  41.891  1.00  0.00     0.174 C 
ATOM     11  O   UNL     1      31.567  10.930  42.251  1.00  0.00    -0.294 OA
ENDROOT
BRANCH   2  12
ATOM     12  C   UNL     1      35.250  13.993  42.990  1.00  0.00    -0.007 A 
ATOM     13  C   UNL     1      36.615  14.171  43.275  1.00  0.00     0.011 A 
ATOM     14  C   UNL     1      34.394  15.107  43.019  1.00  0.00     0.011 A 
ATOM     15  C   UNL     1      37.108  15.436  43.608  1.00  0.00     0.046 A 
ATOM     16  C   UNL     1      34.891  16.371  43.352  1.00  0.00     0.046 A 
ATOM     17  C   UNL     1      36.246  16.539  43.649  1.00  0.00     0.115 A 
BRANCH  17  18
ATOM     18  O   UNL     1      36.727  17.805  43.980  1.00  0.00    -0.508 OA
ATOM     19  H   UNL     1      36.621  18.592  43.352  1.00  0.00     0.293 HD
ENDBRANCH  17  18
ENDBRANCH   2  12
BRANCH   8  20
ATOM     20  O   UNL     1      31.729   9.080  40.347  1.00  0.00    -0.507 OA
ATOM     21  H   UNL     1      31.475   8.129  40.103  1.00  0.00     0.293 HD
ENDBRANCH   8  20
BRANCH   6  22
ATOM     22  O   UNL     1      35.909   8.906  37.904  1.00  0.00    -0.508 OA
ATOM     23  H   UNL     1      35.677   8.981  36.920  1.00  0.00     0.293 HD
ENDBRANCH   6  22
TORSDOF 4
ENDMDL
MODEL 2
REMARK VINA RESULT:    26.493      1.274      2.966
REMARK INTER + INTRA:          30.071
REMARK INTER:                  30.355
REMARK INTRA:                  -0.284
REMARK UNBOUND:                -0.294
REMARK SMILES O=C1C[C@H](c2ccc(O)cc2)Oc2cc(O)cc(O)c21
REMARK SMILES IDX 3 1 4 2 12 3 13 4 14 5 15 6 17 7 18 8 20 9 2 10 1 11 5 12
REMARK SMILES IDX 6 13 11 14 7 15 10 16 8 17 9 18 19 20 16 22
REMARK H PARENT 9 19 19 21 16 23
REMARK Flexibility Score: inf
ROOT
ATOM      1  C   UNL     1      36.385  12.550  41.282  1.00  0.00     0.131 C 
ATOM      2  C   UNL     1      35.096  13.363  41.482  1.00  0.00     0.211 C 
ATOM      3  O   UNL     1      33.986  12.495  41.729  1.00  0.00    -0.484 OA
ATOM      4  C   UNL     1      33.793  11.313  41.004  1.00  0.00     0.138 A 
ATOM      5  C   UNL     1      32.551  10.673  41.054  1.00  0.00     0.093 A 
ATOM      6  C   UNL     1      32.331   9.506  40.319  1.00  0.00     0.123 A 
ATOM      7  C   UNL     1      33.360   8.973  39.534  1.00  0.00     0.093 A 
ATOM      8  C   UNL     1      34.617   9.594  39.489  1.00  0.00     0.133 A 
ATOM      9  C   UNL     1      34.841  10.772  40.235  1.00  0.00     0.102 A 
ATOM     10  C   UNL     1      36.155  11.457  40.278  1.00  0.00     0.174 C 
ATOM     11  O   UNL     1      37.101  11.103  39.523  1.00  0.00    -0.294 OA
ENDROOT
BRANCH   2  12
ATOM     12  C   UNL     1      35.252  14.342  42.619  1.00  0.00    -0.007 A 
ATOM     13  C   UNL     1      34.373  15.432  42.750  1.00  0.00     0.011 A 
ATOM     14  C   UNL     1      36.244  14.142  43.594  1.00  0.00     0.011 A 
ATOM     15  C   UNL     1      34.502  16.319  43.823  1.00  0.00     0.046 A 
ATOM     16  C   UNL     1      36.370  15.030  44.667  1.00  0.00     0.046 A 
ATOM     17  C   UNL     1      35.503  16.121  44.784  1.00  0.00     0.115 A 
BRANCH  17  18
ATOM     18  O   UNL     1      35.641  16.998  45.857  1.00  0.00    -0.508 OA
ATOM     19  H   UNL     1      36.414  17.649  45.912  1.00  0.00     0.293 HD
ENDBRANCH  17  18
ENDBRANCH   2  12
BRANCH   8  20
ATOM     20  O   UNL     1      35.634   9.038  38.714  1.00  0.00    -0.507 OA
ATOM     21  H   UNL     1      35.862   8.052  38.764  1.00  0.00     0.293 HD
ENDBRANCH   8  20
BRANCH   6  22
ATOM     22  O   UNL     1      31.084   8.886  40.373  1.00  0.00    -0.508 OA
ATOM     23  H   UNL     1      30.873   8.181  41.070  1.00  0.00     0.293 HD
ENDBRANCH   6  22
TORSDOF 4
ENDMDL
