MODEL 1
REMARK VINA RESULT:    -4.914      0.000      0.000
REMARK INTER + INTRA:          -5.058
REMARK INTER:                  -5.058
REMARK INTRA:                   0.000
REMARK UNBOUND:                 0.000
REMARK SMILES Nc1ncnc2nc[nH]c12
REMARK SMILES IDX 8 1 7 2 6 3 5 4 4 5 3 6 2 7 10 8 9 9 1 11
REMARK H PARENT 9 10 1 12 1 13
REMARK Flexibility Score: inf
ROOT
ATOM      1  C   UNL     1       1.603  38.015   7.211  1.00  0.00     0.199 A 
ATOM      2  N   UNL     1       0.298  38.316   7.456  1.00  0.00    -0.217 NA
ATOM      3  C   UNL     1       0.372  39.592   7.869  1.00  0.00     0.182 A 
ATOM      4  N   UNL     1      -0.664  40.379   8.246  1.00  0.00    -0.215 NA
ATOM      5  C   UNL     1      -0.390  41.661   8.639  1.00  0.00     0.226 A 
ATOM      6  N   UNL     1       0.901  42.125   8.648  1.00  0.00    -0.217 NA
ATOM      7  C   UNL     1       1.946  41.332   8.269  1.00  0.00     0.152 A 
ATOM      8  C   UNL     1       1.651  40.030   7.872  1.00  0.00     0.127 A 
ATOM      9  N   UNL     1       2.455  39.043   7.456  1.00  0.00    -0.340 N 
ATOM     10  H   UNL     1       3.492  39.051   7.343  1.00  0.00     0.168 HD
ENDROOT
BRANCH   7  11
ATOM     11  N   UNL     1       3.282  41.837   8.287  1.00  0.00    -0.382 N 
ATOM     12  H   UNL     1       4.098  41.224   8.069  1.00  0.00     0.158 HD
ATOM     13  H   UNL     1       3.458  42.839   8.522  1.00  0.00     0.158 HD
ENDBRANCH   7  11
TORSDOF 1
ENDMDL
MODEL 2
REMARK VINA RESULT:    -4.545      0.857      2.967
REMARK INTER + INTRA:          -4.678
REMARK INTER:                  -4.678
REMARK INTRA:                   0.000
REMARK UNBOUND:                 0.000
REMARK SMILES Nc1ncnc2nc[nH]c12
REMARK SMILES IDX 8 1 7 2 6 3 5 4 4 5 3 6 2 7 10 8 9 9 1 11
REMARK H PARENT 9 10 1 12 1 13
REMARK Flexibility Score: inf
ROOT
ATOM      1  C   UNL     1       2.145  42.112   8.756  1.00  0.00     0.199 A 
ATOM      2  N   UNL     1       0.786  42.120   8.852  1.00  0.00    -0.217 NA
ATOM      3  C   UNL     1       0.460  40.907   8.377  1.00  0.00     0.182 A 
ATOM      4  N   UNL     1      -0.789  40.397   8.253  1.00  0.00    -0.215 NA
ATOM      5  C   UNL     1      -0.923  39.135   7.744  1.00  0.00     0.226 A 
ATOM      6  N   UNL     1       0.183  38.413   7.373  1.00  0.00    -0.217 NA
ATOM      7  C   UNL     1       1.443  38.925   7.496  1.00  0.00     0.152 A 
ATOM      8  C   UNL     1       1.563  40.212   8.016  1.00  0.00     0.127 A 
ATOM      9  N   UNL     1       2.649  40.959   8.248  1.00  0.00    -0.340 N 
ATOM     10  H   UNL     1       3.652  40.722   8.083  1.00  0.00     0.168 HD
ENDROOT
BRANCH   7  11
ATOM     11  N   UNL     1       2.579  38.155   7.103  1.00  0.00    -0.382 N 
ATOM     12  H   UNL     1       2.921  38.154   6.117  1.00  0.00     0.158 HD
ATOM     13  H   UNL     1       3.087  37.576   7.809  1.00  0.00     0.158 HD
ENDBRANCH   7  11
TORSDOF 1
ENDMDL
MODEL 3
REMARK VINA RESULT:    -4.224     20.164     21.560
REMARK INTER + INTRA:          -4.348
REMARK INTER:                  -4.348
REMARK INTRA:                   0.000
REMARK UNBOUND:                 0.000
REMARK SMILES Nc1ncnc2nc[nH]c12
REMARK SMILES IDX 8 1 7 2 6 3 5 4 4 5 3 6 2 7 10 8 9 9 1 11
REMARK H PARENT 9 10 1 12 1 13
REMARK Flexibility Score: inf
ROOT
ATOM      1  C   UNL     1      -7.466  24.509  20.326  1.00  0.00     0.199 A 
ATOM      2  N   UNL     1      -7.862  23.210  20.229  1.00  0.00    -0.217 NA
ATOM      3  C   UNL     1      -7.895  23.019  18.900  1.00  0.00     0.182 A 
ATOM      4  N   UNL     1      -8.232  21.877  18.256  1.00  0.00    -0.215 NA
ATOM      5  C   UNL     1      -8.207  21.875  16.888  1.00  0.00     0.226 A 
ATOM      6  N   UNL     1      -7.847  23.005  16.198  1.00  0.00    -0.217 NA
ATOM      7  C   UNL     1      -7.506  24.158  16.846  1.00  0.00     0.152 A 
ATOM      8  C   UNL     1      -7.538  24.143  18.238  1.00  0.00     0.127 A 
ATOM      9  N   UNL     1      -7.260  25.107  19.126  1.00  0.00    -0.340 N 
ATOM     10  H   UNL     1      -6.956  26.089  18.949  1.00  0.00     0.168 HD
ENDROOT
BRANCH   7  11
ATOM     11  N   UNL     1      -7.135  25.322  16.106  1.00  0.00    -0.382 N 
ATOM     12  H   UNL     1      -7.404  25.438  15.104  1.00  0.00     0.158 HD
ATOM     13  H   UNL     1      -6.582  26.079  16.567  1.00  0.00     0.158 HD
ENDBRANCH   7  11
TORSDOF 1
ENDMDL
MODEL 4
REMARK VINA RESULT:    -4.077     12.849     13.842
REMARK INTER + INTRA:          -4.196
REMARK INTER:                  -4.196
REMARK INTRA:                   0.000
REMARK UNBOUND:                 0.000
REMARK SMILES Nc1ncnc2nc[nH]c12
REMARK SMILES IDX 8 1 7 2 6 3 5 4 4 5 3 6 2 7 10 8 9 9 1 11
REMARK H PARENT 9 10 1 12 1 13
REMARK Flexibility Score: inf
ROOT
ATOM      1  C   UNL     1      -2.650  42.112  19.274  1.00  0.00     0.199 A 
ATOM      2  N   UNL     1      -3.984  42.125  19.550  1.00  0.00    -0.217 NA
ATOM      3  C   UNL     1      -4.110  41.094  20.402  1.00  0.00     0.182 A 
ATOM      4  N   UNL     1      -5.253  40.667  20.989  1.00  0.00    -0.215 NA
ATOM      5  C   UNL     1      -5.182  39.593  21.833  1.00  0.00     0.226 A 
ATOM      6  N   UNL     1      -3.982  38.974  22.072  1.00  0.00    -0.217 NA
ATOM      7  C   UNL     1      -2.828  39.404  21.481  1.00  0.00     0.152 A 
ATOM      8  C   UNL     1      -2.916  40.498  20.624  1.00  0.00     0.127 A 
ATOM      9  N   UNL     1      -1.971  41.128  19.916  1.00  0.00    -0.340 N 
ATOM     10  H   UNL     1      -0.949  40.922  19.863  1.00  0.00     0.168 HD
ENDROOT
BRANCH   7  11
ATOM     11  N   UNL     1      -1.589  38.743  21.745  1.00  0.00    -0.382 N 
ATOM     12  H   UNL     1      -0.926  38.502  20.975  1.00  0.00     0.158 HD
ATOM     13  H   UNL     1      -1.331  38.490  22.725  1.00  0.00     0.158 HD
ENDBRANCH   7  11
TORSDOF 1
ENDMDL
MODEL 5
REMARK VINA RESULT:    -3.936     21.056     22.212
REMARK INTER + INTRA:          -4.051
REMARK INTER:                  -4.051
REMARK INTRA:                   0.000
REMARK UNBOUND:                 0.000
REMARK SMILES Nc1ncnc2nc[nH]c12
REMARK SMILES IDX 8 1 7 2 6 3 5 4 4 5 3 6 2 7 10 8 9 9 1 11
REMARK H PARENT 9 10 1 12 1 13
REMARK Flexibility Score: inf
ROOT
ATOM      1  C   UNL     1       6.003  25.935  22.314  1.00  0.00     0.199 A 
ATOM      2  N   UNL     1       5.660  25.215  23.418  1.00  0.00    -0.217 NA
ATOM      3  C   UNL     1       5.233  24.059  22.884  1.00  0.00     0.182 A 
ATOM      4  N   UNL     1       4.770  22.980  23.559  1.00  0.00    -0.215 NA
ATOM      5  C   UNL     1       4.378  21.886  22.836  1.00  0.00     0.226 A 
ATOM      6  N   UNL     1       4.455  21.894  21.466  1.00  0.00    -0.217 NA
ATOM      7  C   UNL     1       4.920  22.981  20.784  1.00  0.00     0.152 A 
ATOM      8  C   UNL     1       5.316  24.086  21.534  1.00  0.00     0.127 A 
ATOM      9  N   UNL     1       5.804  25.271  21.147  1.00  0.00    -0.340 N 
ATOM     10  H   UNL     1       5.992  25.616  20.180  1.00  0.00     0.168 HD
ENDROOT
BRANCH   7  11
ATOM     11  N   UNL     1       4.992  22.966  19.358  1.00  0.00    -0.382 N 
ATOM     12  H   UNL     1       5.893  23.125  18.857  1.00  0.00     0.158 HD
ATOM     13  H   UNL     1       4.130  22.793  18.794  1.00  0.00     0.158 HD
ENDBRANCH   7  11
TORSDOF 1
ENDMDL
MODEL 6
REMARK VINA RESULT:    -3.912     18.974     20.128
REMARK INTER + INTRA:          -4.026
REMARK INTER:                  -4.026
REMARK INTRA:                   0.000
REMARK UNBOUND:                 0.000
REMARK SMILES Nc1ncnc2nc[nH]c12
REMARK SMILES IDX 8 1 7 2 6 3 5 4 4 5 3 6 2 7 10 8 9 9 1 11
REMARK H PARENT 9 10 1 12 1 13
REMARK Flexibility Score: inf
ROOT
ATOM      1  C   UNL     1     -12.805  27.707   7.863  1.00  0.00     0.199 A 
ATOM      2  N   UNL     1     -12.817  27.095   6.647  1.00  0.00    -0.217 NA
ATOM      3  C   UNL     1     -12.370  25.864   6.942  1.00  0.00     0.182 A 
ATOM      4  N   UNL     1     -12.188  24.841   6.073  1.00  0.00    -0.215 NA
ATOM      5  C   UNL     1     -11.721  23.652   6.565  1.00  0.00     0.226 A 
ATOM      6  N   UNL     1     -11.448  23.512   7.902  1.00  0.00    -0.217 NA
ATOM      7  C   UNL     1     -11.630  24.543   8.779  1.00  0.00     0.152 A 
ATOM      8  C   UNL     1     -12.105  25.746   8.263  1.00  0.00     0.127 A 
ATOM      9  N   UNL     1     -12.375  26.907   8.871  1.00  0.00    -0.340 N 
ATOM     10  H   UNL     1     -12.281  27.153   9.882  1.00  0.00     0.168 HD
ENDROOT
BRANCH   7  11
ATOM     11  N   UNL     1     -11.338  24.373  10.167  1.00  0.00    -0.382 N 
ATOM     12  H   UNL     1     -11.094  23.437  10.560  1.00  0.00     0.158 HD
ATOM     13  H   UNL     1     -11.367  25.194  10.811  1.00  0.00     0.158 HD
ENDBRANCH   7  11
TORSDOF 1
ENDMDL
MODEL 7
REMARK VINA RESULT:    -3.875     18.919     19.943
REMARK INTER + INTRA:          -3.988
REMARK INTER:                  -3.988
REMARK INTRA:                   0.000
REMARK UNBOUND:                 0.000
REMARK SMILES Nc1ncnc2nc[nH]c12
REMARK SMILES IDX 8 1 7 2 6 3 5 4 4 5 3 6 2 7 10 8 9 9 1 11
REMARK H PARENT 9 10 1 12 1 13
REMARK Flexibility Score: inf
ROOT
ATOM      1  C   UNL     1     -12.073  24.905   4.898  1.00  0.00     0.199 A 
ATOM      2  N   UNL     1     -11.801  23.951   5.831  1.00  0.00    -0.217 NA
ATOM      3  C   UNL     1     -11.950  24.627   6.982  1.00  0.00     0.182 A 
ATOM      4  N   UNL     1     -11.791  24.134   8.234  1.00  0.00    -0.215 NA
ATOM      5  C   UNL     1     -11.986  24.981   9.290  1.00  0.00     0.226 A 
ATOM      6  N   UNL     1     -12.333  26.291   9.076  1.00  0.00    -0.217 NA
ATOM      7  C   UNL     1     -12.493  26.790   7.815  1.00  0.00     0.152 A 
ATOM      8  C   UNL     1     -12.291  25.915   6.750  1.00  0.00     0.127 A 
ATOM      9  N   UNL     1     -12.376  26.116   5.429  1.00  0.00    -0.340 N 
ATOM     10  H   UNL     1     -12.617  26.993   4.917  1.00  0.00     0.168 HD
ENDROOT
BRANCH   7  11
ATOM     11  N   UNL     1     -12.855  28.157   7.617  1.00  0.00    -0.382 N 
ATOM     12  H   UNL     1     -13.227  28.494   6.701  1.00  0.00     0.158 HD
ATOM     13  H   UNL     1     -12.750  28.843   8.397  1.00  0.00     0.158 HD
ENDBRANCH   7  11
TORSDOF 1
ENDMDL
MODEL 8
REMARK VINA RESULT:    -3.863     21.075     22.064
REMARK INTER + INTRA:          -3.976
REMARK INTER:                  -3.976
REMARK INTRA:                   0.000
REMARK UNBOUND:                 0.000
REMARK SMILES Nc1ncnc2nc[nH]c12
REMARK SMILES IDX 8 1 7 2 6 3 5 4 4 5 3 6 2 7 10 8 9 9 1 11
REMARK H PARENT 9 10 1 12 1 13
REMARK Flexibility Score: inf
ROOT
ATOM      1  C   UNL     1       4.585  22.771  20.225  1.00  0.00     0.199 A 
ATOM      2  N   UNL     1       5.187  22.018  21.187  1.00  0.00    -0.217 NA
ATOM      3  C   UNL     1       5.601  22.949  22.062  1.00  0.00     0.182 A 
ATOM      4  N   UNL     1       6.268  22.730  23.220  1.00  0.00    -0.215 NA
ATOM      5  C   UNL     1       6.608  23.813  23.984  1.00  0.00     0.226 A 
ATOM      6  N   UNL     1       6.276  25.081  23.580  1.00  0.00    -0.217 NA
ATOM      7  C   UNL     1       5.603  25.304  22.412  1.00  0.00     0.152 A 
ATOM      8  C   UNL     1       5.264  24.192  21.646  1.00  0.00     0.127 A 
ATOM      9  N   UNL     1       4.617  24.104  20.477  1.00  0.00    -0.340 N 
ATOM     10  H   UNL     1       4.224  24.871  19.890  1.00  0.00     0.168 HD
ENDROOT
BRANCH   7  11
ATOM     11  N   UNL     1       5.268  26.633  22.012  1.00  0.00    -0.382 N 
ATOM     12  H   UNL     1       5.816  27.456  22.347  1.00  0.00     0.158 HD
ATOM     13  H   UNL     1       4.459  26.798  21.372  1.00  0.00     0.158 HD
ENDBRANCH   7  11
TORSDOF 1
ENDMDL
MODEL 9
REMARK VINA RESULT:    -3.819     19.020     19.921
REMARK INTER + INTRA:          -3.931
REMARK INTER:                  -3.931
REMARK INTRA:                   0.000
REMARK UNBOUND:                 0.000
REMARK SMILES Nc1ncnc2nc[nH]c12
REMARK SMILES IDX 8 1 7 2 6 3 5 4 4 5 3 6 2 7 10 8 9 9 1 11
REMARK H PARENT 9 10 1 12 1 13
REMARK Flexibility Score: inf
ROOT
ATOM      1  C   UNL     1     -11.660  24.864   9.725  1.00  0.00     0.199 A 
ATOM      2  N   UNL     1     -11.499  24.005   8.681  1.00  0.00    -0.217 NA
ATOM      3  C   UNL     1     -11.887  24.753   7.634  1.00  0.00     0.182 A 
ATOM      4  N   UNL     1     -11.920  24.368   6.336  1.00  0.00    -0.215 NA
ATOM      5  C   UNL     1     -12.348  25.275   5.405  1.00  0.00     0.226 A 
ATOM      6  N   UNL     1     -12.729  26.536   5.787  1.00  0.00    -0.217 NA
ATOM      7  C   UNL     1     -12.696  26.925   7.096  1.00  0.00     0.152 A 
ATOM      8  C   UNL     1     -12.259  25.991   8.031  1.00  0.00     0.127 A 
ATOM      9  N   UNL     1     -12.123  26.086   9.360  1.00  0.00    -0.340 N 
ATOM     10  H   UNL     1     -12.323  26.902   9.979  1.00  0.00     0.168 HD
ENDROOT
BRANCH   7  11
ATOM     11  N   UNL     1     -13.098  28.244   7.470  1.00  0.00    -0.382 N 
ATOM     12  H   UNL     1     -12.824  29.077   6.904  1.00  0.00     0.158 HD
ATOM     13  H   UNL     1     -13.678  28.390   8.326  1.00  0.00     0.158 HD
ENDBRANCH   7  11
TORSDOF 1
ENDMDL
