MODEL 1
REMARK VINA RESULT:    14.489      0.000      0.000
REMARK INTER + INTRA:          18.504
REMARK INTER:                  17.877
REMARK INTRA:                   0.627
REMARK UNBOUND:                 0.627
REMARK SMILES C=CCc1ccc(OC)c(OC)c1
REMARK SMILES IDX 7 1 10 2 13 3 4 4 5 5 6 6 8 7 9 8 11 9 12 10 3 11 2 12 1 13
REMARK H PARENT
REMARK Flexibility Score: inf
ROOT
ATOM      1  C   UNL     1      17.676   8.495   8.784  1.00  0.00     0.160 A 
ATOM      2  C   UNL     1      17.269   9.043   7.557  1.00  0.00     0.160 A 
ATOM      3  C   UNL     1      16.638  10.302   7.532  1.00  0.00     0.054 A 
ATOM      4  C   UNL     1      16.419  11.015   8.720  1.00  0.00    -0.040 A 
ATOM      5  C   UNL     1      16.819  10.456   9.941  1.00  0.00     0.008 A 
ATOM      6  C   UNL     1      17.445   9.209   9.975  1.00  0.00     0.051 A 
ENDROOT
BRANCH   1   7
ATOM      7  O   UNL     1      18.303   7.239   8.777  1.00  0.00    -0.493 OA
ATOM      8  C   UNL     1      18.408   6.385   9.912  1.00  0.00     0.278 C 
ENDBRANCH   1   7
BRANCH   2   9
ATOM      9  O   UNL     1      17.507   8.306   6.386  1.00  0.00    -0.493 OA
ATOM     10  C   UNL     1      18.801   7.987   5.882  1.00  0.00     0.278 C 
ENDBRANCH   2   9
BRANCH   4  11
ATOM     11  C   UNL     1      15.717  12.347   8.685  1.00  0.00     0.062 C 
BRANCH  11  12
ATOM     12  C   UNL     1      14.272  12.179   8.308  1.00  0.00    -0.030 C 
ATOM     13  C   UNL     1      13.875  11.230   7.455  1.00  0.00     0.004 C 
ENDBRANCH  11  12
ENDBRANCH   4  11
TORSDOF 4
ENDMDL
MODEL 2
REMARK VINA RESULT:    15.560     13.720     15.387
REMARK INTER + INTRA:          19.826
REMARK INTER:                  19.962
REMARK INTRA:                  -0.136
REMARK UNBOUND:                 0.627
REMARK SMILES C=CCc1ccc(OC)c(OC)c1
REMARK SMILES IDX 7 1 10 2 13 3 4 4 5 5 6 6 8 7 9 8 11 9 12 10 3 11 2 12 1 13
REMARK H PARENT
REMARK Flexibility Score: inf
ROOT
ATOM      1  C   UNL     1      15.449  17.282  20.048  1.00  0.00     0.160 A 
ATOM      2  C   UNL     1      15.494  15.883  20.154  1.00  0.00     0.160 A 
ATOM      3  C   UNL     1      15.463  15.280  21.426  1.00  0.00     0.054 A 
ATOM      4  C   UNL     1      15.379  16.064  22.587  1.00  0.00    -0.040 A 
ATOM      5  C   UNL     1      15.344  17.459  22.472  1.00  0.00     0.008 A 
ATOM      6  C   UNL     1      15.375  18.066  21.214  1.00  0.00     0.051 A 
ENDROOT
BRANCH   1   7
ATOM      7  O   UNL     1      15.481  17.855  18.766  1.00  0.00    -0.493 OA
ATOM      8  C   UNL     1      14.928  19.125  18.437  1.00  0.00     0.278 C 
ENDBRANCH   1   7
BRANCH   2   9
ATOM      9  O   UNL     1      15.573  15.127  18.973  1.00  0.00    -0.493 OA
ATOM     10  C   UNL     1      14.483  14.901  18.085  1.00  0.00     0.278 C 
ENDBRANCH   2   9
BRANCH   4  11
ATOM     11  C   UNL     1      15.375  15.411  23.943  1.00  0.00     0.062 C 
BRANCH  11  12
ATOM     12  C   UNL     1      14.590  16.231  24.928  1.00  0.00    -0.030 C 
ATOM     13  C   UNL     1      15.093  16.569  26.119  1.00  0.00     0.004 C 
ENDBRANCH  11  12
ENDBRANCH   4  11
TORSDOF 4
ENDMDL
MODEL 3
REMARK VINA RESULT:    15.730     14.071     15.624
REMARK INTER + INTRA:          20.036
REMARK INTER:                  20.161
REMARK INTRA:                  -0.125
REMARK UNBOUND:                 0.627
REMARK SMILES C=CCc1ccc(OC)c(OC)c1
REMARK SMILES IDX 7 1 10 2 13 3 4 4 5 5 6 6 8 7 9 8 11 9 12 10 3 11 2 12 1 13
REMARK H PARENT
REMARK Flexibility Score: inf
ROOT
ATOM      1  C   UNL     1      15.493  15.816  20.433  1.00  0.00     0.160 A 
ATOM      2  C   UNL     1      15.408  17.208  20.599  1.00  0.00     0.160 A 
ATOM      3  C   UNL     1      15.126  17.742  21.871  1.00  0.00     0.054 A 
ATOM      4  C   UNL     1      14.936  16.897  22.974  1.00  0.00    -0.040 A 
ATOM      5  C   UNL     1      15.012  15.509  22.798  1.00  0.00     0.008 A 
ATOM      6  C   UNL     1      15.291  14.971  21.540  1.00  0.00     0.051 A 
ENDROOT
BRANCH   1   7
ATOM      7  O   UNL     1      15.776  15.313  19.153  1.00  0.00    -0.493 OA
ATOM      8  C   UNL     1      14.823  14.672  18.310  1.00  0.00     0.278 C 
ENDBRANCH   1   7
BRANCH   2   9
ATOM      9  O   UNL     1      15.608  18.026  19.474  1.00  0.00    -0.493 OA
ATOM     10  C   UNL     1      16.512  19.125  19.427  1.00  0.00     0.278 C 
ENDBRANCH   2   9
BRANCH   4  11
ATOM     11  C   UNL     1      14.606  17.476  24.324  1.00  0.00     0.062 C 
BRANCH  11  12
ATOM     12  C   UNL     1      15.354  16.756  25.411  1.00  0.00    -0.030 C 
ATOM     13  C   UNL     1      14.786  15.779  26.125  1.00  0.00     0.004 C 
ENDBRANCH  11  12
ENDBRANCH   4  11
TORSDOF 4
ENDMDL
MODEL 4
REMARK VINA RESULT:    15.915     16.954     17.630
REMARK INTER + INTRA:          20.264
REMARK INTER:                  17.923
REMARK INTRA:                   2.341
REMARK UNBOUND:                 0.627
REMARK SMILES C=CCc1ccc(OC)c(OC)c1
REMARK SMILES IDX 7 1 10 2 13 3 4 4 5 5 6 6 8 7 9 8 11 9 12 10 3 11 2 12 1 13
REMARK H PARENT
REMARK Flexibility Score: inf
ROOT
ATOM      1  C   UNL     1      32.876   1.333   9.975  1.00  0.00     0.160 A 
ATOM      2  C   UNL     1      32.348   1.798  11.190  1.00  0.00     0.160 A 
ATOM      3  C   UNL     1      32.415   3.170  11.498  1.00  0.00     0.054 A 
ATOM      4  C   UNL     1      32.998   4.077  10.600  1.00  0.00    -0.040 A 
ATOM      5  C   UNL     1      33.531   3.603   9.395  1.00  0.00     0.008 A 
ATOM      6  C   UNL     1      33.469   2.244   9.081  1.00  0.00     0.051 A 
ENDROOT
BRANCH   1   7
ATOM      7  O   UNL     1      32.794  -0.041   9.695  1.00  0.00    -0.493 OA
ATOM      8  C   UNL     1      31.585  -0.731   9.394  1.00  0.00     0.278 C 
ENDBRANCH   1   7
BRANCH   2   9
ATOM      9  O   UNL     1      31.767   0.865  12.065  1.00  0.00    -0.493 OA
ATOM     10  C   UNL     1      30.481   0.282  11.884  1.00  0.00     0.278 C 
ENDBRANCH   2   9
BRANCH   4  11
ATOM     11  C   UNL     1      33.091   5.538  10.952  1.00  0.00     0.062 C 
BRANCH  11  12
ATOM     12  C   UNL     1      32.675   5.770  12.378  1.00  0.00    -0.030 C 
ATOM     13  C   UNL     1      32.667   4.782  13.277  1.00  0.00     0.004 C 
ENDBRANCH  11  12
ENDBRANCH   4  11
TORSDOF 4
ENDMDL
MODEL 5
REMARK VINA RESULT:    16.479     17.020     17.470
REMARK INTER + INTRA:          20.960
REMARK INTER:                  19.872
REMARK INTRA:                   1.088
REMARK UNBOUND:                 0.627
REMARK SMILES C=CCc1ccc(OC)c(OC)c1
REMARK SMILES IDX 7 1 10 2 13 3 4 4 5 5 6 6 8 7 9 8 11 9 12 10 3 11 2 12 1 13
REMARK H PARENT
REMARK Flexibility Score: inf
ROOT
ATOM      1  C   UNL     1      32.454   1.416  10.490  1.00  0.00     0.160 A 
ATOM      2  C   UNL     1      33.057   2.626  10.113  1.00  0.00     0.160 A 
ATOM      3  C   UNL     1      32.982   3.740  10.972  1.00  0.00     0.054 A 
ATOM      4  C   UNL     1      32.315   3.649  12.203  1.00  0.00    -0.040 A 
ATOM      5  C   UNL     1      31.707   2.441  12.567  1.00  0.00     0.008 A 
ATOM      6  C   UNL     1      31.777   1.332  11.722  1.00  0.00     0.051 A 
ENDROOT
BRANCH   1   7
ATOM      7  O   UNL     1      32.546   0.323   9.614  1.00  0.00    -0.493 OA
ATOM      8  C   UNL     1      31.672  -0.800   9.632  1.00  0.00     0.278 C 
ENDBRANCH   1   7
BRANCH   2   9
ATOM      9  O   UNL     1      33.721   2.683   8.876  1.00  0.00    -0.493 OA
ATOM     10  C   UNL     1      34.125   3.886   8.232  1.00  0.00     0.278 C 
ENDBRANCH   2   9
BRANCH   4  11
ATOM     11  C   UNL     1      32.215   4.853  13.101  1.00  0.00     0.062 C 
BRANCH  11  12
ATOM     12  C   UNL     1      32.967   6.017  12.518  1.00  0.00    -0.030 C 
ATOM     13  C   UNL     1      33.007   6.238  11.201  1.00  0.00     0.004 C 
ENDBRANCH  11  12
ENDBRANCH   4  11
TORSDOF 4
ENDMDL
