MODEL 1
REMARK VINA RESULT:    -7.463      0.000      0.000
REMARK INTER + INTRA:         -15.277
REMARK INTER:                 -12.263
REMARK INTRA:                  -3.014
REMARK UNBOUND:                -3.014
REMARK SMILES C[C@@H]1O[C@H](OC[C@@H]2O[C@@H](Oc3c(-c4ccc(O)c(O)c4)oc4cc(O)cc(O)c4c3=O)[C@@H](O)[C@@H](O)[C@H]2O)[C@@H](O)[C@H](O)[C@H]1O
REMARK SMILES IDX 7 1 36 2 34 3 32 4 9 5 8 6 6 7 5 8 4 9 1 10 2 11 42 12 3 13
REMARK SMILES IDX 40 14 38 15 43 16 41 18 39 20 37 22 35 24 10 26 11 27 12 28
REMARK SMILES IDX 30 29 21 30 29 31 31 32 22 33 27 34 23 35 26 36 24 37 13 38
REMARK SMILES IDX 20 39 14 40 18 41 15 42 16 43 19 44 17 46 28 48 25 50 33 52
REMARK H PARENT 43 17 41 19 39 21 37 23 35 25 19 45 17 47 28 49 25 51 33 53
REMARK Flexibility Score: inf
ROOT
ATOM      1  C   UNL     1     133.943 142.237 140.565  1.00  0.00     0.180 C 
ATOM      2  C   UNL     1     135.318 142.827 140.049  1.00  0.00     0.177 C 
ATOM      3  C   UNL     1     136.573 142.401 140.861  1.00  0.00     0.180 C 
ATOM      4  C   UNL     1     136.222 142.616 142.322  1.00  0.00     0.214 C 
ATOM      5  C   UNL     1     134.959 141.809 142.695  1.00  0.00     0.339 C 
ATOM      6  O   UNL     1     133.809 142.330 142.001  1.00  0.00    -0.332 OA
ENDROOT
BRANCH   1   7
ATOM      7  C   UNL     1     132.704 142.981 139.844  1.00  0.00     0.198 C 
BRANCH   7   8
ATOM      8  O   UNL     1     131.858 142.002 139.211  1.00  0.00    -0.347 OA
BRANCH   8   9
ATOM      9  C   UNL     1     130.502 141.900 139.731  1.00  0.00     0.281 C 
ATOM     10  C   UNL     1     128.082 144.174 141.558  1.00  0.00     0.041 C 
ATOM     11  C   UNL     1     128.758 142.835 141.065  1.00  0.00     0.150 C 
ATOM     12  C   UNL     1     127.717 142.024 140.170  1.00  0.00     0.174 C 
ATOM     13  O   UNL     1     130.027 143.070 140.408  1.00  0.00    -0.344 OA
ATOM     14  C   UNL     1     128.108 142.106 138.706  1.00  0.00     0.179 C 
ATOM     15  C   UNL     1     129.551 141.584 138.518  1.00  0.00     0.202 C 
BRANCH  12  16
ATOM     16  O   UNL     1     127.658 140.636 140.538  1.00  0.00    -0.388 OA
ATOM     17  H   UNL     1     126.894 140.540 141.182  1.00  0.00     0.211 HD
ENDBRANCH  12  16
BRANCH  14  18
ATOM     18  O   UNL     1     128.043 143.426 138.297  1.00  0.00    -0.387 OA
ATOM     19  H   UNL     1     128.450 144.029 138.998  1.00  0.00     0.211 HD
ENDBRANCH  14  18
BRANCH  15  20
ATOM     20  O   UNL     1     129.537 140.186 138.296  1.00  0.00    -0.385 OA
ATOM     21  H   UNL     1     130.215 139.825 138.922  1.00  0.00     0.211 HD
ENDBRANCH  15  20
ENDBRANCH   8   9
ENDBRANCH   7   8
ENDBRANCH   1   7
BRANCH   2  22
ATOM     22  O   UNL     1     135.488 142.667 138.654  1.00  0.00    -0.387 OA
ATOM     23  H   UNL     1     136.404 143.001 138.435  1.00  0.00     0.211 HD
ENDBRANCH   2  22
BRANCH   3  24
ATOM     24  O   UNL     1     137.028 141.081 140.683  1.00  0.00    -0.387 OA
ATOM     25  H   UNL     1     136.875 140.635 141.546  1.00  0.00     0.211 HD
ENDBRANCH   3  24
BRANCH   5  26
ATOM     26  O   UNL     1     135.114 140.364 142.464  1.00  0.00    -0.454 OA
BRANCH  26  27
ATOM     27  C   UNL     1     135.215 139.326 143.416  1.00  0.00     0.214 A 
ATOM     28  C   UNL     1     134.103 138.449 143.596  1.00  0.00     0.180 A 
ATOM     29  C   UNL     1     136.348 139.104 144.236  1.00  0.00     0.239 A 
ATOM     30  O   UNL     1     134.124 137.513 144.545  1.00  0.00    -0.452 OA
ATOM     31  C   UNL     1     136.330 138.073 145.207  1.00  0.00     0.111 A 
ATOM     32  O   UNL     1     137.374 139.825 144.108  1.00  0.00    -0.285 OA
ATOM     33  C   UNL     1     135.164 137.292 145.335  1.00  0.00     0.146 A 
ATOM     34  C   UNL     1     137.425 137.795 146.058  1.00  0.00     0.134 A 
ATOM     35  C   UNL     1     135.077 136.300 146.294  1.00  0.00     0.094 A 
ATOM     36  C   UNL     1     137.312 136.782 147.024  1.00  0.00     0.093 A 
ATOM     37  C   UNL     1     136.148 136.039 147.165  1.00  0.00     0.123 A 
BRANCH  28  38
ATOM     38  C   UNL     1     132.909 138.502 142.753  1.00  0.00     0.025 A 
ATOM     39  C   UNL     1     133.005 138.720 141.373  1.00  0.00     0.062 A 
ATOM     40  C   UNL     1     131.652 138.386 143.351  1.00  0.00     0.016 A 
ATOM     41  C   UNL     1     131.860 138.694 140.556  1.00  0.00     0.158 A 
ATOM     42  C   UNL     1     130.499 138.384 142.554  1.00  0.00     0.051 A 
ATOM     43  C   UNL     1     130.594 138.533 141.169  1.00  0.00     0.157 A 
BRANCH  41  44
ATOM     44  O   UNL     1     132.029 138.784 139.177  1.00  0.00    -0.504 OA
ATOM     45  H   UNL     1     131.447 138.270 138.533  1.00  0.00     0.293 HD
ENDBRANCH  41  44
BRANCH  43  46
ATOM     46  O   UNL     1     129.411 138.472 140.418  1.00  0.00    -0.504 OA
ATOM     47  H   UNL     1     128.504 138.282 140.814  1.00  0.00     0.293 HD
ENDBRANCH  43  46
ENDBRANCH  28  38
BRANCH  34  48
ATOM     48  O   UNL     1     138.640 138.474 145.911  1.00  0.00    -0.507 OA
ATOM     49  H   UNL     1     138.642 139.431 145.610  1.00  0.00     0.293 HD
ENDBRANCH  34  48
BRANCH  37  50
ATOM     50  O   UNL     1     136.080 135.032 148.126  1.00  0.00    -0.508 OA
ATOM     51  H   UNL     1     136.325 135.226 149.100  1.00  0.00     0.293 HD
ENDBRANCH  37  50
ENDBRANCH  26  27
ENDBRANCH   5  26
BRANCH   4  52
ATOM     52  O   UNL     1     137.344 142.370 143.155  1.00  0.00    -0.384 OA
ATOM     53  H   UNL     1     137.382 143.198 143.733  1.00  0.00     0.211 HD
ENDBRANCH   4  52
TORSDOF 16
ENDMDL
MODEL 2
REMARK VINA RESULT:    -7.425      1.013      2.029
REMARK INTER + INTRA:         -15.214
REMARK INTER:                 -11.910
REMARK INTRA:                  -3.304
REMARK UNBOUND:                -3.014
REMARK SMILES C[C@@H]1O[C@H](OC[C@@H]2O[C@@H](Oc3c(-c4ccc(O)c(O)c4)oc4cc(O)cc(O)c4c3=O)[C@@H](O)[C@@H](O)[C@H]2O)[C@@H](O)[C@H](O)[C@H]1O
REMARK SMILES IDX 7 1 36 2 34 3 32 4 9 5 8 6 6 7 5 8 4 9 1 10 2 11 42 12 3 13
REMARK SMILES IDX 40 14 38 15 43 16 41 18 39 20 37 22 35 24 10 26 11 27 12 28
REMARK SMILES IDX 30 29 21 30 29 31 31 32 22 33 27 34 23 35 26 36 24 37 13 38
REMARK SMILES IDX 20 39 14 40 18 41 15 42 16 43 19 44 17 46 28 48 25 50 33 52
REMARK H PARENT 43 17 41 19 39 21 37 23 35 25 19 45 17 47 28 49 25 51 33 53
REMARK Flexibility Score: inf
ROOT
ATOM      1  C   UNL     1     133.607 141.968 140.777  1.00  0.00     0.180 C 
ATOM      2  C   UNL     1     134.815 142.753 140.121  1.00  0.00     0.177 C 
ATOM      3  C   UNL     1     136.195 142.548 140.808  1.00  0.00     0.180 C 
ATOM      4  C   UNL     1     135.958 142.741 142.294  1.00  0.00     0.214 C 
ATOM      5  C   UNL     1     134.880 141.756 142.799  1.00  0.00     0.339 C 
ATOM      6  O   UNL     1     133.600 142.074 142.218  1.00  0.00    -0.332 OA
ENDROOT
BRANCH   1   7
ATOM      7  C   UNL     1     132.202 142.492 140.177  1.00  0.00     0.198 C 
BRANCH   7   8
ATOM      8  O   UNL     1     131.244 142.625 141.245  1.00  0.00    -0.347 OA
BRANCH   8   9
ATOM      9  C   UNL     1     129.863 142.842 140.837  1.00  0.00     0.281 C 
ATOM     10  C   UNL     1     127.049 140.730 139.429  1.00  0.00     0.041 C 
ATOM     11  C   UNL     1     127.909 142.016 139.745  1.00  0.00     0.150 C 
ATOM     12  C   UNL     1     127.052 143.006 140.654  1.00  0.00     0.174 C 
ATOM     13  O   UNL     1     129.202 141.687 140.307  1.00  0.00    -0.344 OA
ATOM     14  C   UNL     1     127.570 142.990 142.081  1.00  0.00     0.179 C 
ATOM     15  C   UNL     1     129.072 143.356 142.097  1.00  0.00     0.202 C 
BRANCH  12  16
ATOM     16  O   UNL     1     127.107 144.360 140.176  1.00  0.00    -0.388 OA
ATOM     17  H   UNL     1     127.748 144.851 140.771  1.00  0.00     0.211 HD
ENDBRANCH  12  16
BRANCH  14  18
ATOM     18  O   UNL     1     127.402 141.721 142.605  1.00  0.00    -0.387 OA
ATOM     19  H   UNL     1     128.133 141.107 142.274  1.00  0.00     0.211 HD
ENDBRANCH  14  18
BRANCH  15  20
ATOM     20  O   UNL     1     129.230 144.759 142.199  1.00  0.00    -0.385 OA
ATOM     21  H   UNL     1     129.411 144.922 143.159  1.00  0.00     0.211 HD
ENDBRANCH  15  20
ENDBRANCH   8   9
ENDBRANCH   7   8
ENDBRANCH   1   7
BRANCH   2  22
ATOM     22  O   UNL     1     134.871 142.588 138.717  1.00  0.00    -0.387 OA
ATOM     23  H   UNL     1     134.143 141.949 138.473  1.00  0.00     0.211 HD
ENDBRANCH   2  22
BRANCH   3  24
ATOM     24  O   UNL     1     136.833 141.312 140.597  1.00  0.00    -0.387 OA
ATOM     25  H   UNL     1     136.648 140.782 141.404  1.00  0.00     0.211 HD
ENDBRANCH   3  24
BRANCH   5  26
ATOM     26  O   UNL     1     135.238 140.348 142.566  1.00  0.00    -0.454 OA
BRANCH  26  27
ATOM     27  C   UNL     1     135.284 139.286 143.495  1.00  0.00     0.214 A 
ATOM     28  C   UNL     1     134.171 138.394 143.575  1.00  0.00     0.180 A 
ATOM     29  C   UNL     1     136.360 139.052 144.386  1.00  0.00     0.239 A 
ATOM     30  O   UNL     1     134.136 137.434 144.498  1.00  0.00    -0.452 OA
ATOM     31  C   UNL     1     136.286 137.995 145.326  1.00  0.00     0.111 A 
ATOM     32  O   UNL     1     137.385 139.785 144.348  1.00  0.00    -0.285 OA
ATOM     33  C   UNL     1     135.122 137.201 145.353  1.00  0.00     0.146 A 
ATOM     34  C   UNL     1     137.322 137.704 146.244  1.00  0.00     0.134 A 
ATOM     35  C   UNL     1     134.980 136.183 146.277  1.00  0.00     0.094 A 
ATOM     36  C   UNL     1     137.153 136.665 147.173  1.00  0.00     0.093 A 
ATOM     37  C   UNL     1     135.990 135.908 147.213  1.00  0.00     0.123 A 
BRANCH  28  38
ATOM     38  C   UNL     1     133.038 138.460 142.652  1.00  0.00     0.025 A 
ATOM     39  C   UNL     1     131.811 139.007 143.048  1.00  0.00     0.062 A 
ATOM     40  C   UNL     1     133.175 137.917 141.373  1.00  0.00     0.016 A 
ATOM     41  C   UNL     1     130.750 139.137 142.133  1.00  0.00     0.158 A 
ATOM     42  C   UNL     1     132.119 138.016 140.458  1.00  0.00     0.051 A 
ATOM     43  C   UNL     1     130.916 138.622 140.826  1.00  0.00     0.157 A 
BRANCH  41  44
ATOM     44  O   UNL     1     129.601 139.808 142.545  1.00  0.00    -0.504 OA
ATOM     45  H   UNL     1     129.238 139.719 143.482  1.00  0.00     0.293 HD
ENDBRANCH  41  44
BRANCH  43  46
ATOM     46  O   UNL     1     129.912 138.738 139.853  1.00  0.00    -0.504 OA
ATOM     47  H   UNL     1     129.204 138.039 139.691  1.00  0.00     0.293 HD
ENDBRANCH  43  46
ENDBRANCH  28  38
BRANCH  34  48
ATOM     48  O   UNL     1     138.537 138.398 146.199  1.00  0.00    -0.507 OA
ATOM     49  H   UNL     1     138.709 139.053 145.460  1.00  0.00     0.293 HD
ENDBRANCH  34  48
BRANCH  37  50
ATOM     50  O   UNL     1     135.866 134.876 148.141  1.00  0.00    -0.508 OA
ATOM     51  H   UNL     1     136.697 134.445 148.553  1.00  0.00     0.293 HD
ENDBRANCH  37  50
ENDBRANCH  26  27
ENDBRANCH   5  26
BRANCH   4  52
ATOM     52  O   UNL     1     137.180 142.694 143.013  1.00  0.00    -0.384 OA
ATOM     53  H   UNL     1     136.946 143.143 143.887  1.00  0.00     0.211 HD
ENDBRANCH   4  52
TORSDOF 16
ENDMDL
MODEL 3
REMARK VINA RESULT:    -7.404      6.187     11.681
REMARK INTER + INTRA:         -15.179
REMARK INTER:                 -12.302
REMARK INTRA:                  -2.877
REMARK UNBOUND:                -3.014
REMARK SMILES C[C@@H]1O[C@H](OC[C@@H]2O[C@@H](Oc3c(-c4ccc(O)c(O)c4)oc4cc(O)cc(O)c4c3=O)[C@@H](O)[C@@H](O)[C@H]2O)[C@@H](O)[C@H](O)[C@H]1O
REMARK SMILES IDX 7 1 36 2 34 3 32 4 9 5 8 6 6 7 5 8 4 9 1 10 2 11 42 12 3 13
REMARK SMILES IDX 40 14 38 15 43 16 41 18 39 20 37 22 35 24 10 26 11 27 12 28
REMARK SMILES IDX 30 29 21 30 29 31 31 32 22 33 27 34 23 35 26 36 24 37 13 38
REMARK SMILES IDX 20 39 14 40 18 41 15 42 16 43 19 44 17 46 28 48 25 50 33 52
REMARK H PARENT 43 17 41 19 39 21 37 23 35 25 19 45 17 47 28 49 25 51 33 53
REMARK Flexibility Score: inf
ROOT
ATOM      1  C   UNL     1     140.912 133.496 143.444  1.00  0.00     0.180 C 
ATOM      2  C   UNL     1     141.156 134.747 142.505  1.00  0.00     0.177 C 
ATOM      3  C   UNL     1     140.307 136.006 142.839  1.00  0.00     0.180 C 
ATOM      4  C   UNL     1     138.879 135.520 143.002  1.00  0.00     0.214 C 
ATOM      5  C   UNL     1     138.803 134.433 144.098  1.00  0.00     0.339 C 
ATOM      6  O   UNL     1     139.508 133.249 143.677  1.00  0.00    -0.332 OA
ENDROOT
BRANCH   1   7
ATOM      7  C   UNL     1     141.609 132.179 142.821  1.00  0.00     0.198 C 
BRANCH   7   8
ATOM      8  O   UNL     1     142.210 131.408 143.880  1.00  0.00    -0.347 OA
BRANCH   8   9
ATOM      9  C   UNL     1     141.347 130.424 144.518  1.00  0.00     0.281 C 
ATOM     10  C   UNL     1     139.441 127.330 143.442  1.00  0.00     0.041 C 
ATOM     11  C   UNL     1     139.819 128.606 144.293  1.00  0.00     0.150 C 
ATOM     12  C   UNL     1     140.236 128.148 145.762  1.00  0.00     0.174 C 
ATOM     13  O   UNL     1     140.815 129.428 143.638  1.00  0.00    -0.344 OA
ATOM     14  C   UNL     1     141.738 128.270 145.943  1.00  0.00     0.179 C 
ATOM     15  C   UNL     1     142.186 129.720 145.648  1.00  0.00     0.202 C 
BRANCH  12  16
ATOM     16  O   UNL     1     139.600 128.944 146.776  1.00  0.00    -0.388 OA
ATOM     17  H   UNL     1     139.007 129.599 146.299  1.00  0.00     0.211 HD
ENDBRANCH  12  16
BRANCH  14  18
ATOM     18  O   UNL     1     142.367 127.408 145.063  1.00  0.00    -0.387 OA
ATOM     19  H   UNL     1     142.002 127.535 144.129  1.00  0.00     0.211 HD
ENDBRANCH  14  18
BRANCH  15  20
ATOM     20  O   UNL     1     142.117 130.500 146.827  1.00  0.00    -0.385 OA
ATOM     21  H   UNL     1     141.256 130.246 147.246  1.00  0.00     0.211 HD
ENDBRANCH  15  20
ENDBRANCH   8   9
ENDBRANCH   7   8
ENDBRANCH   1   7
BRANCH   2  22
ATOM     22  O   UNL     1     142.529 135.040 142.337  1.00  0.00    -0.387 OA
ATOM     23  H   UNL     1     142.927 134.276 141.832  1.00  0.00     0.211 HD
ENDBRANCH   2  22
BRANCH   3  24
ATOM     24  O   UNL     1     140.680 136.741 143.979  1.00  0.00    -0.387 OA
ATOM     25  H   UNL     1     141.603 136.465 144.177  1.00  0.00     0.211 HD
ENDBRANCH   3  24
BRANCH   5  26
ATOM     26  O   UNL     1     139.284 134.906 145.406  1.00  0.00    -0.454 OA
BRANCH  26  27
ATOM     27  C   UNL     1     138.886 134.488 146.694  1.00  0.00     0.214 A 
ATOM     28  C   UNL     1     137.929 135.272 147.407  1.00  0.00     0.180 A 
ATOM     29  C   UNL     1     139.396 133.342 147.353  1.00  0.00     0.239 A 
ATOM     30  O   UNL     1     137.594 134.961 148.658  1.00  0.00    -0.452 OA
ATOM     31  C   UNL     1     138.981 133.038 148.673  1.00  0.00     0.111 A 
ATOM     32  O   UNL     1     140.223 132.591 146.769  1.00  0.00    -0.285 OA
ATOM     33  C   UNL     1     138.065 133.904 149.304  1.00  0.00     0.146 A 
ATOM     34  C   UNL     1     139.448 131.911 149.389  1.00  0.00     0.134 A 
ATOM     35  C   UNL     1     137.658 133.678 150.605  1.00  0.00     0.094 A 
ATOM     36  C   UNL     1     139.019 131.704 150.710  1.00  0.00     0.093 A 
ATOM     37  C   UNL     1     138.141 132.579 151.335  1.00  0.00     0.123 A 
BRANCH  28  38
ATOM     38  C   UNL     1     137.250 136.423 146.811  1.00  0.00     0.025 A 
ATOM     39  C   UNL     1     137.950 137.594 146.495  1.00  0.00     0.062 A 
ATOM     40  C   UNL     1     135.870 136.363 146.607  1.00  0.00     0.016 A 
ATOM     41  C   UNL     1     137.308 138.668 145.853  1.00  0.00     0.158 A 
ATOM     42  C   UNL     1     135.211 137.435 145.991  1.00  0.00     0.051 A 
ATOM     43  C   UNL     1     135.916 138.579 145.612  1.00  0.00     0.157 A 
BRANCH  41  44
ATOM     44  O   UNL     1     138.081 139.752 145.444  1.00  0.00    -0.504 OA
ATOM     45  H   UNL     1     137.666 140.622 145.148  1.00  0.00     0.293 HD
ENDBRANCH  41  44
BRANCH  43  46
ATOM     46  O   UNL     1     135.213 139.598 144.954  1.00  0.00    -0.504 OA
ATOM     47  H   UNL     1     134.291 139.907 145.220  1.00  0.00     0.293 HD
ENDBRANCH  43  46
ENDBRANCH  28  38
BRANCH  34  48
ATOM     48  O   UNL     1     140.283 130.968 148.779  1.00  0.00    -0.507 OA
ATOM     49  H   UNL     1     139.923 130.060 148.550  1.00  0.00     0.293 HD
ENDBRANCH  34  48
BRANCH  37  50
ATOM     50  O   UNL     1     137.728 132.331 152.642  1.00  0.00    -0.508 OA
ATOM     51  H   UNL     1     137.987 132.968 153.399  1.00  0.00     0.293 HD
ENDBRANCH  37  50
ENDBRANCH  26  27
ENDBRANCH   5  26
BRANCH   4  52
ATOM     52  O   UNL     1     137.991 136.610 143.193  1.00  0.00    -0.384 OA
ATOM     53  H   UNL     1     138.559 137.410 142.954  1.00  0.00     0.211 HD
ENDBRANCH   4  52
TORSDOF 16
ENDMDL
MODEL 4
REMARK VINA RESULT:    -7.303      6.141     11.597
REMARK INTER + INTRA:         -15.014
REMARK INTER:                 -12.077
REMARK INTRA:                  -2.937
REMARK UNBOUND:                -3.014
REMARK SMILES C[C@@H]1O[C@H](OC[C@@H]2O[C@@H](Oc3c(-c4ccc(O)c(O)c4)oc4cc(O)cc(O)c4c3=O)[C@@H](O)[C@@H](O)[C@H]2O)[C@@H](O)[C@H](O)[C@H]1O
REMARK SMILES IDX 7 1 36 2 34 3 32 4 9 5 8 6 6 7 5 8 4 9 1 10 2 11 42 12 3 13
REMARK SMILES IDX 40 14 38 15 43 16 41 18 39 20 37 22 35 24 10 26 11 27 12 28
REMARK SMILES IDX 30 29 21 30 29 31 31 32 22 33 27 34 23 35 26 36 24 37 13 38
REMARK SMILES IDX 20 39 14 40 18 41 15 42 16 43 19 44 17 46 28 48 25 50 33 52
REMARK H PARENT 43 17 41 19 39 21 37 23 35 25 19 45 17 47 28 49 25 51 33 53
REMARK Flexibility Score: inf
ROOT
ATOM      1  C   UNL     1     140.890 133.636 143.449  1.00  0.00     0.180 C 
ATOM      2  C   UNL     1     140.923 134.906 142.504  1.00  0.00     0.177 C 
ATOM      3  C   UNL     1     139.916 136.034 142.868  1.00  0.00     0.180 C 
ATOM      4  C   UNL     1     138.578 135.351 143.080  1.00  0.00     0.214 C 
ATOM      5  C   UNL     1     138.694 134.268 144.175  1.00  0.00     0.339 C 
ATOM      6  O   UNL     1     139.544 133.194 143.729  1.00  0.00    -0.332 OA
ENDROOT
BRANCH   1   7
ATOM      7  C   UNL     1     141.746 132.430 142.800  1.00  0.00     0.198 C 
BRANCH   7   8
ATOM      8  O   UNL     1     140.995 131.203 142.898  1.00  0.00    -0.347 OA
BRANCH   8   9
ATOM      9  C   UNL     1     141.493 130.228 143.858  1.00  0.00     0.281 C 
ATOM     10  C   UNL     1     143.052 130.319 147.311  1.00  0.00     0.041 C 
ATOM     11  C   UNL     1     142.697 129.782 145.868  1.00  0.00     0.150 C 
ATOM     12  C   UNL     1     141.857 128.435 146.006  1.00  0.00     0.174 C 
ATOM     13  O   UNL     1     142.050 130.788 145.052  1.00  0.00    -0.344 OA
ATOM     14  C   UNL     1     140.400 128.688 145.663  1.00  0.00     0.179 C 
ATOM     15  C   UNL     1     140.292 129.285 144.241  1.00  0.00     0.202 C 
BRANCH  12  16
ATOM     16  O   UNL     1     142.347 127.403 145.134  1.00  0.00    -0.388 OA
ATOM     17  H   UNL     1     142.885 126.775 145.703  1.00  0.00     0.211 HD
ENDBRANCH  12  16
BRANCH  14  18
ATOM     18  O   UNL     1     139.873 129.582 146.576  1.00  0.00    -0.387 OA
ATOM     19  H   UNL     1     138.864 129.590 146.515  1.00  0.00     0.211 HD
ENDBRANCH  14  18
BRANCH  15  20
ATOM     20  O   UNL     1     140.197 128.248 143.283  1.00  0.00    -0.385 OA
ATOM     21  H   UNL     1     139.339 128.414 142.817  1.00  0.00     0.211 HD
ENDBRANCH  15  20
ENDBRANCH   8   9
ENDBRANCH   7   8
ENDBRANCH   1   7
BRANCH   2  22
ATOM     22  O   UNL     1     142.234 135.390 142.290  1.00  0.00    -0.387 OA
ATOM     23  H   UNL     1     142.651 135.501 143.191  1.00  0.00     0.211 HD
ENDBRANCH   2  22
BRANCH   3  24
ATOM     24  O   UNL     1     140.220 136.818 143.997  1.00  0.00    -0.387 OA
ATOM     25  H   UNL     1     140.840 136.274 144.532  1.00  0.00     0.211 HD
ENDBRANCH   3  24
BRANCH   5  26
ATOM     26  O   UNL     1     139.147 134.808 145.467  1.00  0.00    -0.454 OA
BRANCH  26  27
ATOM     27  C   UNL     1     138.735 134.444 146.767  1.00  0.00     0.214 A 
ATOM     28  C   UNL     1     137.805 135.281 147.454  1.00  0.00     0.180 A 
ATOM     29  C   UNL     1     139.206 133.302 147.462  1.00  0.00     0.239 A 
ATOM     30  O   UNL     1     137.459 135.021 148.714  1.00  0.00    -0.452 OA
ATOM     31  C   UNL     1     138.781 133.055 148.790  1.00  0.00     0.111 A 
ATOM     32  O   UNL     1     140.007 132.506 146.903  1.00  0.00    -0.285 OA
ATOM     33  C   UNL     1     137.894 133.970 149.393  1.00  0.00     0.146 A 
ATOM     34  C   UNL     1     139.209 131.936 149.541  1.00  0.00     0.134 A 
ATOM     35  C   UNL     1     137.480 133.798 150.700  1.00  0.00     0.094 A 
ATOM     36  C   UNL     1     138.774 131.784 150.868  1.00  0.00     0.093 A 
ATOM     37  C   UNL     1     137.925 132.707 151.464  1.00  0.00     0.123 A 
BRANCH  28  38
ATOM     38  C   UNL     1     137.165 136.435 146.822  1.00  0.00     0.025 A 
ATOM     39  C   UNL     1     137.893 137.593 146.522  1.00  0.00     0.062 A 
ATOM     40  C   UNL     1     135.792 136.392 146.566  1.00  0.00     0.016 A 
ATOM     41  C   UNL     1     137.290 138.669 145.845  1.00  0.00     0.158 A 
ATOM     42  C   UNL     1     135.172 137.467 145.915  1.00  0.00     0.051 A 
ATOM     43  C   UNL     1     135.907 138.597 145.552  1.00  0.00     0.157 A 
BRANCH  41  44
ATOM     44  O   UNL     1     138.093 139.739 145.455  1.00  0.00    -0.504 OA
ATOM     45  H   UNL     1     138.947 139.970 145.941  1.00  0.00     0.293 HD
ENDBRANCH  41  44
BRANCH  43  46
ATOM     46  O   UNL     1     135.244 139.619 144.858  1.00  0.00    -0.504 OA
ATOM     47  H   UNL     1     135.073 140.537 145.239  1.00  0.00     0.293 HD
ENDBRANCH  43  46
ENDBRANCH  28  38
BRANCH  34  48
ATOM     48  O   UNL     1     140.012 130.946 148.962  1.00  0.00    -0.507 OA
ATOM     49  H   UNL     1     139.910 129.991 149.251  1.00  0.00     0.293 HD
ENDBRANCH  34  48
BRANCH  37  50
ATOM     50  O   UNL     1     137.504 132.514 152.778  1.00  0.00    -0.508 OA
ATOM     51  H   UNL     1     136.803 133.131 153.195  1.00  0.00     0.293 HD
ENDBRANCH  37  50
ENDBRANCH  26  27
ENDBRANCH   5  26
BRANCH   4  52
ATOM     52  O   UNL     1     137.551 136.304 143.302  1.00  0.00    -0.384 OA
ATOM     53  H   UNL     1     136.976 135.859 144.002  1.00  0.00     0.211 HD
ENDBRANCH   4  52
TORSDOF 16
ENDMDL
MODEL 5
REMARK VINA RESULT:    -7.286      5.662     11.145
REMARK INTER + INTRA:         -14.985
REMARK INTER:                 -12.975
REMARK INTRA:                  -2.011
REMARK UNBOUND:                -3.014
REMARK SMILES C[C@@H]1O[C@H](OC[C@@H]2O[C@@H](Oc3c(-c4ccc(O)c(O)c4)oc4cc(O)cc(O)c4c3=O)[C@@H](O)[C@@H](O)[C@H]2O)[C@@H](O)[C@H](O)[C@H]1O
REMARK SMILES IDX 7 1 36 2 34 3 32 4 9 5 8 6 6 7 5 8 4 9 1 10 2 11 42 12 3 13
REMARK SMILES IDX 40 14 38 15 43 16 41 18 39 20 37 22 35 24 10 26 11 27 12 28
REMARK SMILES IDX 30 29 21 30 29 31 31 32 22 33 27 34 23 35 26 36 24 37 13 38
REMARK SMILES IDX 20 39 14 40 18 41 15 42 16 43 19 44 17 46 28 48 25 50 33 52
REMARK H PARENT 43 17 41 19 39 21 37 23 35 25 19 45 17 47 28 49 25 51 33 53
REMARK Flexibility Score: inf
ROOT
ATOM      1  C   UNL     1     137.611 134.143 146.458  1.00  0.00     0.180 C 
ATOM      2  C   UNL     1     136.766 134.921 147.547  1.00  0.00     0.177 C 
ATOM      3  C   UNL     1     135.537 134.152 148.111  1.00  0.00     0.180 C 
ATOM      4  C   UNL     1     134.795 133.604 146.906  1.00  0.00     0.214 C 
ATOM      5  C   UNL     1     135.729 132.712 146.058  1.00  0.00     0.339 C 
ATOM      6  O   UNL     1     136.776 133.504 145.467  1.00  0.00    -0.332 OA
ENDROOT
BRANCH   1   7
ATOM      7  C   UNL     1     138.658 135.142 145.739  1.00  0.00     0.198 C 
BRANCH   7   8
ATOM      8  O   UNL     1     138.511 136.466 146.288  1.00  0.00    -0.347 OA
BRANCH   8   9
ATOM      9  C   UNL     1     137.963 137.471 145.388  1.00  0.00     0.281 C 
ATOM     10  C   UNL     1     135.930 137.481 142.190  1.00  0.00     0.041 C 
ATOM     11  C   UNL     1     136.933 137.988 143.300  1.00  0.00     0.150 C 
ATOM     12  C   UNL     1     136.333 139.297 143.984  1.00  0.00     0.174 C 
ATOM     13  O   UNL     1     137.279 136.947 144.245  1.00  0.00    -0.344 OA
ATOM     14  C   UNL     1     135.827 138.975 145.378  1.00  0.00     0.179 C 
ATOM     15  C   UNL     1     136.968 138.362 146.222  1.00  0.00     0.202 C 
BRANCH  12  16
ATOM     16  O   UNL     1     137.313 140.343 144.096  1.00  0.00    -0.388 OA
ATOM     17  H   UNL     1     137.740 140.437 143.193  1.00  0.00     0.211 HD
ENDBRANCH  12  16
BRANCH  14  18
ATOM     18  O   UNL     1     134.790 138.066 145.280  1.00  0.00    -0.387 OA
ATOM     19  H   UNL     1     133.915 138.506 145.527  1.00  0.00     0.211 HD
ENDBRANCH  14  18
BRANCH  15  20
ATOM     20  O   UNL     1     137.699 139.386 146.870  1.00  0.00    -0.385 OA
ATOM     21  H   UNL     1     138.531 138.944 147.178  1.00  0.00     0.211 HD
ENDBRANCH  15  20
ENDBRANCH   8   9
ENDBRANCH   7   8
ENDBRANCH   1   7
BRANCH   2  22
ATOM     22  O   UNL     1     137.574 135.482 148.563  1.00  0.00    -0.387 OA
ATOM     23  H   UNL     1     137.599 134.820 149.311  1.00  0.00     0.211 HD
ENDBRANCH   2  22
BRANCH   3  24
ATOM     24  O   UNL     1     135.801 133.101 149.009  1.00  0.00    -0.387 OA
ATOM     25  H   UNL     1     134.991 133.020 149.560  1.00  0.00     0.211 HD
ENDBRANCH   3  24
BRANCH   5  26
ATOM     26  O   UNL     1     136.279 131.578 146.817  1.00  0.00    -0.454 OA
BRANCH  26  27
ATOM     27  C   UNL     1     137.275 130.657 146.426  1.00  0.00     0.214 A 
ATOM     28  C   UNL     1     138.271 130.275 147.375  1.00  0.00     0.180 A 
ATOM     29  C   UNL     1     137.374 130.093 145.130  1.00  0.00     0.239 A 
ATOM     30  O   UNL     1     139.277 129.478 147.020  1.00  0.00    -0.452 OA
ATOM     31  C   UNL     1     138.447 129.225 144.814  1.00  0.00     0.111 A 
ATOM     32  O   UNL     1     136.511 130.366 144.253  1.00  0.00    -0.285 OA
ATOM     33  C   UNL     1     139.403 128.948 145.812  1.00  0.00     0.146 A 
ATOM     34  C   UNL     1     138.606 128.626 143.542  1.00  0.00     0.134 A 
ATOM     35  C   UNL     1     140.492 128.140 145.545  1.00  0.00     0.094 A 
ATOM     36  C   UNL     1     139.722 127.809 143.296  1.00  0.00     0.093 A 
ATOM     37  C   UNL     1     140.676 127.568 144.275  1.00  0.00     0.123 A 
BRANCH  28  38
ATOM     38  C   UNL     1     138.234 130.704 148.773  1.00  0.00     0.025 A 
ATOM     39  C   UNL     1     137.456 130.026 149.720  1.00  0.00     0.062 A 
ATOM     40  C   UNL     1     138.950 131.842 149.151  1.00  0.00     0.016 A 
ATOM     41  C   UNL     1     137.485 130.395 151.077  1.00  0.00     0.158 A 
ATOM     42  C   UNL     1     138.969 132.238 150.495  1.00  0.00     0.051 A 
ATOM     43  C   UNL     1     138.249 131.525 151.455  1.00  0.00     0.157 A 
BRANCH  41  44
ATOM     44  O   UNL     1     136.795 129.604 151.992  1.00  0.00    -0.504 OA
ATOM     45  H   UNL     1     135.843 129.804 152.260  1.00  0.00     0.293 HD
ENDBRANCH  41  44
BRANCH  43  46
ATOM     46  O   UNL     1     138.346 131.938 152.792  1.00  0.00    -0.504 OA
ATOM     47  H   UNL     1     139.206 131.936 153.319  1.00  0.00     0.293 HD
ENDBRANCH  43  46
ENDBRANCH  28  38
BRANCH  34  48
ATOM     48  O   UNL     1     137.638 128.789 142.544  1.00  0.00    -0.507 OA
ATOM     49  H   UNL     1     137.770 128.359 141.648  1.00  0.00     0.293 HD
ENDBRANCH  34  48
BRANCH  37  50
ATOM     50  O   UNL     1     141.761 126.740 143.997  1.00  0.00    -0.508 OA
ATOM     51  H   UNL     1     142.481 126.571 144.704  1.00  0.00     0.293 HD
ENDBRANCH  37  50
ENDBRANCH  26  27
ENDBRANCH   5  26
BRANCH   4  52
ATOM     52  O   UNL     1     133.582 132.981 147.298  1.00  0.00    -0.384 OA
ATOM     53  H   UNL     1     133.144 132.762 146.414  1.00  0.00     0.211 HD
ENDBRANCH   4  52
TORSDOF 16
ENDMDL
MODEL 6
REMARK VINA RESULT:    -7.240      4.434     11.878
REMARK INTER + INTRA:         -14.910
REMARK INTER:                 -11.572
REMARK INTRA:                  -3.337
REMARK UNBOUND:                -3.014
REMARK SMILES C[C@@H]1O[C@H](OC[C@@H]2O[C@@H](Oc3c(-c4ccc(O)c(O)c4)oc4cc(O)cc(O)c4c3=O)[C@@H](O)[C@@H](O)[C@H]2O)[C@@H](O)[C@H](O)[C@H]1O
REMARK SMILES IDX 7 1 36 2 34 3 32 4 9 5 8 6 6 7 5 8 4 9 1 10 2 11 42 12 3 13
REMARK SMILES IDX 40 14 38 15 43 16 41 18 39 20 37 22 35 24 10 26 11 27 12 28
REMARK SMILES IDX 30 29 21 30 29 31 31 32 22 33 27 34 23 35 26 36 24 37 13 38
REMARK SMILES IDX 20 39 14 40 18 41 15 42 16 43 19 44 17 46 28 48 25 50 33 52
REMARK H PARENT 43 17 41 19 39 21 37 23 35 25 19 45 17 47 28 49 25 51 33 53
REMARK Flexibility Score: inf
ROOT
ATOM      1  C   UNL     1     138.732 132.630 145.792  1.00  0.00     0.180 C 
ATOM      2  C   UNL     1     140.121 132.499 145.045  1.00  0.00     0.177 C 
ATOM      3  C   UNL     1     140.406 133.586 143.971  1.00  0.00     0.180 C 
ATOM      4  C   UNL     1     139.156 133.671 143.116  1.00  0.00     0.214 C 
ATOM      5  C   UNL     1     137.926 133.996 143.992  1.00  0.00     0.339 C 
ATOM      6  O   UNL     1     137.642 132.899 144.882  1.00  0.00    -0.332 OA
ENDROOT
BRANCH   1   7
ATOM      7  C   UNL     1     138.423 131.295 146.646  1.00  0.00     0.198 C 
BRANCH   7   8
ATOM      8  O   UNL     1     139.362 131.195 147.735  1.00  0.00    -0.347 OA
BRANCH   8   9
ATOM      9  C   UNL     1     138.793 131.266 149.074  1.00  0.00     0.281 C 
ATOM     10  C   UNL     1     137.090 128.871 151.468  1.00  0.00     0.041 C 
ATOM     11  C   UNL     1     137.490 130.240 150.789  1.00  0.00     0.150 C 
ATOM     12  C   UNL     1     138.281 131.133 151.846  1.00  0.00     0.174 C 
ATOM     13  O   UNL     1     138.203 130.048 149.543  1.00  0.00    -0.344 OA
ATOM     14  C   UNL     1     139.759 131.171 151.500  1.00  0.00     0.179 C 
ATOM     15  C   UNL     1     139.946 131.693 150.056  1.00  0.00     0.202 C 
BRANCH  12  16
ATOM     16  O   UNL     1     137.797 132.487 151.877  1.00  0.00    -0.388 OA
ATOM     17  H   UNL     1     138.562 133.060 152.185  1.00  0.00     0.211 HD
ENDBRANCH  12  16
BRANCH  14  18
ATOM     18  O   UNL     1     140.274 129.891 151.594  1.00  0.00    -0.387 OA
ATOM     19  H   UNL     1     141.284 129.922 151.607  1.00  0.00     0.211 HD
ENDBRANCH  14  18
BRANCH  15  20
ATOM     20  O   UNL     1     140.050 133.104 150.059  1.00  0.00    -0.385 OA
ATOM     21  H   UNL     1     139.326 133.408 150.663  1.00  0.00     0.211 HD
ENDBRANCH  15  20
ENDBRANCH   8   9
ENDBRANCH   7   8
ENDBRANCH   1   7
BRANCH   2  22
ATOM     22  O   UNL     1     141.202 132.314 145.938  1.00  0.00    -0.387 OA
ATOM     23  H   UNL     1     141.987 132.032 145.386  1.00  0.00     0.211 HD
ENDBRANCH   2  22
BRANCH   3  24
ATOM     24  O   UNL     1     140.736 134.872 144.439  1.00  0.00    -0.387 OA
ATOM     25  H   UNL     1     141.234 134.725 145.274  1.00  0.00     0.211 HD
ENDBRANCH   3  24
BRANCH   5  26
ATOM     26  O   UNL     1     138.069 135.261 144.731  1.00  0.00    -0.454 OA
BRANCH  26  27
ATOM     27  C   UNL     1     137.217 136.387 144.722  1.00  0.00     0.214 A 
ATOM     28  C   UNL     1     136.242 136.519 145.756  1.00  0.00     0.180 A 
ATOM     29  C   UNL     1     137.243 137.398 143.730  1.00  0.00     0.239 A 
ATOM     30  O   UNL     1     135.361 137.519 145.735  1.00  0.00    -0.452 OA
ATOM     31  C   UNL     1     136.304 138.458 143.772  1.00  0.00     0.111 A 
ATOM     32  O   UNL     1     138.098 137.356 142.804  1.00  0.00    -0.285 OA
ATOM     33  C   UNL     1     135.353 138.471 144.813  1.00  0.00     0.146 A 
ATOM     34  C   UNL     1     136.273 139.500 142.817  1.00  0.00     0.134 A 
ATOM     35  C   UNL     1     134.389 139.458 144.878  1.00  0.00     0.094 A 
ATOM     36  C   UNL     1     135.283 140.492 142.906  1.00  0.00     0.093 A 
ATOM     37  C   UNL     1     134.330 140.480 143.915  1.00  0.00     0.123 A 
BRANCH  28  38
ATOM     38  C   UNL     1     136.167 135.603 146.894  1.00  0.00     0.025 A 
ATOM     39  C   UNL     1     137.156 135.595 147.885  1.00  0.00     0.062 A 
ATOM     40  C   UNL     1     135.115 134.686 146.956  1.00  0.00     0.016 A 
ATOM     41  C   UNL     1     137.039 134.766 149.015  1.00  0.00     0.158 A 
ATOM     42  C   UNL     1     134.998 133.835 148.063  1.00  0.00     0.051 A 
ATOM     43  C   UNL     1     135.945 133.870 149.088  1.00  0.00     0.157 A 
BRANCH  41  44
ATOM     44  O   UNL     1     137.982 134.896 150.031  1.00  0.00    -0.504 OA
ATOM     45  H   UNL     1     137.719 134.927 151.005  1.00  0.00     0.293 HD
ENDBRANCH  41  44
BRANCH  43  46
ATOM     46  O   UNL     1     135.749 133.032 150.195  1.00  0.00    -0.504 OA
ATOM     47  H   UNL     1     136.492 132.535 150.661  1.00  0.00     0.293 HD
ENDBRANCH  43  46
ENDBRANCH  28  38
BRANCH  34  48
ATOM     48  O   UNL     1     137.252 139.590 141.820  1.00  0.00    -0.507 OA
ATOM     49  H   UNL     1     136.987 139.836 140.884  1.00  0.00     0.293 HD
ENDBRANCH  34  48
BRANCH  37  50
ATOM     50  O   UNL     1     133.373 141.490 143.978  1.00  0.00    -0.508 OA
ATOM     51  H   UNL     1     133.559 142.409 143.570  1.00  0.00     0.293 HD
ENDBRANCH  37  50
ENDBRANCH  26  27
ENDBRANCH   5  26
BRANCH   4  52
ATOM     52  O   UNL     1     139.348 134.554 142.022  1.00  0.00    -0.384 OA
ATOM     53  H   UNL     1     139.065 135.447 142.399  1.00  0.00     0.211 HD
ENDBRANCH   4  52
TORSDOF 16
ENDMDL
MODEL 7
REMARK VINA RESULT:    -7.234      3.225      6.514
REMARK INTER + INTRA:         -14.900
REMARK INTER:                 -11.549
REMARK INTRA:                  -3.351
REMARK UNBOUND:                -3.014
REMARK SMILES C[C@@H]1O[C@H](OC[C@@H]2O[C@@H](Oc3c(-c4ccc(O)c(O)c4)oc4cc(O)cc(O)c4c3=O)[C@@H](O)[C@@H](O)[C@H]2O)[C@@H](O)[C@H](O)[C@H]1O
REMARK SMILES IDX 7 1 36 2 34 3 32 4 9 5 8 6 6 7 5 8 4 9 1 10 2 11 42 12 3 13
REMARK SMILES IDX 40 14 38 15 43 16 41 18 39 20 37 22 35 24 10 26 11 27 12 28
REMARK SMILES IDX 30 29 21 30 29 31 31 32 22 33 27 34 23 35 26 36 24 37 13 38
REMARK SMILES IDX 20 39 14 40 18 41 15 42 16 43 19 44 17 46 28 48 25 50 33 52
REMARK H PARENT 43 17 41 19 39 21 37 23 35 25 19 45 17 47 28 49 25 51 33 53
REMARK Flexibility Score: inf
ROOT
ATOM      1  C   UNL     1     137.821 136.812 142.479  1.00  0.00     0.180 C 
ATOM      2  C   UNL     1     138.951 136.155 141.587  1.00  0.00     0.177 C 
ATOM      3  C   UNL     1     139.926 135.205 142.339  1.00  0.00     0.180 C 
ATOM      4  C   UNL     1     140.362 135.950 143.587  1.00  0.00     0.214 C 
ATOM      5  C   UNL     1     139.131 136.347 144.433  1.00  0.00     0.339 C 
ATOM      6  O   UNL     1     138.333 137.319 143.731  1.00  0.00    -0.332 OA
ENDROOT
BRANCH   1   7
ATOM      7  C   UNL     1     137.077 137.992 141.666  1.00  0.00     0.198 C 
BRANCH   7   8
ATOM      8  O   UNL     1     136.631 139.004 142.590  1.00  0.00    -0.347 OA
BRANCH   8   9
ATOM      9  C   UNL     1     135.716 140.000 142.051  1.00  0.00     0.281 C 
ATOM     10  C   UNL     1     132.098 140.083 140.922  1.00  0.00     0.041 C 
ATOM     11  C   UNL     1     133.621 140.493 141.022  1.00  0.00     0.150 C 
ATOM     12  C   UNL     1     133.726 141.958 141.641  1.00  0.00     0.174 C 
ATOM     13  O   UNL     1     134.410 139.507 141.729  1.00  0.00    -0.344 OA
ATOM     14  C   UNL     1     134.227 141.888 143.072  1.00  0.00     0.179 C 
ATOM     15  C   UNL     1     135.585 141.150 143.117  1.00  0.00     0.202 C 
BRANCH  12  16
ATOM     16  O   UNL     1     134.625 142.796 140.895  1.00  0.00    -0.388 OA
ATOM     17  H   UNL     1     135.205 143.266 141.566  1.00  0.00     0.211 HD
ENDBRANCH  12  16
BRANCH  14  18
ATOM     18  O   UNL     1     133.305 141.197 143.837  1.00  0.00    -0.387 OA
ATOM     19  H   UNL     1     132.659 141.841 144.271  1.00  0.00     0.211 HD
ENDBRANCH  14  18
BRANCH  15  20
ATOM     20  O   UNL     1     136.645 142.070 142.934  1.00  0.00    -0.385 OA
ATOM     21  H   UNL     1     137.461 141.567 143.185  1.00  0.00     0.211 HD
ENDBRANCH  15  20
ENDBRANCH   8   9
ENDBRANCH   7   8
ENDBRANCH   1   7
BRANCH   2  22
ATOM     22  O   UNL     1     138.443 135.587 140.396  1.00  0.00    -0.387 OA
ATOM     23  H   UNL     1     137.732 136.205 140.063  1.00  0.00     0.211 HD
ENDBRANCH   2  22
BRANCH   3  24
ATOM     24  O   UNL     1     139.427 133.941 142.704  1.00  0.00    -0.387 OA
ATOM     25  H   UNL     1     139.441 133.407 141.879  1.00  0.00     0.211 HD
ENDBRANCH   3  24
BRANCH   5  26
ATOM     26  O   UNL     1     138.323 135.188 144.844  1.00  0.00    -0.454 OA
BRANCH  26  27
ATOM     27  C   UNL     1     138.033 134.735 146.150  1.00  0.00     0.214 A 
ATOM     28  C   UNL     1     136.843 135.196 146.789  1.00  0.00     0.180 A 
ATOM     29  C   UNL     1     138.865 133.862 146.894  1.00  0.00     0.239 A 
ATOM     30  O   UNL     1     136.578 134.863 148.052  1.00  0.00    -0.452 OA
ATOM     31  C   UNL     1     138.520 133.514 148.222  1.00  0.00     0.111 A 
ATOM     32  O   UNL     1     139.917 133.396 146.378  1.00  0.00    -0.285 OA
ATOM     33  C   UNL     1     137.345 134.061 148.776  1.00  0.00     0.146 A 
ATOM     34  C   UNL     1     139.303 132.648 149.021  1.00  0.00     0.134 A 
ATOM     35  C   UNL     1     136.983 133.787 150.081  1.00  0.00     0.094 A 
ATOM     36  C   UNL     1     138.913 132.386 150.345  1.00  0.00     0.093 A 
ATOM     37  C   UNL     1     137.771 132.954 150.893  1.00  0.00     0.123 A 
BRANCH  28  38
ATOM     38  C   UNL     1     135.848 136.021 146.105  1.00  0.00     0.025 A 
ATOM     39  C   UNL     1     135.724 137.388 146.382  1.00  0.00     0.062 A 
ATOM     40  C   UNL     1     134.974 135.415 145.198  1.00  0.00     0.016 A 
ATOM     41  C   UNL     1     134.818 138.191 145.666  1.00  0.00     0.158 A 
ATOM     42  C   UNL     1     134.048 136.197 144.495  1.00  0.00     0.051 A 
ATOM     43  C   UNL     1     133.967 137.573 144.719  1.00  0.00     0.157 A 
BRANCH  41  44
ATOM     44  O   UNL     1     134.831 139.565 145.891  1.00  0.00    -0.504 OA
ATOM     45  H   UNL     1     133.984 140.087 146.058  1.00  0.00     0.293 HD
ENDBRANCH  41  44
BRANCH  43  46
ATOM     46  O   UNL     1     133.057 138.312 143.949  1.00  0.00    -0.504 OA
ATOM     47  H   UNL     1     132.365 138.932 144.341  1.00  0.00     0.293 HD
ENDBRANCH  43  46
ENDBRANCH  28  38
BRANCH  34  48
ATOM     48  O   UNL     1     140.427 132.002 148.493  1.00  0.00    -0.507 OA
ATOM     49  H   UNL     1     140.881 132.379 147.682  1.00  0.00     0.293 HD
ENDBRANCH  34  48
BRANCH  37  50
ATOM     50  O   UNL     1     137.410 132.658 152.205  1.00  0.00    -0.508 OA
ATOM     51  H   UNL     1     137.060 131.729 152.451  1.00  0.00     0.293 HD
ENDBRANCH  37  50
ENDBRANCH  26  27
ENDBRANCH   5  26
BRANCH   4  52
ATOM     52  O   UNL     1     141.352 135.221 144.294  1.00  0.00    -0.384 OA
ATOM     53  H   UNL     1     142.180 135.785 144.170  1.00  0.00     0.211 HD
ENDBRANCH   4  52
TORSDOF 16
ENDMDL
MODEL 8
REMARK VINA RESULT:    -7.206      3.864      6.632
REMARK INTER + INTRA:         -14.854
REMARK INTER:                 -11.805
REMARK INTRA:                  -3.049
REMARK UNBOUND:                -3.014
REMARK SMILES C[C@@H]1O[C@H](OC[C@@H]2O[C@@H](Oc3c(-c4ccc(O)c(O)c4)oc4cc(O)cc(O)c4c3=O)[C@@H](O)[C@@H](O)[C@H]2O)[C@@H](O)[C@H](O)[C@H]1O
REMARK SMILES IDX 7 1 36 2 34 3 32 4 9 5 8 6 6 7 5 8 4 9 1 10 2 11 42 12 3 13
REMARK SMILES IDX 40 14 38 15 43 16 41 18 39 20 37 22 35 24 10 26 11 27 12 28
REMARK SMILES IDX 30 29 21 30 29 31 31 32 22 33 27 34 23 35 26 36 24 37 13 38
REMARK SMILES IDX 20 39 14 40 18 41 15 42 16 43 19 44 17 46 28 48 25 50 33 52
REMARK H PARENT 43 17 41 19 39 21 37 23 35 25 19 45 17 47 28 49 25 51 33 53
REMARK Flexibility Score: inf
ROOT
ATOM      1  C   UNL     1     135.923 136.397 142.873  1.00  0.00     0.180 C 
ATOM      2  C   UNL     1     137.395 136.520 142.304  1.00  0.00     0.177 C 
ATOM      3  C   UNL     1     138.531 136.232 143.326  1.00  0.00     0.180 C 
ATOM      4  C   UNL     1     138.191 137.031 144.570  1.00  0.00     0.214 C 
ATOM      5  C   UNL     1     136.792 136.639 145.096  1.00  0.00     0.339 C 
ATOM      6  O   UNL     1     135.774 137.040 144.158  1.00  0.00    -0.332 OA
ENDROOT
BRANCH   1   7
ATOM      7  C   UNL     1     134.860 137.007 141.822  1.00  0.00     0.198 C 
BRANCH   7   8
ATOM      8  O   UNL     1     135.494 138.043 141.046  1.00  0.00    -0.347 OA
BRANCH   8   9
ATOM      9  C   UNL     1     135.222 139.410 141.467  1.00  0.00     0.281 C 
ATOM     10  C   UNL     1     133.128 141.100 144.136  1.00  0.00     0.041 C 
ATOM     11  C   UNL     1     133.917 140.914 142.780  1.00  0.00     0.150 C 
ATOM     12  C   UNL     1     135.153 141.920 142.755  1.00  0.00     0.174 C 
ATOM     13  O   UNL     1     134.287 139.534 142.544  1.00  0.00    -0.344 OA
ATOM     14  C   UNL     1     136.451 141.161 142.966  1.00  0.00     0.179 C 
ATOM     15  C   UNL     1     136.592 140.055 141.895  1.00  0.00     0.202 C 
BRANCH  12  16
ATOM     16  O   UNL     1     135.249 142.625 141.506  1.00  0.00    -0.388 OA
ATOM     17  H   UNL     1     134.361 143.069 141.356  1.00  0.00     0.211 HD
ENDBRANCH  12  16
BRANCH  14  18
ATOM     18  O   UNL     1     136.433 140.583 144.222  1.00  0.00    -0.387 OA
ATOM     19  H   UNL     1     135.908 139.720 144.201  1.00  0.00     0.211 HD
ENDBRANCH  14  18
BRANCH  15  20
ATOM     20  O   UNL     1     137.239 140.570 140.746  1.00  0.00    -0.385 OA
ATOM     21  H   UNL     1     138.030 141.051 141.097  1.00  0.00     0.211 HD
ENDBRANCH  15  20
ENDBRANCH   8   9
ENDBRANCH   7   8
ENDBRANCH   1   7
BRANCH   2  22
ATOM     22  O   UNL     1     137.566 135.825 141.085  1.00  0.00    -0.387 OA
ATOM     23  H   UNL     1     136.707 135.349 140.901  1.00  0.00     0.211 HD
ENDBRANCH   2  22
BRANCH   3  24
ATOM     24  O   UNL     1     138.740 134.887 143.682  1.00  0.00    -0.387 OA
ATOM     25  H   UNL     1     138.407 134.807 144.604  1.00  0.00     0.211 HD
ENDBRANCH   3  24
BRANCH   5  26
ATOM     26  O   UNL     1     136.685 135.207 145.421  1.00  0.00    -0.454 OA
BRANCH  26  27
ATOM     27  C   UNL     1     136.820 134.577 146.677  1.00  0.00     0.214 A 
ATOM     28  C   UNL     1     135.663 134.431 147.501  1.00  0.00     0.180 A 
ATOM     29  C   UNL     1     138.045 134.095 147.199  1.00  0.00     0.239 A 
ATOM     30  O   UNL     1     135.764 133.923 148.729  1.00  0.00    -0.452 OA
ATOM     31  C   UNL     1     138.091 133.533 148.498  1.00  0.00     0.111 A 
ATOM     32  O   UNL     1     139.099 134.168 146.512  1.00  0.00    -0.285 OA
ATOM     33  C   UNL     1     136.898 133.477 149.248  1.00  0.00     0.146 A 
ATOM     34  C   UNL     1     139.278 133.032 149.081  1.00  0.00     0.134 A 
ATOM     35  C   UNL     1     136.894 132.977 150.536  1.00  0.00     0.094 A 
ATOM     36  C   UNL     1     139.248 132.529 150.392  1.00  0.00     0.093 A 
ATOM     37  C   UNL     1     138.075 132.506 151.135  1.00  0.00     0.123 A 
BRANCH  28  38
ATOM     38  C   UNL     1     134.320 134.796 147.050  1.00  0.00     0.025 A 
ATOM     39  C   UNL     1     133.518 133.885 146.350  1.00  0.00     0.062 A 
ATOM     40  C   UNL     1     133.859 136.094 147.278  1.00  0.00     0.016 A 
ATOM     41  C   UNL     1     132.200 134.216 145.987  1.00  0.00     0.158 A 
ATOM     42  C   UNL     1     132.557 136.447 146.898  1.00  0.00     0.051 A 
ATOM     43  C   UNL     1     131.728 135.522 146.261  1.00  0.00     0.157 A 
BRANCH  41  44
ATOM     44  O   UNL     1     131.405 133.227 145.411  1.00  0.00    -0.504 OA
ATOM     45  H   UNL     1     131.772 132.318 145.173  1.00  0.00     0.293 HD
ENDBRANCH  41  44
BRANCH  43  46
ATOM     46  O   UNL     1     130.418 135.915 145.951  1.00  0.00    -0.504 OA
ATOM     47  H   UNL     1     129.974 135.735 145.064  1.00  0.00     0.293 HD
ENDBRANCH  43  46
ENDBRANCH  28  38
BRANCH  34  48
ATOM     48  O   UNL     1     140.470 132.975 148.349  1.00  0.00    -0.507 OA
ATOM     49  H   UNL     1     140.658 132.180 147.766  1.00  0.00     0.293 HD
ENDBRANCH  34  48
BRANCH  37  50
ATOM     50  O   UNL     1     138.082 131.986 152.427  1.00  0.00    -0.508 OA
ATOM     51  H   UNL     1     137.312 131.399 152.755  1.00  0.00     0.293 HD
ENDBRANCH  37  50
ENDBRANCH  26  27
ENDBRANCH   5  26
BRANCH   4  52
ATOM     52  O   UNL     1     139.228 136.937 145.533  1.00  0.00    -0.384 OA
ATOM     53  H   UNL     1     140.014 137.364 145.063  1.00  0.00     0.211 HD
ENDBRANCH   4  52
TORSDOF 16
ENDMDL
MODEL 9
REMARK VINA RESULT:    -7.115     11.623     14.567
REMARK INTER + INTRA:         -14.704
REMARK INTER:                 -11.480
REMARK INTRA:                  -3.224
REMARK UNBOUND:                -3.014
REMARK SMILES C[C@@H]1O[C@H](OC[C@@H]2O[C@@H](Oc3c(-c4ccc(O)c(O)c4)oc4cc(O)cc(O)c4c3=O)[C@@H](O)[C@@H](O)[C@H]2O)[C@@H](O)[C@H](O)[C@H]1O
REMARK SMILES IDX 7 1 36 2 34 3 32 4 9 5 8 6 6 7 5 8 4 9 1 10 2 11 42 12 3 13
REMARK SMILES IDX 40 14 38 15 43 16 41 18 39 20 37 22 35 24 10 26 11 27 12 28
REMARK SMILES IDX 30 29 21 30 29 31 31 32 22 33 27 34 23 35 26 36 24 37 13 38
REMARK SMILES IDX 20 39 14 40 18 41 15 42 16 43 19 44 17 46 28 48 25 50 33 52
REMARK H PARENT 43 17 41 19 39 21 37 23 35 25 19 45 17 47 28 49 25 51 33 53
REMARK Flexibility Score: inf
ROOT
ATOM      1  C   UNL     1     139.432 128.306 145.622  1.00  0.00     0.180 C 
ATOM      2  C   UNL     1     139.385 126.765 145.263  1.00  0.00     0.177 C 
ATOM      3  C   UNL     1     139.814 126.405 143.813  1.00  0.00     0.180 C 
ATOM      4  C   UNL     1     139.063 127.360 142.903  1.00  0.00     0.214 C 
ATOM      5  C   UNL     1     139.380 128.824 143.281  1.00  0.00     0.339 C 
ATOM      6  O   UNL     1     138.853 129.129 144.586  1.00  0.00    -0.332 OA
ENDROOT
BRANCH   1   7
ATOM      7  C   UNL     1     138.686 128.580 147.028  1.00  0.00     0.198 C 
BRANCH   7   8
ATOM      8  O   UNL     1     138.535 130.000 147.223  1.00  0.00    -0.347 OA
BRANCH   8   9
ATOM      9  C   UNL     1     138.204 130.425 148.576  1.00  0.00     0.281 C 
ATOM     10  C   UNL     1     140.058 130.857 151.853  1.00  0.00     0.041 C 
ATOM     11  C   UNL     1     138.850 130.618 150.864  1.00  0.00     0.150 C 
ATOM     12  C   UNL     1     137.825 131.833 150.992  1.00  0.00     0.174 C 
ATOM     13  O   UNL     1     139.291 130.372 149.507  1.00  0.00    -0.344 OA
ATOM     14  C   UNL     1     137.920 132.730 149.771  1.00  0.00     0.179 C 
ATOM     15  C   UNL     1     137.668 131.902 148.490  1.00  0.00     0.202 C 
BRANCH  12  16
ATOM     16  O   UNL     1     136.465 131.380 151.106  1.00  0.00    -0.388 OA
ATOM     17  H   UNL     1     135.975 132.071 151.646  1.00  0.00     0.211 HD
ENDBRANCH  12  16
BRANCH  14  18
ATOM     18  O   UNL     1     139.187 133.282 149.718  1.00  0.00    -0.387 OA
ATOM     19  H   UNL     1     139.127 134.286 149.626  1.00  0.00     0.211 HD
ENDBRANCH  14  18
BRANCH  15  20
ATOM     20  O   UNL     1     136.285 131.874 148.193  1.00  0.00    -0.385 OA
ATOM     21  H   UNL     1     136.210 131.287 147.398  1.00  0.00     0.211 HD
ENDBRANCH  15  20
ENDBRANCH   8   9
ENDBRANCH   7   8
ENDBRANCH   1   7
BRANCH   2  22
ATOM     22  O   UNL     1     140.021 125.961 146.238  1.00  0.00    -0.387 OA
ATOM     23  H   UNL     1     139.323 125.347 146.605  1.00  0.00     0.211 HD
ENDBRANCH   2  22
BRANCH   3  24
ATOM     24  O   UNL     1     141.188 126.471 143.520  1.00  0.00    -0.387 OA
ATOM     25  H   UNL     1     141.553 125.597 143.786  1.00  0.00     0.211 HD
ENDBRANCH   3  24
BRANCH   5  26
ATOM     26  O   UNL     1     140.816 129.137 143.197  1.00  0.00    -0.454 OA
BRANCH  26  27
ATOM     27  C   UNL     1     141.457 130.133 142.429  1.00  0.00     0.214 A 
ATOM     28  C   UNL     1     141.885 131.331 143.076  1.00  0.00     0.180 A 
ATOM     29  C   UNL     1     141.686 130.039 141.034  1.00  0.00     0.239 A 
ATOM     30  O   UNL     1     142.413 132.332 142.372  1.00  0.00    -0.452 OA
ATOM     31  C   UNL     1     142.281 131.120 140.339  1.00  0.00     0.111 A 
ATOM     32  O   UNL     1     141.358 128.996 140.407  1.00  0.00    -0.285 OA
ATOM     33  C   UNL     1     142.626 132.278 141.065  1.00  0.00     0.146 A 
ATOM     34  C   UNL     1     142.540 131.094 138.948  1.00  0.00     0.134 A 
ATOM     35  C   UNL     1     143.172 133.376 140.430  1.00  0.00     0.094 A 
ATOM     36  C   UNL     1     143.095 132.224 138.326  1.00  0.00     0.093 A 
ATOM     37  C   UNL     1     143.403 133.372 139.044  1.00  0.00     0.123 A 
BRANCH  28  38
ATOM     38  C   UNL     1     141.799 131.521 144.524  1.00  0.00     0.025 A 
ATOM     39  C   UNL     1     141.158 132.639 145.072  1.00  0.00     0.062 A 
ATOM     40  C   UNL     1     142.416 130.593 145.366  1.00  0.00     0.016 A 
ATOM     41  C   UNL     1     141.010 132.776 146.465  1.00  0.00     0.158 A 
ATOM     42  C   UNL     1     142.301 130.730 146.756  1.00  0.00     0.051 A 
ATOM     43  C   UNL     1     141.604 131.807 147.308  1.00  0.00     0.157 A 
BRANCH  41  44
ATOM     44  O   UNL     1     140.250 133.839 146.948  1.00  0.00    -0.504 OA
ATOM     45  H   UNL     1     139.808 134.503 146.330  1.00  0.00     0.293 HD
ENDBRANCH  41  44
BRANCH  43  46
ATOM     46  O   UNL     1     141.478 131.864 148.703  1.00  0.00    -0.504 OA
ATOM     47  H   UNL     1     141.588 132.709 149.242  1.00  0.00     0.293 HD
ENDBRANCH  43  46
ENDBRANCH  28  38
BRANCH  34  48
ATOM     48  O   UNL     1     142.307 129.937 138.195  1.00  0.00    -0.507 OA
ATOM     49  H   UNL     1     143.082 129.432 137.807  1.00  0.00     0.293 HD
ENDBRANCH  34  48
BRANCH  37  50
ATOM     50  O   UNL     1     143.966 134.467 138.393  1.00  0.00    -0.508 OA
ATOM     51  H   UNL     1     144.928 134.430 138.049  1.00  0.00     0.293 HD
ENDBRANCH  37  50
ENDBRANCH  26  27
ENDBRANCH   5  26
BRANCH   4  52
ATOM     52  O   UNL     1     139.287 127.042 141.539  1.00  0.00    -0.384 OA
ATOM     53  H   UNL     1     138.356 126.857 141.193  1.00  0.00     0.211 HD
ENDBRANCH   4  52
TORSDOF 16
ENDMDL
