MODEL 1
REMARK VINA RESULT:    -5.130      0.000      0.000
REMARK INTER + INTRA:          -5.828
REMARK INTER:                  -5.580
REMARK INTRA:                  -0.248
REMARK UNBOUND:                -0.248
REMARK SMILES C[C@H]1[C@H]2C3=CC[C@@H]4[C@@]5(C)CC[C@H](O)C(C)(C)[C@H]5CC[C@@]4(C)[C@@]3(C)CC[C@@]2(C(=O)[O-])CC[C@@H]1C
REMARK SMILES IDX 26 1 30 2 25 3 3 4 31 5 24 6 4 7 2 8 32 9 22 10 5 11 1 12
REMARK SMILES IDX 33 13 23 14 20 15 6 16 7 17 19 18 21 19 8 20 18 21 17 22
REMARK SMILES IDX 10 23 9 24 14 25 11 26 12 27 15 28 16 29 27 30 28 31 29 32
REMARK SMILES IDX 13 33
REMARK H PARENT 13 34
REMARK Flexibility Score: inf
ROOT
ATOM      1  C   UNL     1       5.262   4.164  -6.429  1.00  0.00     0.017 C 
ATOM      2  C   UNL     1       6.056   5.080  -5.454  1.00  0.00     0.014 C 
ATOM      3  C   UNL     1       4.407   3.169  -5.550  1.00  0.00     0.014 C 
ATOM      4  C   UNL     1       6.251   3.434  -7.456  1.00  0.00     0.030 C 
ATOM      5  C   UNL     1       7.140   5.902  -6.152  1.00  0.00     0.004 C 
ATOM      6  C   UNL     1       4.886   1.720  -5.570  1.00  0.00     0.013 C 
ATOM      7  C   UNL     1       5.888   1.993  -7.851  1.00  0.00    -0.063 C 
ATOM      8  C   UNL     1       7.779   3.561  -7.130  1.00  0.00    -0.003 C 
ATOM      9  C   UNL     1       8.217   5.034  -6.848  1.00  0.00    -0.011 C 
ATOM     10  C   UNL     1       4.966   1.111  -7.004  1.00  0.00    -0.006 C 
ATOM     11  C   UNL     1       6.305   1.525  -9.054  1.00  0.00    -0.027 C 
ATOM     12  C   UNL     1       8.288   2.599  -6.040  1.00  0.00     0.008 C 
ATOM     13  C   UNL     1       8.694   5.726  -8.137  1.00  0.00     0.008 C 
ATOM     14  C   UNL     1       3.555   1.303  -7.670  1.00  0.00     0.017 C 
ATOM     15  C   UNL     1       5.449  -0.469  -6.988  1.00  0.00    -0.020 C 
ATOM     16  C   UNL     1       6.136   0.077  -9.418  1.00  0.00     0.032 C 
ATOM     17  C   UNL     1       6.461  -0.761  -8.163  1.00  0.00     0.006 C 
ATOM     18  C   UNL     1       6.221  -0.900  -5.684  1.00  0.00     0.008 C 
ATOM     19  C   UNL     1       4.174  -1.372  -7.067  1.00  0.00     0.012 C 
ATOM     20  C   UNL     1       6.891  -2.281  -8.400  1.00  0.00    -0.025 C 
ATOM     21  C   UNL     1       7.284  -2.030  -5.842  1.00  0.00     0.005 C 
ATOM     22  C   UNL     1       7.026  -3.047  -6.995  1.00  0.00     0.003 C 
ATOM     23  C   UNL     1       8.263  -2.246  -9.161  1.00  0.00     0.010 C 
ATOM     24  C   UNL     1       5.848  -2.994  -9.314  1.00  0.00     0.012 C 
ATOM     25  C   UNL     1       8.004  -4.314  -6.970  1.00  0.00    -0.006 C 
ATOM     26  C   UNL     1       9.034  -3.559  -9.175  1.00  0.00     0.033 C 
ATOM     27  C   UNL     1       9.316  -4.032  -7.752  1.00  0.00     0.120 C 
ATOM     28  C   UNL     1       8.403  -4.711  -5.520  1.00  0.00     0.014 C 
ATOM     29  C   UNL     1       7.278  -5.568  -7.542  1.00  0.00     0.014 C 
ENDROOT
BRANCH   1  30
ATOM     30  C   UNL     1       4.294   5.086  -7.195  1.00  0.00     0.048 C 
ATOM     31  O   UNL     1       4.167   4.997  -8.446  1.00  0.00    -0.550 OA
ATOM     32  O   UNL     1       3.605   6.105  -6.544  1.00  0.00    -0.550 OA
ENDBRANCH   1  30
BRANCH  27  33
ATOM     33  O   UNL     1      10.123  -5.181  -7.794  1.00  0.00    -0.393 OA
ATOM     34  H   UNL     1      10.630  -5.150  -8.649  1.00  0.00     0.210 HD
ENDBRANCH  27  33
TORSDOF 2
ENDMDL
MODEL 2
REMARK VINA RESULT:    -4.947     11.758     15.100
REMARK INTER + INTRA:          -5.630
REMARK INTER:                  -5.391
REMARK INTRA:                  -0.239
REMARK UNBOUND:                -0.248
REMARK SMILES C[C@H]1[C@H]2C3=CC[C@@H]4[C@@]5(C)CC[C@H](O)C(C)(C)[C@H]5CC[C@@]4(C)[C@@]3(C)CC[C@@]2(C(=O)[O-])CC[C@@H]1C
REMARK SMILES IDX 26 1 30 2 25 3 3 4 31 5 24 6 4 7 2 8 32 9 22 10 5 11 1 12
REMARK SMILES IDX 33 13 23 14 20 15 6 16 7 17 19 18 21 19 8 20 18 21 17 22
REMARK SMILES IDX 10 23 9 24 14 25 11 26 12 27 15 28 16 29 27 30 28 31 29 32
REMARK SMILES IDX 13 33
REMARK H PARENT 13 34
REMARK Flexibility Score: inf
ROOT
ATOM      1  C   UNL     1       2.449  -8.389  -2.955  1.00  0.00     0.017 C 
ATOM      2  C   UNL     1       3.921  -7.943  -2.713  1.00  0.00     0.014 C 
ATOM      3  C   UNL     1       1.530  -7.126  -2.722  1.00  0.00     0.014 C 
ATOM      4  C   UNL     1       2.076  -9.641  -2.028  1.00  0.00     0.030 C 
ATOM      5  C   UNL     1       4.896  -9.117  -2.623  1.00  0.00     0.004 C 
ATOM      6  C   UNL     1       0.680  -7.175  -1.456  1.00  0.00     0.013 C 
ATOM      7  C   UNL     1       0.642  -9.681  -1.475  1.00  0.00    -0.063 C 
ATOM      8  C   UNL     1       3.121  -9.993  -0.913  1.00  0.00    -0.003 C 
ATOM      9  C   UNL     1       4.580 -10.090  -1.461  1.00  0.00    -0.011 C 
ATOM     10  C   UNL     1      -0.239  -8.432  -1.371  1.00  0.00    -0.006 C 
ATOM     11  C   UNL     1       0.095 -10.885  -1.176  1.00  0.00    -0.027 C 
ATOM     12  C   UNL     1       3.043  -9.108   0.345  1.00  0.00     0.008 C 
ATOM     13  C   UNL     1       4.920 -11.532  -1.879  1.00  0.00     0.008 C 
ATOM     14  C   UNL     1      -1.095  -8.472  -2.690  1.00  0.00     0.017 C 
ATOM     15  C   UNL     1      -1.175  -8.435  -0.010  1.00  0.00    -0.020 C 
ATOM     16  C   UNL     1      -1.229 -10.977  -0.469  1.00  0.00     0.032 C 
ATOM     17  C   UNL     1      -1.253  -9.881   0.618  1.00  0.00     0.006 C 
ATOM     18  C   UNL     1      -0.628  -7.526   1.156  1.00  0.00     0.008 C 
ATOM     19  C   UNL     1      -2.586  -7.874  -0.384  1.00  0.00     0.012 C 
ATOM     20  C   UNL     1      -2.260 -10.097   1.838  1.00  0.00    -0.025 C 
ATOM     21  C   UNL     1      -0.965  -7.978   2.610  1.00  0.00     0.005 C 
ATOM     22  C   UNL     1      -2.282  -8.795   2.779  1.00  0.00     0.003 C 
ATOM     23  C   UNL     1      -1.749 -11.355   2.625  1.00  0.00     0.010 C 
ATOM     24  C   UNL     1      -3.691 -10.408   1.302  1.00  0.00     0.012 C 
ATOM     25  C   UNL     1      -2.705  -9.030   4.305  1.00  0.00    -0.006 C 
ATOM     26  C   UNL     1      -2.334 -11.535   4.019  1.00  0.00     0.033 C 
ATOM     27  C   UNL     1      -2.046 -10.312   4.884  1.00  0.00     0.120 C 
ATOM     28  C   UNL     1      -2.286  -7.840   5.214  1.00  0.00     0.014 C 
ATOM     29  C   UNL     1      -4.256  -9.101   4.430  1.00  0.00     0.014 C 
ENDROOT
BRANCH   1  30
ATOM     30  C   UNL     1       2.358  -8.787  -4.440  1.00  0.00     0.048 C 
ATOM     31  O   UNL     1       2.247  -7.911  -5.341  1.00  0.00    -0.550 OA
ATOM     32  O   UNL     1       2.298 -10.123  -4.824  1.00  0.00    -0.550 OA
ENDBRANCH   1  30
BRANCH  27  33
ATOM     33  O   UNL     1      -2.497 -10.551   6.194  1.00  0.00    -0.393 OA
ATOM     34  H   UNL     1      -1.850 -10.114   6.809  1.00  0.00     0.210 HD
ENDBRANCH  27  33
TORSDOF 2
ENDMDL
MODEL 3
REMARK VINA RESULT:    -4.847     12.764     15.328
REMARK INTER + INTRA:          -5.521
REMARK INTER:                  -5.312
REMARK INTRA:                  -0.208
REMARK UNBOUND:                -0.248
REMARK SMILES C[C@H]1[C@H]2C3=CC[C@@H]4[C@@]5(C)CC[C@H](O)C(C)(C)[C@H]5CC[C@@]4(C)[C@@]3(C)CC[C@@]2(C(=O)[O-])CC[C@@H]1C
REMARK SMILES IDX 26 1 30 2 25 3 3 4 31 5 24 6 4 7 2 8 32 9 22 10 5 11 1 12
REMARK SMILES IDX 33 13 23 14 20 15 6 16 7 17 19 18 21 19 8 20 18 21 17 22
REMARK SMILES IDX 10 23 9 24 14 25 11 26 12 27 15 28 16 29 27 30 28 31 29 32
REMARK SMILES IDX 13 33
REMARK H PARENT 13 34
REMARK Flexibility Score: inf
ROOT
ATOM      1  C   UNL     1      -2.191  -9.176   4.575  1.00  0.00     0.017 C 
ATOM      2  C   UNL     1      -1.216  -9.117   5.787  1.00  0.00     0.014 C 
ATOM      3  C   UNL     1      -2.164 -10.653   4.020  1.00  0.00     0.014 C 
ATOM      4  C   UNL     1      -1.808  -8.067   3.485  1.00  0.00     0.030 C 
ATOM      5  C   UNL     1      -0.919  -7.692   6.250  1.00  0.00     0.004 C 
ATOM      6  C   UNL     1      -1.470 -10.820   2.671  1.00  0.00     0.013 C 
ATOM      7  C   UNL     1      -1.998  -8.461   2.011  1.00  0.00    -0.063 C 
ATOM      8  C   UNL     1      -0.431  -7.349   3.703  1.00  0.00    -0.003 C 
ATOM      9  C   UNL     1      -0.251  -6.817   5.161  1.00  0.00    -0.011 C 
ATOM     10  C   UNL     1      -2.068  -9.920   1.548  1.00  0.00    -0.006 C 
ATOM     11  C   UNL     1      -2.229  -7.482   1.101  1.00  0.00    -0.027 C 
ATOM     12  C   UNL     1       0.796  -8.154   3.236  1.00  0.00     0.008 C 
ATOM     13  C   UNL     1      -0.741  -5.363   5.283  1.00  0.00     0.008 C 
ATOM     14  C   UNL     1      -3.611 -10.215   1.487  1.00  0.00     0.017 C 
ATOM     15  C   UNL     1      -1.322 -10.153   0.092  1.00  0.00    -0.020 C 
ATOM     16  C   UNL     1      -2.245  -7.785  -0.371  1.00  0.00     0.032 C 
ATOM     17  C   UNL     1      -1.100  -8.780  -0.654  1.00  0.00     0.006 C 
ATOM     18  C   UNL     1       0.118 -10.785   0.194  1.00  0.00     0.008 C 
ATOM     19  C   UNL     1      -2.185 -11.151  -0.747  1.00  0.00     0.012 C 
ATOM     20  C   UNL     1      -0.551  -8.841  -2.153  1.00  0.00    -0.025 C 
ATOM     21  C   UNL     1       1.132 -10.398  -0.925  1.00  0.00     0.005 C 
ATOM     22  C   UNL     1       0.510 -10.037  -2.309  1.00  0.00     0.003 C 
ATOM     23  C   UNL     1       0.118  -7.451  -2.443  1.00  0.00     0.010 C 
ATOM     24  C   UNL     1      -1.735  -9.027  -3.150  1.00  0.00     0.012 C 
ATOM     25  C   UNL     1       1.589  -9.880  -3.481  1.00  0.00    -0.006 C 
ATOM     26  C   UNL     1       1.019  -7.404  -3.669  1.00  0.00     0.033 C 
ATOM     27  C   UNL     1       2.141  -8.430  -3.551  1.00  0.00     0.120 C 
ATOM     28  C   UNL     1       2.803 -10.832  -3.284  1.00  0.00     0.014 C 
ATOM     29  C   UNL     1       0.969 -10.302  -4.846  1.00  0.00     0.014 C 
ENDROOT
BRANCH   1  30
ATOM     30  C   UNL     1      -3.597  -8.896   5.140  1.00  0.00     0.048 C 
ATOM     31  O   UNL     1      -4.335  -9.838   5.538  1.00  0.00    -0.550 OA
ATOM     32  O   UNL     1      -4.130  -7.611   5.138  1.00  0.00    -0.550 OA
ENDBRANCH   1  30
BRANCH  27  33
ATOM     33  O   UNL     1       3.020  -8.287  -4.638  1.00  0.00    -0.393 OA
ATOM     34  H   UNL     1       3.936  -8.196  -4.263  1.00  0.00     0.210 HD
ENDBRANCH  27  33
TORSDOF 2
ENDMDL
MODEL 4
REMARK VINA RESULT:    -4.779     13.751     15.912
REMARK INTER + INTRA:          -5.447
REMARK INTER:                  -5.191
REMARK INTRA:                  -0.255
REMARK UNBOUND:                -0.248
REMARK SMILES C[C@H]1[C@H]2C3=CC[C@@H]4[C@@]5(C)CC[C@H](O)C(C)(C)[C@H]5CC[C@@]4(C)[C@@]3(C)CC[C@@]2(C(=O)[O-])CC[C@@H]1C
REMARK SMILES IDX 26 1 30 2 25 3 3 4 31 5 24 6 4 7 2 8 32 9 22 10 5 11 1 12
REMARK SMILES IDX 33 13 23 14 20 15 6 16 7 17 19 18 21 19 8 20 18 21 17 22
REMARK SMILES IDX 10 23 9 24 14 25 11 26 12 27 15 28 16 29 27 30 28 31 29 32
REMARK SMILES IDX 13 33
REMARK H PARENT 13 34
REMARK Flexibility Score: inf
ROOT
ATOM      1  C   UNL     1       0.581  -5.875   7.407  1.00  0.00     0.017 C 
ATOM      2  C   UNL     1       1.666  -4.773   7.583  1.00  0.00     0.014 C 
ATOM      3  C   UNL     1       1.333  -7.247   7.192  1.00  0.00     0.014 C 
ATOM      4  C   UNL     1      -0.427  -5.496   6.221  1.00  0.00     0.030 C 
ATOM      5  C   UNL     1       1.098  -3.356   7.516  1.00  0.00     0.004 C 
ATOM      6  C   UNL     1       1.245  -7.812   5.777  1.00  0.00     0.013 C 
ATOM      7  C   UNL     1      -0.941  -6.661   5.361  1.00  0.00    -0.063 C 
ATOM      8  C   UNL     1       0.007  -4.283   5.327  1.00  0.00    -0.003 C 
ATOM      9  C   UNL     1       0.416  -3.030   6.165  1.00  0.00    -0.011 C 
ATOM     10  C   UNL     1      -0.218  -8.009   5.276  1.00  0.00    -0.006 C 
ATOM     11  C   UNL     1      -2.143  -6.533   4.746  1.00  0.00    -0.027 C 
ATOM     12  C   UNL     1       1.059  -4.618   4.253  1.00  0.00     0.008 C 
ATOM     13  C   UNL     1      -0.790  -2.102   6.397  1.00  0.00     0.008 C 
ATOM     14  C   UNL     1      -0.960  -8.896   6.341  1.00  0.00     0.017 C 
ATOM     15  C   UNL     1      -0.278  -8.660   3.758  1.00  0.00    -0.020 C 
ATOM     16  C   UNL     1      -2.615  -7.559   3.753  1.00  0.00     0.032 C 
ATOM     17  C   UNL     1      -1.402  -7.968   2.892  1.00  0.00     0.006 C 
ATOM     18  C   UNL     1       1.041  -8.472   2.917  1.00  0.00     0.008 C 
ATOM     19  C   UNL     1      -0.501 -10.201   3.894  1.00  0.00     0.012 C 
ATOM     20  C   UNL     1      -1.713  -8.597   1.458  1.00  0.00    -0.025 C 
ATOM     21  C   UNL     1       0.877  -8.376   1.370  1.00  0.00     0.005 C 
ATOM     22  C   UNL     1      -0.357  -9.118   0.772  1.00  0.00     0.003 C 
ATOM     23  C   UNL     1      -2.378  -7.460   0.604  1.00  0.00     0.010 C 
ATOM     24  C   UNL     1      -2.740  -9.762   1.596  1.00  0.00     0.012 C 
ATOM     25  C   UNL     1      -0.355  -9.192  -0.827  1.00  0.00    -0.006 C 
ATOM     26  C   UNL     1      -2.431  -7.717  -0.896  1.00  0.00     0.033 C 
ATOM     27  C   UNL     1      -1.029  -7.940  -1.453  1.00  0.00     0.120 C 
ATOM     28  C   UNL     1       1.088  -9.280  -1.402  1.00  0.00     0.014 C 
ATOM     29  C   UNL     1      -1.056 -10.497  -1.309  1.00  0.00     0.014 C 
ENDROOT
BRANCH   1  30
ATOM     30  C   UNL     1      -0.182  -5.946   8.744  1.00  0.00     0.048 C 
ATOM     31  O   UNL     1      -1.434  -5.804   8.785  1.00  0.00    -0.550 OA
ATOM     32  O   UNL     1       0.496  -6.072   9.953  1.00  0.00    -0.550 OA
ENDBRANCH   1  30
BRANCH  27  33
ATOM     33  O   UNL     1      -1.096  -8.062  -2.851  1.00  0.00    -0.393 OA
ATOM     34  H   UNL     1      -1.041  -9.031  -3.062  1.00  0.00     0.210 HD
ENDBRANCH  27  33
TORSDOF 2
ENDMDL
MODEL 5
REMARK VINA RESULT:    -4.760     14.373     16.994
REMARK INTER + INTRA:          -5.426
REMARK INTER:                  -5.171
REMARK INTRA:                  -0.255
REMARK UNBOUND:                -0.248
REMARK SMILES C[C@H]1[C@H]2C3=CC[C@@H]4[C@@]5(C)CC[C@H](O)C(C)(C)[C@H]5CC[C@@]4(C)[C@@]3(C)CC[C@@]2(C(=O)[O-])CC[C@@H]1C
REMARK SMILES IDX 26 1 30 2 25 3 3 4 31 5 24 6 4 7 2 8 32 9 22 10 5 11 1 12
REMARK SMILES IDX 33 13 23 14 20 15 6 16 7 17 19 18 21 19 8 20 18 21 17 22
REMARK SMILES IDX 10 23 9 24 14 25 11 26 12 27 15 28 16 29 27 30 28 31 29 32
REMARK SMILES IDX 13 33
REMARK H PARENT 13 34
REMARK Flexibility Score: inf
ROOT
ATOM      1  C   UNL     1       1.041   4.448   5.167  1.00  0.00     0.017 C 
ATOM      2  C   UNL     1       0.581   5.737   4.427  1.00  0.00     0.014 C 
ATOM      3  C   UNL     1       0.912   3.249   4.148  1.00  0.00     0.014 C 
ATOM      4  C   UNL     1       0.207   4.242   6.519  1.00  0.00     0.030 C 
ATOM      5  C   UNL     1       0.380   6.928   5.364  1.00  0.00     0.004 C 
ATOM      6  C   UNL     1      -0.218   2.268   4.449  1.00  0.00     0.013 C 
ATOM      7  C   UNL     1      -0.135   2.791   6.898  1.00  0.00    -0.063 C 
ATOM      8  C   UNL     1      -1.037   5.179   6.696  1.00  0.00    -0.003 C 
ATOM      9  C   UNL     1      -0.702   6.683   6.445  1.00  0.00    -0.011 C 
ATOM     10  C   UNL     1      -0.140   1.649   5.878  1.00  0.00    -0.006 C 
ATOM     11  C   UNL     1      -0.323   2.490   8.207  1.00  0.00    -0.027 C 
ATOM     12  C   UNL     1      -2.292   4.738   5.919  1.00  0.00     0.008 C 
ATOM     13  C   UNL     1      -0.302   7.388   7.754  1.00  0.00     0.008 C 
ATOM     14  C   UNL     1       1.288   1.008   6.030  1.00  0.00     0.017 C 
ATOM     15  C   UNL     1      -1.354   0.563   6.158  1.00  0.00    -0.020 C 
ATOM     16  C   UNL     1      -0.832   1.138   8.622  1.00  0.00     0.032 C 
ATOM     17  C   UNL     1      -1.929   0.725   7.618  1.00  0.00     0.006 C 
ATOM     18  C   UNL     1      -2.607   0.732   5.217  1.00  0.00     0.008 C 
ATOM     19  C   UNL     1      -0.795  -0.874   5.896  1.00  0.00     0.012 C 
ATOM     20  C   UNL     1      -2.988  -0.364   8.114  1.00  0.00    -0.025 C 
ATOM     21  C   UNL     1      -3.987   0.313   5.810  1.00  0.00     0.005 C 
ATOM     22  C   UNL     1      -3.947  -0.800   6.901  1.00  0.00     0.003 C 
ATOM     23  C   UNL     1      -3.810   0.304   9.272  1.00  0.00     0.010 C 
ATOM     24  C   UNL     1      -2.246  -1.604   8.698  1.00  0.00     0.012 C 
ATOM     25  C   UNL     1      -5.390  -1.362   7.305  1.00  0.00    -0.006 C 
ATOM     26  C   UNL     1      -5.101  -0.408   9.650  1.00  0.00     0.033 C 
ATOM     27  C   UNL     1      -6.027  -0.518   8.443  1.00  0.00     0.120 C 
ATOM     28  C   UNL     1      -6.377  -1.344   6.103  1.00  0.00     0.014 C 
ATOM     29  C   UNL     1      -5.291  -2.861   7.717  1.00  0.00     0.014 C 
ENDROOT
BRANCH   1  30
ATOM     30  C   UNL     1       2.533   4.648   5.493  1.00  0.00     0.048 C 
ATOM     31  O   UNL     1       2.962   4.518   6.672  1.00  0.00    -0.550 OA
ATOM     32  O   UNL     1       3.432   5.069   4.519  1.00  0.00    -0.550 OA
ENDBRANCH   1  30
BRANCH  27  33
ATOM     33  O   UNL     1      -7.253  -1.076   8.845  1.00  0.00    -0.393 OA
ATOM     34  H   UNL     1      -7.315  -1.975   8.427  1.00  0.00     0.210 HD
ENDBRANCH  27  33
TORSDOF 2
ENDMDL
MODEL 6
REMARK VINA RESULT:    -4.718     10.196     13.682
REMARK INTER + INTRA:          -5.380
REMARK INTER:                  -5.168
REMARK INTRA:                  -0.213
REMARK UNBOUND:                -0.248
REMARK SMILES C[C@H]1[C@H]2C3=CC[C@@H]4[C@@]5(C)CC[C@H](O)C(C)(C)[C@H]5CC[C@@]4(C)[C@@]3(C)CC[C@@]2(C(=O)[O-])CC[C@@H]1C
REMARK SMILES IDX 26 1 30 2 25 3 3 4 31 5 24 6 4 7 2 8 32 9 22 10 5 11 1 12
REMARK SMILES IDX 33 13 23 14 20 15 6 16 7 17 19 18 21 19 8 20 18 21 17 22
REMARK SMILES IDX 10 23 9 24 14 25 11 26 12 27 15 28 16 29 27 30 28 31 29 32
REMARK SMILES IDX 13 33
REMARK H PARENT 13 34
REMARK Flexibility Score: inf
ROOT
ATOM      1  C   UNL     1       2.077  -9.209  -6.431  1.00  0.00     0.017 C 
ATOM      2  C   UNL     1       1.370 -10.046  -7.536  1.00  0.00     0.014 C 
ATOM      3  C   UNL     1       2.901 -10.213  -5.534  1.00  0.00     0.014 C 
ATOM      4  C   UNL     1       1.013  -8.334  -5.613  1.00  0.00     0.030 C 
ATOM      5  C   UNL     1       0.313  -9.254  -8.305  1.00  0.00     0.004 C 
ATOM      6  C   UNL     1       2.339 -10.433  -4.133  1.00  0.00     0.013 C 
ATOM      7  C   UNL     1       1.279  -8.163  -4.109  1.00  0.00    -0.063 C 
ATOM      8  C   UNL     1      -0.493  -8.673  -5.885  1.00  0.00    -0.003 C 
ATOM      9  C   UNL     1      -0.836  -8.730  -7.408  1.00  0.00    -0.011 C 
ATOM     10  C   UNL     1       2.176  -9.117  -3.314  1.00  0.00    -0.006 C 
ATOM     11  C   UNL     1       0.795  -7.060  -3.486  1.00  0.00    -0.027 C 
ATOM     12  C   UNL     1      -1.020  -9.913  -5.138  1.00  0.00     0.008 C 
ATOM     13  C   UNL     1      -1.315  -7.359  -7.919  1.00  0.00     0.008 C 
ATOM     14  C   UNL     1       3.573  -8.395  -3.311  1.00  0.00     0.017 C 
ATOM     15  C   UNL     1       1.603  -9.393  -1.789  1.00  0.00    -0.020 C 
ATOM     16  C   UNL     1       0.867  -6.925  -1.990  1.00  0.00     0.032 C 
ATOM     17  C   UNL     1       0.537  -8.304  -1.381  1.00  0.00     0.006 C 
ATOM     18  C   UNL     1       0.852 -10.767  -1.616  1.00  0.00     0.008 C 
ATOM     19  C   UNL     1       2.820  -9.427  -0.807  1.00  0.00     0.012 C 
ATOM     20  C   UNL     1       0.013  -8.320   0.128  1.00  0.00    -0.025 C 
ATOM     21  C   UNL     1      -0.279 -10.816  -0.544  1.00  0.00     0.005 C 
ATOM     22  C   UNL     1      -0.119  -9.831   0.655  1.00  0.00     0.003 C 
ATOM     23  C   UNL     1      -1.381  -7.597   0.126  1.00  0.00     0.010 C 
ATOM     24  C   UNL     1       0.981  -7.505   1.039  1.00  0.00     0.012 C 
ATOM     25  C   UNL     1      -1.167 -10.080   1.839  1.00  0.00    -0.006 C 
ATOM     26  C   UNL     1      -2.226  -7.809   1.375  1.00  0.00     0.033 C 
ATOM     27  C   UNL     1      -2.487  -9.295   1.601  1.00  0.00     0.120 C 
ATOM     28  C   UNL     1      -1.539 -11.584   1.979  1.00  0.00     0.014 C 
ATOM     29  C   UNL     1      -0.535  -9.696   3.210  1.00  0.00     0.014 C 
ENDROOT
BRANCH   1  30
ATOM     30  C   UNL     1       3.070  -8.284  -7.160  1.00  0.00     0.048 C 
ATOM     31  O   UNL     1       4.252  -8.656  -7.393  1.00  0.00    -0.550 OA
ATOM     32  O   UNL     1       2.723  -6.979  -7.497  1.00  0.00    -0.550 OA
ENDBRANCH   1  30
BRANCH  27  33
ATOM     33  O   UNL     1      -3.360  -9.454   2.691  1.00  0.00    -0.393 OA
ATOM     34  H   UNL     1      -3.848  -8.596   2.801  1.00  0.00     0.210 HD
ENDBRANCH  27  33
TORSDOF 2
ENDMDL
MODEL 7
REMARK VINA RESULT:    -4.552     10.444     13.970
REMARK INTER + INTRA:          -5.199
REMARK INTER:                  -4.944
REMARK INTRA:                  -0.255
REMARK UNBOUND:                -0.248
REMARK SMILES C[C@H]1[C@H]2C3=CC[C@@H]4[C@@]5(C)CC[C@H](O)C(C)(C)[C@H]5CC[C@@]4(C)[C@@]3(C)CC[C@@]2(C(=O)[O-])CC[C@@H]1C
REMARK SMILES IDX 26 1 30 2 25 3 3 4 31 5 24 6 4 7 2 8 32 9 22 10 5 11 1 12
REMARK SMILES IDX 33 13 23 14 20 15 6 16 7 17 19 18 21 19 8 20 18 21 17 22
REMARK SMILES IDX 10 23 9 24 14 25 11 26 12 27 15 28 16 29 27 30 28 31 29 32
REMARK SMILES IDX 13 33
REMARK H PARENT 13 34
REMARK Flexibility Score: inf
ROOT
ATOM      1  C   UNL     1      -0.258  -8.603   1.892  1.00  0.00     0.017 C 
ATOM      2  C   UNL     1      -1.596  -7.984   2.390  1.00  0.00     0.014 C 
ATOM      3  C   UNL     1       0.684  -7.408   1.467  1.00  0.00     0.014 C 
ATOM      4  C   UNL     1      -0.523  -9.665   0.723  1.00  0.00     0.030 C 
ATOM      5  C   UNL     1      -2.707  -9.019   2.566  1.00  0.00     0.004 C 
ATOM      6  C   UNL     1       0.910  -7.272  -0.036  1.00  0.00     0.013 C 
ATOM      7  C   UNL     1       0.522  -9.721  -0.403  1.00  0.00    -0.063 C 
ATOM      8  C   UNL     1      -1.980  -9.682   0.143  1.00  0.00    -0.003 C 
ATOM      9  C   UNL     1      -3.073  -9.757   1.255  1.00  0.00    -0.011 C 
ATOM     10  C   UNL     1       1.481  -8.563  -0.698  1.00  0.00    -0.006 C 
ATOM     11  C   UNL     1       0.680 -10.882  -1.085  1.00  0.00    -0.027 C 
ATOM     12  C   UNL     1      -2.280  -8.568  -0.877  1.00  0.00     0.008 C 
ATOM     13  C   UNL     1      -3.451 -11.217   1.563  1.00  0.00     0.008 C 
ATOM     14  C   UNL     1       2.785  -8.953   0.088  1.00  0.00     0.017 C 
ATOM     15  C   UNL     1       1.752  -8.370  -2.317  1.00  0.00    -0.020 C 
ATOM     16  C   UNL     1       1.554 -10.946  -2.307  1.00  0.00     0.032 C 
ATOM     17  C   UNL     1       1.313  -9.656  -3.119  1.00  0.00     0.006 C 
ATOM     18  C   UNL     1       0.936  -7.194  -2.977  1.00  0.00     0.008 C 
ATOM     19  C   UNL     1       3.264  -8.030  -2.523  1.00  0.00     0.012 C 
ATOM     20  C   UNL     1       1.670  -9.706  -4.675  1.00  0.00    -0.025 C 
ATOM     21  C   UNL     1       0.556  -7.365  -4.480  1.00  0.00     0.005 C 
ATOM     22  C   UNL     1       1.523  -8.246  -5.328  1.00  0.00     0.003 C 
ATOM     23  C   UNL     1       0.671 -10.723  -5.332  1.00  0.00     0.010 C 
ATOM     24  C   UNL     1       3.118 -10.251  -4.875  1.00  0.00     0.012 C 
ATOM     25  C   UNL     1       1.228  -8.198  -6.901  1.00  0.00    -0.006 C 
ATOM     26  C   UNL     1       0.585 -10.664  -6.852  1.00  0.00     0.033 C 
ATOM     27  C   UNL     1       0.179  -9.267  -7.312  1.00  0.00     0.120 C 
ATOM     28  C   UNL     1       0.682  -6.813  -7.347  1.00  0.00     0.014 C 
ATOM     29  C   UNL     1       2.550  -8.383  -7.703  1.00  0.00     0.014 C 
ENDROOT
BRANCH   1  30
ATOM     30  C   UNL     1       0.372  -9.305   3.110  1.00  0.00     0.048 C 
ATOM     31  O   UNL     1       0.720 -10.516   3.052  1.00  0.00    -0.550 OA
ATOM     32  O   UNL     1       0.486  -8.656   4.335  1.00  0.00    -0.550 OA
ENDBRANCH   1  30
BRANCH  27  33
ATOM     33  O   UNL     1      -0.002  -9.271  -8.706  1.00  0.00    -0.393 OA
ATOM     34  H   UNL     1       0.884  -9.086  -9.116  1.00  0.00     0.210 HD
ENDBRANCH  27  33
TORSDOF 2
ENDMDL
MODEL 8
REMARK VINA RESULT:    -4.551     13.272     15.354
REMARK INTER + INTRA:          -5.198
REMARK INTER:                  -4.946
REMARK INTRA:                  -0.252
REMARK UNBOUND:                -0.248
REMARK SMILES C[C@H]1[C@H]2C3=CC[C@@H]4[C@@]5(C)CC[C@H](O)C(C)(C)[C@H]5CC[C@@]4(C)[C@@]3(C)CC[C@@]2(C(=O)[O-])CC[C@@H]1C
REMARK SMILES IDX 26 1 30 2 25 3 3 4 31 5 24 6 4 7 2 8 32 9 22 10 5 11 1 12
REMARK SMILES IDX 33 13 23 14 20 15 6 16 7 17 19 18 21 19 8 20 18 21 17 22
REMARK SMILES IDX 10 23 9 24 14 25 11 26 12 27 15 28 16 29 27 30 28 31 29 32
REMARK SMILES IDX 13 33
REMARK H PARENT 13 34
REMARK Flexibility Score: inf
ROOT
ATOM      1  C   UNL     1       1.710  -4.082   7.279  1.00  0.00     0.017 C 
ATOM      2  C   UNL     1       2.189  -2.610   7.117  1.00  0.00     0.014 C 
ATOM      3  C   UNL     1       2.899  -5.017   6.826  1.00  0.00     0.014 C 
ATOM      4  C   UNL     1       0.349  -4.328   6.470  1.00  0.00     0.030 C 
ATOM      5  C   UNL     1       1.055  -1.593   7.245  1.00  0.00     0.004 C 
ATOM      6  C   UNL     1       2.676  -5.746   5.504  1.00  0.00     0.013 C 
ATOM      7  C   UNL     1       0.188  -5.703   5.802  1.00  0.00    -0.063 C 
ATOM      8  C   UNL     1      -0.077  -3.175   5.497  1.00  0.00    -0.003 C 
ATOM      9  C   UNL     1      -0.052  -1.769   6.177  1.00  0.00    -0.011 C 
ATOM     10  C   UNL     1       1.380  -6.611   5.482  1.00  0.00    -0.006 C 
ATOM     11  C   UNL     1      -1.064  -6.181   5.594  1.00  0.00    -0.027 C 
ATOM     12  C   UNL     1       0.661  -3.166   4.145  1.00  0.00     0.008 C 
ATOM     13  C   UNL     1      -1.424  -1.422   6.783  1.00  0.00     0.008 C 
ATOM     14  C   UNL     1       1.447  -7.583   6.717  1.00  0.00     0.017 C 
ATOM     15  C   UNL     1       1.188  -7.419   4.053  1.00  0.00    -0.020 C 
ATOM     16  C   UNL     1      -1.288  -7.431   4.788  1.00  0.00     0.032 C 
ATOM     17  C   UNL     1      -0.319  -7.392   3.588  1.00  0.00     0.006 C 
ATOM     18  C   UNL     1       1.987  -6.798   2.845  1.00  0.00     0.008 C 
ATOM     19  C   UNL     1       1.726  -8.875   4.237  1.00  0.00     0.012 C 
ATOM     20  C   UNL     1      -0.710  -8.276   2.316  1.00  0.00    -0.025 C 
ATOM     21  C   UNL     1       1.366  -6.985   1.427  1.00  0.00     0.005 C 
ATOM     22  C   UNL     1       0.480  -8.254   1.237  1.00  0.00     0.003 C 
ATOM     23  C   UNL     1      -2.023  -7.654   1.723  1.00  0.00     0.010 C 
ATOM     24  C   UNL     1      -1.022  -9.739   2.757  1.00  0.00     0.012 C 
ATOM     25  C   UNL     1       0.062  -8.529  -0.284  1.00  0.00    -0.006 C 
ATOM     26  C   UNL     1      -2.379  -8.103   0.313  1.00  0.00     0.033 C 
ATOM     27  C   UNL     1      -1.246  -7.778  -0.656  1.00  0.00     0.120 C 
ATOM     28  C   UNL     1       1.163  -8.068  -1.281  1.00  0.00     0.014 C 
ATOM     29  C   UNL     1      -0.088 -10.059  -0.535  1.00  0.00     0.014 C 
ENDROOT
BRANCH   1  30
ATOM     30  C   UNL     1       1.472  -4.296   8.786  1.00  0.00     0.048 C 
ATOM     31  O   UNL     1       0.322  -4.555   9.231  1.00  0.00    -0.550 OA
ATOM     32  O   UNL     1       2.498  -4.114   9.708  1.00  0.00    -0.550 OA
ENDBRANCH   1  30
BRANCH  27  33
ATOM     33  O   UNL     1      -1.645  -8.099  -1.965  1.00  0.00    -0.393 OA
ATOM     34  H   UNL     1      -1.513  -9.077  -2.078  1.00  0.00     0.210 HD
ENDBRANCH  27  33
TORSDOF 2
ENDMDL
MODEL 9
REMARK VINA RESULT:    -4.540     12.962     14.925
REMARK INTER + INTRA:          -5.187
REMARK INTER:                  -4.995
REMARK INTRA:                  -0.192
REMARK UNBOUND:                -0.248
REMARK SMILES C[C@H]1[C@H]2C3=CC[C@@H]4[C@@]5(C)CC[C@H](O)C(C)(C)[C@H]5CC[C@@]4(C)[C@@]3(C)CC[C@@]2(C(=O)[O-])CC[C@@H]1C
REMARK SMILES IDX 26 1 30 2 25 3 3 4 31 5 24 6 4 7 2 8 32 9 22 10 5 11 1 12
REMARK SMILES IDX 33 13 23 14 20 15 6 16 7 17 19 18 21 19 8 20 18 21 17 22
REMARK SMILES IDX 10 23 9 24 14 25 11 26 12 27 15 28 16 29 27 30 28 31 29 32
REMARK SMILES IDX 13 33
REMARK H PARENT 13 34
REMARK Flexibility Score: inf
ROOT
ATOM      1  C   UNL     1      -0.880   5.287   5.880  1.00  0.00     0.017 C 
ATOM      2  C   UNL     1       0.085   6.317   5.225  1.00  0.00     0.014 C 
ATOM      3  C   UNL     1      -0.321   4.969   7.322  1.00  0.00     0.014 C 
ATOM      4  C   UNL     1      -1.046   3.993   4.950  1.00  0.00     0.030 C 
ATOM      5  C   UNL     1      -0.165   6.505   3.729  1.00  0.00     0.004 C 
ATOM      6  C   UNL     1       0.276   3.574   7.487  1.00  0.00     0.013 C 
ATOM      7  C   UNL     1      -1.180   2.643   5.673  1.00  0.00    -0.063 C 
ATOM      8  C   UNL     1      -0.047   3.892   3.747  1.00  0.00    -0.003 C 
ATOM      9  C   UNL     1       0.023   5.207   2.906  1.00  0.00    -0.011 C 
ATOM     10  C   UNL     1      -0.711   2.426   7.115  1.00  0.00    -0.006 C 
ATOM     11  C   UNL     1      -1.845   1.637   5.051  1.00  0.00    -0.027 C 
ATOM     12  C   UNL     1       1.357   3.379   4.117  1.00  0.00     0.008 C 
ATOM     13  C   UNL     1      -0.985   5.174   1.743  1.00  0.00     0.008 C 
ATOM     14  C   UNL     1      -2.016   2.641   7.966  1.00  0.00     0.017 C 
ATOM     15  C   UNL     1      -0.047   0.930   7.342  1.00  0.00    -0.020 C 
ATOM     16  C   UNL     1      -1.854   0.248   5.626  1.00  0.00     0.032 C 
ATOM     17  C   UNL     1      -0.437  -0.044   6.163  1.00  0.00     0.006 C 
ATOM     18  C   UNL     1       1.529   0.915   7.363  1.00  0.00     0.008 C 
ATOM     19  C   UNL     1      -0.514   0.393   8.734  1.00  0.00     0.012 C 
ATOM     20  C   UNL     1      -0.025  -1.580   6.315  1.00  0.00    -0.025 C 
ATOM     21  C   UNL     1       2.222  -0.389   6.860  1.00  0.00     0.005 C 
ATOM     22  C   UNL     1       1.403  -1.704   7.039  1.00  0.00     0.003 C 
ATOM     23  C   UNL     1       0.022  -2.177   4.864  1.00  0.00     0.010 C 
ATOM     24  C   UNL     1      -1.116  -2.349   7.120  1.00  0.00     0.012 C 
ATOM     25  C   UNL     1       2.241  -3.033   6.732  1.00  0.00    -0.006 C 
ATOM     26  C   UNL     1       0.736  -3.516   4.733  1.00  0.00     0.033 C 
ATOM     27  C   UNL     1       2.176  -3.407   5.225  1.00  0.00     0.120 C 
ATOM     28  C   UNL     1       3.742  -2.873   7.107  1.00  0.00     0.014 C 
ATOM     29  C   UNL     1       1.731  -4.209   7.616  1.00  0.00     0.014 C 
ENDROOT
BRANCH   1  30
ATOM     30  C   UNL     1      -2.236   6.003   6.034  1.00  0.00     0.048 C 
ATOM     31  O   UNL     1      -3.145   5.861   5.172  1.00  0.00    -0.550 OA
ATOM     32  O   UNL     1      -2.461   6.900   7.073  1.00  0.00    -0.550 OA
ENDBRANCH   1  30
BRANCH  27  33
ATOM     33  O   UNL     1       2.842  -4.622   4.989  1.00  0.00    -0.393 OA
ATOM     34  H   UNL     1       2.657  -5.212   5.767  1.00  0.00     0.210 HD
ENDBRANCH  27  33
TORSDOF 2
ENDMDL
