MODEL 1
REMARK VINA RESULT:    -4.654      0.000      0.000
REMARK INTER + INTRA:          -6.558
REMARK INTER:                  -6.286
REMARK INTRA:                  -0.271
REMARK UNBOUND:                -0.271
REMARK SMILES O=C[C@@H](O)[C@@H](O)[C@@H](O)CO
REMARK SMILES IDX 7 1 9 2 10 3 5 5 3 6 2 7 1 8 4 9 6 11 8 13
REMARK H PARENT 10 4 4 10 6 12 8 14
REMARK Flexibility Score: inf
ROOT
ATOM      1  C   UNL     1      64.840   2.989 -20.588  1.00  0.00     0.171 C 
ENDROOT
BRANCH   1   2
ATOM      2  C   UNL     1      65.264   2.093 -19.414  1.00  0.00     0.190 C 
BRANCH   2   3
ATOM      3  O   UNL     1      66.553   2.447 -18.997  1.00  0.00    -0.394 OA
ATOM      4  H   UNL     1      66.929   1.647 -18.546  1.00  0.00     0.210 HD
ENDBRANCH   2   3
ENDBRANCH   1   2
BRANCH   1   5
ATOM      5  C   UNL     1      64.452   2.221 -21.887  1.00  0.00     0.181 C 
BRANCH   5   6
ATOM      6  C   UNL     1      64.387   0.673 -21.743  1.00  0.00     0.209 C 
BRANCH   6   7
ATOM      7  C   UNL     1      63.026   0.156 -21.346  1.00  0.00     0.258 C 
ATOM      8  O   UNL     1      62.075   0.274 -22.102  1.00  0.00    -0.300 OA
ENDBRANCH   6   7
BRANCH   6   9
ATOM      9  O   UNL     1      64.786   0.055 -22.941  1.00  0.00    -0.383 OA
ATOM     10  H   UNL     1      65.579  -0.507 -22.741  1.00  0.00     0.211 HD
ENDBRANCH   6   9
ENDBRANCH   5   6
BRANCH   5  11
ATOM     11  O   UNL     1      63.298   2.746 -22.500  1.00  0.00    -0.387 OA
ATOM     12  H   UNL     1      63.166   3.672 -22.175  1.00  0.00     0.211 HD
ENDBRANCH   5  11
ENDBRANCH   1   5
BRANCH   1  13
ATOM     13  O   UNL     1      63.759   3.791 -20.180  1.00  0.00    -0.388 OA
ATOM     14  H   UNL     1      63.284   3.293 -19.465  1.00  0.00     0.211 HD
ENDBRANCH   1  13
TORSDOF 8
ENDMDL
MODEL 2
REMARK VINA RESULT:    -4.382      2.708      4.525
REMARK INTER + INTRA:          -6.191
REMARK INTER:                  -5.691
REMARK INTRA:                  -0.500
REMARK UNBOUND:                -0.271
REMARK SMILES O=C[C@@H](O)[C@@H](O)[C@@H](O)CO
REMARK SMILES IDX 7 1 9 2 10 3 5 5 3 6 2 7 1 8 4 9 6 11 8 13
REMARK H PARENT 10 4 4 10 6 12 8 14
REMARK Flexibility Score: inf
ROOT
ATOM      1  C   UNL     1      64.818  -2.145 -21.470  1.00  0.00     0.171 C 
ENDROOT
BRANCH   1   2
ATOM      2  C   UNL     1      63.777  -3.219 -21.119  1.00  0.00     0.190 C 
BRANCH   2   3
ATOM      3  O   UNL     1      64.034  -3.718 -19.835  1.00  0.00    -0.394 OA
ATOM      4  H   UNL     1      63.890  -4.699 -19.885  1.00  0.00     0.210 HD
ENDBRANCH   2   3
ENDBRANCH   1   2
BRANCH   1   5
ATOM      5  C   UNL     1      64.576  -0.759 -20.799  1.00  0.00     0.181 C 
BRANCH   5   6
ATOM      6  C   UNL     1      64.278   0.407 -21.785  1.00  0.00     0.209 C 
BRANCH   6   7
ATOM      7  C   UNL     1      64.700   1.761 -21.268  1.00  0.00     0.258 C 
ATOM      8  O   UNL     1      65.151   1.881 -20.140  1.00  0.00    -0.300 OA
ENDBRANCH   6   7
BRANCH   6   9
ATOM      9  O   UNL     1      64.899   0.170 -23.023  1.00  0.00    -0.383 OA
ATOM     10  H   UNL     1      65.755  -0.301 -22.845  1.00  0.00     0.211 HD
ENDBRANCH   6   9
ENDBRANCH   5   6
BRANCH   5  11
ATOM     11  O   UNL     1      63.637  -0.823 -19.752  1.00  0.00    -0.387 OA
ATOM     12  H   UNL     1      62.730  -0.829 -20.147  1.00  0.00     0.211 HD
ENDBRANCH   5  11
ENDBRANCH   1   5
BRANCH   1  13
ATOM     13  O   UNL     1      66.094  -2.617 -21.117  1.00  0.00    -0.388 OA
ATOM     14  H   UNL     1      65.964  -3.489 -20.660  1.00  0.00     0.211 HD
ENDBRANCH   1  13
TORSDOF 8
ENDMDL
MODEL 3
REMARK VINA RESULT:    -4.364      1.936      2.323
REMARK INTER + INTRA:          -6.165
REMARK INTER:                  -5.513
REMARK INTRA:                  -0.653
REMARK UNBOUND:                -0.271
REMARK SMILES O=C[C@@H](O)[C@@H](O)[C@@H](O)CO
REMARK SMILES IDX 7 1 9 2 10 3 5 5 3 6 2 7 1 8 4 9 6 11 8 13
REMARK H PARENT 10 4 4 10 6 12 8 14
REMARK Flexibility Score: inf
ROOT
ATOM      1  C   UNL     1      64.853   1.914 -21.296  1.00  0.00     0.171 C 
ENDROOT
BRANCH   1   2
ATOM      2  C   UNL     1      64.994   3.025 -20.244  1.00  0.00     0.190 C 
BRANCH   2   3
ATOM      3  O   UNL     1      65.986   2.673 -19.321  1.00  0.00    -0.394 OA
ATOM      4  H   UNL     1      66.267   3.516 -18.880  1.00  0.00     0.210 HD
ENDBRANCH   2   3
ENDBRANCH   1   2
BRANCH   1   5
ATOM      5  C   UNL     1      64.172   0.611 -20.780  1.00  0.00     0.181 C 
BRANCH   5   6
ATOM      6  C   UNL     1      64.789  -0.713 -21.317  1.00  0.00     0.209 C 
BRANCH   6   7
ATOM      7  C   UNL     1      64.021  -1.948 -20.913  1.00  0.00     0.258 C 
ATOM      8  O   UNL     1      64.017  -2.321 -19.751  1.00  0.00    -0.300 OA
ENDBRANCH   6   7
BRANCH   6   9
ATOM      9  O   UNL     1      64.891  -0.669 -22.718  1.00  0.00    -0.383 OA
ATOM     10  H   UNL     1      65.788  -0.305 -22.943  1.00  0.00     0.211 HD
ENDBRANCH   6   9
ENDBRANCH   5   6
BRANCH   5  11
ATOM     11  O   UNL     1      64.025   0.598 -19.379  1.00  0.00    -0.387 OA
ATOM     12  H   UNL     1      64.926   0.587 -18.971  1.00  0.00     0.211 HD
ENDBRANCH   5  11
ENDBRANCH   1   5
BRANCH   1  13
ATOM     13  O   UNL     1      64.130   2.416 -22.392  1.00  0.00    -0.388 OA
ATOM     14  H   UNL     1      63.956   3.375 -22.209  1.00  0.00     0.211 HD
ENDBRANCH   1  13
TORSDOF 8
ENDMDL
MODEL 4
REMARK VINA RESULT:    -4.295      2.111      3.271
REMARK INTER + INTRA:          -6.074
REMARK INTER:                  -5.408
REMARK INTRA:                  -0.665
REMARK UNBOUND:                -0.271
REMARK SMILES O=C[C@@H](O)[C@@H](O)[C@@H](O)CO
REMARK SMILES IDX 7 1 9 2 10 3 5 5 3 6 2 7 1 8 4 9 6 11 8 13
REMARK H PARENT 10 4 4 10 6 12 8 14
REMARK Flexibility Score: inf
ROOT
ATOM      1  C   UNL     1      64.286   1.311 -20.584  1.00  0.00     0.171 C 
ENDROOT
BRANCH   1   2
ATOM      2  C   UNL     1      64.484   2.559 -21.457  1.00  0.00     0.190 C 
BRANCH   2   3
ATOM      3  O   UNL     1      63.488   2.604 -22.441  1.00  0.00    -0.394 OA
ATOM      4  H   UNL     1      62.754   3.159 -22.068  1.00  0.00     0.210 HD
ENDBRANCH   2   3
ENDBRANCH   1   2
BRANCH   1   5
ATOM      5  C   UNL     1      64.685  -0.032 -21.267  1.00  0.00     0.181 C 
BRANCH   5   6
ATOM      6  C   UNL     1      64.077  -1.308 -20.618  1.00  0.00     0.209 C 
BRANCH   6   7
ATOM      7  C   UNL     1      64.957  -2.528 -20.737  1.00  0.00     0.258 C 
ATOM      8  O   UNL     1      65.925  -2.523 -21.481  1.00  0.00    -0.300 OA
ENDBRANCH   6   7
BRANCH   6   9
ATOM      9  O   UNL     1      63.790  -1.075 -19.262  1.00  0.00    -0.383 OA
ATOM     10  H   UNL     1      64.079  -1.876 -18.751  1.00  0.00     0.211 HD
ENDBRANCH   6   9
ENDBRANCH   5   6
BRANCH   5  11
ATOM     11  O   UNL     1      64.497  -0.004 -22.662  1.00  0.00    -0.387 OA
ATOM     12  H   UNL     1      64.570  -0.930 -23.005  1.00  0.00     0.211 HD
ENDBRANCH   5  11
ENDBRANCH   1   5
BRANCH   1  13
ATOM     13  O   UNL     1      65.022   1.467 -19.396  1.00  0.00    -0.388 OA
ATOM     14  H   UNL     1      65.961   1.654 -19.660  1.00  0.00     0.211 HD
ENDBRANCH   1  13
TORSDOF 8
ENDMDL
MODEL 5
REMARK VINA RESULT:    -4.158      1.594      3.468
REMARK INTER + INTRA:          -5.888
REMARK INTER:                  -5.287
REMARK INTRA:                  -0.601
REMARK UNBOUND:                -0.271
REMARK SMILES O=C[C@@H](O)[C@@H](O)[C@@H](O)CO
REMARK SMILES IDX 7 1 9 2 10 3 5 5 3 6 2 7 1 8 4 9 6 11 8 13
REMARK H PARENT 10 4 4 10 6 12 8 14
REMARK Flexibility Score: inf
ROOT
ATOM      1  C   UNL     1      64.081  -0.132 -20.287  1.00  0.00     0.171 C 
ENDROOT
BRANCH   1   2
ATOM      2  C   UNL     1      64.346  -1.472 -20.990  1.00  0.00     0.190 C 
BRANCH   2   3
ATOM      3  O   UNL     1      64.922  -1.235 -22.245  1.00  0.00    -0.394 OA
ATOM      4  H   UNL     1      65.797  -0.800 -22.071  1.00  0.00     0.210 HD
ENDBRANCH   2   3
ENDBRANCH   1   2
BRANCH   1   5
ATOM      5  C   UNL     1      63.310   0.914 -21.146  1.00  0.00     0.181 C 
BRANCH   5   6
ATOM      6  C   UNL     1      64.178   2.083 -21.696  1.00  0.00     0.209 C 
BRANCH   6   7
ATOM      7  C   UNL     1      65.165   2.631 -20.694  1.00  0.00     0.258 C 
ATOM      8  O   UNL     1      64.798   3.406 -19.825  1.00  0.00    -0.300 OA
ENDBRANCH   6   7
BRANCH   6   9
ATOM      9  O   UNL     1      64.869   1.676 -22.850  1.00  0.00    -0.383 OA
ATOM     10  H   UNL     1      65.057   2.488 -23.391  1.00  0.00     0.211 HD
ENDBRANCH   6   9
ENDBRANCH   5   6
BRANCH   5  11
ATOM     11  O   UNL     1      62.528   0.315 -22.152  1.00  0.00    -0.387 OA
ATOM     12  H   UNL     1      61.647   0.766 -22.171  1.00  0.00     0.211 HD
ENDBRANCH   5  11
ENDBRANCH   1   5
BRANCH   1  13
ATOM     13  O   UNL     1      63.368  -0.376 -19.099  1.00  0.00    -0.388 OA
ATOM     14  H   UNL     1      63.316   0.487 -18.611  1.00  0.00     0.211 HD
ENDBRANCH   1  13
TORSDOF 8
ENDMDL
MODEL 6
REMARK VINA RESULT:    -4.155      2.672      3.774
REMARK INTER + INTRA:          -5.884
REMARK INTER:                  -5.188
REMARK INTRA:                  -0.696
REMARK UNBOUND:                -0.271
REMARK SMILES O=C[C@@H](O)[C@@H](O)[C@@H](O)CO
REMARK SMILES IDX 7 1 9 2 10 3 5 5 3 6 2 7 1 8 4 9 6 11 8 13
REMARK H PARENT 10 4 4 10 6 12 8 14
REMARK Flexibility Score: inf
ROOT
ATOM      1  C   UNL     1      63.587   0.945 -20.440  1.00  0.00     0.171 C 
ENDROOT
BRANCH   1   2
ATOM      2  C   UNL     1      62.395   1.347 -21.321  1.00  0.00     0.190 C 
BRANCH   2   3
ATOM      3  O   UNL     1      62.603   0.887 -22.628  1.00  0.00    -0.394 OA
ATOM      4  H   UNL     1      62.397   1.651 -23.227  1.00  0.00     0.210 HD
ENDBRANCH   2   3
ENDBRANCH   1   2
BRANCH   1   5
ATOM      5  C   UNL     1      63.635  -0.565 -20.058  1.00  0.00     0.181 C 
BRANCH   5   6
ATOM      6  C   UNL     1      64.715  -1.400 -20.806  1.00  0.00     0.209 C 
BRANCH   6   7
ATOM      7  C   UNL     1      64.647  -2.880 -20.516  1.00  0.00     0.258 C 
ATOM      8  O   UNL     1      64.502  -3.280 -19.372  1.00  0.00    -0.300 OA
ENDBRANCH   6   7
BRANCH   6   9
ATOM      9  O   UNL     1      64.615  -1.195 -22.193  1.00  0.00    -0.383 OA
ATOM     10  H   UNL     1      65.464  -1.506 -22.605  1.00  0.00     0.211 HD
ENDBRANCH   6   9
ENDBRANCH   5   6
BRANCH   5  11
ATOM     11  O   UNL     1      63.677  -0.769 -18.666  1.00  0.00    -0.387 OA
ATOM     12  H   UNL     1      63.064  -1.512 -18.441  1.00  0.00     0.211 HD
ENDBRANCH   5  11
ENDBRANCH   1   5
BRANCH   1  13
ATOM     13  O   UNL     1      64.778   1.298 -21.099  1.00  0.00    -0.388 OA
ATOM     14  H   UNL     1      64.947   2.255 -20.897  1.00  0.00     0.211 HD
ENDBRANCH   1  13
TORSDOF 8
ENDMDL
MODEL 7
REMARK VINA RESULT:    -4.119      1.626      3.535
REMARK INTER + INTRA:          -5.835
REMARK INTER:                  -5.161
REMARK INTRA:                  -0.674
REMARK UNBOUND:                -0.271
REMARK SMILES O=C[C@@H](O)[C@@H](O)[C@@H](O)CO
REMARK SMILES IDX 7 1 9 2 10 3 5 5 3 6 2 7 1 8 4 9 6 11 8 13
REMARK H PARENT 10 4 4 10 6 12 8 14
REMARK Flexibility Score: inf
ROOT
ATOM      1  C   UNL     1      63.295   0.335 -21.250  1.00  0.00     0.171 C 
ENDROOT
BRANCH   1   2
ATOM      2  C   UNL     1      62.557   0.267 -19.905  1.00  0.00     0.190 C 
BRANCH   2   3
ATOM      3  O   UNL     1      63.421  -0.231 -18.922  1.00  0.00    -0.394 OA
ATOM      4  H   UNL     1      63.158   0.210 -18.072  1.00  0.00     0.210 HD
ENDBRANCH   2   3
ENDBRANCH   1   2
BRANCH   1   5
ATOM      5  C   UNL     1      63.588   1.778 -21.761  1.00  0.00     0.181 C 
BRANCH   5   6
ATOM      6  C   UNL     1      63.646   2.870 -20.654  1.00  0.00     0.209 C 
BRANCH   6   7
ATOM      7  C   UNL     1      65.011   3.032 -20.032  1.00  0.00     0.258 C 
ATOM      8  O   UNL     1      65.597   2.068 -19.566  1.00  0.00    -0.300 OA
ENDBRANCH   6   7
BRANCH   6   9
ATOM      9  O   UNL     1      63.222   4.107 -21.168  1.00  0.00    -0.383 OA
ATOM     10  H   UNL     1      63.510   4.812 -20.531  1.00  0.00     0.211 HD
ENDBRANCH   6   9
ENDBRANCH   5   6
BRANCH   5  11
ATOM     11  O   UNL     1      64.704   1.831 -22.618  1.00  0.00    -0.387 OA
ATOM     12  H   UNL     1      64.731   0.994 -23.146  1.00  0.00     0.211 HD
ENDBRANCH   5  11
ENDBRANCH   1   5
BRANCH   1  13
ATOM     13  O   UNL     1      64.504  -0.375 -21.141  1.00  0.00    -0.388 OA
ATOM     14  H   UNL     1      64.533  -0.756 -20.225  1.00  0.00     0.211 HD
ENDBRANCH   1  13
TORSDOF 8
ENDMDL
MODEL 8
REMARK VINA RESULT:    -4.084      1.340      2.302
REMARK INTER + INTRA:          -5.788
REMARK INTER:                  -5.264
REMARK INTRA:                  -0.524
REMARK UNBOUND:                -0.271
REMARK SMILES O=C[C@@H](O)[C@@H](O)[C@@H](O)CO
REMARK SMILES IDX 7 1 9 2 10 3 5 5 3 6 2 7 1 8 4 9 6 11 8 13
REMARK H PARENT 10 4 4 10 6 12 8 14
REMARK Flexibility Score: inf
ROOT
ATOM      1  C   UNL     1      64.694   2.168 -21.579  1.00  0.00     0.171 C 
ENDROOT
BRANCH   1   2
ATOM      2  C   UNL     1      64.540   2.993 -20.292  1.00  0.00     0.190 C 
BRANCH   2   3
ATOM      3  O   UNL     1      63.361   3.747 -20.359  1.00  0.00    -0.394 OA
ATOM      4  H   UNL     1      63.633   4.696 -20.259  1.00  0.00     0.210 HD
ENDBRANCH   2   3
ENDBRANCH   1   2
BRANCH   1   5
ATOM      5  C   UNL     1      64.538   0.629 -21.389  1.00  0.00     0.181 C 
BRANCH   5   6
ATOM      6  C   UNL     1      63.382   0.197 -20.442  1.00  0.00     0.209 C 
BRANCH   6   7
ATOM      7  C   UNL     1      62.073  -0.046 -21.153  1.00  0.00     0.258 C 
ATOM      8  O   UNL     1      61.876   0.420 -22.264  1.00  0.00    -0.300 OA
ENDBRANCH   6   7
BRANCH   6   9
ATOM      9  O   UNL     1      63.743  -0.960 -19.729  1.00  0.00    -0.383 OA
ATOM     10  H   UNL     1      64.676  -0.838 -19.411  1.00  0.00     0.211 HD
ENDBRANCH   6   9
ENDBRANCH   5   6
BRANCH   5  11
ATOM     11  O   UNL     1      64.509  -0.065 -22.613  1.00  0.00    -0.387 OA
ATOM     12  H   UNL     1      63.565  -0.254 -22.843  1.00  0.00     0.211 HD
ENDBRANCH   5  11
ENDBRANCH   1   5
BRANCH   1  13
ATOM     13  O   UNL     1      63.755   2.619 -22.523  1.00  0.00    -0.388 OA
ATOM     14  H   UNL     1      63.820   2.015 -23.307  1.00  0.00     0.211 HD
ENDBRANCH   1  13
TORSDOF 8
ENDMDL
MODEL 9
REMARK VINA RESULT:    -4.081      2.877      4.610
REMARK INTER + INTRA:          -5.784
REMARK INTER:                  -5.098
REMARK INTRA:                  -0.686
REMARK UNBOUND:                -0.271
REMARK SMILES O=C[C@@H](O)[C@@H](O)[C@@H](O)CO
REMARK SMILES IDX 7 1 9 2 10 3 5 5 3 6 2 7 1 8 4 9 6 11 8 13
REMARK H PARENT 10 4 4 10 6 12 8 14
REMARK Flexibility Score: inf
ROOT
ATOM      1  C   UNL     1      64.757  -2.250 -21.614  1.00  0.00     0.171 C 
ENDROOT
BRANCH   1   2
ATOM      2  C   UNL     1      63.742  -3.372 -21.346  1.00  0.00     0.190 C 
BRANCH   2   3
ATOM      3  O   UNL     1      63.768  -3.711 -19.987  1.00  0.00    -0.394 OA
ATOM      4  H   UNL     1      62.846  -3.566 -19.648  1.00  0.00     0.210 HD
ENDBRANCH   2   3
ENDBRANCH   1   2
BRANCH   1   5
ATOM      5  C   UNL     1      64.193  -0.808 -21.445  1.00  0.00     0.181 C 
BRANCH   5   6
ATOM      6  C   UNL     1      64.534  -0.120 -20.091  1.00  0.00     0.209 C 
BRANCH   6   7
ATOM      7  C   UNL     1      64.279   1.367 -20.084  1.00  0.00     0.258 C 
ATOM      8  O   UNL     1      65.104   2.139 -20.547  1.00  0.00    -0.300 OA
ENDBRANCH   6   7
BRANCH   6   9
ATOM      9  O   UNL     1      63.812  -0.719 -19.045  1.00  0.00    -0.383 OA
ATOM     10  H   UNL     1      63.047  -0.124 -18.828  1.00  0.00     0.211 HD
ENDBRANCH   6   9
ENDBRANCH   5   6
BRANCH   5  11
ATOM     11  O   UNL     1      64.483   0.018 -22.548  1.00  0.00    -0.387 OA
ATOM     12  H   UNL     1      65.444  -0.080 -22.765  1.00  0.00     0.211 HD
ENDBRANCH   5  11
ENDBRANCH   1   5
BRANCH   1  13
ATOM     13  O   UNL     1      65.860  -2.423 -20.759  1.00  0.00    -0.388 OA
ATOM     14  H   UNL     1      66.240  -3.318 -20.956  1.00  0.00     0.211 HD
ENDBRANCH   1  13
TORSDOF 8
ENDMDL
