MODEL 1
REMARK VINA RESULT:    -5.848      0.000      0.000
REMARK INTER + INTRA:         -10.373
REMARK INTER:                  -8.924
REMARK INTRA:                  -1.449
REMARK UNBOUND:                -1.449
REMARK SMILES OC[C@@H]1O[C@](CO)(O[C@@H]2O[C@@H](CO)[C@@H](O)[C@H](O)[C@H]2O)[C@H](O)[C@@H]1O
REMARK SMILES IDX 8 1 9 2 11 3 14 4 10 5 16 6 18 7 12 8 13 9 15 11 17 13 19 15
REMARK SMILES IDX 5 17 20 18 4 19 22 20 3 21 6 22 7 23 21 25 23 27 2 29 1 30
REMARK H PARENT 13 10 15 12 17 14 19 16 7 24 21 26 23 28 1 31
REMARK Flexibility Score: inf
ROOT
ATOM      1  O   UNL     1      37.935  31.051  37.575  1.00  0.00    -0.313 OA
ENDROOT
BRANCH   1   2
ATOM      2  C   UNL     1      37.957  30.897  36.157  1.00  0.00     0.285 C 
ATOM      3  C   UNL     1      38.521  28.662  35.643  1.00  0.00     0.178 C 
ATOM      4  C   UNL     1      39.299  28.998  34.348  1.00  0.00     0.177 C 
ATOM      5  O   UNL     1      37.469  29.594  35.809  1.00  0.00    -0.341 OA
ATOM      6  C   UNL     1      39.492  30.536  34.211  1.00  0.00     0.179 C 
ATOM      7  C   UNL     1      39.377  31.231  35.584  1.00  0.00     0.202 C 
BRANCH   3   8
ATOM      8  C   UNL     1      37.994  27.205  35.675  1.00  0.00     0.191 C 
BRANCH   8   9
ATOM      9  O   UNL     1      38.462  26.494  36.793  1.00  0.00    -0.394 OA
ATOM     10  H   UNL     1      37.960  26.816  37.588  1.00  0.00     0.210 HD
ENDBRANCH   8   9
ENDBRANCH   3   8
BRANCH   4  11
ATOM     11  O   UNL     1      38.593  28.512  33.235  1.00  0.00    -0.387 OA
ATOM     12  H   UNL     1      39.204  27.891  32.764  1.00  0.00     0.211 HD
ENDBRANCH   4  11
BRANCH   6  13
ATOM     13  O   UNL     1      40.747  30.827  33.650  1.00  0.00    -0.387 OA
ATOM     14  H   UNL     1      40.642  30.737  32.661  1.00  0.00     0.211 HD
ENDBRANCH   6  13
BRANCH   7  15
ATOM     15  O   UNL     1      39.540  32.629  35.437  1.00  0.00    -0.385 OA
ATOM     16  H   UNL     1      38.754  33.090  35.848  1.00  0.00     0.211 HD
ENDBRANCH   7  15
ENDBRANCH   1   2
BRANCH   1  17
ATOM     17  C   UNL     1      37.016  32.059  38.026  1.00  0.00     0.224 C 
ATOM     18  C   UNL     1      35.940  31.416  38.916  1.00  0.00     0.208 C 
ATOM     19  O   UNL     1      36.341  32.742  36.976  1.00  0.00    -0.337 OA
ATOM     20  C   UNL     1      34.804  32.403  38.808  1.00  0.00     0.180 C 
ATOM     21  C   UNL     1      35.048  33.087  37.443  1.00  0.00     0.179 C 
BRANCH  17  22
ATOM     22  C   UNL     1      37.829  33.093  38.829  1.00  0.00     0.225 C 
BRANCH  22  23
ATOM     23  O   UNL     1      39.029  32.525  39.282  1.00  0.00    -0.391 OA
ATOM     24  H   UNL     1      38.775  31.946  40.051  1.00  0.00     0.210 HD
ENDBRANCH  22  23
ENDBRANCH  17  22
BRANCH  18  25
ATOM     25  O   UNL     1      35.562  30.170  38.386  1.00  0.00    -0.385 OA
ATOM     26  H   UNL     1      34.570  30.104  38.469  1.00  0.00     0.211 HD
ENDBRANCH  18  25
BRANCH  20  27
ATOM     27  O   UNL     1      33.552  31.776  38.945  1.00  0.00    -0.387 OA
ATOM     28  H   UNL     1      32.933  32.471  39.291  1.00  0.00     0.211 HD
ENDBRANCH  20  27
BRANCH  21  29
ATOM     29  C   UNL     1      34.034  32.724  36.336  1.00  0.00     0.191 C 
BRANCH  29  30
ATOM     30  O   UNL     1      34.192  31.387  35.940  1.00  0.00    -0.394 OA
ATOM     31  H   UNL     1      33.276  31.016  35.840  1.00  0.00     0.210 HD
ENDBRANCH  29  30
ENDBRANCH  21  29
ENDBRANCH   1  17
TORSDOF 13
ENDMDL
MODEL 2
REMARK VINA RESULT:    -5.793      4.055      6.800
REMARK INTER + INTRA:         -10.290
REMARK INTER:                  -8.322
REMARK INTRA:                  -1.968
REMARK UNBOUND:                -1.449
REMARK SMILES OC[C@@H]1O[C@](CO)(O[C@@H]2O[C@@H](CO)[C@@H](O)[C@H](O)[C@H]2O)[C@H](O)[C@@H]1O
REMARK SMILES IDX 8 1 9 2 11 3 14 4 10 5 16 6 18 7 12 8 13 9 15 11 17 13 19 15
REMARK SMILES IDX 5 17 20 18 4 19 22 20 3 21 6 22 7 23 21 25 23 27 2 29 1 30
REMARK H PARENT 13 10 15 12 17 14 19 16 7 24 21 26 23 28 1 31
REMARK Flexibility Score: inf
ROOT
ATOM      1  O   UNL     1      38.302  35.902  36.508  1.00  0.00    -0.313 OA
ENDROOT
BRANCH   1   2
ATOM      2  C   UNL     1      39.181  35.326  37.473  1.00  0.00     0.285 C 
ATOM      3  C   UNL     1      39.442  33.029  36.988  1.00  0.00     0.178 C 
ATOM      4  C   UNL     1      39.578  32.580  38.462  1.00  0.00     0.177 C 
ATOM      5  O   UNL     1      39.993  34.325  36.843  1.00  0.00    -0.341 OA
ATOM      6  C   UNL     1      39.252  33.758  39.425  1.00  0.00     0.179 C 
ATOM      7  C   UNL     1      38.380  34.819  38.721  1.00  0.00     0.202 C 
BRANCH   3   8
ATOM      8  C   UNL     1      40.077  32.032  35.986  1.00  0.00     0.191 C 
BRANCH   8   9
ATOM      9  O   UNL     1      41.460  32.231  35.842  1.00  0.00    -0.394 OA
ATOM     10  H   UNL     1      41.744  32.891  36.530  1.00  0.00     0.210 HD
ENDBRANCH   8   9
ENDBRANCH   3   8
BRANCH   4  11
ATOM     11  O   UNL     1      40.888  32.130  38.697  1.00  0.00    -0.387 OA
ATOM     12  H   UNL     1      41.028  31.349  38.105  1.00  0.00     0.211 HD
ENDBRANCH   4  11
BRANCH   6  13
ATOM     13  O   UNL     1      38.578  33.289  40.565  1.00  0.00    -0.387 OA
ATOM     14  H   UNL     1      37.647  33.646  40.510  1.00  0.00     0.211 HD
ENDBRANCH   6  13
BRANCH   7  15
ATOM     15  O   UNL     1      38.106  35.889  39.606  1.00  0.00    -0.385 OA
ATOM     16  H   UNL     1      37.168  35.800  39.939  1.00  0.00     0.211 HD
ENDBRANCH   7  15
ENDBRANCH   1   2
BRANCH   1  17
ATOM     17  C   UNL     1      38.944  36.864  35.655  1.00  0.00     0.224 C 
ATOM     18  C   UNL     1      38.866  36.390  34.194  1.00  0.00     0.208 C 
ATOM     19  O   UNL     1      40.317  37.084  35.955  1.00  0.00    -0.337 OA
ATOM     20  C   UNL     1      40.020  37.127  33.558  1.00  0.00     0.180 C 
ATOM     21  C   UNL     1      40.985  37.375  34.739  1.00  0.00     0.179 C 
BRANCH  17  22
ATOM     22  C   UNL     1      38.193  38.200  35.825  1.00  0.00     0.225 C 
BRANCH  22  23
ATOM     23  O   UNL     1      37.220  38.088  36.830  1.00  0.00    -0.391 OA
ATOM     24  H   UNL     1      37.681  37.657  37.599  1.00  0.00     0.210 HD
ENDBRANCH  22  23
ENDBRANCH  17  22
BRANCH  18  25
ATOM     25  O   UNL     1      39.074  35.002  34.130  1.00  0.00    -0.385 OA
ATOM     26  H   UNL     1      38.339  34.570  34.650  1.00  0.00     0.211 HD
ENDBRANCH  18  25
BRANCH  20  27
ATOM     27  O   UNL     1      40.569  36.408  32.481  1.00  0.00    -0.387 OA
ATOM     28  H   UNL     1      41.153  37.046  31.994  1.00  0.00     0.211 HD
ENDBRANCH  20  27
BRANCH  21  29
ATOM     29  C   UNL     1      42.289  36.548  34.707  1.00  0.00     0.191 C 
BRANCH  29  30
ATOM     30  O   UNL     1      42.022  35.194  34.968  1.00  0.00    -0.394 OA
ATOM     31  H   UNL     1      41.064  35.145  35.228  1.00  0.00     0.210 HD
ENDBRANCH  29  30
ENDBRANCH  21  29
ENDBRANCH   1  17
TORSDOF 13
ENDMDL
MODEL 3
REMARK VINA RESULT:    -5.738      7.189      9.510
REMARK INTER + INTRA:         -10.206
REMARK INTER:                  -8.789
REMARK INTRA:                  -1.417
REMARK UNBOUND:                -1.449
REMARK SMILES OC[C@@H]1O[C@](CO)(O[C@@H]2O[C@@H](CO)[C@@H](O)[C@H](O)[C@H]2O)[C@H](O)[C@@H]1O
REMARK SMILES IDX 8 1 9 2 11 3 14 4 10 5 16 6 18 7 12 8 13 9 15 11 17 13 19 15
REMARK SMILES IDX 5 17 20 18 4 19 22 20 3 21 6 22 7 23 21 25 23 27 2 29 1 30
REMARK H PARENT 13 10 15 12 17 14 19 16 7 24 21 26 23 28 1 31
REMARK Flexibility Score: inf
ROOT
ATOM      1  O   UNL     1      37.594  37.029  30.877  1.00  0.00    -0.313 OA
ENDROOT
BRANCH   1   2
ATOM      2  C   UNL     1      37.511  37.400  32.252  1.00  0.00     0.285 C 
ATOM      3  C   UNL     1      38.227  39.640  32.479  1.00  0.00     0.178 C 
ATOM      4  C   UNL     1      38.861  39.453  33.878  1.00  0.00     0.177 C 
ATOM      5  O   UNL     1      37.114  38.775  32.353  1.00  0.00    -0.341 OA
ATOM      6  C   UNL     1      38.904  37.945  34.261  1.00  0.00     0.179 C 
ATOM      7  C   UNL     1      38.843  37.055  33.002  1.00  0.00     0.202 C 
BRANCH   3   8
ATOM      8  C   UNL     1      37.836  41.109  32.179  1.00  0.00     0.191 C 
BRANCH   8   9
ATOM      9  O   UNL     1      38.195  41.501  30.879  1.00  0.00    -0.394 OA
ATOM     10  H   UNL     1      39.131  41.207  30.722  1.00  0.00     0.210 HD
ENDBRANCH   8   9
ENDBRANCH   3   8
BRANCH   4  11
ATOM     11  O   UNL     1      38.111  40.159  34.833  1.00  0.00    -0.387 OA
ATOM     12  H   UNL     1      37.204  40.271  34.451  1.00  0.00     0.211 HD
ENDBRANCH   4  11
BRANCH   6  13
ATOM     13  O   UNL     1      40.077  37.652  34.977  1.00  0.00    -0.387 OA
ATOM     14  H   UNL     1      39.997  38.120  35.855  1.00  0.00     0.211 HD
ENDBRANCH   6  13
BRANCH   7  15
ATOM     15  O   UNL     1      38.868  35.688  33.370  1.00  0.00    -0.385 OA
ATOM     16  H   UNL     1      39.244  35.610  34.293  1.00  0.00     0.211 HD
ENDBRANCH   7  15
ENDBRANCH   1   2
BRANCH   1  17
ATOM     17  C   UNL     1      36.730  35.935  30.528  1.00  0.00     0.224 C 
ATOM     18  C   UNL     1      35.549  36.457  29.692  1.00  0.00     0.208 C 
ATOM     19  O   UNL     1      36.182  35.247  31.647  1.00  0.00    -0.337 OA
ATOM     20  C   UNL     1      34.504  35.392  29.915  1.00  0.00     0.180 C 
ATOM     21  C   UNL     1      34.892  34.786  31.283  1.00  0.00     0.179 C 
BRANCH  17  22
ATOM     22  C   UNL     1      37.566  34.934  29.708  1.00  0.00     0.225 C 
BRANCH  22  23
ATOM     23  O   UNL     1      37.544  35.280  28.348  1.00  0.00    -0.391 OA
ATOM     24  H   UNL     1      38.063  34.568  27.885  1.00  0.00     0.210 HD
ENDBRANCH  22  23
ENDBRANCH  17  22
BRANCH  18  25
ATOM     25  O   UNL     1      35.110  37.691  30.203  1.00  0.00    -0.385 OA
ATOM     26  H   UNL     1      35.217  37.654  31.194  1.00  0.00     0.211 HD
ENDBRANCH  18  25
BRANCH  20  27
ATOM     27  O   UNL     1      33.200  35.915  29.844  1.00  0.00    -0.387 OA
ATOM     28  H   UNL     1      32.751  35.650  30.688  1.00  0.00     0.211 HD
ENDBRANCH  20  27
BRANCH  21  29
ATOM     29  C   UNL     1      33.928  35.115  32.445  1.00  0.00     0.191 C 
BRANCH  29  30
ATOM     30  O   UNL     1      34.060  36.459  32.829  1.00  0.00    -0.394 OA
ATOM     31  H   UNL     1      34.317  36.959  32.010  1.00  0.00     0.210 HD
ENDBRANCH  29  30
ENDBRANCH  21  29
ENDBRANCH   1  17
TORSDOF 13
ENDMDL
MODEL 4
REMARK VINA RESULT:    -5.704      4.561      6.572
REMARK INTER + INTRA:         -10.153
REMARK INTER:                  -8.639
REMARK INTRA:                  -1.514
REMARK UNBOUND:                -1.449
REMARK SMILES OC[C@@H]1O[C@](CO)(O[C@@H]2O[C@@H](CO)[C@@H](O)[C@H](O)[C@H]2O)[C@H](O)[C@@H]1O
REMARK SMILES IDX 8 1 9 2 11 3 14 4 10 5 16 6 18 7 12 8 13 9 15 11 17 13 19 15
REMARK SMILES IDX 5 17 20 18 4 19 22 20 3 21 6 22 7 23 21 25 23 27 2 29 1 30
REMARK H PARENT 13 10 15 12 17 14 19 16 7 24 21 26 23 28 1 31
REMARK Flexibility Score: inf
ROOT
ATOM      1  O   UNL     1      38.060  37.360  37.239  1.00  0.00    -0.313 OA
ENDROOT
BRANCH   1   2
ATOM      2  C   UNL     1      38.058  35.940  37.386  1.00  0.00     0.285 C 
ATOM      3  C   UNL     1      38.862  35.398  39.540  1.00  0.00     0.178 C 
ATOM      4  C   UNL     1      39.557  34.084  39.114  1.00  0.00     0.177 C 
ATOM      5  O   UNL     1      37.714  35.600  38.737  1.00  0.00    -0.341 OA
ATOM      6  C   UNL     1      39.566  33.948  37.563  1.00  0.00     0.179 C 
ATOM      7  C   UNL     1      39.412  35.329  36.890  1.00  0.00     0.202 C 
BRANCH   3   8
ATOM      8  C   UNL     1      38.507  35.438  41.049  1.00  0.00     0.191 C 
BRANCH   8   9
ATOM      9  O   UNL     1      38.860  36.659  41.646  1.00  0.00    -0.394 OA
ATOM     10  H   UNL     1      39.745  36.929  41.283  1.00  0.00     0.210 HD
ENDBRANCH   8   9
ENDBRANCH   3   8
BRANCH   4  11
ATOM     11  O   UNL     1      38.879  32.989  39.676  1.00  0.00    -0.387 OA
ATOM     12  H   UNL     1      38.087  32.825  39.105  1.00  0.00     0.211 HD
ENDBRANCH   4  11
BRANCH   6  13
ATOM     13  O   UNL     1      40.762  33.353  37.129  1.00  0.00    -0.387 OA
ATOM     14  H   UNL     1      40.952  33.729  36.223  1.00  0.00     0.211 HD
ENDBRANCH   6  13
BRANCH   7  15
ATOM     15  O   UNL     1      39.408  35.185  35.481  1.00  0.00    -0.385 OA
ATOM     16  H   UNL     1      38.485  35.363  35.142  1.00  0.00     0.211 HD
ENDBRANCH   7  15
ENDBRANCH   1   2
BRANCH   1  17
ATOM     17  C   UNL     1      37.183  37.827  36.201  1.00  0.00     0.224 C 
ATOM     18  C   UNL     1      36.005  38.592  36.827  1.00  0.00     0.208 C 
ATOM     19  O   UNL     1      36.633  36.792  35.395  1.00  0.00    -0.337 OA
ATOM     20  C   UNL     1      34.950  38.487  35.754  1.00  0.00     0.180 C 
ATOM     21  C   UNL     1      35.336  37.200  34.991  1.00  0.00     0.179 C 
BRANCH  17  22
ATOM     22  C   UNL     1      38.006  38.761  35.292  1.00  0.00     0.225 C 
BRANCH  22  23
ATOM     23  O   UNL     1      39.352  38.764  35.688  1.00  0.00    -0.391 OA
ATOM     24  H   UNL     1      39.476  39.607  36.202  1.00  0.00     0.210 HD
ENDBRANCH  22  23
ENDBRANCH  17  22
BRANCH  18  25
ATOM     25  O   UNL     1      35.581  37.942  37.999  1.00  0.00    -0.385 OA
ATOM     26  H   UNL     1      34.604  38.120  38.098  1.00  0.00     0.211 HD
ENDBRANCH  18  25
BRANCH  20  27
ATOM     27  O   UNL     1      33.651  38.493  36.295  1.00  0.00    -0.387 OA
ATOM     28  H   UNL     1      33.056  38.140  35.583  1.00  0.00     0.211 HD
ENDBRANCH  20  27
BRANCH  21  29
ATOM     29  C   UNL     1      34.380  36.004  35.195  1.00  0.00     0.191 C 
BRANCH  29  30
ATOM     30  O   UNL     1      34.387  35.589  36.536  1.00  0.00    -0.394 OA
ATOM     31  H   UNL     1      35.342  35.539  36.807  1.00  0.00     0.210 HD
ENDBRANCH  29  30
ENDBRANCH  21  29
ENDBRANCH   1  17
TORSDOF 13
ENDMDL
MODEL 5
REMARK VINA RESULT:    -5.675      5.028      6.840
REMARK INTER + INTRA:         -10.110
REMARK INTER:                  -8.975
REMARK INTRA:                  -1.135
REMARK UNBOUND:                -1.449
REMARK SMILES OC[C@@H]1O[C@](CO)(O[C@@H]2O[C@@H](CO)[C@@H](O)[C@H](O)[C@H]2O)[C@H](O)[C@@H]1O
REMARK SMILES IDX 8 1 9 2 11 3 14 4 10 5 16 6 18 7 12 8 13 9 15 11 17 13 19 15
REMARK SMILES IDX 5 17 20 18 4 19 22 20 3 21 6 22 7 23 21 25 23 27 2 29 1 30
REMARK H PARENT 13 10 15 12 17 14 19 16 7 24 21 26 23 28 1 31
REMARK Flexibility Score: inf
ROOT
ATOM      1  O   UNL     1      37.349  30.921  30.933  1.00  0.00    -0.313 OA
ENDROOT
BRANCH   1   2
ATOM      2  C   UNL     1      37.039  32.252  30.522  1.00  0.00     0.285 C 
ATOM      3  C   UNL     1      37.714  32.530  28.275  1.00  0.00     0.178 C 
ATOM      4  C   UNL     1      38.106  34.019  28.420  1.00  0.00     0.177 C 
ATOM      5  O   UNL     1      36.635  32.246  29.146  1.00  0.00    -0.341 OA
ATOM      6  C   UNL     1      38.079  34.449  29.916  1.00  0.00     0.179 C 
ATOM      7  C   UNL     1      38.226  33.223  30.843  1.00  0.00     0.202 C 
BRANCH   3   8
ATOM      8  C   UNL     1      37.382  32.126  26.816  1.00  0.00     0.191 C 
BRANCH   8   9
ATOM      9  O   UNL     1      37.287  30.734  26.658  1.00  0.00    -0.394 OA
ATOM     10  H   UNL     1      36.526  30.550  26.045  1.00  0.00     0.210 HD
ENDBRANCH   8   9
ENDBRANCH   3   8
BRANCH   4  11
ATOM     11  O   UNL     1      37.209  34.815  27.688  1.00  0.00    -0.387 OA
ATOM     12  H   UNL     1      37.242  35.720  28.090  1.00  0.00     0.211 HD
ENDBRANCH   4  11
BRANCH   6  13
ATOM     13  O   UNL     1      39.116  35.358  30.185  1.00  0.00    -0.387 OA
ATOM     14  H   UNL     1      39.020  36.100  29.524  1.00  0.00     0.211 HD
ENDBRANCH   6  13
BRANCH   7  15
ATOM     15  O   UNL     1      38.185  33.631  32.198  1.00  0.00    -0.385 OA
ATOM     16  H   UNL     1      38.365  32.837  32.778  1.00  0.00     0.211 HD
ENDBRANCH   7  15
ENDBRANCH   1   2
BRANCH   1  17
ATOM     17  C   UNL     1      36.654  30.517  32.125  1.00  0.00     0.224 C 
ATOM     18  C   UNL     1      35.559  29.500  31.762  1.00  0.00     0.208 C 
ATOM     19  O   UNL     1      36.025  31.585  32.822  1.00  0.00    -0.337 OA
ATOM     20  C   UNL     1      34.603  29.634  32.922  1.00  0.00     0.180 C 
ATOM     21  C   UNL     1      34.850  31.073  33.430  1.00  0.00     0.179 C 
BRANCH  17  22
ATOM     22  C   UNL     1      37.693  29.874  33.064  1.00  0.00     0.225 C 
BRANCH  22  23
ATOM     23  O   UNL     1      37.914  28.536  32.703  1.00  0.00    -0.391 OA
ATOM     24  H   UNL     1      38.850  28.338  32.974  1.00  0.00     0.210 HD
ENDBRANCH  22  23
ENDBRANCH  17  22
BRANCH  18  25
ATOM     25  O   UNL     1      34.933  29.879  30.562  1.00  0.00    -0.385 OA
ATOM     26  H   UNL     1      34.199  30.512  30.801  1.00  0.00     0.211 HD
ENDBRANCH  18  25
BRANCH  20  27
ATOM     27  O   UNL     1      33.277  29.356  32.542  1.00  0.00    -0.387 OA
ATOM     28  H   UNL     1      33.112  28.409  32.792  1.00  0.00     0.211 HD
ENDBRANCH  20  27
BRANCH  21  29
ATOM     29  C   UNL     1      33.704  32.072  33.159  1.00  0.00     0.191 C 
BRANCH  29  30
ATOM     30  O   UNL     1      32.576  31.750  33.930  1.00  0.00    -0.394 OA
ATOM     31  H   UNL     1      32.269  30.859  33.617  1.00  0.00     0.210 HD
ENDBRANCH  29  30
ENDBRANCH  21  29
ENDBRANCH   1  17
TORSDOF 13
ENDMDL
MODEL 6
REMARK VINA RESULT:    -5.571      6.253      9.710
REMARK INTER + INTRA:          -9.951
REMARK INTER:                  -8.428
REMARK INTRA:                  -1.523
REMARK UNBOUND:                -1.449
REMARK SMILES OC[C@@H]1O[C@](CO)(O[C@@H]2O[C@@H](CO)[C@@H](O)[C@H](O)[C@H]2O)[C@H](O)[C@@H]1O
REMARK SMILES IDX 8 1 9 2 11 3 14 4 10 5 16 6 18 7 12 8 13 9 15 11 17 13 19 15
REMARK SMILES IDX 5 17 20 18 4 19 22 20 3 21 6 22 7 23 21 25 23 27 2 29 1 30
REMARK H PARENT 13 10 15 12 17 14 19 16 7 24 21 26 23 28 1 31
REMARK Flexibility Score: inf
ROOT
ATOM      1  O   UNL     1      29.142  35.501  34.181  1.00  0.00    -0.313 OA
ENDROOT
BRANCH   1   2
ATOM      2  C   UNL     1      29.926  34.627  34.993  1.00  0.00     0.285 C 
ATOM      3  C   UNL     1      32.124  35.482  35.124  1.00  0.00     0.178 C 
ATOM      4  C   UNL     1      32.818  34.100  35.188  1.00  0.00     0.177 C 
ATOM      5  O   UNL     1      30.862  35.399  35.759  1.00  0.00    -0.341 OA
ATOM      6  C   UNL     1      31.794  32.962  34.907  1.00  0.00     0.179 C 
ATOM      7  C   UNL     1      30.576  33.497  34.125  1.00  0.00     0.202 C 
BRANCH   3   8
ATOM      8  C   UNL     1      32.984  36.623  35.725  1.00  0.00     0.191 C 
BRANCH   8   9
ATOM      9  O   UNL     1      34.347  36.481  35.416  1.00  0.00    -0.394 OA
ATOM     10  H   UNL     1      34.676  37.362  35.092  1.00  0.00     0.210 HD
ENDBRANCH   8   9
ENDBRANCH   3   8
BRANCH   4  11
ATOM     11  O   UNL     1      33.386  33.917  36.459  1.00  0.00    -0.387 OA
ATOM     12  H   UNL     1      33.277  34.775  36.942  1.00  0.00     0.211 HD
ENDBRANCH   4  11
BRANCH   6  13
ATOM     13  O   UNL     1      32.398  31.928  34.171  1.00  0.00    -0.387 OA
ATOM     14  H   UNL     1      32.914  32.367  33.438  1.00  0.00     0.211 HD
ENDBRANCH   6  13
BRANCH   7  15
ATOM     15  O   UNL     1      29.650  32.452  33.892  1.00  0.00    -0.385 OA
ATOM     16  H   UNL     1      29.991  31.617  34.323  1.00  0.00     0.211 HD
ENDBRANCH   7  15
ENDBRANCH   1   2
BRANCH   1  17
ATOM     17  C   UNL     1      27.727  35.329  34.361  1.00  0.00     0.224 C 
ATOM     18  C   UNL     1      27.207  36.362  35.375  1.00  0.00     0.208 C 
ATOM     19  O   UNL     1      27.353  34.043  34.840  1.00  0.00    -0.337 OA
ATOM     20  C   UNL     1      25.944  35.708  35.878  1.00  0.00     0.180 C 
ATOM     21  C   UNL     1      26.203  34.201  35.655  1.00  0.00     0.179 C 
BRANCH  17  22
ATOM     22  C   UNL     1      27.061  35.544  32.988  1.00  0.00     0.225 C 
BRANCH  22  23
ATOM     23  O   UNL     1      28.011  35.428  31.962  1.00  0.00    -0.391 OA
ATOM     24  H   UNL     1      28.698  36.122  32.157  1.00  0.00     0.210 HD
ENDBRANCH  22  23
ENDBRANCH  17  22
BRANCH  18  25
ATOM     25  O   UNL     1      28.133  36.512  36.421  1.00  0.00    -0.385 OA
ATOM     26  H   UNL     1      28.390  35.595  36.721  1.00  0.00     0.211 HD
ENDBRANCH  18  25
BRANCH  20  27
ATOM     27  O   UNL     1      25.658  36.073  37.206  1.00  0.00    -0.387 OA
ATOM     28  H   UNL     1      25.861  37.043  37.274  1.00  0.00     0.211 HD
ENDBRANCH  20  27
BRANCH  21  29
ATOM     29  C   UNL     1      26.419  33.374  36.942  1.00  0.00     0.191 C 
BRANCH  29  30
ATOM     30  O   UNL     1      27.564  33.814  37.625  1.00  0.00    -0.394 OA
ATOM     31  H   UNL     1      28.272  33.928  36.937  1.00  0.00     0.210 HD
ENDBRANCH  29  30
ENDBRANCH  21  29
ENDBRANCH   1  17
TORSDOF 13
ENDMDL
MODEL 7
REMARK VINA RESULT:    -5.528      6.543      9.921
REMARK INTER + INTRA:          -9.885
REMARK INTER:                  -8.373
REMARK INTRA:                  -1.511
REMARK UNBOUND:                -1.449
REMARK SMILES OC[C@@H]1O[C@](CO)(O[C@@H]2O[C@@H](CO)[C@@H](O)[C@H](O)[C@H]2O)[C@H](O)[C@@H]1O
REMARK SMILES IDX 8 1 9 2 11 3 14 4 10 5 16 6 18 7 12 8 13 9 15 11 17 13 19 15
REMARK SMILES IDX 5 17 20 18 4 19 22 20 3 21 6 22 7 23 21 25 23 27 2 29 1 30
REMARK H PARENT 13 10 15 12 17 14 19 16 7 24 21 26 23 28 1 31
REMARK Flexibility Score: inf
ROOT
ATOM      1  O   UNL     1      28.831  33.599  33.590  1.00  0.00    -0.313 OA
ENDROOT
BRANCH   1   2
ATOM      2  C   UNL     1      29.779  34.266  34.422  1.00  0.00     0.285 C 
ATOM      3  C   UNL     1      31.839  34.395  33.273  1.00  0.00     0.178 C 
ATOM      4  C   UNL     1      32.723  34.265  34.536  1.00  0.00     0.177 C 
ATOM      5  O   UNL     1      30.643  35.073  33.609  1.00  0.00    -0.341 OA
ATOM      6  C   UNL     1      31.854  33.901  35.775  1.00  0.00     0.179 C 
ATOM      7  C   UNL     1      30.527  33.243  35.343  1.00  0.00     0.202 C 
BRANCH   3   8
ATOM      8  C   UNL     1      32.565  35.087  32.090  1.00  0.00     0.191 C 
BRANCH   8   9
ATOM      9  O   UNL     1      33.898  34.663  31.964  1.00  0.00    -0.394 OA
ATOM     10  H   UNL     1      34.420  35.417  31.580  1.00  0.00     0.210 HD
ENDBRANCH   8   9
ENDBRANCH   3   8
BRANCH   4  11
ATOM     11  O   UNL     1      33.389  35.479  34.771  1.00  0.00    -0.387 OA
ATOM     12  H   UNL     1      33.037  36.127  34.110  1.00  0.00     0.211 HD
ENDBRANCH   4  11
BRANCH   6  13
ATOM     13  O   UNL     1      32.550  33.022  36.622  1.00  0.00    -0.387 OA
ATOM     14  H   UNL     1      32.429  33.369  37.551  1.00  0.00     0.211 HD
ENDBRANCH   6  13
BRANCH   7  15
ATOM     15  O   UNL     1      29.745  32.932  36.481  1.00  0.00    -0.385 OA
ATOM     16  H   UNL     1      29.020  32.299  36.210  1.00  0.00     0.211 HD
ENDBRANCH   7  15
ENDBRANCH   1   2
BRANCH   1  17
ATOM     17  C   UNL     1      27.468  33.812  33.994  1.00  0.00     0.224 C 
ATOM     18  C   UNL     1      26.866  34.972  33.183  1.00  0.00     0.208 C 
ATOM     19  O   UNL     1      27.313  34.134  35.371  1.00  0.00    -0.337 OA
ATOM     20  C   UNL     1      25.742  35.436  34.077  1.00  0.00     0.180 C 
ATOM     21  C   UNL     1      26.203  35.009  35.489  1.00  0.00     0.179 C 
BRANCH  17  22
ATOM     22  C   UNL     1      26.698  32.507  33.715  1.00  0.00     0.225 C 
BRANCH  22  23
ATOM     23  O   UNL     1      27.573  31.410  33.737  1.00  0.00    -0.391 OA
ATOM     24  H   UNL     1      28.101  31.474  32.896  1.00  0.00     0.210 HD
ENDBRANCH  22  23
ENDBRANCH  17  22
BRANCH  18  25
ATOM     25  O   UNL     1      27.821  35.991  33.025  1.00  0.00    -0.385 OA
ATOM     26  H   UNL     1      27.332  36.861  33.058  1.00  0.00     0.211 HD
ENDBRANCH  18  25
BRANCH  20  27
ATOM     27  O   UNL     1      25.487  36.812  33.925  1.00  0.00    -0.387 OA
ATOM     28  H   UNL     1      26.322  37.208  33.564  1.00  0.00     0.211 HD
ENDBRANCH  20  27
BRANCH  21  29
ATOM     29  C   UNL     1      26.612  36.167  36.426  1.00  0.00     0.191 C 
BRANCH  29  30
ATOM     30  O   UNL     1      27.653  36.918  35.857  1.00  0.00    -0.394 OA
ATOM     31  H   UNL     1      27.468  37.867  36.085  1.00  0.00     0.210 HD
ENDBRANCH  29  30
ENDBRANCH  21  29
ENDBRANCH   1  17
TORSDOF 13
ENDMDL
MODEL 8
REMARK VINA RESULT:    -5.501      5.906      8.877
REMARK INTER + INTRA:          -9.844
REMARK INTER:                  -8.307
REMARK INTRA:                  -1.537
REMARK UNBOUND:                -1.449
REMARK SMILES OC[C@@H]1O[C@](CO)(O[C@@H]2O[C@@H](CO)[C@@H](O)[C@H](O)[C@H]2O)[C@H](O)[C@@H]1O
REMARK SMILES IDX 8 1 9 2 11 3 14 4 10 5 16 6 18 7 12 8 13 9 15 11 17 13 19 15
REMARK SMILES IDX 5 17 20 18 4 19 22 20 3 21 6 22 7 23 21 25 23 27 2 29 1 30
REMARK H PARENT 13 10 15 12 17 14 19 16 7 24 21 26 23 28 1 31
REMARK Flexibility Score: inf
ROOT
ATOM      1  O   UNL     1      29.305  34.707  35.740  1.00  0.00    -0.313 OA
ENDROOT
BRANCH   1   2
ATOM      2  C   UNL     1      30.143  33.904  34.908  1.00  0.00     0.285 C 
ATOM      3  C   UNL     1      32.200  33.554  36.015  1.00  0.00     0.178 C 
ATOM      4  C   UNL     1      33.060  33.538  34.729  1.00  0.00     0.177 C 
ATOM      5  O   UNL     1      30.922  33.019  35.726  1.00  0.00    -0.341 OA
ATOM      6  C   UNL     1      32.212  33.972  33.499  1.00  0.00     0.179 C 
ATOM      7  C   UNL     1      30.987  34.801  33.939  1.00  0.00     0.202 C 
BRANCH   3   8
ATOM      8  C   UNL     1      32.866  32.812  37.202  1.00  0.00     0.191 C 
BRANCH   8   9
ATOM      9  O   UNL     1      34.235  33.107  37.313  1.00  0.00    -0.394 OA
ATOM     10  H   UNL     1      34.335  34.095  37.280  1.00  0.00     0.210 HD
ENDBRANCH   8   9
ENDBRANCH   3   8
BRANCH   4  11
ATOM     11  O   UNL     1      33.567  32.244  34.517  1.00  0.00    -0.387 OA
ATOM     12  H   UNL     1      33.966  32.243  33.611  1.00  0.00     0.211 HD
ENDBRANCH   4  11
BRANCH   6  13
ATOM     13  O   UNL     1      32.988  34.733  32.609  1.00  0.00    -0.387 OA
ATOM     14  H   UNL     1      32.424  34.885  31.800  1.00  0.00     0.211 HD
ENDBRANCH   6  13
BRANCH   7  15
ATOM     15  O   UNL     1      30.219  35.173  32.810  1.00  0.00    -0.385 OA
ATOM     16  H   UNL     1      30.126  36.168  32.798  1.00  0.00     0.211 HD
ENDBRANCH   7  15
ENDBRANCH   1   2
BRANCH   1  17
ATOM     17  C   UNL     1      27.925  34.691  35.342  1.00  0.00     0.224 C 
ATOM     18  C   UNL     1      27.132  33.751  36.266  1.00  0.00     0.208 C 
ATOM     19  O   UNL     1      27.708  34.251  34.007  1.00  0.00    -0.337 OA
ATOM     20  C   UNL     1      25.940  33.394  35.412  1.00  0.00     0.180 C 
ATOM     21  C   UNL     1      26.462  33.576  33.969  1.00  0.00     0.179 C 
BRANCH  17  22
ATOM     22  C   UNL     1      27.396  36.134  35.466  1.00  0.00     0.225 C 
BRANCH  22  23
ATOM     23  O   UNL     1      28.303  36.924  36.187  1.00  0.00    -0.391 OA
ATOM     24  H   UNL     1      27.940  37.850  36.147  1.00  0.00     0.210 HD
ENDBRANCH  22  23
ENDBRANCH  17  22
BRANCH  18  25
ATOM     25  O   UNL     1      27.895  32.605  36.549  1.00  0.00    -0.385 OA
ATOM     26  H   UNL     1      27.326  31.812  36.336  1.00  0.00     0.211 HD
ENDBRANCH  18  25
BRANCH  20  27
ATOM     27  O   UNL     1      25.448  32.110  35.711  1.00  0.00    -0.387 OA
ATOM     28  H   UNL     1      24.680  31.962  35.100  1.00  0.00     0.211 HD
ENDBRANCH  20  27
BRANCH  21  29
ATOM     29  C   UNL     1      26.657  32.268  33.171  1.00  0.00     0.191 C 
BRANCH  29  30
ATOM     30  O   UNL     1      27.555  31.416  33.832  1.00  0.00    -0.394 OA
ATOM     31  H   UNL     1      27.182  30.499  33.747  1.00  0.00     0.210 HD
ENDBRANCH  29  30
ENDBRANCH  21  29
ENDBRANCH   1  17
TORSDOF 13
ENDMDL
MODEL 9
REMARK VINA RESULT:    -5.433      4.535      6.693
REMARK INTER + INTRA:          -9.739
REMARK INTER:                  -7.967
REMARK INTRA:                  -1.772
REMARK UNBOUND:                -1.449
REMARK SMILES OC[C@@H]1O[C@](CO)(O[C@@H]2O[C@@H](CO)[C@@H](O)[C@H](O)[C@H]2O)[C@H](O)[C@@H]1O
REMARK SMILES IDX 8 1 9 2 11 3 14 4 10 5 16 6 18 7 12 8 13 9 15 11 17 13 19 15
REMARK SMILES IDX 5 17 20 18 4 19 22 20 3 21 6 22 7 23 21 25 23 27 2 29 1 30
REMARK H PARENT 13 10 15 12 17 14 19 16 7 24 21 26 23 28 1 31
REMARK Flexibility Score: inf
ROOT
ATOM      1  O   UNL     1      38.565  31.203  31.620  1.00  0.00    -0.313 OA
ENDROOT
BRANCH   1   2
ATOM      2  C   UNL     1      38.598  32.627  31.714  1.00  0.00     0.285 C 
ATOM      3  C   UNL     1      38.331  33.536  29.550  1.00  0.00     0.178 C 
ATOM      4  C   UNL     1      39.239  34.765  29.791  1.00  0.00     0.177 C 
ATOM      5  O   UNL     1      37.685  33.190  30.760  1.00  0.00    -0.341 OA
ATOM      6  C   UNL     1      39.986  34.634  31.150  1.00  0.00     0.179 C 
ATOM      7  C   UNL     1      40.067  33.158  31.594  1.00  0.00     0.202 C 
BRANCH   3   8
ATOM      8  C   UNL     1      37.307  33.751  28.406  1.00  0.00     0.191 C 
BRANCH   8   9
ATOM      9  O   UNL     1      37.732  34.725  27.488  1.00  0.00    -0.394 OA
ATOM     10  H   UNL     1      38.697  34.570  27.306  1.00  0.00     0.210 HD
ENDBRANCH   8   9
ENDBRANCH   3   8
BRANCH   4  11
ATOM     11  O   UNL     1      38.458  35.934  29.796  1.00  0.00    -0.387 OA
ATOM     12  H   UNL     1      38.464  36.280  28.868  1.00  0.00     0.211 HD
ENDBRANCH   4  11
BRANCH   6  13
ATOM     13  O   UNL     1      41.285  35.158  31.050  1.00  0.00    -0.387 OA
ATOM     14  H   UNL     1      41.676  34.785  30.210  1.00  0.00     0.211 HD
ENDBRANCH   6  13
BRANCH   7  15
ATOM     15  O   UNL     1      40.736  33.060  32.838  1.00  0.00    -0.385 OA
ATOM     16  H   UNL     1      41.415  33.790  32.896  1.00  0.00     0.211 HD
ENDBRANCH   7  15
ENDBRANCH   1   2
BRANCH   1  17
ATOM     17  C   UNL     1      37.585  30.598  32.479  1.00  0.00     0.224 C 
ATOM     18  C   UNL     1      36.556  29.835  31.628  1.00  0.00     0.208 C 
ATOM     19  O   UNL     1      36.864  31.524  33.283  1.00  0.00    -0.337 OA
ATOM     20  C   UNL     1      35.358  29.786  32.545  1.00  0.00     0.180 C 
ATOM     21  C   UNL     1      35.553  31.015  33.461  1.00  0.00     0.179 C 
BRANCH  17  22
ATOM     22  C   UNL     1      38.332  29.627  33.414  1.00  0.00     0.225 C 
BRANCH  22  23
ATOM     23  O   UNL     1      38.556  28.403  32.767  1.00  0.00    -0.391 OA
ATOM     24  H   UNL     1      38.232  27.705  33.399  1.00  0.00     0.210 HD
ENDBRANCH  22  23
ENDBRANCH  17  22
BRANCH  18  25
ATOM     25  O   UNL     1      36.257  30.568  30.467  1.00  0.00    -0.385 OA
ATOM     26  H   UNL     1      36.870  31.356  30.451  1.00  0.00     0.211 HD
ENDBRANCH  18  25
BRANCH  20  27
ATOM     27  O   UNL     1      34.149  29.764  31.826  1.00  0.00    -0.387 OA
ATOM     28  H   UNL     1      34.359  30.125  30.925  1.00  0.00     0.211 HD
ENDBRANCH  20  27
BRANCH  21  29
ATOM     29  C   UNL     1      34.560  32.175  33.225  1.00  0.00     0.191 C 
BRANCH  29  30
ATOM     30  O   UNL     1      34.792  32.777  31.978  1.00  0.00    -0.394 OA
ATOM     31  H   UNL     1      35.190  32.074  31.399  1.00  0.00     0.210 HD
ENDBRANCH  29  30
ENDBRANCH  21  29
ENDBRANCH   1  17
TORSDOF 13
ENDMDL
