MODEL 1
REMARK VINA RESULT:    -1.244      0.000      0.000
REMARK INTER + INTRA:          -1.506
REMARK INTER:                  -1.462
REMARK INTRA:                  -0.044
REMARK UNBOUND:                -0.044
REMARK SMILES O=C([O-])CCC(=O)[O-]
REMARK SMILES IDX 4 1 2 2 1 3 3 4 5 5 6 6 7 7 8 8
REMARK H PARENT
REMARK Flexibility Score: inf
ROOT
ATOM      1  C   UNL     1       1.792 -51.840  10.124  1.00  0.00     0.059 C 
ENDROOT
BRANCH   1   2
ATOM      2  C   UNL     1       3.276 -51.653  10.104  1.00  0.00     0.042 C 
ATOM      3  O   UNL     1       3.770 -50.495  10.118  1.00  0.00    -0.550 OA
ATOM      4  O   UNL     1       4.116 -52.757  10.017  1.00  0.00    -0.550 OA
ENDBRANCH   1   2
BRANCH   1   5
ATOM      5  C   UNL     1       1.082 -50.488  10.044  1.00  0.00     0.059 C 
BRANCH   5   6
ATOM      6  C   UNL     1      -0.317 -50.662   9.543  1.00  0.00     0.042 C 
ATOM      7  O   UNL     1      -0.806 -51.815   9.416  1.00  0.00    -0.550 OA
ATOM      8  O   UNL     1      -1.065 -49.553   9.171  1.00  0.00    -0.550 OA
ENDBRANCH   5   6
ENDBRANCH   1   5
TORSDOF 3
ENDMDL
MODEL 2
REMARK VINA RESULT:    -1.233      0.275      4.394
REMARK INTER + INTRA:          -1.494
REMARK INTER:                  -1.452
REMARK INTRA:                  -0.042
REMARK UNBOUND:                -0.044
REMARK SMILES O=C([O-])CCC(=O)[O-]
REMARK SMILES IDX 4 1 2 2 1 3 3 4 5 5 6 6 7 7 8 8
REMARK H PARENT
REMARK Flexibility Score: inf
ROOT
ATOM      1  C   UNL     1       0.934 -50.311  10.029  1.00  0.00     0.059 C 
ENDROOT
BRANCH   1   2
ATOM      2  C   UNL     1      -0.458 -50.469   9.505  1.00  0.00     0.042 C 
ATOM      3  O   UNL     1      -1.045 -51.579   9.588  1.00  0.00    -0.550 OA
ATOM      4  O   UNL     1      -1.091 -49.402   8.878  1.00  0.00    -0.550 OA
ENDBRANCH   1   2
BRANCH   1   5
ATOM      5  C   UNL     1       1.627 -51.671  10.124  1.00  0.00     0.059 C 
BRANCH   5   6
ATOM      6  C   UNL     1       3.112 -51.507  10.040  1.00  0.00     0.042 C 
ATOM      7  O   UNL     1       3.629 -50.362  10.119  1.00  0.00    -0.550 OA
ATOM      8  O   UNL     1       3.922 -52.615   9.825  1.00  0.00    -0.550 OA
ENDBRANCH   5   6
ENDBRANCH   1   5
TORSDOF 3
ENDMDL
MODEL 3
REMARK VINA RESULT:     1.122     20.396     21.986
REMARK INTER + INTRA:           1.275
REMARK INTER:                   1.302
REMARK INTRA:                  -0.027
REMARK UNBOUND:                -0.044
REMARK SMILES O=C([O-])CCC(=O)[O-]
REMARK SMILES IDX 4 1 2 2 1 3 3 4 5 5 6 6 7 7 8 8
REMARK H PARENT
REMARK Flexibility Score: inf
ROOT
ATOM      1  C   UNL     1      19.075 -58.505  -3.126  1.00  0.00     0.059 C 
ENDROOT
BRANCH   1   2
ATOM      2  C   UNL     1      18.407 -59.833  -2.953  1.00  0.00     0.042 C 
ATOM      3  O   UNL     1      19.069 -60.896  -3.078  1.00  0.00    -0.550 OA
ATOM      4  O   UNL     1      17.042 -59.898  -2.703  1.00  0.00    -0.550 OA
ENDBRANCH   1   2
BRANCH   1   5
ATOM      5  C   UNL     1      19.124 -57.754  -1.796  1.00  0.00     0.059 C 
BRANCH   5   6
ATOM      6  C   UNL     1      17.858 -56.987  -1.581  1.00  0.00     0.042 C 
ATOM      7  O   UNL     1      17.320 -56.959  -0.443  1.00  0.00    -0.550 OA
ATOM      8  O   UNL     1      17.245 -56.343  -2.647  1.00  0.00    -0.550 OA
ENDBRANCH   5   6
ENDBRANCH   1   5
TORSDOF 3
ENDMDL
MODEL 4
REMARK VINA RESULT:     1.321     20.316     21.416
REMARK INTER + INTRA:           1.509
REMARK INTER:                   1.597
REMARK INTRA:                  -0.088
REMARK UNBOUND:                -0.044
REMARK SMILES O=C([O-])CCC(=O)[O-]
REMARK SMILES IDX 4 1 2 2 1 3 3 4 5 5 6 6 7 7 8 8
REMARK H PARENT
REMARK Flexibility Score: inf
ROOT
ATOM      1  C   UNL     1      17.621 -57.617  -1.633  1.00  0.00     0.059 C 
ENDROOT
BRANCH   1   2
ATOM      2  C   UNL     1      17.826 -58.843  -2.465  1.00  0.00     0.042 C 
ATOM      3  O   UNL     1      16.888 -59.668  -2.619  1.00  0.00    -0.550 OA
ATOM      4  O   UNL     1      19.069 -59.101  -3.030  1.00  0.00    -0.550 OA
ENDBRANCH   1   2
BRANCH   1   5
ATOM      5  C   UNL     1      18.260 -56.401  -2.306  1.00  0.00     0.059 C 
BRANCH   5   6
ATOM      6  C   UNL     1      17.228 -55.612  -3.049  1.00  0.00     0.042 C 
ATOM      7  O   UNL     1      16.100 -55.397  -2.531  1.00  0.00    -0.550 OA
ATOM      8  O   UNL     1      17.494 -55.155  -4.333  1.00  0.00    -0.550 OA
ENDBRANCH   5   6
ENDBRANCH   1   5
TORSDOF 3
ENDMDL
MODEL 5
REMARK VINA RESULT:     1.334     20.305     21.548
REMARK INTER + INTRA:           1.524
REMARK INTER:                   1.618
REMARK INTRA:                  -0.094
REMARK UNBOUND:                -0.044
REMARK SMILES O=C([O-])CCC(=O)[O-]
REMARK SMILES IDX 4 1 2 2 1 3 3 4 5 5 6 6 7 7 8 8
REMARK H PARENT
REMARK Flexibility Score: inf
ROOT
ATOM      1  C   UNL     1      18.245 -56.353  -2.272  1.00  0.00     0.059 C 
ENDROOT
BRANCH   1   2
ATOM      2  C   UNL     1      17.222 -55.589  -3.053  1.00  0.00     0.042 C 
ATOM      3  O   UNL     1      16.083 -55.373  -2.563  1.00  0.00    -0.550 OA
ATOM      4  O   UNL     1      17.510 -55.159  -4.342  1.00  0.00    -0.550 OA
ENDBRANCH   1   2
BRANCH   1   5
ATOM      5  C   UNL     1      17.608 -57.573  -1.606  1.00  0.00     0.059 C 
BRANCH   5   6
ATOM      6  C   UNL     1      17.814 -58.795  -2.444  1.00  0.00     0.042 C 
ATOM      7  O   UNL     1      16.877 -59.621  -2.602  1.00  0.00    -0.550 OA
ATOM      8  O   UNL     1      19.056 -59.046  -3.013  1.00  0.00    -0.550 OA
ENDBRANCH   5   6
ENDBRANCH   1   5
TORSDOF 3
ENDMDL
MODEL 6
REMARK VINA RESULT:     1.348     20.405     22.085
REMARK INTER + INTRA:           1.541
REMARK INTER:                   1.594
REMARK INTRA:                  -0.053
REMARK UNBOUND:                -0.044
REMARK SMILES O=C([O-])CCC(=O)[O-]
REMARK SMILES IDX 4 1 2 2 1 3 3 4 5 5 6 6 7 7 8 8
REMARK H PARENT
REMARK Flexibility Score: inf
ROOT
ATOM      1  C   UNL     1      19.125 -57.731  -1.838  1.00  0.00     0.059 C 
ENDROOT
BRANCH   1   2
ATOM      2  C   UNL     1      17.864 -56.970  -1.578  1.00  0.00     0.042 C 
ATOM      3  O   UNL     1      17.360 -56.952  -0.424  1.00  0.00    -0.550 OA
ATOM      4  O   UNL     1      17.216 -56.319  -2.621  1.00  0.00    -0.550 OA
ENDBRANCH   1   2
BRANCH   1   5
ATOM      5  C   UNL     1      19.032 -58.483  -3.166  1.00  0.00     0.059 C 
BRANCH   5   6
ATOM      6  C   UNL     1      18.418 -59.832  -2.962  1.00  0.00     0.042 C 
ATOM      7  O   UNL     1      19.120 -60.871  -3.077  1.00  0.00    -0.550 OA
ATOM      8  O   UNL     1      17.061 -59.944  -2.692  1.00  0.00    -0.550 OA
ENDBRANCH   5   6
ENDBRANCH   1   5
TORSDOF 3
ENDMDL
MODEL 7
REMARK VINA RESULT:     1.545     19.970     21.084
REMARK INTER + INTRA:           1.772
REMARK INTER:                   1.871
REMARK INTRA:                  -0.099
REMARK UNBOUND:                -0.044
REMARK SMILES O=C([O-])CCC(=O)[O-]
REMARK SMILES IDX 4 1 2 2 1 3 3 4 5 5 6 6 7 7 8 8
REMARK H PARENT
REMARK Flexibility Score: inf
ROOT
ATOM      1  C   UNL     1      16.770 -56.339  -1.902  1.00  0.00     0.059 C 
ENDROOT
BRANCH   1   2
ATOM      2  C   UNL     1      17.825 -57.031  -1.099  1.00  0.00     0.042 C 
ATOM      3  O   UNL     1      18.847 -57.500  -1.665  1.00  0.00    -0.550 OA
ATOM      4  O   UNL     1      17.657 -57.204   0.270  1.00  0.00    -0.550 OA
ENDBRANCH   1   2
BRANCH   1   5
ATOM      5  C   UNL     1      17.073 -56.454  -3.396  1.00  0.00     0.059 C 
BRANCH   5   6
ATOM      6  C   UNL     1      17.506 -55.131  -3.946  1.00  0.00     0.042 C 
ATOM      7  O   UNL     1      17.655 -54.144  -3.178  1.00  0.00    -0.550 OA
ATOM      8  O   UNL     1      17.697 -54.975  -5.312  1.00  0.00    -0.550 OA
ENDBRANCH   5   6
ENDBRANCH   1   5
TORSDOF 3
ENDMDL
