MODEL 1
REMARK VINA RESULT:    -7.249      0.000      0.000
REMARK INTER + INTRA:         -11.591
REMARK INTER:                 -10.639
REMARK INTRA:                  -0.952
REMARK UNBOUND:                -0.952
REMARK SMILES O=c1c(O[C@@H]2O[C@H](CO)[C@@H](O)[C@H](O)[C@H]2O)c(-c2ccc(O)c(O)c2)oc2cc(O)cc(O)c12
REMARK SMILES IDX 4 1 3 2 16 3 25 4 2 5 26 6 1 7 33 8 27 9 31 10 28 11 30 12
REMARK SMILES IDX 17 13 18 14 19 15 20 16 24 17 22 18 21 19 23 21 32 23 29 25
REMARK SMILES IDX 5 27 14 28 6 29 12 30 7 31 10 32 15 33 13 35 8 37 9 38 11 40
REMARK H PARENT 21 20 23 22 32 24 29 26 15 34 13 36 9 39 11 41
REMARK Flexibility Score: inf
ROOT
ATOM      1  O   UNL     1      15.943 -34.902  -0.532  1.00  0.00    -0.454 OA
ENDROOT
BRANCH   1   2
ATOM      2  C   UNL     1      14.795 -34.943  -1.354  1.00  0.00     0.214 A 
ATOM      3  C   UNL     1      14.895 -35.610  -2.591  1.00  0.00     0.180 A 
ATOM      4  O   UNL     1      13.887 -35.576  -3.454  1.00  0.00    -0.452 OA
ATOM      5  C   UNL     1      13.566 -34.320  -1.031  1.00  0.00     0.239 A 
ATOM      6  C   UNL     1      12.722 -35.001  -3.193  1.00  0.00     0.146 A 
ATOM      7  O   UNL     1      13.460 -33.650   0.026  1.00  0.00    -0.285 OA
ATOM      8  C   UNL     1      12.477 -34.401  -1.932  1.00  0.00     0.111 A 
ATOM      9  C   UNL     1      11.740 -34.994  -4.186  1.00  0.00     0.094 A 
ATOM     10  C   UNL     1      11.177 -33.876  -1.672  1.00  0.00     0.134 A 
ATOM     11  C   UNL     1      10.499 -34.401  -3.947  1.00  0.00     0.123 A 
ATOM     12  C   UNL     1      10.223 -33.849  -2.697  1.00  0.00     0.093 A 
BRANCH   3  13
ATOM     13  C   UNL     1      16.117 -36.352  -2.984  1.00  0.00     0.025 A 
ATOM     14  C   UNL     1      17.297 -35.675  -3.339  1.00  0.00     0.016 A 
ATOM     15  C   UNL     1      18.457 -36.389  -3.648  1.00  0.00     0.051 A 
ATOM     16  C   UNL     1      18.461 -37.789  -3.593  1.00  0.00     0.157 A 
ATOM     17  C   UNL     1      16.128 -37.755  -2.920  1.00  0.00     0.062 A 
ATOM     18  C   UNL     1      17.289 -38.474  -3.229  1.00  0.00     0.158 A 
BRANCH  16  19
ATOM     19  O   UNL     1      19.622 -38.498  -3.889  1.00  0.00    -0.504 OA
ATOM     20  H   UNL     1      19.738 -38.980  -4.771  1.00  0.00     0.293 HD
ENDBRANCH  16  19
BRANCH  18  21
ATOM     21  O   UNL     1      17.260 -39.867  -3.159  1.00  0.00    -0.504 OA
ATOM     22  H   UNL     1      17.697 -40.448  -3.863  1.00  0.00     0.293 HD
ENDBRANCH  18  21
ENDBRANCH   3  13
BRANCH  10  23
ATOM     23  O   UNL     1      10.769 -33.408  -0.420  1.00  0.00    -0.507 OA
ATOM     24  H   UNL     1      10.365 -33.993   0.296  1.00  0.00     0.293 HD
ENDBRANCH  10  23
BRANCH  11  25
ATOM     25  O   UNL     1       9.523 -34.368  -4.941  1.00  0.00    -0.508 OA
ATOM     26  H   UNL     1       9.288 -35.190  -5.481  1.00  0.00     0.293 HD
ENDBRANCH  11  25
ENDBRANCH   1   2
BRANCH   1  27
ATOM     27  C   UNL     1      16.149 -35.532   0.733  1.00  0.00     0.339 C 
ATOM     28  C   UNL     1      15.999 -37.080   0.591  1.00  0.00     0.214 C 
ATOM     29  O   UNL     1      17.442 -35.157   1.185  1.00  0.00    -0.332 OA
ATOM     30  C   UNL     1      17.362 -37.796   0.749  1.00  0.00     0.180 C 
ATOM     31  C   UNL     1      17.777 -35.851   2.373  1.00  0.00     0.179 C 
ATOM     32  C   UNL     1      18.095 -37.336   2.035  1.00  0.00     0.177 C 
BRANCH  28  33
ATOM     33  O   UNL     1      15.090 -37.549   1.556  1.00  0.00    -0.384 OA
ATOM     34  H   UNL     1      14.440 -38.132   1.080  1.00  0.00     0.211 HD
ENDBRANCH  28  33
BRANCH  30  35
ATOM     35  O   UNL     1      18.167 -37.501  -0.365  1.00  0.00    -0.387 OA
ATOM     36  H   UNL     1      18.823 -36.812  -0.074  1.00  0.00     0.211 HD
ENDBRANCH  30  35
BRANCH  31  37
ATOM     37  C   UNL     1      18.977 -35.149   3.027  1.00  0.00     0.191 C 
BRANCH  37  38
ATOM     38  O   UNL     1      19.702 -34.406   2.082  1.00  0.00    -0.394 OA
ATOM     39  H   UNL     1      20.122 -33.652   2.572  1.00  0.00     0.210 HD
ENDBRANCH  37  38
ENDBRANCH  31  37
BRANCH  32  40
ATOM     40  O   UNL     1      17.789 -38.176   3.124  1.00  0.00    -0.387 OA
ATOM     41  H   UNL     1      16.800 -38.266   3.169  1.00  0.00     0.211 HD
ENDBRANCH  32  40
ENDBRANCH   1  27
TORSDOF 12
ENDMDL
MODEL 2
REMARK VINA RESULT:    -7.140      2.537      3.502
REMARK INTER + INTRA:         -11.431
REMARK INTER:                 -10.497
REMARK INTRA:                  -0.934
REMARK UNBOUND:                -0.952
REMARK SMILES O=c1c(O[C@@H]2O[C@H](CO)[C@@H](O)[C@H](O)[C@H]2O)c(-c2ccc(O)c(O)c2)oc2cc(O)cc(O)c12
REMARK SMILES IDX 4 1 3 2 16 3 25 4 2 5 26 6 1 7 33 8 27 9 31 10 28 11 30 12
REMARK SMILES IDX 17 13 18 14 19 15 20 16 24 17 22 18 21 19 23 21 32 23 29 25
REMARK SMILES IDX 5 27 14 28 6 29 12 30 7 31 10 32 15 33 13 35 8 37 9 38 11 40
REMARK H PARENT 21 20 23 22 32 24 29 26 15 34 13 36 9 39 11 41
REMARK Flexibility Score: inf
ROOT
ATOM      1  O   UNL     1      14.563 -35.951  -1.936  1.00  0.00    -0.454 OA
ENDROOT
BRANCH   1   2
ATOM      2  C   UNL     1      13.871 -36.831  -2.796  1.00  0.00     0.214 A 
ATOM      3  C   UNL     1      14.614 -37.834  -3.450  1.00  0.00     0.180 A 
ATOM      4  O   UNL     1      14.037 -38.610  -4.360  1.00  0.00    -0.452 OA
ATOM      5  C   UNL     1      12.485 -36.742  -3.075  1.00  0.00     0.239 A 
ATOM      6  C   UNL     1      12.746 -38.555  -4.653  1.00  0.00     0.146 A 
ATOM      7  O   UNL     1      11.803 -35.814  -2.572  1.00  0.00    -0.285 OA
ATOM      8  C   UNL     1      11.886 -37.660  -3.969  1.00  0.00     0.111 A 
ATOM      9  C   UNL     1      12.249 -39.396  -5.651  1.00  0.00     0.094 A 
ATOM     10  C   UNL     1      10.491 -37.706  -4.260  1.00  0.00     0.134 A 
ATOM     11  C   UNL     1      10.894 -39.370  -5.985  1.00  0.00     0.123 A 
ATOM     12  C   UNL     1      10.024 -38.531  -5.290  1.00  0.00     0.093 A 
BRANCH   3  13
ATOM     13  C   UNL     1      16.053 -38.051  -3.168  1.00  0.00     0.025 A 
ATOM     14  C   UNL     1      17.049 -37.474  -3.977  1.00  0.00     0.016 A 
ATOM     15  C   UNL     1      18.399 -37.638  -3.662  1.00  0.00     0.051 A 
ATOM     16  C   UNL     1      18.777 -38.368  -2.528  1.00  0.00     0.157 A 
ATOM     17  C   UNL     1      16.436 -38.773  -2.026  1.00  0.00     0.062 A 
ATOM     18  C   UNL     1      17.789 -38.939  -1.707  1.00  0.00     0.158 A 
BRANCH  16  19
ATOM     19  O   UNL     1      20.125 -38.520  -2.209  1.00  0.00    -0.504 OA
ATOM     20  H   UNL     1      20.702 -39.211  -2.668  1.00  0.00     0.293 HD
ENDBRANCH  16  19
BRANCH  18  21
ATOM     21  O   UNL     1      18.131 -39.667  -0.567  1.00  0.00    -0.504 OA
ATOM     22  H   UNL     1      18.139 -40.679  -0.560  1.00  0.00     0.293 HD
ENDBRANCH  18  21
ENDBRANCH   3  13
BRANCH  10  23
ATOM     23  O   UNL     1       9.528 -36.992  -3.542  1.00  0.00    -0.507 OA
ATOM     24  H   UNL     1       8.984 -37.381  -2.787  1.00  0.00     0.293 HD
ENDBRANCH  10  23
BRANCH  11  25
ATOM     25  O   UNL     1      10.395 -40.188  -6.998  1.00  0.00    -0.508 OA
ATOM     26  H   UNL     1       9.635 -40.833  -6.832  1.00  0.00     0.293 HD
ENDBRANCH  11  25
ENDBRANCH   1   2
BRANCH   1  27
ATOM     27  C   UNL     1      14.432 -35.811  -0.521  1.00  0.00     0.339 C 
ATOM     28  C   UNL     1      15.446 -36.751   0.206  1.00  0.00     0.214 C 
ATOM     29  O   UNL     1      14.654 -34.442  -0.211  1.00  0.00    -0.332 OA
ATOM     30  C   UNL     1      16.576 -35.944   0.889  1.00  0.00     0.180 C 
ATOM     31  C   UNL     1      14.675 -34.245   1.191  1.00  0.00     0.179 C 
ATOM     32  C   UNL     1      16.003 -34.809   1.775  1.00  0.00     0.177 C 
BRANCH  28  33
ATOM     33  O   UNL     1      14.759 -37.526   1.159  1.00  0.00    -0.384 OA
ATOM     34  H   UNL     1      15.295 -38.351   1.300  1.00  0.00     0.211 HD
ENDBRANCH  28  33
BRANCH  30  35
ATOM     35  O   UNL     1      17.398 -35.379  -0.101  1.00  0.00    -0.387 OA
ATOM     36  H   UNL     1      17.253 -35.904  -0.933  1.00  0.00     0.211 HD
ENDBRANCH  30  35
BRANCH  31  37
ATOM     37  C   UNL     1      14.525 -32.742   1.475  1.00  0.00     0.191 C 
BRANCH  37  38
ATOM     38  O   UNL     1      13.780 -32.112   0.466  1.00  0.00    -0.394 OA
ATOM     39  H   UNL     1      13.566 -31.200   0.796  1.00  0.00     0.210 HD
ENDBRANCH  37  38
ENDBRANCH  31  37
BRANCH  32  40
ATOM     40  O   UNL     1      15.824 -35.241   3.104  1.00  0.00    -0.387 OA
ATOM     41  H   UNL     1      15.370 -36.125   3.077  1.00  0.00     0.211 HD
ENDBRANCH  32  40
ENDBRANCH   1  27
TORSDOF 12
ENDMDL
MODEL 3
REMARK VINA RESULT:    -7.131      2.335      3.475
REMARK INTER + INTRA:         -11.418
REMARK INTER:                 -10.684
REMARK INTRA:                  -0.734
REMARK UNBOUND:                -0.952
REMARK SMILES O=c1c(O[C@@H]2O[C@H](CO)[C@@H](O)[C@H](O)[C@H]2O)c(-c2ccc(O)c(O)c2)oc2cc(O)cc(O)c12
REMARK SMILES IDX 4 1 3 2 16 3 25 4 2 5 26 6 1 7 33 8 27 9 31 10 28 11 30 12
REMARK SMILES IDX 17 13 18 14 19 15 20 16 24 17 22 18 21 19 23 21 32 23 29 25
REMARK SMILES IDX 5 27 14 28 6 29 12 30 7 31 10 32 15 33 13 35 8 37 9 38 11 40
REMARK H PARENT 21 20 23 22 32 24 29 26 15 34 13 36 9 39 11 41
REMARK Flexibility Score: inf
ROOT
ATOM      1  O   UNL     1      15.051 -35.261  -2.855  1.00  0.00    -0.454 OA
ENDROOT
BRANCH   1   2
ATOM      2  C   UNL     1      14.252 -36.261  -3.451  1.00  0.00     0.214 A 
ATOM      3  C   UNL     1      14.850 -37.508  -3.719  1.00  0.00     0.180 A 
ATOM      4  O   UNL     1      14.182 -38.441  -4.386  1.00  0.00    -0.452 OA
ATOM      5  C   UNL     1      12.902 -36.073  -3.834  1.00  0.00     0.239 A 
ATOM      6  C   UNL     1      12.921 -38.305  -4.767  1.00  0.00     0.146 A 
ATOM      7  O   UNL     1      12.357 -34.952  -3.684  1.00  0.00    -0.285 OA
ATOM      8  C   UNL     1      12.191 -37.133  -4.445  1.00  0.00     0.111 A 
ATOM      9  C   UNL     1      12.324 -39.337  -5.493  1.00  0.00     0.094 A 
ATOM     10  C   UNL     1      10.811 -37.075  -4.800  1.00  0.00     0.134 A 
ATOM     11  C   UNL     1      10.995 -39.232  -5.909  1.00  0.00     0.123 A 
ATOM     12  C   UNL     1      10.247 -38.108  -5.560  1.00  0.00     0.093 A 
BRANCH   3  13
ATOM     13  C   UNL     1      16.234 -37.821  -3.289  1.00  0.00     0.025 A 
ATOM     14  C   UNL     1      17.345 -37.356  -4.016  1.00  0.00     0.016 A 
ATOM     15  C   UNL     1      18.642 -37.608  -3.565  1.00  0.00     0.051 A 
ATOM     16  C   UNL     1      18.850 -38.316  -2.373  1.00  0.00     0.157 A 
ATOM     17  C   UNL     1      16.448 -38.521  -2.091  1.00  0.00     0.062 A 
ATOM     18  C   UNL     1      17.747 -38.776  -1.635  1.00  0.00     0.158 A 
BRANCH  16  19
ATOM     19  O   UNL     1      20.145 -38.556  -1.919  1.00  0.00    -0.504 OA
ATOM     20  H   UNL     1      20.344 -38.693  -0.938  1.00  0.00     0.293 HD
ENDBRANCH  16  19
BRANCH  18  21
ATOM     21  O   UNL     1      17.919 -39.478  -0.442  1.00  0.00    -0.504 OA
ATOM     22  H   UNL     1      18.390 -40.374  -0.411  1.00  0.00     0.293 HD
ENDBRANCH  18  21
ENDBRANCH   3  13
BRANCH  10  23
ATOM     23  O   UNL     1       9.951 -36.050  -4.399  1.00  0.00    -0.507 OA
ATOM     24  H   UNL     1       9.089 -35.819  -4.870  1.00  0.00     0.293 HD
ENDBRANCH  10  23
BRANCH  11  25
ATOM     25  O   UNL     1      10.401 -40.246  -6.656  1.00  0.00    -0.508 OA
ATOM     26  H   UNL     1      10.107 -40.099  -7.612  1.00  0.00     0.293 HD
ENDBRANCH  11  25
ENDBRANCH   1   2
BRANCH   1  27
ATOM     27  C   UNL     1      15.088 -34.856  -1.485  1.00  0.00     0.339 C 
ATOM     28  C   UNL     1      13.662 -34.964  -0.857  1.00  0.00     0.214 C 
ATOM     29  O   UNL     1      16.029 -35.690  -0.825  1.00  0.00    -0.332 OA
ATOM     30  C   UNL     1      13.582 -36.121   0.167  1.00  0.00     0.180 C 
ATOM     31  C   UNL     1      16.025 -35.442   0.570  1.00  0.00     0.179 C 
ATOM     32  C   UNL     1      14.734 -36.042   1.200  1.00  0.00     0.177 C 
BRANCH  28  33
ATOM     33  O   UNL     1      13.334 -33.744  -0.238  1.00  0.00    -0.384 OA
ATOM     34  H   UNL     1      12.803 -33.966   0.573  1.00  0.00     0.211 HD
ENDBRANCH  28  33
BRANCH  30  35
ATOM     35  O   UNL     1      13.666 -37.346  -0.517  1.00  0.00    -0.387 OA
ATOM     36  H   UNL     1      12.815 -37.831  -0.348  1.00  0.00     0.211 HD
ENDBRANCH  30  35
BRANCH  31  37
ATOM     37  C   UNL     1      17.293 -36.058   1.179  1.00  0.00     0.191 C 
BRANCH  37  38
ATOM     38  O   UNL     1      18.338 -35.123   1.221  1.00  0.00    -0.394 OA
ATOM     39  H   UNL     1      18.295 -34.686   2.112  1.00  0.00     0.210 HD
ENDBRANCH  37  38
ENDBRANCH  31  37
BRANCH  32  40
ATOM     40  O   UNL     1      14.347 -35.313   2.342  1.00  0.00    -0.387 OA
ATOM     41  H   UNL     1      13.468 -35.666   2.642  1.00  0.00     0.211 HD
ENDBRANCH  32  40
ENDBRANCH   1  27
TORSDOF 12
ENDMDL
MODEL 4
REMARK VINA RESULT:    -7.100      2.809      5.533
REMARK INTER + INTRA:         -11.373
REMARK INTER:                 -10.579
REMARK INTRA:                  -0.794
REMARK UNBOUND:                -0.952
REMARK SMILES O=c1c(O[C@@H]2O[C@H](CO)[C@@H](O)[C@H](O)[C@H]2O)c(-c2ccc(O)c(O)c2)oc2cc(O)cc(O)c12
REMARK SMILES IDX 4 1 3 2 16 3 25 4 2 5 26 6 1 7 33 8 27 9 31 10 28 11 30 12
REMARK SMILES IDX 17 13 18 14 19 15 20 16 24 17 22 18 21 19 23 21 32 23 29 25
REMARK SMILES IDX 5 27 14 28 6 29 12 30 7 31 10 32 15 33 13 35 8 37 9 38 11 40
REMARK H PARENT 21 20 23 22 32 24 29 26 15 34 13 36 9 39 11 41
REMARK Flexibility Score: inf
ROOT
ATOM      1  O   UNL     1      15.383 -35.729  -3.274  1.00  0.00    -0.454 OA
ENDROOT
BRANCH   1   2
ATOM      2  C   UNL     1      14.177 -36.457  -3.182  1.00  0.00     0.214 A 
ATOM      3  C   UNL     1      13.281 -36.120  -2.149  1.00  0.00     0.180 A 
ATOM      4  O   UNL     1      12.191 -36.849  -1.942  1.00  0.00    -0.452 OA
ATOM      5  C   UNL     1      13.834 -37.533  -4.036  1.00  0.00     0.239 A 
ATOM      6  C   UNL     1      11.836 -37.865  -2.714  1.00  0.00     0.146 A 
ATOM      7  O   UNL     1      14.641 -37.915  -4.920  1.00  0.00    -0.285 OA
ATOM      8  C   UNL     1      12.608 -38.215  -3.850  1.00  0.00     0.111 A 
ATOM      9  C   UNL     1      10.686 -38.586  -2.387  1.00  0.00     0.094 A 
ATOM     10  C   UNL     1      12.132 -39.259  -4.697  1.00  0.00     0.134 A 
ATOM     11  C   UNL     1      10.277 -39.661  -3.178  1.00  0.00     0.123 A 
ATOM     12  C   UNL     1      10.997 -39.990  -4.326  1.00  0.00     0.093 A 
BRANCH   3  13
ATOM     13  C   UNL     1      13.520 -34.964  -1.251  1.00  0.00     0.025 A 
ATOM     14  C   UNL     1      13.299 -33.645  -1.689  1.00  0.00     0.016 A 
ATOM     15  C   UNL     1      13.470 -32.571  -0.813  1.00  0.00     0.051 A 
ATOM     16  C   UNL     1      13.850 -32.797   0.517  1.00  0.00     0.157 A 
ATOM     17  C   UNL     1      13.890 -35.186   0.085  1.00  0.00     0.062 A 
ATOM     18  C   UNL     1      14.062 -34.112   0.966  1.00  0.00     0.158 A 
BRANCH  16  19
ATOM     19  O   UNL     1      14.008 -31.725   1.391  1.00  0.00    -0.504 OA
ATOM     20  H   UNL     1      13.648 -30.806   1.172  1.00  0.00     0.293 HD
ENDBRANCH  16  19
BRANCH  18  21
ATOM     21  O   UNL     1      14.435 -34.372   2.284  1.00  0.00    -0.504 OA
ATOM     22  H   UNL     1      13.803 -34.217   3.060  1.00  0.00     0.293 HD
ENDBRANCH  18  21
ENDBRANCH   3  13
BRANCH  10  23
ATOM     23  O   UNL     1      12.716 -39.586  -5.924  1.00  0.00    -0.507 OA
ATOM     24  H   UNL     1      13.336 -38.975  -6.434  1.00  0.00     0.293 HD
ENDBRANCH  10  23
BRANCH  11  25
ATOM     25  O   UNL     1       9.145 -40.402  -2.843  1.00  0.00    -0.508 OA
ATOM     26  H   UNL     1       8.964 -41.308  -3.253  1.00  0.00     0.293 HD
ENDBRANCH  11  25
ENDBRANCH   1   2
BRANCH   1  27
ATOM     27  C   UNL     1      16.682 -36.104  -2.812  1.00  0.00     0.339 C 
ATOM     28  C   UNL     1      16.625 -36.472  -1.295  1.00  0.00     0.214 C 
ATOM     29  O   UNL     1      17.114 -37.195  -3.612  1.00  0.00    -0.332 OA
ATOM     30  C   UNL     1      16.825 -37.990  -1.074  1.00  0.00     0.180 C 
ATOM     31  C   UNL     1      18.340 -37.715  -3.128  1.00  0.00     0.179 C 
ATOM     32  C   UNL     1      18.084 -38.508  -1.813  1.00  0.00     0.177 C 
BRANCH  28  33
ATOM     33  O   UNL     1      17.613 -35.747  -0.604  1.00  0.00    -0.384 OA
ATOM     34  H   UNL     1      18.474 -36.219  -0.752  1.00  0.00     0.211 HD
ENDBRANCH  28  33
BRANCH  30  35
ATOM     35  O   UNL     1      15.697 -38.677  -1.558  1.00  0.00    -0.387 OA
ATOM     36  H   UNL     1      15.286 -38.101  -2.257  1.00  0.00     0.211 HD
ENDBRANCH  30  35
BRANCH  31  37
ATOM     37  C   UNL     1      18.955 -38.607  -4.217  1.00  0.00     0.191 C 
BRANCH  37  38
ATOM     38  O   UNL     1      19.094 -39.929  -3.767  1.00  0.00    -0.394 OA
ATOM     39  H   UNL     1      19.751 -40.369  -4.368  1.00  0.00     0.210 HD
ENDBRANCH  37  38
ENDBRANCH  31  37
BRANCH  32  40
ATOM     40  O   UNL     1      19.217 -38.472  -0.977  1.00  0.00    -0.387 OA
ATOM     41  H   UNL     1      19.502 -37.523  -0.894  1.00  0.00     0.211 HD
ENDBRANCH  32  40
ENDBRANCH   1  27
TORSDOF 12
ENDMDL
MODEL 5
REMARK VINA RESULT:    -6.884      2.538      4.559
REMARK INTER + INTRA:         -11.055
REMARK INTER:                 -10.220
REMARK INTRA:                  -0.835
REMARK UNBOUND:                -0.952
REMARK SMILES O=c1c(O[C@@H]2O[C@H](CO)[C@@H](O)[C@H](O)[C@H]2O)c(-c2ccc(O)c(O)c2)oc2cc(O)cc(O)c12
REMARK SMILES IDX 4 1 3 2 16 3 25 4 2 5 26 6 1 7 33 8 27 9 31 10 28 11 30 12
REMARK SMILES IDX 17 13 18 14 19 15 20 16 24 17 22 18 21 19 23 21 32 23 29 25
REMARK SMILES IDX 5 27 14 28 6 29 12 30 7 31 10 32 15 33 13 35 8 37 9 38 11 40
REMARK H PARENT 21 20 23 22 32 24 29 26 15 34 13 36 9 39 11 41
REMARK Flexibility Score: inf
ROOT
ATOM      1  O   UNL     1      15.131 -36.404  -3.402  1.00  0.00    -0.454 OA
ENDROOT
BRANCH   1   2
ATOM      2  C   UNL     1      14.039 -36.034  -2.587  1.00  0.00     0.214 A 
ATOM      3  C   UNL     1      12.833 -36.747  -2.739  1.00  0.00     0.180 A 
ATOM      4  O   UNL     1      11.741 -36.365  -2.086  1.00  0.00    -0.452 OA
ATOM      5  C   UNL     1      14.068 -34.965  -1.659  1.00  0.00     0.239 A 
ATOM      6  C   UNL     1      11.725 -35.368  -1.213  1.00  0.00     0.146 A 
ATOM      7  O   UNL     1      15.099 -34.256  -1.550  1.00  0.00    -0.285 OA
ATOM      8  C   UNL     1      12.912 -34.660  -0.901  1.00  0.00     0.111 A 
ATOM      9  C   UNL     1      10.514 -35.028  -0.607  1.00  0.00     0.094 A 
ATOM     10  C   UNL     1      12.856 -33.656   0.111  1.00  0.00     0.134 A 
ATOM     11  C   UNL     1      10.456 -33.986   0.320  1.00  0.00     0.123 A 
ATOM     12  C   UNL     1      11.623 -33.310   0.676  1.00  0.00     0.093 A 
BRANCH   3  13
ATOM     13  C   UNL     1      12.727 -37.926  -3.631  1.00  0.00     0.025 A 
ATOM     14  C   UNL     1      12.465 -37.777  -5.005  1.00  0.00     0.016 A 
ATOM     15  C   UNL     1      12.429 -38.893  -5.844  1.00  0.00     0.051 A 
ATOM     16  C   UNL     1      12.669 -40.174  -5.327  1.00  0.00     0.157 A 
ATOM     17  C   UNL     1      12.977 -39.210  -3.120  1.00  0.00     0.062 A 
ATOM     18  C   UNL     1      12.943 -40.331  -3.957  1.00  0.00     0.158 A 
BRANCH  16  19
ATOM     19  O   UNL     1      12.645 -41.284  -6.168  1.00  0.00    -0.504 OA
ATOM     20  H   UNL     1      11.847 -41.904  -6.202  1.00  0.00     0.293 HD
ENDBRANCH  16  19
BRANCH  18  21
ATOM     21  O   UNL     1      13.192 -41.590  -3.412  1.00  0.00    -0.504 OA
ATOM     22  H   UNL     1      13.288 -42.416  -3.991  1.00  0.00     0.293 HD
ENDBRANCH  18  21
ENDBRANCH   3  13
BRANCH  10  23
ATOM     23  O   UNL     1      13.984 -33.005   0.617  1.00  0.00    -0.507 OA
ATOM     24  H   UNL     1      14.792 -32.763   0.063  1.00  0.00     0.293 HD
ENDBRANCH  10  23
BRANCH  11  25
ATOM     25  O   UNL     1       9.247 -33.624   0.910  1.00  0.00    -0.508 OA
ATOM     26  H   UNL     1       8.901 -32.675   0.871  1.00  0.00     0.293 HD
ENDBRANCH  11  25
ENDBRANCH   1   2
BRANCH   1  27
ATOM     27  C   UNL     1      16.497 -36.584  -3.024  1.00  0.00     0.339 C 
ATOM     28  C   UNL     1      16.597 -36.849  -1.488  1.00  0.00     0.214 C 
ATOM     29  O   UNL     1      17.006 -37.666  -3.789  1.00  0.00    -0.332 OA
ATOM     30  C   UNL     1      17.004 -38.312  -1.193  1.00  0.00     0.180 C 
ATOM     31  C   UNL     1      18.320 -37.997  -3.375  1.00  0.00     0.179 C 
ATOM     32  C   UNL     1      18.263 -38.721  -1.999  1.00  0.00     0.177 C 
BRANCH  28  33
ATOM     33  O   UNL     1      17.530 -35.961  -0.923  1.00  0.00    -0.384 OA
ATOM     34  H   UNL     1      17.046 -35.115  -0.734  1.00  0.00     0.211 HD
ENDBRANCH  28  33
BRANCH  30  35
ATOM     35  O   UNL     1      15.942 -39.164  -1.543  1.00  0.00    -0.387 OA
ATOM     36  H   UNL     1      15.299 -38.622  -2.074  1.00  0.00     0.211 HD
ENDBRANCH  30  35
BRANCH  31  37
ATOM     37  C   UNL     1      18.964 -38.879  -4.454  1.00  0.00     0.191 C 
BRANCH  37  38
ATOM     38  O   UNL     1      19.335 -40.127  -3.929  1.00  0.00    -0.394 OA
ATOM     39  H   UNL     1      20.327 -40.144  -3.904  1.00  0.00     0.210 HD
ENDBRANCH  37  38
ENDBRANCH  31  37
BRANCH  32  40
ATOM     40  O   UNL     1      19.440 -38.488  -1.259  1.00  0.00    -0.387 OA
ATOM     41  H   UNL     1      19.839 -39.371  -1.040  1.00  0.00     0.211 HD
ENDBRANCH  32  40
ENDBRANCH   1  27
TORSDOF 12
ENDMDL
MODEL 6
REMARK VINA RESULT:    -6.771      2.180      6.555
REMARK INTER + INTRA:         -10.889
REMARK INTER:                  -9.615
REMARK INTRA:                  -1.274
REMARK UNBOUND:                -0.952
REMARK SMILES O=c1c(O[C@@H]2O[C@H](CO)[C@@H](O)[C@H](O)[C@H]2O)c(-c2ccc(O)c(O)c2)oc2cc(O)cc(O)c12
REMARK SMILES IDX 4 1 3 2 16 3 25 4 2 5 26 6 1 7 33 8 27 9 31 10 28 11 30 12
REMARK SMILES IDX 17 13 18 14 19 15 20 16 24 17 22 18 21 19 23 21 32 23 29 25
REMARK SMILES IDX 5 27 14 28 6 29 12 30 7 31 10 32 15 33 13 35 8 37 9 38 11 40
REMARK H PARENT 21 20 23 22 32 24 29 26 15 34 13 36 9 39 11 41
REMARK Flexibility Score: inf
ROOT
ATOM      1  O   UNL     1      13.685 -36.441  -0.144  1.00  0.00    -0.454 OA
ENDROOT
BRANCH   1   2
ATOM      2  C   UNL     1      14.693 -36.819  -1.057  1.00  0.00     0.214 A 
ATOM      3  C   UNL     1      14.432 -36.653  -2.432  1.00  0.00     0.180 A 
ATOM      4  O   UNL     1      15.294 -37.103  -3.337  1.00  0.00    -0.452 OA
ATOM      5  C   UNL     1      15.931 -37.393  -0.680  1.00  0.00     0.239 A 
ATOM      6  C   UNL     1      16.460 -37.649  -3.026  1.00  0.00     0.146 A 
ATOM      7  O   UNL     1      16.170 -37.629   0.531  1.00  0.00    -0.285 OA
ATOM      8  C   UNL     1      16.870 -37.758  -1.674  1.00  0.00     0.111 A 
ATOM      9  C   UNL     1      17.276 -38.118  -4.056  1.00  0.00     0.094 A 
ATOM     10  C   UNL     1      18.172 -38.271  -1.400  1.00  0.00     0.134 A 
ATOM     11  C   UNL     1      18.514 -38.698  -3.769  1.00  0.00     0.123 A 
ATOM     12  C   UNL     1      18.956 -38.769  -2.448  1.00  0.00     0.093 A 
BRANCH   3  13
ATOM     13  C   UNL     1      13.196 -35.996  -2.921  1.00  0.00     0.025 A 
ATOM     14  C   UNL     1      13.227 -34.695  -3.456  1.00  0.00     0.016 A 
ATOM     15  C   UNL     1      12.065 -34.113  -3.968  1.00  0.00     0.051 A 
ATOM     16  C   UNL     1      10.859 -34.826  -3.967  1.00  0.00     0.157 A 
ATOM     17  C   UNL     1      11.987 -36.709  -2.932  1.00  0.00     0.062 A 
ATOM     18  C   UNL     1      10.821 -36.130  -3.444  1.00  0.00     0.158 A 
BRANCH  16  19
ATOM     19  O   UNL     1       9.704 -34.247  -4.489  1.00  0.00    -0.504 OA
ATOM     20  H   UNL     1       8.786 -34.493  -4.144  1.00  0.00     0.293 HD
ENDBRANCH  16  19
BRANCH  18  21
ATOM     21  O   UNL     1       9.637 -36.868  -3.434  1.00  0.00    -0.504 OA
ATOM     22  H   UNL     1       8.907 -36.720  -4.120  1.00  0.00     0.293 HD
ENDBRANCH  18  21
ENDBRANCH   3  13
BRANCH  10  23
ATOM     23  O   UNL     1      18.749 -38.277  -0.127  1.00  0.00    -0.507 OA
ATOM     24  H   UNL     1      18.356 -37.804   0.673  1.00  0.00     0.293 HD
ENDBRANCH  10  23
BRANCH  11  25
ATOM     25  O   UNL     1      19.323 -39.191  -4.790  1.00  0.00    -0.508 OA
ATOM     26  H   UNL     1      20.075 -39.841  -4.604  1.00  0.00     0.293 HD
ENDBRANCH  11  25
ENDBRANCH   1   2
BRANCH   1  27
ATOM     27  C   UNL     1      13.781 -35.533   0.955  1.00  0.00     0.339 C 
ATOM     28  C   UNL     1      14.580 -34.260   0.529  1.00  0.00     0.214 C 
ATOM     29  O   UNL     1      12.456 -35.223   1.361  1.00  0.00    -0.332 OA
ATOM     30  C   UNL     1      13.658 -33.021   0.432  1.00  0.00     0.180 C 
ATOM     31  C   UNL     1      12.462 -34.220   2.362  1.00  0.00     0.179 C 
ATOM     32  C   UNL     1      12.810 -32.847   1.718  1.00  0.00     0.177 C 
BRANCH  28  33
ATOM     33  O   UNL     1      15.611 -34.027   1.456  1.00  0.00    -0.384 OA
ATOM     34  H   UNL     1      15.193 -34.024   2.357  1.00  0.00     0.211 HD
ENDBRANCH  28  33
BRANCH  30  35
ATOM     35  O   UNL     1      12.795 -33.175  -0.667  1.00  0.00    -0.387 OA
ATOM     36  H   UNL     1      13.071 -32.506  -1.348  1.00  0.00     0.211 HD
ENDBRANCH  30  35
BRANCH  31  37
ATOM     37  C   UNL     1      11.082 -34.196   3.037  1.00  0.00     0.191 C 
BRANCH  37  38
ATOM     38  O   UNL     1      10.583 -32.887   3.117  1.00  0.00    -0.394 OA
ATOM     39  H   UNL     1      10.122 -32.703   2.257  1.00  0.00     0.210 HD
ENDBRANCH  37  38
ENDBRANCH  31  37
BRANCH  32  40
ATOM     40  O   UNL     1      13.456 -32.006   2.645  1.00  0.00    -0.387 OA
ATOM     41  H   UNL     1      14.056 -31.399   2.136  1.00  0.00     0.211 HD
ENDBRANCH  32  40
ENDBRANCH   1  27
TORSDOF 12
ENDMDL
MODEL 7
REMARK VINA RESULT:    -6.713      2.948      5.787
REMARK INTER + INTRA:         -10.805
REMARK INTER:                  -9.770
REMARK INTRA:                  -1.034
REMARK UNBOUND:                -0.952
REMARK SMILES O=c1c(O[C@@H]2O[C@H](CO)[C@@H](O)[C@H](O)[C@H]2O)c(-c2ccc(O)c(O)c2)oc2cc(O)cc(O)c12
REMARK SMILES IDX 4 1 3 2 16 3 25 4 2 5 26 6 1 7 33 8 27 9 31 10 28 11 30 12
REMARK SMILES IDX 17 13 18 14 19 15 20 16 24 17 22 18 21 19 23 21 32 23 29 25
REMARK SMILES IDX 5 27 14 28 6 29 12 30 7 31 10 32 15 33 13 35 8 37 9 38 11 40
REMARK H PARENT 21 20 23 22 32 24 29 26 15 34 13 36 9 39 11 41
REMARK Flexibility Score: inf
ROOT
ATOM      1  O   UNL     1      14.570 -37.419  -3.924  1.00  0.00    -0.454 OA
ENDROOT
BRANCH   1   2
ATOM      2  C   UNL     1      14.611 -36.388  -2.960  1.00  0.00     0.214 A 
ATOM      3  C   UNL     1      15.682 -36.385  -2.044  1.00  0.00     0.180 A 
ATOM      4  O   UNL     1      15.705 -35.512  -1.044  1.00  0.00    -0.452 OA
ATOM      5  C   UNL     1      13.622 -35.384  -2.831  1.00  0.00     0.239 A 
ATOM      6  C   UNL     1      14.797 -34.560  -0.885  1.00  0.00     0.146 A 
ATOM      7  O   UNL     1      12.612 -35.398  -3.578  1.00  0.00    -0.285 OA
ATOM      8  C   UNL     1      13.742 -34.403  -1.818  1.00  0.00     0.111 A 
ATOM      9  C   UNL     1      14.899 -33.715   0.222  1.00  0.00     0.094 A 
ATOM     10  C   UNL     1      12.845 -33.308  -1.649  1.00  0.00     0.134 A 
ATOM     11  C   UNL     1      13.964 -32.698   0.422  1.00  0.00     0.123 A 
ATOM     12  C   UNL     1      12.947 -32.498  -0.511  1.00  0.00     0.093 A 
BRANCH   3  13
ATOM     13  C   UNL     1      16.801 -37.351  -2.145  1.00  0.00     0.025 A 
ATOM     14  C   UNL     1      17.161 -38.164  -1.055  1.00  0.00     0.016 A 
ATOM     15  C   UNL     1      18.178 -39.112  -1.185  1.00  0.00     0.051 A 
ATOM     16  C   UNL     1      18.842 -39.273  -2.409  1.00  0.00     0.157 A 
ATOM     17  C   UNL     1      17.462 -37.523  -3.372  1.00  0.00     0.062 A 
ATOM     18  C   UNL     1      18.482 -38.473  -3.506  1.00  0.00     0.158 A 
BRANCH  16  19
ATOM     19  O   UNL     1      19.848 -40.228  -2.539  1.00  0.00    -0.504 OA
ATOM     20  H   UNL     1      19.659 -41.214  -2.426  1.00  0.00     0.293 HD
ENDBRANCH  16  19
BRANCH  18  21
ATOM     21  O   UNL     1      19.119 -38.611  -4.739  1.00  0.00    -0.504 OA
ATOM     22  H   UNL     1      19.174 -39.502  -5.217  1.00  0.00     0.293 HD
ENDBRANCH  18  21
ENDBRANCH   3  13
BRANCH  10  23
ATOM     23  O   UNL     1      11.869 -32.956  -2.585  1.00  0.00    -0.507 OA
ATOM     24  H   UNL     1      11.086 -33.543  -2.832  1.00  0.00     0.293 HD
ENDBRANCH  10  23
BRANCH  11  25
ATOM     25  O   UNL     1      14.044 -31.867   1.537  1.00  0.00    -0.508 OA
ATOM     26  H   UNL     1      14.540 -30.986   1.508  1.00  0.00     0.293 HD
ENDBRANCH  11  25
ENDBRANCH   1   2
BRANCH   1  27
ATOM     27  C   UNL     1      14.157 -38.776  -3.751  1.00  0.00     0.339 C 
ATOM     28  C   UNL     1      13.563 -38.977  -2.321  1.00  0.00     0.214 C 
ATOM     29  O   UNL     1      13.210 -39.061  -4.771  1.00  0.00    -0.332 OA
ATOM     30  C   UNL     1      12.033 -39.204  -2.372  1.00  0.00     0.180 C 
ATOM     31  C   UNL     1      12.650 -40.348  -4.586  1.00  0.00     0.179 C 
ATOM     32  C   UNL     1      11.662 -40.318  -3.384  1.00  0.00     0.177 C 
BRANCH  28  33
ATOM     33  O   UNL     1      14.196 -40.071  -1.704  1.00  0.00    -0.384 OA
ATOM     34  H   UNL     1      13.700 -40.885  -1.982  1.00  0.00     0.211 HD
ENDBRANCH  28  33
BRANCH  30  35
ATOM     35  O   UNL     1      11.404 -38.008  -2.758  1.00  0.00    -0.387 OA
ATOM     36  H   UNL     1      10.549 -37.955  -2.254  1.00  0.00     0.211 HD
ENDBRANCH  30  35
BRANCH  31  37
ATOM     37  C   UNL     1      11.947 -40.766  -5.887  1.00  0.00     0.191 C 
BRANCH  37  38
ATOM     38  O   UNL     1      12.274 -42.085  -6.235  1.00  0.00    -0.394 OA
ATOM     39  H   UNL     1      13.148 -42.050  -6.704  1.00  0.00     0.210 HD
ENDBRANCH  37  38
ENDBRANCH  31  37
BRANCH  32  40
ATOM     40  O   UNL     1      11.595 -41.577  -2.756  1.00  0.00    -0.387 OA
ATOM     41  H   UNL     1      11.713 -41.434  -1.780  1.00  0.00     0.211 HD
ENDBRANCH  32  40
ENDBRANCH   1  27
TORSDOF 12
ENDMDL
MODEL 8
REMARK VINA RESULT:    -6.593      3.007      5.920
REMARK INTER + INTRA:         -10.628
REMARK INTER:                  -9.441
REMARK INTRA:                  -1.187
REMARK UNBOUND:                -0.952
REMARK SMILES O=c1c(O[C@@H]2O[C@H](CO)[C@@H](O)[C@H](O)[C@H]2O)c(-c2ccc(O)c(O)c2)oc2cc(O)cc(O)c12
REMARK SMILES IDX 4 1 3 2 16 3 25 4 2 5 26 6 1 7 33 8 27 9 31 10 28 11 30 12
REMARK SMILES IDX 17 13 18 14 19 15 20 16 24 17 22 18 21 19 23 21 32 23 29 25
REMARK SMILES IDX 5 27 14 28 6 29 12 30 7 31 10 32 15 33 13 35 8 37 9 38 11 40
REMARK H PARENT 21 20 23 22 32 24 29 26 15 34 13 36 9 39 11 41
REMARK Flexibility Score: inf
ROOT
ATOM      1  O   UNL     1      13.681 -38.193  -1.737  1.00  0.00    -0.454 OA
ENDROOT
BRANCH   1   2
ATOM      2  C   UNL     1      13.764 -36.907  -1.159  1.00  0.00     0.214 A 
ATOM      3  C   UNL     1      15.012 -36.253  -1.185  1.00  0.00     0.180 A 
ATOM      4  O   UNL     1      15.177 -35.098  -0.551  1.00  0.00    -0.452 OA
ATOM      5  C   UNL     1      12.684 -36.255  -0.517  1.00  0.00     0.239 A 
ATOM      6  C   UNL     1      14.194 -34.458   0.064  1.00  0.00     0.146 A 
ATOM      7  O   UNL     1      11.577 -36.838  -0.404  1.00  0.00    -0.285 OA
ATOM      8  C   UNL     1      12.874 -34.973   0.051  1.00  0.00     0.111 A 
ATOM      9  C   UNL     1      14.484 -33.264   0.728  1.00  0.00     0.094 A 
ATOM     10  C   UNL     1      11.838 -34.199   0.652  1.00  0.00     0.134 A 
ATOM     11  C   UNL     1      13.475 -32.558   1.386  1.00  0.00     0.123 A 
ATOM     12  C   UNL     1      12.162 -33.025   1.343  1.00  0.00     0.093 A 
BRANCH   3  13
ATOM     13  C   UNL     1      16.181 -36.824  -1.896  1.00  0.00     0.025 A 
ATOM     14  C   UNL     1      16.710 -36.203  -3.042  1.00  0.00     0.016 A 
ATOM     15  C   UNL     1      17.849 -36.719  -3.665  1.00  0.00     0.051 A 
ATOM     16  C   UNL     1      18.484 -37.855  -3.146  1.00  0.00     0.157 A 
ATOM     17  C   UNL     1      16.828 -37.956  -1.374  1.00  0.00     0.062 A 
ATOM     18  C   UNL     1      17.969 -38.476  -1.995  1.00  0.00     0.158 A 
BRANCH  16  19
ATOM     19  O   UNL     1      19.627 -38.360  -3.762  1.00  0.00    -0.504 OA
ATOM     20  H   UNL     1      20.440 -38.632  -3.227  1.00  0.00     0.293 HD
ENDBRANCH  16  19
BRANCH  18  21
ATOM     21  O   UNL     1      18.582 -39.604  -1.449  1.00  0.00    -0.504 OA
ATOM     22  H   UNL     1      18.293 -39.993  -0.560  1.00  0.00     0.293 HD
ENDBRANCH  18  21
ENDBRANCH   3  13
BRANCH  10  23
ATOM     23  O   UNL     1      10.481 -34.521   0.563  1.00  0.00    -0.507 OA
ATOM     24  H   UNL     1       9.979 -35.046   1.264  1.00  0.00     0.293 HD
ENDBRANCH  10  23
BRANCH  11  25
ATOM     25  O   UNL     1      13.762 -31.380   2.073  1.00  0.00    -0.508 OA
ATOM     26  H   UNL     1      14.332 -31.379   2.908  1.00  0.00     0.293 HD
ENDBRANCH  11  25
ENDBRANCH   1   2
BRANCH   1  27
ATOM     27  C   UNL     1      12.708 -38.688  -2.659  1.00  0.00     0.339 C 
ATOM     28  C   UNL     1      12.405 -37.610  -3.748  1.00  0.00     0.214 C 
ATOM     29  O   UNL     1      13.229 -39.885  -3.219  1.00  0.00    -0.332 OA
ATOM     30  C   UNL     1      12.967 -38.029  -5.128  1.00  0.00     0.180 C 
ATOM     31  C   UNL     1      12.380 -40.367  -4.245  1.00  0.00     0.179 C 
ATOM     32  C   UNL     1      12.525 -39.465  -5.505  1.00  0.00     0.177 C 
BRANCH  28  33
ATOM     33  O   UNL     1      11.016 -37.410  -3.830  1.00  0.00    -0.384 OA
ATOM     34  H   UNL     1      10.804 -37.246  -4.787  1.00  0.00     0.211 HD
ENDBRANCH  28  33
BRANCH  30  35
ATOM     35  O   UNL     1      14.372 -37.980  -5.086  1.00  0.00    -0.387 OA
ATOM     36  H   UNL     1      14.661 -37.347  -5.796  1.00  0.00     0.211 HD
ENDBRANCH  30  35
BRANCH  31  37
ATOM     37  C   UNL     1      12.757 -41.825  -4.545  1.00  0.00     0.191 C 
BRANCH  37  38
ATOM     38  O   UNL     1      12.611 -42.113  -5.911  1.00  0.00    -0.394 OA
ATOM     39  H   UNL     1      11.759 -41.694  -6.202  1.00  0.00     0.210 HD
ENDBRANCH  37  38
ENDBRANCH  31  37
BRANCH  32  40
ATOM     40  O   UNL     1      11.332 -39.451  -6.254  1.00  0.00    -0.387 OA
ATOM     41  H   UNL     1      10.573 -39.466  -5.613  1.00  0.00     0.211 HD
ENDBRANCH  32  40
ENDBRANCH   1  27
TORSDOF 12
ENDMDL
