MODEL 1
REMARK VINA RESULT:    -4.281      0.000      0.000
REMARK INTER + INTRA:         -10.165
REMARK INTER:                  -7.785
REMARK INTRA:                  -2.380
REMARK UNBOUND:                -2.380
REMARK SMILES CCCCCCCCCCCCCC[C@H](C)C(=O)[O-]
REMARK SMILES IDX 9 1 10 2 11 3 12 4 13 5 14 6 15 7 16 8 17 9 18 10 19 11 8 12
REMARK SMILES IDX 7 13 6 14 5 15 4 16 3 17 2 18 1 19
REMARK H PARENT
REMARK Flexibility Score: inf
ROOT
ATOM      1  C   UNL     1      -1.358  -7.818 -14.057  1.00  0.00     0.000 C 
ENDROOT
BRANCH   1   2
ATOM      2  C   UNL     1      -0.714  -9.141 -13.613  1.00  0.00     0.000 C 
BRANCH   2   3
ATOM      3  C   UNL     1      -1.667 -10.341 -13.738  1.00  0.00     0.000 C 
BRANCH   3   4
ATOM      4  C   UNL     1      -1.588 -11.054 -15.106  1.00  0.00     0.000 C 
BRANCH   4   5
ATOM      5  C   UNL     1      -2.961 -11.152 -15.794  1.00  0.00     0.001 C 
BRANCH   5   6
ATOM      6  C   UNL     1      -3.982 -10.154 -15.206  1.00  0.00     0.009 C 
BRANCH   6   7
ATOM      7  C   UNL     1      -5.419 -10.719 -15.113  1.00  0.00     0.032 C 
ATOM      8  C   UNL     1      -5.862 -11.415 -16.406  1.00  0.00     0.014 C 
BRANCH   7   9
ATOM      9  C   UNL     1      -6.382  -9.615 -14.772  1.00  0.00     0.044 C 
ATOM     10  O   UNL     1      -6.006  -8.413 -14.777  1.00  0.00    -0.550 OA
ATOM     11  O   UNL     1      -7.697  -9.919 -14.443  1.00  0.00    -0.550 OA
ENDBRANCH   7   9
ENDBRANCH   6   7
ENDBRANCH   5   6
ENDBRANCH   4   5
ENDBRANCH   3   4
ENDBRANCH   2   3
ENDBRANCH   1   2
BRANCH   1  12
ATOM     12  C   UNL     1      -0.726  -7.254 -15.340  1.00  0.00     0.000 C 
BRANCH  12  13
ATOM     13  C   UNL     1      -1.485  -7.685 -16.609  1.00  0.00    -0.000 C 
BRANCH  13  14
ATOM     14  C   UNL     1      -2.345  -6.553 -17.192  1.00  0.00    -0.000 C 
BRANCH  14  15
ATOM     15  C   UNL     1      -3.847  -6.886 -17.177  1.00  0.00    -0.000 C 
BRANCH  15  16
ATOM     16  C   UNL     1      -4.367  -7.328 -18.554  1.00  0.00    -0.000 C 
BRANCH  16  17
ATOM     17  C   UNL     1      -4.638  -8.840 -18.625  1.00  0.00    -0.000 C 
BRANCH  17  18
ATOM     18  C   UNL     1      -3.414  -9.636 -19.106  1.00  0.00    -0.003 C 
ATOM     19  C   UNL     1      -2.759  -9.021 -20.341  1.00  0.00     0.004 C 
ENDBRANCH  17  18
ENDBRANCH  16  17
ENDBRANCH  15  16
ENDBRANCH  14  15
ENDBRANCH  13  14
ENDBRANCH  12  13
ENDBRANCH   1  12
TORSDOF 14
ENDMDL
MODEL 2
REMARK VINA RESULT:    -4.115      3.142      5.917
REMARK INTER + INTRA:          -9.863
REMARK INTER:                  -7.261
REMARK INTRA:                  -2.602
REMARK UNBOUND:                -2.380
REMARK SMILES CCCCCCCCCCCCCC[C@H](C)C(=O)[O-]
REMARK SMILES IDX 9 1 10 2 11 3 12 4 13 5 14 6 15 7 16 8 17 9 18 10 19 11 8 12
REMARK SMILES IDX 7 13 6 14 5 15 4 16 3 17 2 18 1 19
REMARK H PARENT
REMARK Flexibility Score: inf
ROOT
ATOM      1  C   UNL     1      -5.193  -7.704 -16.107  1.00  0.00     0.000 C 
ENDROOT
BRANCH   1   2
ATOM      2  C   UNL     1      -4.345  -6.847 -17.061  1.00  0.00     0.000 C 
BRANCH   2   3
ATOM      3  C   UNL     1      -4.365  -7.367 -18.508  1.00  0.00     0.000 C 
BRANCH   3   4
ATOM      4  C   UNL     1      -4.745  -8.860 -18.624  1.00  0.00     0.000 C 
BRANCH   4   5
ATOM      5  C   UNL     1      -3.563  -9.730 -19.087  1.00  0.00     0.001 C 
BRANCH   5   6
ATOM      6  C   UNL     1      -2.239  -8.937 -19.141  1.00  0.00     0.009 C 
BRANCH   6   7
ATOM      7  C   UNL     1      -1.459  -9.120 -20.462  1.00  0.00     0.032 C 
ATOM      8  C   UNL     1      -0.030  -8.565 -20.384  1.00  0.00     0.014 C 
BRANCH   7   9
ATOM      9  C   UNL     1      -2.201  -8.460 -21.592  1.00  0.00     0.044 C 
ATOM     10  O   UNL     1      -2.568  -9.131 -22.594  1.00  0.00    -0.550 OA
ATOM     11  O   UNL     1      -2.482  -7.101 -21.538  1.00  0.00    -0.550 OA
ENDBRANCH   7   9
ENDBRANCH   6   7
ENDBRANCH   5   6
ENDBRANCH   4   5
ENDBRANCH   3   4
ENDBRANCH   2   3
ENDBRANCH   1   2
BRANCH   1  12
ATOM     12  C   UNL     1      -4.386  -8.225 -14.907  1.00  0.00     0.000 C 
BRANCH  12  13
ATOM     13  C   UNL     1      -2.928  -8.554 -15.277  1.00  0.00    -0.000 C 
BRANCH  13  14
ATOM     14  C   UNL     1      -2.710 -10.055 -15.529  1.00  0.00    -0.000 C 
BRANCH  14  15
ATOM     15  C   UNL     1      -3.813 -10.925 -14.900  1.00  0.00    -0.000 C 
BRANCH  15  16
ATOM     16  C   UNL     1      -4.531 -11.805 -15.935  1.00  0.00    -0.000 C 
BRANCH  16  17
ATOM     17  C   UNL     1      -5.969 -11.333 -16.215  1.00  0.00    -0.000 C 
BRANCH  17  18
ATOM     18  C   UNL     1      -6.907 -11.564 -15.021  1.00  0.00    -0.003 C 
ATOM     19  C   UNL     1      -7.437 -10.261 -14.426  1.00  0.00     0.004 C 
ENDBRANCH  17  18
ENDBRANCH  16  17
ENDBRANCH  15  16
ENDBRANCH  14  15
ENDBRANCH  13  14
ENDBRANCH  12  13
ENDBRANCH   1  12
TORSDOF 14
ENDMDL
MODEL 3
REMARK VINA RESULT:    -4.096     14.829     17.087
REMARK INTER + INTRA:          -9.828
REMARK INTER:                  -7.191
REMARK INTRA:                  -2.637
REMARK UNBOUND:                -2.380
REMARK SMILES CCCCCCCCCCCCCC[C@H](C)C(=O)[O-]
REMARK SMILES IDX 9 1 10 2 11 3 12 4 13 5 14 6 15 7 16 8 17 9 18 10 19 11 8 12
REMARK SMILES IDX 7 13 6 14 5 15 4 16 3 17 2 18 1 19
REMARK H PARENT
REMARK Flexibility Score: inf
ROOT
ATOM      1  C   UNL     1     -15.573  -1.652 -15.730  1.00  0.00     0.000 C 
ENDROOT
BRANCH   1   2
ATOM      2  C   UNL     1     -15.236  -2.262 -17.100  1.00  0.00     0.000 C 
BRANCH   2   3
ATOM      3  C   UNL     1     -15.727  -1.401 -18.275  1.00  0.00     0.000 C 
BRANCH   3   4
ATOM      4  C   UNL     1     -15.556  -2.079 -19.653  1.00  0.00     0.000 C 
BRANCH   4   5
ATOM      5  C   UNL     1     -16.830  -1.988 -20.511  1.00  0.00     0.001 C 
BRANCH   5   6
ATOM      6  C   UNL     1     -17.108  -0.547 -20.994  1.00  0.00     0.009 C 
BRANCH   6   7
ATOM      7  C   UNL     1     -18.400  -0.412 -21.832  1.00  0.00     0.032 C 
ATOM      8  C   UNL     1     -19.269  -1.676 -21.782  1.00  0.00     0.014 C 
BRANCH   7   9
ATOM      9  C   UNL     1     -18.054  -0.086 -23.259  1.00  0.00     0.044 C 
ATOM     10  O   UNL     1     -16.943   0.434 -23.545  1.00  0.00    -0.550 OA
ATOM     11  O   UNL     1     -18.965  -0.356 -24.272  1.00  0.00    -0.550 OA
ENDBRANCH   7   9
ENDBRANCH   6   7
ENDBRANCH   5   6
ENDBRANCH   4   5
ENDBRANCH   3   4
ENDBRANCH   2   3
ENDBRANCH   1   2
BRANCH   1  12
ATOM     12  C   UNL     1     -17.018  -1.943 -15.295  1.00  0.00     0.000 C 
BRANCH  12  13
ATOM     13  C   UNL     1     -17.795  -0.662 -14.936  1.00  0.00    -0.000 C 
BRANCH  13  14
ATOM     14  C   UNL     1     -19.107  -0.530 -15.726  1.00  0.00    -0.000 C 
BRANCH  14  15
ATOM     15  C   UNL     1     -18.888   0.023 -17.146  1.00  0.00    -0.000 C 
BRANCH  15  16
ATOM     16  C   UNL     1     -19.525  -0.863 -18.228  1.00  0.00    -0.000 C 
BRANCH  16  17
ATOM     17  C   UNL     1     -20.040  -2.200 -17.668  1.00  0.00    -0.000 C 
BRANCH  17  18
ATOM     18  C   UNL     1     -19.485  -3.411 -18.433  1.00  0.00    -0.003 C 
ATOM     19  C   UNL     1     -18.337  -4.098 -17.697  1.00  0.00     0.004 C 
ENDBRANCH  17  18
ENDBRANCH  16  17
ENDBRANCH  15  16
ENDBRANCH  14  15
ENDBRANCH  13  14
ENDBRANCH  12  13
ENDBRANCH   1  12
TORSDOF 14
ENDMDL
MODEL 4
REMARK VINA RESULT:    -4.066      2.743      5.795
REMARK INTER + INTRA:          -9.774
REMARK INTER:                  -7.279
REMARK INTRA:                  -2.495
REMARK UNBOUND:                -2.380
REMARK SMILES CCCCCCCCCCCCCC[C@H](C)C(=O)[O-]
REMARK SMILES IDX 9 1 10 2 11 3 12 4 13 5 14 6 15 7 16 8 17 9 18 10 19 11 8 12
REMARK SMILES IDX 7 13 6 14 5 15 4 16 3 17 2 18 1 19
REMARK H PARENT
REMARK Flexibility Score: inf
ROOT
ATOM      1  C   UNL     1      -5.842 -10.407 -16.263  1.00  0.00     0.000 C 
ENDROOT
BRANCH   1   2
ATOM      2  C   UNL     1      -6.033  -9.360 -15.154  1.00  0.00     0.000 C 
BRANCH   2   3
ATOM      3  C   UNL     1      -4.981  -8.240 -15.202  1.00  0.00     0.000 C 
BRANCH   3   4
ATOM      4  C   UNL     1      -5.225  -7.209 -16.326  1.00  0.00     0.000 C 
BRANCH   4   5
ATOM      5  C   UNL     1      -4.026  -7.095 -17.284  1.00  0.00     0.001 C 
BRANCH   5   6
ATOM      6  C   UNL     1      -4.232  -7.912 -18.579  1.00  0.00     0.009 C 
BRANCH   6   7
ATOM      7  C   UNL     1      -2.997  -8.746 -18.990  1.00  0.00     0.032 C 
ATOM      8  C   UNL     1      -2.237  -9.307 -17.781  1.00  0.00     0.014 C 
BRANCH   7   9
ATOM      9  C   UNL     1      -2.071  -7.911 -19.831  1.00  0.00     0.044 C 
ATOM     10  O   UNL     1      -2.526  -7.188 -20.758  1.00  0.00    -0.550 OA
ATOM     11  O   UNL     1      -0.703  -7.936 -19.592  1.00  0.00    -0.550 OA
ENDBRANCH   7   9
ENDBRANCH   6   7
ENDBRANCH   5   6
ENDBRANCH   4   5
ENDBRANCH   3   4
ENDBRANCH   2   3
ENDBRANCH   1   2
BRANCH   1  12
ATOM     12  C   UNL     1      -4.633 -11.321 -16.009  1.00  0.00     0.000 C 
BRANCH  12  13
ATOM     13  C   UNL     1      -4.704 -12.026 -14.643  1.00  0.00    -0.000 C 
BRANCH  13  14
ATOM     14  C   UNL     1      -3.495 -11.703 -13.751  1.00  0.00    -0.000 C 
BRANCH  14  15
ATOM     15  C   UNL     1      -2.420 -10.884 -14.488  1.00  0.00    -0.000 C 
BRANCH  15  16
ATOM     16  C   UNL     1      -1.364 -10.304 -13.534  1.00  0.00    -0.000 C 
BRANCH  16  17
ATOM     17  C   UNL     1      -0.555  -9.163 -14.174  1.00  0.00    -0.000 C 
BRANCH  17  18
ATOM     18  C   UNL     1      -1.402  -7.904 -14.415  1.00  0.00    -0.003 C 
ATOM     19  C   UNL     1      -0.732  -6.915 -15.366  1.00  0.00     0.004 C 
ENDBRANCH  17  18
ENDBRANCH  16  17
ENDBRANCH  15  16
ENDBRANCH  14  15
ENDBRANCH  13  14
ENDBRANCH  12  13
ENDBRANCH   1  12
TORSDOF 14
ENDMDL
MODEL 5
REMARK VINA RESULT:    -4.016      3.386      5.801
REMARK INTER + INTRA:          -9.683
REMARK INTER:                  -6.943
REMARK INTRA:                  -2.741
REMARK UNBOUND:                -2.380
REMARK SMILES CCCCCCCCCCCCCC[C@H](C)C(=O)[O-]
REMARK SMILES IDX 9 1 10 2 11 3 12 4 13 5 14 6 15 7 16 8 17 9 18 10 19 11 8 12
REMARK SMILES IDX 7 13 6 14 5 15 4 16 3 17 2 18 1 19
REMARK H PARENT
REMARK Flexibility Score: inf
ROOT
ATOM      1  C   UNL     1      -3.711  -6.854 -17.312  1.00  0.00     0.000 C 
ENDROOT
BRANCH   1   2
ATOM      2  C   UNL     1      -2.197  -6.673 -17.116  1.00  0.00     0.000 C 
BRANCH   2   3
ATOM      3  C   UNL     1      -1.576  -7.759 -16.223  1.00  0.00     0.000 C 
BRANCH   3   4
ATOM      4  C   UNL     1      -0.918  -8.910 -17.015  1.00  0.00     0.000 C 
BRANCH   4   5
ATOM      5  C   UNL     1      -0.188  -8.410 -18.274  1.00  0.00     0.001 C 
BRANCH   5   6
ATOM      6  C   UNL     1      -0.596  -9.198 -19.538  1.00  0.00     0.009 C 
BRANCH   6   7
ATOM      7  C   UNL     1      -0.599  -8.345 -20.828  1.00  0.00     0.032 C 
ATOM      8  C   UNL     1      -0.938  -6.873 -20.559  1.00  0.00     0.014 C 
BRANCH   7   9
ATOM      9  C   UNL     1      -1.572  -8.919 -21.821  1.00  0.00     0.044 C 
ATOM     10  O   UNL     1      -1.632 -10.163 -22.012  1.00  0.00    -0.550 OA
ATOM     11  O   UNL     1      -2.411  -8.076 -22.538  1.00  0.00    -0.550 OA
ENDBRANCH   7   9
ENDBRANCH   6   7
ENDBRANCH   5   6
ENDBRANCH   4   5
ENDBRANCH   3   4
ENDBRANCH   2   3
ENDBRANCH   1   2
BRANCH   1  12
ATOM     12  C   UNL     1      -4.067  -7.352 -18.722  1.00  0.00     0.000 C 
BRANCH  12  13
ATOM     13  C   UNL     1      -4.865  -8.668 -18.698  1.00  0.00    -0.000 C 
BRANCH  13  14
ATOM     14  C   UNL     1      -3.957  -9.908 -18.760  1.00  0.00    -0.000 C 
BRANCH  14  15
ATOM     15  C   UNL     1      -4.081 -10.793 -17.507  1.00  0.00    -0.000 C 
BRANCH  15  16
ATOM     16  C   UNL     1      -5.542 -11.103 -17.147  1.00  0.00    -0.000 C 
BRANCH  16  17
ATOM     17  C   UNL     1      -5.919 -10.615 -15.737  1.00  0.00    -0.000 C 
BRANCH  17  18
ATOM     18  C   UNL     1      -4.847  -9.702 -15.124  1.00  0.00    -0.003 C 
ATOM     19  C   UNL     1      -5.408  -8.358 -14.665  1.00  0.00     0.004 C 
ENDBRANCH  17  18
ENDBRANCH  16  17
ENDBRANCH  15  16
ENDBRANCH  14  15
ENDBRANCH  13  14
ENDBRANCH  12  13
ENDBRANCH   1  12
TORSDOF 14
ENDMDL
MODEL 6
REMARK VINA RESULT:    -4.000      1.316      2.273
REMARK INTER + INTRA:          -9.654
REMARK INTER:                  -7.301
REMARK INTRA:                  -2.354
REMARK UNBOUND:                -2.380
REMARK SMILES CCCCCCCCCCCCCC[C@H](C)C(=O)[O-]
REMARK SMILES IDX 9 1 10 2 11 3 12 4 13 5 14 6 15 7 16 8 17 9 18 10 19 11 8 12
REMARK SMILES IDX 7 13 6 14 5 15 4 16 3 17 2 18 1 19
REMARK H PARENT
REMARK Flexibility Score: inf
ROOT
ATOM      1  C   UNL     1      -0.857  -7.269 -15.488  1.00  0.00     0.000 C 
ENDROOT
BRANCH   1   2
ATOM      2  C   UNL     1      -1.368  -7.963 -14.215  1.00  0.00     0.000 C 
BRANCH   2   3
ATOM      3  C   UNL     1      -2.502  -8.964 -14.495  1.00  0.00     0.000 C 
BRANCH   3   4
ATOM      4  C   UNL     1      -2.082 -10.440 -14.320  1.00  0.00     0.000 C 
BRANCH   4   5
ATOM      5  C   UNL     1      -3.172 -11.417 -14.794  1.00  0.00     0.001 C 
BRANCH   5   6
ATOM      6  C   UNL     1      -4.593 -10.926 -14.441  1.00  0.00     0.009 C 
BRANCH   6   7
ATOM      7  C   UNL     1      -5.709 -11.609 -15.264  1.00  0.00     0.032 C 
ATOM      8  C   UNL     1      -5.608 -11.300 -16.763  1.00  0.00     0.014 C 
BRANCH   7   9
ATOM      9  C   UNL     1      -7.058 -11.189 -14.747  1.00  0.00     0.044 C 
ATOM     10  O   UNL     1      -7.875 -12.048 -14.320  1.00  0.00    -0.550 OA
ATOM     11  O   UNL     1      -7.411  -9.846 -14.741  1.00  0.00    -0.550 OA
ENDBRANCH   7   9
ENDBRANCH   6   7
ENDBRANCH   5   6
ENDBRANCH   4   5
ENDBRANCH   3   4
ENDBRANCH   2   3
ENDBRANCH   1   2
BRANCH   1  12
ATOM     12  C   UNL     1       0.085  -8.163 -16.310  1.00  0.00     0.000 C 
BRANCH  12  13
ATOM     13  C   UNL     1      -0.433  -8.405 -17.740  1.00  0.00    -0.000 C 
BRANCH  13  14
ATOM     14  C   UNL     1      -1.292  -9.676 -17.847  1.00  0.00    -0.000 C 
BRANCH  14  15
ATOM     15  C   UNL     1      -2.560  -9.460 -18.692  1.00  0.00    -0.000 C 
BRANCH  15  16
ATOM     16  C   UNL     1      -2.669  -8.028 -19.237  1.00  0.00    -0.000 C 
BRANCH  16  17
ATOM     17  C   UNL     1      -3.640  -7.158 -18.421  1.00  0.00    -0.000 C 
BRANCH  17  18
ATOM     18  C   UNL     1      -4.721  -7.988 -17.713  1.00  0.00    -0.003 C 
ATOM     19  C   UNL     1      -5.084  -7.434 -16.337  1.00  0.00     0.004 C 
ENDBRANCH  17  18
ENDBRANCH  16  17
ENDBRANCH  15  16
ENDBRANCH  14  15
ENDBRANCH  13  14
ENDBRANCH  12  13
ENDBRANCH   1  12
TORSDOF 14
ENDMDL
MODEL 7
REMARK VINA RESULT:    -3.971     15.426     17.716
REMARK INTER + INTRA:          -9.601
REMARK INTER:                  -7.644
REMARK INTRA:                  -1.958
REMARK UNBOUND:                -2.380
REMARK SMILES CCCCCCCCCCCCCC[C@H](C)C(=O)[O-]
REMARK SMILES IDX 9 1 10 2 11 3 12 4 13 5 14 6 15 7 16 8 17 9 18 10 19 11 8 12
REMARK SMILES IDX 7 13 6 14 5 15 4 16 3 17 2 18 1 19
REMARK H PARENT
REMARK Flexibility Score: inf
ROOT
ATOM      1  C   UNL     1     -15.829  -2.436 -18.337  1.00  0.00     0.000 C 
ENDROOT
BRANCH   1   2
ATOM      2  C   UNL     1     -15.539  -1.668 -19.637  1.00  0.00     0.000 C 
BRANCH   2   3
ATOM      3  C   UNL     1     -16.675  -1.786 -20.666  1.00  0.00     0.000 C 
BRANCH   3   4
ATOM      4  C   UNL     1     -18.072  -1.953 -20.029  1.00  0.00     0.000 C 
BRANCH   4   5
ATOM      5  C   UNL     1     -19.207  -1.748 -21.048  1.00  0.00     0.001 C 
BRANCH   5   6
ATOM      6  C   UNL     1     -18.675  -1.569 -22.488  1.00  0.00     0.009 C 
BRANCH   6   7
ATOM      7  C   UNL     1     -19.295  -0.365 -23.233  1.00  0.00     0.032 C 
ATOM      8  C   UNL     1     -19.826  -0.743 -24.623  1.00  0.00     0.014 C 
BRANCH   7   9
ATOM      9  C   UNL     1     -18.281   0.739 -23.358  1.00  0.00     0.044 C 
ATOM     10  O   UNL     1     -17.063   0.470 -23.540  1.00  0.00    -0.550 OA
ATOM     11  O   UNL     1     -18.683   2.065 -23.269  1.00  0.00    -0.550 OA
ENDBRANCH   7   9
ENDBRANCH   6   7
ENDBRANCH   5   6
ENDBRANCH   4   5
ENDBRANCH   3   4
ENDBRANCH   2   3
ENDBRANCH   1   2
BRANCH   1  12
ATOM     12  C   UNL     1     -15.129  -1.815 -17.117  1.00  0.00     0.000 C 
BRANCH  12  13
ATOM     13  C   UNL     1     -15.817  -2.188 -15.791  1.00  0.00    -0.000 C 
BRANCH  13  14
ATOM     14  C   UNL     1     -17.345  -2.037 -15.859  1.00  0.00    -0.000 C 
BRANCH  14  15
ATOM     15  C   UNL     1     -17.828  -0.682 -15.312  1.00  0.00    -0.000 C 
BRANCH  15  16
ATOM     16  C   UNL     1     -18.931  -0.056 -16.179  1.00  0.00    -0.000 C 
BRANCH  16  17
ATOM     17  C   UNL     1     -18.382   0.567 -17.475  1.00  0.00    -0.000 C 
BRANCH  17  18
ATOM     18  C   UNL     1     -19.497   1.021 -18.428  1.00  0.00    -0.003 C 
ATOM     19  C   UNL     1     -18.961   1.763 -19.651  1.00  0.00     0.004 C 
ENDBRANCH  17  18
ENDBRANCH  16  17
ENDBRANCH  15  16
ENDBRANCH  14  15
ENDBRANCH  13  14
ENDBRANCH  12  13
ENDBRANCH   1  12
TORSDOF 14
ENDMDL
MODEL 8
REMARK VINA RESULT:    -3.958      3.137      5.852
REMARK INTER + INTRA:          -9.578
REMARK INTER:                  -6.899
REMARK INTRA:                  -2.678
REMARK UNBOUND:                -2.380
REMARK SMILES CCCCCCCCCCCCCC[C@H](C)C(=O)[O-]
REMARK SMILES IDX 9 1 10 2 11 3 12 4 13 5 14 6 15 7 16 8 17 9 18 10 19 11 8 12
REMARK SMILES IDX 7 13 6 14 5 15 4 16 3 17 2 18 1 19
REMARK H PARENT
REMARK Flexibility Score: inf
ROOT
ATOM      1  C   UNL     1      -3.615  -6.860 -17.273  1.00  0.00     0.000 C 
ENDROOT
BRANCH   1   2
ATOM      2  C   UNL     1      -3.981  -7.394 -18.667  1.00  0.00     0.000 C 
BRANCH   2   3
ATOM      3  C   UNL     1      -4.765  -8.715 -18.614  1.00  0.00     0.000 C 
BRANCH   3   4
ATOM      4  C   UNL     1      -3.938  -9.943 -19.054  1.00  0.00     0.000 C 
BRANCH   4   5
ATOM      5  C   UNL     1      -2.430  -9.641 -19.117  1.00  0.00     0.001 C 
BRANCH   5   6
ATOM      6  C   UNL     1      -1.821  -9.988 -20.493  1.00  0.00     0.009 C 
BRANCH   6   7
ATOM      7  C   UNL     1      -1.144  -8.787 -21.193  1.00  0.00     0.032 C 
ATOM      8  C   UNL     1      -0.589  -7.761 -20.196  1.00  0.00     0.014 C 
BRANCH   7   9
ATOM      9  C   UNL     1      -2.120  -8.119 -22.122  1.00  0.00     0.044 C 
ATOM     10  O   UNL     1      -2.566  -8.730 -23.129  1.00  0.00    -0.550 OA
ATOM     11  O   UNL     1      -2.533  -6.816 -21.874  1.00  0.00    -0.550 OA
ENDBRANCH   7   9
ENDBRANCH   6   7
ENDBRANCH   5   6
ENDBRANCH   4   5
ENDBRANCH   3   4
ENDBRANCH   2   3
ENDBRANCH   1   2
BRANCH   1  12
ATOM     12  C   UNL     1      -2.126  -6.497 -17.152  1.00  0.00     0.000 C 
BRANCH  12  13
ATOM     13  C   UNL     1      -1.470  -7.114 -15.903  1.00  0.00    -0.000 C 
BRANCH  13  14
ATOM     14  C   UNL     1      -0.690  -8.400 -16.223  1.00  0.00    -0.000 C 
BRANCH  14  15
ATOM     15  C   UNL     1      -1.307  -9.644 -15.559  1.00  0.00    -0.000 C 
BRANCH  15  16
ATOM     16  C   UNL     1      -2.565  -9.312 -14.741  1.00  0.00    -0.000 C 
BRANCH  16  17
ATOM     17  C   UNL     1      -3.828  -9.991 -15.299  1.00  0.00    -0.000 C 
BRANCH  17  18
ATOM     18  C   UNL     1      -5.075  -9.703 -14.450  1.00  0.00    -0.003 C 
ATOM     19  C   UNL     1      -5.902  -8.539 -14.993  1.00  0.00     0.004 C 
ENDBRANCH  17  18
ENDBRANCH  16  17
ENDBRANCH  15  16
ENDBRANCH  14  15
ENDBRANCH  13  14
ENDBRANCH  12  13
ENDBRANCH   1  12
TORSDOF 14
ENDMDL
MODEL 9
REMARK VINA RESULT:    -3.931      1.809      3.339
REMARK INTER + INTRA:          -9.528
REMARK INTER:                  -6.772
REMARK INTRA:                  -2.755
REMARK UNBOUND:                -2.380
REMARK SMILES CCCCCCCCCCCCCC[C@H](C)C(=O)[O-]
REMARK SMILES IDX 9 1 10 2 11 3 12 4 13 5 14 6 15 7 16 8 17 9 18 10 19 11 8 12
REMARK SMILES IDX 7 13 6 14 5 15 4 16 3 17 2 18 1 19
REMARK H PARENT
REMARK Flexibility Score: inf
ROOT
ATOM      1  C   UNL     1      -4.361  -7.020 -17.517  1.00  0.00     0.000 C 
ENDROOT
BRANCH   1   2
ATOM      2  C   UNL     1      -4.381  -7.860 -18.803  1.00  0.00     0.000 C 
BRANCH   2   3
ATOM      3  C   UNL     1      -5.099  -9.208 -18.625  1.00  0.00     0.000 C 
BRANCH   3   4
ATOM      4  C   UNL     1      -4.138 -10.398 -18.409  1.00  0.00     0.000 C 
BRANCH   4   5
ATOM      5  C   UNL     1      -4.351 -11.081 -17.047  1.00  0.00     0.001 C 
BRANCH   5   6
ATOM      6  C   UNL     1      -3.749 -10.264 -15.882  1.00  0.00     0.009 C 
BRANCH   6   7
ATOM      7  C   UNL     1      -4.600 -10.301 -14.592  1.00  0.00     0.032 C 
ATOM      8  C   UNL     1      -5.169 -11.696 -14.303  1.00  0.00     0.014 C 
BRANCH   7   9
ATOM      9  C   UNL     1      -5.721  -9.303 -14.689  1.00  0.00     0.044 C 
ATOM     10  O   UNL     1      -5.498  -8.074 -14.525  1.00  0.00    -0.550 OA
ATOM     11  O   UNL     1      -7.013  -9.735 -14.956  1.00  0.00    -0.550 OA
ENDBRANCH   7   9
ENDBRANCH   6   7
ENDBRANCH   5   6
ENDBRANCH   4   5
ENDBRANCH   3   4
ENDBRANCH   2   3
ENDBRANCH   1   2
BRANCH   1  12
ATOM     12  C   UNL     1      -2.934  -6.681 -17.055  1.00  0.00     0.000 C 
BRANCH  12  13
ATOM     13  C   UNL     1      -1.864  -7.157 -18.054  1.00  0.00    -0.000 C 
BRANCH  13  14
ATOM     14  C   UNL     1      -0.974  -8.269 -17.477  1.00  0.00    -0.000 C 
BRANCH  14  15
ATOM     15  C   UNL     1      -0.674  -9.377 -18.502  1.00  0.00    -0.000 C 
BRANCH  15  16
ATOM     16  C   UNL     1      -0.617  -8.847 -19.943  1.00  0.00    -0.000 C 
BRANCH  16  17
ATOM     17  C   UNL     1      -1.429  -9.712 -20.923  1.00  0.00    -0.000 C 
BRANCH  17  18
ATOM     18  C   UNL     1      -2.458  -8.893 -21.716  1.00  0.00    -0.003 C 
ATOM     19  C   UNL     1      -2.121  -7.404 -21.760  1.00  0.00     0.004 C 
ENDBRANCH  17  18
ENDBRANCH  16  17
ENDBRANCH  15  16
ENDBRANCH  14  15
ENDBRANCH  13  14
ENDBRANCH  12  13
ENDBRANCH   1  12
TORSDOF 14
ENDMDL
