MODEL 1
REMARK VINA RESULT:    -3.684      0.000      0.000
REMARK INTER + INTRA:          -4.665
REMARK INTER:                  -4.546
REMARK INTRA:                  -0.119
REMARK UNBOUND:                -0.119
REMARK SMILES CCCCCC(=O)[O-]
REMARK SMILES IDX 4 1 5 2 6 3 7 4 8 5 3 6 2 7 1 8
REMARK H PARENT
REMARK Flexibility Score: inf
ROOT
ATOM      1  C   UNL     1      27.322  34.927  33.478  1.00  0.00     0.006 C 
ENDROOT
BRANCH   1   2
ATOM      2  C   UNL     1      26.795  35.616  32.216  1.00  0.00     0.053 C 
BRANCH   2   3
ATOM      3  C   UNL     1      26.713  34.643  31.082  1.00  0.00     0.041 C 
ATOM      4  O   UNL     1      25.632  34.492  30.454  1.00  0.00    -0.550 OA
ATOM      5  O   UNL     1      27.815  33.866  30.750  1.00  0.00    -0.550 OA
ENDBRANCH   2   3
ENDBRANCH   1   2
BRANCH   1   6
ATOM      6  C   UNL     1      26.299  33.919  34.020  1.00  0.00     0.000 C 
BRANCH   6   7
ATOM      7  C   UNL     1      25.646  34.387  35.330  1.00  0.00    -0.003 C 
ATOM      8  C   UNL     1      24.643  33.376  35.885  1.00  0.00     0.004 C 
ENDBRANCH   6   7
ENDBRANCH   1   6
TORSDOF 4
ENDMDL
MODEL 2
REMARK VINA RESULT:    -3.680      2.505      4.050
REMARK INTER + INTRA:          -4.659
REMARK INTER:                  -4.479
REMARK INTRA:                  -0.180
REMARK UNBOUND:                -0.119
REMARK SMILES CCCCCC(=O)[O-]
REMARK SMILES IDX 4 1 5 2 6 3 7 4 8 5 3 6 2 7 1 8
REMARK H PARENT
REMARK Flexibility Score: inf
ROOT
ATOM      1  C   UNL     1      26.871  35.390  33.205  1.00  0.00     0.006 C 
ENDROOT
BRANCH   1   2
ATOM      2  C   UNL     1      27.071  34.247  34.204  1.00  0.00     0.053 C 
BRANCH   2   3
ATOM      3  C   UNL     1      25.751  33.749  34.703  1.00  0.00     0.041 C 
ATOM      4  O   UNL     1      25.186  32.776  34.138  1.00  0.00    -0.550 OA
ATOM      5  O   UNL     1      25.121  34.391  35.762  1.00  0.00    -0.550 OA
ENDBRANCH   2   3
ENDBRANCH   1   2
BRANCH   1   6
ATOM      6  C   UNL     1      27.715  35.169  31.942  1.00  0.00     0.000 C 
BRANCH   6   7
ATOM      7  C   UNL     1      27.169  34.039  31.056  1.00  0.00    -0.003 C 
ATOM      8  C   UNL     1      25.809  34.374  30.442  1.00  0.00     0.004 C 
ENDBRANCH   6   7
ENDBRANCH   1   6
TORSDOF 4
ENDMDL
MODEL 3
REMARK VINA RESULT:    -3.679      0.097      1.147
REMARK INTER + INTRA:          -4.659
REMARK INTER:                  -4.547
REMARK INTRA:                  -0.111
REMARK UNBOUND:                -0.119
REMARK SMILES CCCCCC(=O)[O-]
REMARK SMILES IDX 4 1 5 2 6 3 7 4 8 5 3 6 2 7 1 8
REMARK H PARENT
REMARK Flexibility Score: inf
ROOT
ATOM      1  C   UNL     1      27.305  34.858  33.472  1.00  0.00     0.006 C 
ENDROOT
BRANCH   1   2
ATOM      2  C   UNL     1      26.767  35.534  32.207  1.00  0.00     0.053 C 
BRANCH   2   3
ATOM      3  C   UNL     1      26.743  34.568  31.065  1.00  0.00     0.041 C 
ATOM      4  O   UNL     1      27.780  33.922  30.759  1.00  0.00    -0.550 OA
ATOM      5  O   UNL     1      25.589  34.416  30.307  1.00  0.00    -0.550 OA
ENDBRANCH   2   3
ENDBRANCH   1   2
BRANCH   1   6
ATOM      6  C   UNL     1      26.272  33.884  34.056  1.00  0.00     0.000 C 
BRANCH   6   7
ATOM      7  C   UNL     1      25.607  34.424  35.332  1.00  0.00    -0.003 C 
ATOM      8  C   UNL     1      24.692  33.398  36.001  1.00  0.00     0.004 C 
ENDBRANCH   6   7
ENDBRANCH   1   6
TORSDOF 4
ENDMDL
MODEL 4
REMARK VINA RESULT:    -3.486      2.688      4.188
REMARK INTER + INTRA:          -4.420
REMARK INTER:                  -4.238
REMARK INTRA:                  -0.182
REMARK UNBOUND:                -0.119
REMARK SMILES CCCCCC(=O)[O-]
REMARK SMILES IDX 4 1 5 2 6 3 7 4 8 5 3 6 2 7 1 8
REMARK H PARENT
REMARK Flexibility Score: inf
ROOT
ATOM      1  C   UNL     1      26.706  35.347  33.651  1.00  0.00     0.006 C 
ENDROOT
BRANCH   1   2
ATOM      2  C   UNL     1      26.707  33.847  33.961  1.00  0.00     0.053 C 
BRANCH   2   3
ATOM      3  C   UNL     1      27.817  33.506  34.904  1.00  0.00     0.041 C 
ATOM      4  O   UNL     1      29.013  33.740  34.586  1.00  0.00    -0.550 OA
ATOM      5  O   UNL     1      27.536  32.885  36.114  1.00  0.00    -0.550 OA
ENDBRANCH   2   3
ENDBRANCH   1   2
BRANCH   1   6
ATOM      6  C   UNL     1      27.092  35.605  32.187  1.00  0.00     0.000 C 
BRANCH   6   7
ATOM      7  C   UNL     1      26.993  34.341  31.319  1.00  0.00    -0.003 C 
ATOM      8  C   UNL     1      25.797  34.370  30.367  1.00  0.00     0.004 C 
ENDBRANCH   6   7
ENDBRANCH   1   6
TORSDOF 4
ENDMDL
MODEL 5
REMARK VINA RESULT:    -3.306      3.264      4.707
REMARK INTER + INTRA:          -4.198
REMARK INTER:                  -4.091
REMARK INTRA:                  -0.106
REMARK UNBOUND:                -0.119
REMARK SMILES CCCCCC(=O)[O-]
REMARK SMILES IDX 4 1 5 2 6 3 7 4 8 5 3 6 2 7 1 8
REMARK H PARENT
REMARK Flexibility Score: inf
ROOT
ATOM      1  C   UNL     1      26.927  33.901  34.213  1.00  0.00     0.006 C 
ENDROOT
BRANCH   1   2
ATOM      2  C   UNL     1      25.562  33.299  34.561  1.00  0.00     0.053 C 
BRANCH   2   3
ATOM      3  C   UNL     1      25.481  32.995  36.024  1.00  0.00     0.041 C 
ATOM      4  O   UNL     1      26.268  32.159  36.543  1.00  0.00    -0.550 OA
ATOM      5  O   UNL     1      24.504  33.597  36.806  1.00  0.00    -0.550 OA
ENDBRANCH   2   3
ENDBRANCH   1   2
BRANCH   1   6
ATOM      6  C   UNL     1      26.770  35.304  33.610  1.00  0.00     0.000 C 
BRANCH   6   7
ATOM      7  C   UNL     1      27.386  35.416  32.207  1.00  0.00    -0.003 C 
ATOM      8  C   UNL     1      26.664  34.552  31.173  1.00  0.00     0.004 C 
ENDBRANCH   6   7
ENDBRANCH   1   6
TORSDOF 4
ENDMDL
MODEL 6
REMARK VINA RESULT:    -3.229      1.059      1.671
REMARK INTER + INTRA:          -4.103
REMARK INTER:                  -3.992
REMARK INTRA:                  -0.111
REMARK UNBOUND:                -0.119
REMARK SMILES CCCCCC(=O)[O-]
REMARK SMILES IDX 4 1 5 2 6 3 7 4 8 5 3 6 2 7 1 8
REMARK H PARENT
REMARK Flexibility Score: inf
ROOT
ATOM      1  C   UNL     1      26.595  34.313  33.348  1.00  0.00     0.006 C 
ENDROOT
BRANCH   1   2
ATOM      2  C   UNL     1      26.833  35.234  32.148  1.00  0.00     0.053 C 
BRANCH   2   3
ATOM      3  C   UNL     1      26.721  34.468  30.868  1.00  0.00     0.041 C 
ATOM      4  O   UNL     1      27.717  33.846  30.412  1.00  0.00    -0.550 OA
ATOM      5  O   UNL     1      25.531  34.479  30.151  1.00  0.00    -0.550 OA
ENDBRANCH   2   3
ENDBRANCH   1   2
BRANCH   1   6
ATOM      6  C   UNL     1      27.909  34.027  34.089  1.00  0.00     0.000 C 
BRANCH   6   7
ATOM      7  C   UNL     1      27.688  33.298  35.423  1.00  0.00    -0.003 C 
ATOM      8  C   UNL     1      26.209  33.168  35.789  1.00  0.00     0.004 C 
ENDBRANCH   6   7
ENDBRANCH   1   6
TORSDOF 4
ENDMDL
MODEL 7
REMARK VINA RESULT:    -3.125      3.124      4.641
REMARK INTER + INTRA:          -3.975
REMARK INTER:                  -3.884
REMARK INTRA:                  -0.091
REMARK UNBOUND:                -0.119
REMARK SMILES CCCCCC(=O)[O-]
REMARK SMILES IDX 4 1 5 2 6 3 7 4 8 5 3 6 2 7 1 8
REMARK H PARENT
REMARK Flexibility Score: inf
ROOT
ATOM      1  C   UNL     1      26.262  34.062  33.769  1.00  0.00     0.006 C 
ENDROOT
BRANCH   1   2
ATOM      2  C   UNL     1      25.832  34.173  35.235  1.00  0.00     0.053 C 
BRANCH   2   3
ATOM      3  C   UNL     1      26.317  32.993  36.015  1.00  0.00     0.041 C 
ATOM      4  O   UNL     1      27.352  32.374  35.651  1.00  0.00    -0.550 OA
ATOM      5  O   UNL     1      25.600  32.545  37.117  1.00  0.00    -0.550 OA
ENDBRANCH   2   3
ENDBRANCH   1   2
BRANCH   1   6
ATOM      6  C   UNL     1      26.882  35.377  33.277  1.00  0.00     0.000 C 
BRANCH   6   7
ATOM      7  C   UNL     1      27.583  35.228  31.919  1.00  0.00    -0.003 C 
ATOM      8  C   UNL     1      26.773  34.398  30.922  1.00  0.00     0.004 C 
ENDBRANCH   6   7
ENDBRANCH   1   6
TORSDOF 4
ENDMDL
MODEL 8
REMARK VINA RESULT:    -2.781      3.537      4.174
REMARK INTER + INTRA:          -3.550
REMARK INTER:                  -3.340
REMARK INTRA:                  -0.210
REMARK UNBOUND:                -0.119
REMARK SMILES CCCCCC(=O)[O-]
REMARK SMILES IDX 4 1 5 2 6 3 7 4 8 5 3 6 2 7 1 8
REMARK H PARENT
REMARK Flexibility Score: inf
ROOT
ATOM      1  C   UNL     1      28.013  34.209  33.742  1.00  0.00     0.006 C 
ENDROOT
BRANCH   1   2
ATOM      2  C   UNL     1      28.490  32.971  34.508  1.00  0.00     0.053 C 
BRANCH   2   3
ATOM      3  C   UNL     1      29.133  33.370  35.799  1.00  0.00     0.041 C 
ATOM      4  O   UNL     1      30.320  33.790  35.813  1.00  0.00    -0.550 OA
ATOM      5  O   UNL     1      28.440  33.230  36.995  1.00  0.00    -0.550 OA
ENDBRANCH   2   3
ENDBRANCH   1   2
BRANCH   1   6
ATOM      6  C   UNL     1      26.573  34.573  34.129  1.00  0.00     0.000 C 
BRANCH   6   7
ATOM      7  C   UNL     1      25.721  33.339  34.462  1.00  0.00    -0.003 C 
ATOM      8  C   UNL     1      24.784  33.569  35.649  1.00  0.00     0.004 C 
ENDBRANCH   6   7
ENDBRANCH   1   6
TORSDOF 4
ENDMDL
MODEL 9
REMARK VINA RESULT:    -2.732      1.849      2.555
REMARK INTER + INTRA:          -3.490
REMARK INTER:                  -3.343
REMARK INTRA:                  -0.147
REMARK UNBOUND:                -0.119
REMARK SMILES CCCCCC(=O)[O-]
REMARK SMILES IDX 4 1 5 2 6 3 7 4 8 5 3 6 2 7 1 8
REMARK H PARENT
REMARK Flexibility Score: inf
ROOT
ATOM      1  C   UNL     1      26.001  33.287  34.513  1.00  0.00     0.006 C 
ENDROOT
BRANCH   1   2
ATOM      2  C   UNL     1      26.169  33.906  33.122  1.00  0.00     0.053 C 
BRANCH   2   3
ATOM      3  C   UNL     1      27.270  34.919  33.129  1.00  0.00     0.041 C 
ATOM      4  O   UNL     1      28.455  34.566  33.364  1.00  0.00    -0.550 OA
ATOM      5  O   UNL     1      26.980  36.262  32.923  1.00  0.00    -0.550 OA
ENDBRANCH   2   3
ENDBRANCH   1   2
BRANCH   1   6
ATOM      6  C   UNL     1      25.343  34.280  35.481  1.00  0.00     0.000 C 
BRANCH   6   7
ATOM      7  C   UNL     1      25.546  33.893  36.954  1.00  0.00    -0.003 C 
ATOM      8  C   UNL     1      26.045  32.458  37.125  1.00  0.00     0.004 C 
ENDBRANCH   6   7
ENDBRANCH   1   6
TORSDOF 4
ENDMDL
