MODEL 1
REMARK VINA RESULT:    -4.546      0.000      0.000
REMARK INTER + INTRA:          -5.163
REMARK INTER:                  -5.078
REMARK INTRA:                  -0.086
REMARK UNBOUND:                -0.086
REMARK SMILES CCc1ccc(O)cc1O
REMARK SMILES IDX 3 1 9 2 8 3 6 4 5 5 4 6 2 7 1 8 10 9 7 11
REMARK H PARENT 10 10 7 12
REMARK Flexibility Score: inf
ROOT
ATOM      1  C   UNL     1     111.486   7.684 -25.439  1.00  0.00    -0.006 A 
ATOM      2  C   UNL     1     111.602   7.986 -24.067  1.00  0.00     0.122 A 
ATOM      3  C   UNL     1     112.683   8.752 -23.609  1.00  0.00     0.092 A 
ATOM      4  C   UNL     1     113.642   9.231 -24.506  1.00  0.00     0.119 A 
ATOM      5  C   UNL     1     113.521   8.944 -25.872  1.00  0.00     0.047 A 
ATOM      6  C   UNL     1     112.447   8.180 -26.336  1.00  0.00     0.011 A 
ENDROOT
BRANCH   1   7
ATOM      7  C   UNL     1     110.317   6.887 -25.962  1.00  0.00     0.036 C 
ATOM      8  C   UNL     1     110.409   6.724 -27.476  1.00  0.00     0.009 C 
ENDBRANCH   1   7
BRANCH   2   9
ATOM      9  O   UNL     1     110.643   7.526 -23.164  1.00  0.00    -0.508 OA
ATOM     10  H   UNL     1     110.905   7.052 -22.307  1.00  0.00     0.293 HD
ENDBRANCH   2   9
BRANCH   4  11
ATOM     11  O   UNL     1     114.710   9.991 -24.033  1.00  0.00    -0.508 OA
ATOM     12  H   UNL     1     114.953  10.880 -24.452  1.00  0.00     0.293 HD
ENDBRANCH   4  11
TORSDOF 3
ENDMDL
MODEL 2
REMARK VINA RESULT:    -4.507      1.730      3.642
REMARK INTER + INTRA:          -5.119
REMARK INTER:                  -5.034
REMARK INTRA:                  -0.085
REMARK UNBOUND:                -0.086
REMARK SMILES CCc1ccc(O)cc1O
REMARK SMILES IDX 3 1 9 2 8 3 6 4 5 5 4 6 2 7 1 8 10 9 7 11
REMARK H PARENT 10 10 7 12
REMARK Flexibility Score: inf
ROOT
ATOM      1  C   UNL     1     112.326   8.712 -24.548  1.00  0.00    -0.006 A 
ATOM      2  C   UNL     1     111.234   7.831 -24.410  1.00  0.00     0.122 A 
ATOM      3  C   UNL     1     110.695   7.205 -25.544  1.00  0.00     0.092 A 
ATOM      4  C   UNL     1     111.240   7.439 -26.809  1.00  0.00     0.119 A 
ATOM      5  C   UNL     1     112.334   8.302 -26.946  1.00  0.00     0.047 A 
ATOM      6  C   UNL     1     112.878   8.931 -25.822  1.00  0.00     0.011 A 
ENDROOT
BRANCH   1   7
ATOM      7  C   UNL     1     112.945   9.375 -23.343  1.00  0.00     0.036 C 
ATOM      8  C   UNL     1     113.969  10.422 -23.770  1.00  0.00     0.009 C 
ENDBRANCH   1   7
BRANCH   2   9
ATOM      9  O   UNL     1     110.690   7.580 -23.151  1.00  0.00    -0.508 OA
ATOM     10  H   UNL     1     110.321   8.326 -22.573  1.00  0.00     0.293 HD
ENDBRANCH   2   9
BRANCH   4  11
ATOM     11  O   UNL     1     110.691   6.808 -27.923  1.00  0.00    -0.508 OA
ATOM     12  H   UNL     1     109.692   6.795 -28.086  1.00  0.00     0.293 HD
ENDBRANCH   4  11
TORSDOF 3
ENDMDL
MODEL 3
REMARK VINA RESULT:    -4.450     14.736     16.263
REMARK INTER + INTRA:          -5.056
REMARK INTER:                  -4.997
REMARK INTRA:                  -0.059
REMARK UNBOUND:                -0.086
REMARK SMILES CCc1ccc(O)cc1O
REMARK SMILES IDX 3 1 9 2 8 3 6 4 5 5 4 6 2 7 1 8 10 9 7 11
REMARK H PARENT 10 10 7 12
REMARK Flexibility Score: inf
ROOT
ATOM      1  C   UNL     1     112.202   9.318 -40.597  1.00  0.00    -0.006 A 
ATOM      2  C   UNL     1     112.079   8.545 -41.769  1.00  0.00     0.122 A 
ATOM      3  C   UNL     1     111.706   7.196 -41.680  1.00  0.00     0.092 A 
ATOM      4  C   UNL     1     111.444   6.614 -40.437  1.00  0.00     0.119 A 
ATOM      5  C   UNL     1     111.552   7.384 -39.272  1.00  0.00     0.047 A 
ATOM      6  C   UNL     1     111.924   8.729 -39.352  1.00  0.00     0.011 A 
ENDROOT
BRANCH   1   7
ATOM      7  C   UNL     1     112.573  10.778 -40.666  1.00  0.00     0.036 C 
ATOM      8  C   UNL     1     114.085  10.947 -40.781  1.00  0.00     0.009 C 
ENDBRANCH   1   7
BRANCH   2   9
ATOM      9  O   UNL     1     112.325   9.119 -43.017  1.00  0.00    -0.508 OA
ATOM     10  H   UNL     1     113.013   9.853 -43.138  1.00  0.00     0.293 HD
ENDBRANCH   2   9
BRANCH   4  11
ATOM     11  O   UNL     1     111.075   5.273 -40.368  1.00  0.00    -0.508 OA
ATOM     12  H   UNL     1     110.953   4.801 -39.480  1.00  0.00     0.293 HD
ENDBRANCH   4  11
TORSDOF 3
ENDMDL
MODEL 4
REMARK VINA RESULT:    -4.431      1.776      4.003
REMARK INTER + INTRA:          -5.035
REMARK INTER:                  -4.949
REMARK INTRA:                  -0.085
REMARK UNBOUND:                -0.086
REMARK SMILES CCc1ccc(O)cc1O
REMARK SMILES IDX 3 1 9 2 8 3 6 4 5 5 4 6 2 7 1 8 10 9 7 11
REMARK H PARENT 10 10 7 12
REMARK Flexibility Score: inf
ROOT
ATOM      1  C   UNL     1     113.727   9.217 -25.651  1.00  0.00    -0.006 A 
ATOM      2  C   UNL     1     112.833   8.259 -26.171  1.00  0.00     0.122 A 
ATOM      3  C   UNL     1     111.839   7.713 -25.346  1.00  0.00     0.092 A 
ATOM      4  C   UNL     1     111.720   8.120 -24.014  1.00  0.00     0.119 A 
ATOM      5  C   UNL     1     112.599   9.082 -23.501  1.00  0.00     0.047 A 
ATOM      6  C   UNL     1     113.593   9.631 -24.315  1.00  0.00     0.011 A 
ENDROOT
BRANCH   1   7
ATOM      7  C   UNL     1     114.787   9.842 -26.523  1.00  0.00     0.036 C 
ATOM      8  C   UNL     1     115.635  10.825 -25.722  1.00  0.00     0.009 C 
ENDBRANCH   1   7
BRANCH   2   9
ATOM      9  O   UNL     1     112.933   7.855 -27.502  1.00  0.00    -0.508 OA
ATOM     10  H   UNL     1     113.811   7.536 -27.896  1.00  0.00     0.293 HD
ENDBRANCH   2   9
BRANCH   4  11
ATOM     11  O   UNL     1     110.726   7.566 -23.210  1.00  0.00    -0.508 OA
ATOM     12  H   UNL     1     109.943   8.118 -22.880  1.00  0.00     0.293 HD
ENDBRANCH   4  11
TORSDOF 3
ENDMDL
MODEL 5
REMARK VINA RESULT:    -4.283      0.941      3.552
REMARK INTER + INTRA:          -4.869
REMARK INTER:                  -4.765
REMARK INTRA:                  -0.104
REMARK UNBOUND:                -0.086
REMARK SMILES CCc1ccc(O)cc1O
REMARK SMILES IDX 3 1 9 2 8 3 6 4 5 5 4 6 2 7 1 8 10 9 7 11
REMARK H PARENT 10 10 7 12
REMARK Flexibility Score: inf
ROOT
ATOM      1  C   UNL     1     113.549   8.932 -25.792  1.00  0.00    -0.006 A 
ATOM      2  C   UNL     1     113.605   9.251 -24.421  1.00  0.00     0.122 A 
ATOM      3  C   UNL     1     112.616   8.769 -23.550  1.00  0.00     0.092 A 
ATOM      4  C   UNL     1     111.580   7.963 -24.032  1.00  0.00     0.119 A 
ATOM      5  C   UNL     1     111.531   7.634 -25.392  1.00  0.00     0.047 A 
ATOM      6  C   UNL     1     112.512   8.111 -26.266  1.00  0.00     0.011 A 
ENDROOT
BRANCH   1   7
ATOM      7  C   UNL     1     114.615   9.412 -26.745  1.00  0.00     0.036 C 
ATOM      8  C   UNL     1     114.193  10.716 -27.415  1.00  0.00     0.009 C 
ENDBRANCH   1   7
BRANCH   2   9
ATOM      9  O   UNL     1     114.642  10.042 -23.926  1.00  0.00    -0.508 OA
ATOM     10  H   UNL     1     115.454   9.633 -23.477  1.00  0.00     0.293 HD
ENDBRANCH   2   9
BRANCH   4  11
ATOM     11  O   UNL     1     110.607   7.494 -23.153  1.00  0.00    -0.508 OA
ATOM     12  H   UNL     1     110.219   8.084 -22.427  1.00  0.00     0.293 HD
ENDBRANCH   4  11
TORSDOF 3
ENDMDL
MODEL 6
REMARK VINA RESULT:    -4.252      2.003      4.298
REMARK INTER + INTRA:          -4.834
REMARK INTER:                  -4.755
REMARK INTRA:                  -0.080
REMARK UNBOUND:                -0.086
REMARK SMILES CCc1ccc(O)cc1O
REMARK SMILES IDX 3 1 9 2 8 3 6 4 5 5 4 6 2 7 1 8 10 9 7 11
REMARK H PARENT 10 10 7 12
REMARK Flexibility Score: inf
ROOT
ATOM      1  C   UNL     1     112.394   9.588 -24.251  1.00  0.00    -0.006 A 
ATOM      2  C   UNL     1     111.929  10.024 -25.508  1.00  0.00     0.122 A 
ATOM      3  C   UNL     1     111.167   9.160 -26.309  1.00  0.00     0.092 A 
ATOM      4  C   UNL     1     110.855   7.873 -25.864  1.00  0.00     0.119 A 
ATOM      5  C   UNL     1     111.304   7.443 -24.609  1.00  0.00     0.047 A 
ATOM      6  C   UNL     1     112.065   8.296 -23.806  1.00  0.00     0.011 A 
ENDROOT
BRANCH   1   7
ATOM      7  C   UNL     1     113.190  10.506 -23.357  1.00  0.00     0.036 C 
ATOM      8  C   UNL     1     114.675  10.439 -23.701  1.00  0.00     0.009 C 
ENDBRANCH   1   7
BRANCH   2   9
ATOM      9  O   UNL     1     112.222  11.312 -25.957  1.00  0.00    -0.508 OA
ATOM     10  H   UNL     1     112.412  12.069 -25.310  1.00  0.00     0.293 HD
ENDBRANCH   2   9
BRANCH   4  11
ATOM     11  O   UNL     1     110.097   7.029 -26.673  1.00  0.00    -0.508 OA
ATOM     12  H   UNL     1     109.566   7.385 -27.459  1.00  0.00     0.293 HD
ENDBRANCH   4  11
TORSDOF 3
ENDMDL
MODEL 7
REMARK VINA RESULT:    -4.237     14.442     16.115
REMARK INTER + INTRA:          -4.818
REMARK INTER:                  -4.732
REMARK INTRA:                  -0.086
REMARK UNBOUND:                -0.086
REMARK SMILES CCc1ccc(O)cc1O
REMARK SMILES IDX 3 1 9 2 8 3 6 4 5 5 4 6 2 7 1 8 10 9 7 11
REMARK H PARENT 10 10 7 12
REMARK Flexibility Score: inf
ROOT
ATOM      1  C   UNL     1     110.822   7.812 -41.624  1.00  0.00    -0.006 A 
ATOM      2  C   UNL     1     111.835   8.789 -41.705  1.00  0.00     0.122 A 
ATOM      3  C   UNL     1     112.140   9.574 -40.583  1.00  0.00     0.092 A 
ATOM      4  C   UNL     1     111.455   9.385 -39.380  1.00  0.00     0.119 A 
ATOM      5  C   UNL     1     110.458   8.405 -39.293  1.00  0.00     0.047 A 
ATOM      6  C   UNL     1     110.147   7.620 -40.407  1.00  0.00     0.011 A 
ENDROOT
BRANCH   1   7
ATOM      7  C   UNL     1     110.494   6.935 -42.806  1.00  0.00     0.036 C 
ATOM      8  C   UNL     1     109.603   5.771 -42.384  1.00  0.00     0.009 C 
ENDBRANCH   1   7
BRANCH   2   9
ATOM      9  O   UNL     1     112.535   8.977 -42.897  1.00  0.00    -0.508 OA
ATOM     10  H   UNL     1     113.116   9.794 -43.048  1.00  0.00     0.293 HD
ENDBRANCH   2   9
BRANCH   4  11
ATOM     11  O   UNL     1     111.772  10.173 -38.276  1.00  0.00    -0.508 OA
ATOM     12  H   UNL     1     111.354  11.086 -38.138  1.00  0.00     0.293 HD
ENDBRANCH   4  11
TORSDOF 3
ENDMDL
MODEL 8
REMARK VINA RESULT:    -4.179     15.455     16.424
REMARK INTER + INTRA:          -4.753
REMARK INTER:                  -4.666
REMARK INTRA:                  -0.087
REMARK UNBOUND:                -0.086
REMARK SMILES CCc1ccc(O)cc1O
REMARK SMILES IDX 3 1 9 2 8 3 6 4 5 5 4 6 2 7 1 8 10 9 7 11
REMARK H PARENT 10 10 7 12
REMARK Flexibility Score: inf
ROOT
ATOM      1  C   UNL     1     109.769   6.998 -40.495  1.00  0.00    -0.006 A 
ATOM      2  C   UNL     1     110.228   6.433 -41.703  1.00  0.00     0.122 A 
ATOM      3  C   UNL     1     111.174   7.119 -42.479  1.00  0.00     0.092 A 
ATOM      4  C   UNL     1     111.674   8.354 -42.059  1.00  0.00     0.119 A 
ATOM      5  C   UNL     1     111.230   8.910 -40.852  1.00  0.00     0.047 A 
ATOM      6  C   UNL     1     110.287   8.234 -40.073  1.00  0.00     0.011 A 
ENDROOT
BRANCH   1   7
ATOM      7  C   UNL     1     108.775   6.269 -39.626  1.00  0.00     0.036 C 
ATOM      8  C   UNL     1     107.761   7.242 -39.033  1.00  0.00     0.009 C 
ENDBRANCH   1   7
BRANCH   2   9
ATOM      9  O   UNL     1     109.746   5.195 -42.125  1.00  0.00    -0.508 OA
ATOM     10  H   UNL     1     108.895   5.113 -42.670  1.00  0.00     0.293 HD
ENDBRANCH   2   9
BRANCH   4  11
ATOM     11  O   UNL     1     112.613   9.020 -42.843  1.00  0.00    -0.508 OA
ATOM     12  H   UNL     1     113.607   8.920 -42.679  1.00  0.00     0.293 HD
ENDBRANCH   4  11
TORSDOF 3
ENDMDL
MODEL 9
REMARK VINA RESULT:    -4.118     14.938     16.103
REMARK INTER + INTRA:          -4.685
REMARK INTER:                  -4.600
REMARK INTRA:                  -0.085
REMARK UNBOUND:                -0.086
REMARK SMILES CCc1ccc(O)cc1O
REMARK SMILES IDX 3 1 9 2 8 3 6 4 5 5 4 6 2 7 1 8 10 9 7 11
REMARK H PARENT 10 10 7 12
REMARK Flexibility Score: inf
ROOT
ATOM      1  C   UNL     1     109.662   7.174 -40.477  1.00  0.00    -0.006 A 
ATOM      2  C   UNL     1     110.307   8.352 -40.049  1.00  0.00     0.122 A 
ATOM      3  C   UNL     1     111.293   8.940 -40.856  1.00  0.00     0.092 A 
ATOM      4  C   UNL     1     111.631   8.374 -42.088  1.00  0.00     0.119 A 
ATOM      5  C   UNL     1     110.980   7.212 -42.521  1.00  0.00     0.047 A 
ATOM      6  C   UNL     1     109.998   6.618 -41.723  1.00  0.00     0.011 A 
ENDROOT
BRANCH   1   7
ATOM      7  C   UNL     1     108.578   6.537 -39.644  1.00  0.00     0.036 C 
ATOM      8  C   UNL     1     108.468   5.047 -39.950  1.00  0.00     0.009 C 
ENDBRANCH   1   7
BRANCH   2   9
ATOM      9  O   UNL     1     109.968   8.934 -38.828  1.00  0.00    -0.508 OA
ATOM     10  H   UNL     1     109.581   8.387 -38.068  1.00  0.00     0.293 HD
ENDBRANCH   2   9
BRANCH   4  11
ATOM     11  O   UNL     1     112.611   8.973 -42.876  1.00  0.00    -0.508 OA
ATOM     12  H   UNL     1     112.415   9.795 -43.433  1.00  0.00     0.293 HD
ENDBRANCH   4  11
TORSDOF 3
ENDMDL
