MODEL 1
REMARK VINA RESULT:    -5.097      0.000      0.000
REMARK INTER + INTRA:          -6.853
REMARK INTER:                  -6.587
REMARK INTRA:                  -0.266
REMARK UNBOUND:                -0.266
REMARK SMILES CCO[C@H]1O[C@H](CO)[C@@H](O)[C@H](O)[C@@H]1O
REMARK SMILES IDX 4 1 13 2 11 3 9 4 6 5 5 6 3 7 2 8 1 9 14 10 12 12 7 14 8 15
REMARK SMILES IDX 10 17
REMARK H PARENT 14 11 12 13 8 16 10 18
REMARK Flexibility Score: inf
ROOT
ATOM      1  C   UNL     1      36.707  27.064   8.524  1.00  0.00     0.281 C 
ATOM      2  C   UNL     1      35.993  26.639   9.823  1.00  0.00     0.202 C 
ATOM      3  C   UNL     1      36.421  27.549  10.984  1.00  0.00     0.179 C 
ATOM      4  C   UNL     1      37.957  27.622  11.069  1.00  0.00     0.177 C 
ATOM      5  C   UNL     1      38.535  27.989   9.681  1.00  0.00     0.178 C 
ATOM      6  O   UNL     1      38.119  27.053   8.698  1.00  0.00    -0.341 OA
ENDROOT
BRANCH   1   7
ATOM      7  O   UNL     1      36.240  28.338   8.109  1.00  0.00    -0.350 OA
BRANCH   7   8
ATOM      8  C   UNL     1      36.537  28.547   6.744  1.00  0.00     0.160 C 
ATOM      9  C   UNL     1      35.241  28.548   5.948  1.00  0.00     0.035 C 
ENDBRANCH   7   8
ENDBRANCH   1   7
BRANCH   2  10
ATOM     10  O   UNL     1      36.309  25.303  10.127  1.00  0.00    -0.385 OA
ATOM     11  H   UNL     1      35.743  25.043  10.900  1.00  0.00     0.211 HD
ENDBRANCH   2  10
BRANCH   3  12
ATOM     12  O   UNL     1      35.892  27.051  12.186  1.00  0.00    -0.387 OA
ATOM     13  H   UNL     1      36.168  26.099  12.251  1.00  0.00     0.211 HD
ENDBRANCH   3  12
BRANCH   5  14
ATOM     14  C   UNL     1      40.068  28.001   9.714  1.00  0.00     0.191 C 
BRANCH  14  15
ATOM     15  O   UNL     1      40.532  26.892  10.433  1.00  0.00    -0.394 OA
ATOM     16  H   UNL     1      40.508  27.154  11.390  1.00  0.00     0.210 HD
ENDBRANCH  14  15
ENDBRANCH   5  14
BRANCH   4  17
ATOM     17  O   UNL     1      38.313  28.599  12.015  1.00  0.00    -0.387 OA
ATOM     18  H   UNL     1      38.176  28.201  12.914  1.00  0.00     0.211 HD
ENDBRANCH   4  17
TORSDOF 7
ENDMDL
MODEL 2
REMARK VINA RESULT:    -5.055      1.759      4.394
REMARK INTER + INTRA:          -6.798
REMARK INTER:                  -6.389
REMARK INTRA:                  -0.410
REMARK UNBOUND:                -0.266
REMARK SMILES CCO[C@H]1O[C@H](CO)[C@@H](O)[C@H](O)[C@@H]1O
REMARK SMILES IDX 4 1 13 2 11 3 9 4 6 5 5 6 3 7 2 8 1 9 14 10 12 12 7 14 8 15
REMARK SMILES IDX 10 17
REMARK H PARENT 14 11 12 13 8 16 10 18
REMARK Flexibility Score: inf
ROOT
ATOM      1  C   UNL     1      39.544  28.978  10.605  1.00  0.00     0.281 C 
ATOM      2  C   UNL     1      39.622  27.992   9.423  1.00  0.00     0.202 C 
ATOM      3  C   UNL     1      38.220  27.751   8.842  1.00  0.00     0.179 C 
ATOM      4  C   UNL     1      37.236  27.364   9.961  1.00  0.00     0.177 C 
ATOM      5  C   UNL     1      37.318  28.402  11.106  1.00  0.00     0.178 C 
ATOM      6  O   UNL     1      38.645  28.503  11.600  1.00  0.00    -0.341 OA
ENDROOT
BRANCH   1   7
ATOM      7  O   UNL     1      39.175  30.267  10.138  1.00  0.00    -0.350 OA
BRANCH   7   8
ATOM      8  C   UNL     1      40.323  31.072   9.968  1.00  0.00     0.160 C 
ATOM      9  C   UNL     1      41.234  30.900  11.174  1.00  0.00     0.035 C 
ENDBRANCH   7   8
ENDBRANCH   1   7
BRANCH   2  10
ATOM     10  O   UNL     1      40.172  26.772   9.853  1.00  0.00    -0.385 OA
ATOM     11  H   UNL     1      40.200  26.175   9.061  1.00  0.00     0.211 HD
ENDBRANCH   2  10
BRANCH   3  12
ATOM     12  O   UNL     1      38.284  26.732   7.877  1.00  0.00    -0.387 OA
ATOM     13  H   UNL     1      37.353  26.427   7.717  1.00  0.00     0.211 HD
ENDBRANCH   3  12
BRANCH   5  14
ATOM     14  C   UNL     1      36.401  28.007  12.269  1.00  0.00     0.191 C 
BRANCH  14  15
ATOM     15  O   UNL     1      36.037  26.660  12.144  1.00  0.00    -0.394 OA
ATOM     16  H   UNL     1      36.462  26.188  12.907  1.00  0.00     0.210 HD
ENDBRANCH  14  15
ENDBRANCH   5  14
BRANCH   4  17
ATOM     17  O   UNL     1      35.935  27.331   9.430  1.00  0.00    -0.387 OA
ATOM     18  H   UNL     1      35.461  26.572   9.860  1.00  0.00     0.211 HD
ENDBRANCH   4  17
TORSDOF 7
ENDMDL
MODEL 3
REMARK VINA RESULT:    -5.051      1.804      4.112
REMARK INTER + INTRA:          -6.794
REMARK INTER:                  -6.384
REMARK INTRA:                  -0.409
REMARK UNBOUND:                -0.266
REMARK SMILES CCO[C@H]1O[C@H](CO)[C@@H](O)[C@H](O)[C@@H]1O
REMARK SMILES IDX 4 1 13 2 11 3 9 4 6 5 5 6 3 7 2 8 1 9 14 10 12 12 7 14 8 15
REMARK SMILES IDX 10 17
REMARK H PARENT 14 11 12 13 8 16 10 18
REMARK Flexibility Score: inf
ROOT
ATOM      1  C   UNL     1      37.647  29.192  11.020  1.00  0.00     0.281 C 
ATOM      2  C   UNL     1      36.992  27.898  11.543  1.00  0.00     0.202 C 
ATOM      3  C   UNL     1      37.125  26.779  10.499  1.00  0.00     0.179 C 
ATOM      4  C   UNL     1      36.624  27.264   9.127  1.00  0.00     0.177 C 
ATOM      5  C   UNL     1      37.315  28.601   8.767  1.00  0.00     0.178 C 
ATOM      6  O   UNL     1      37.081  29.576   9.773  1.00  0.00    -0.341 OA
ENDROOT
BRANCH   1   7
ATOM      7  O   UNL     1      39.053  29.020  10.926  1.00  0.00    -0.350 OA
BRANCH   7   8
ATOM      8  C   UNL     1      39.686  29.524  12.084  1.00  0.00     0.160 C 
ATOM      9  C   UNL     1      39.050  30.854  12.458  1.00  0.00     0.035 C 
ENDBRANCH   7   8
ENDBRANCH   1   7
BRANCH   2  10
ATOM     10  O   UNL     1      35.633  28.128  11.820  1.00  0.00    -0.385 OA
ATOM     11  H   UNL     1      35.368  27.476  12.519  1.00  0.00     0.211 HD
ENDBRANCH   2  10
BRANCH   3  12
ATOM     12  O   UNL     1      36.385  25.660  10.919  1.00  0.00    -0.387 OA
ATOM     13  H   UNL     1      36.900  25.232  11.652  1.00  0.00     0.211 HD
ENDBRANCH   3  12
BRANCH   5  14
ATOM     14  C   UNL     1      36.785  29.149   7.436  1.00  0.00     0.191 C 
BRANCH  14  15
ATOM     15  O   UNL     1      37.397  28.473   6.373  1.00  0.00    -0.394 OA
ATOM     16  H   UNL     1      36.668  28.234   5.742  1.00  0.00     0.210 HD
ENDBRANCH  14  15
ENDBRANCH   5  14
BRANCH   4  17
ATOM     17  O   UNL     1      36.928  26.288   8.162  1.00  0.00    -0.387 OA
ATOM     18  H   UNL     1      36.463  26.548   7.324  1.00  0.00     0.211 HD
ENDBRANCH   4  17
TORSDOF 7
ENDMDL
MODEL 4
REMARK VINA RESULT:    -5.033      2.189      5.294
REMARK INTER + INTRA:          -6.770
REMARK INTER:                  -6.360
REMARK INTRA:                  -0.411
REMARK UNBOUND:                -0.266
REMARK SMILES CCO[C@H]1O[C@H](CO)[C@@H](O)[C@H](O)[C@@H]1O
REMARK SMILES IDX 4 1 13 2 11 3 9 4 6 5 5 6 3 7 2 8 1 9 14 10 12 12 7 14 8 15
REMARK SMILES IDX 10 17
REMARK H PARENT 14 11 12 13 8 16 10 18
REMARK Flexibility Score: inf
ROOT
ATOM      1  C   UNL     1      40.691  28.705  11.240  1.00  0.00     0.281 C 
ATOM      2  C   UNL     1      41.464  27.719  10.342  1.00  0.00     0.202 C 
ATOM      3  C   UNL     1      40.814  27.649   8.951  1.00  0.00     0.179 C 
ATOM      4  C   UNL     1      39.304  27.380   9.079  1.00  0.00     0.177 C 
ATOM      5  C   UNL     1      38.678  28.400  10.061  1.00  0.00     0.178 C 
ATOM      6  O   UNL     1      39.319  28.339  11.326  1.00  0.00    -0.341 OA
ENDROOT
BRANCH   1   7
ATOM      7  O   UNL     1      40.851  30.029  10.755  1.00  0.00    -0.350 OA
BRANCH   7   8
ATOM      8  C   UNL     1      41.839  30.708  11.502  1.00  0.00     0.160 C 
ATOM      9  C   UNL     1      41.541  30.541  12.985  1.00  0.00     0.035 C 
ENDBRANCH   7   8
ENDBRANCH   1   7
BRANCH   2  10
ATOM     10  O   UNL     1      41.468  26.441  10.928  1.00  0.00    -0.385 OA
ATOM     11  H   UNL     1      41.092  26.542  11.841  1.00  0.00     0.211 HD
ENDBRANCH   2  10
BRANCH   3  12
ATOM     12  O   UNL     1      41.427  26.631   8.201  1.00  0.00    -0.387 OA
ATOM     13  H   UNL     1      42.333  26.957   7.958  1.00  0.00     0.211 HD
ENDBRANCH   3  12
BRANCH   5  14
ATOM     14  C   UNL     1      37.185  28.115  10.266  1.00  0.00     0.191 C 
BRANCH  14  15
ATOM     15  O   UNL     1      36.954  26.736  10.184  1.00  0.00    -0.394 OA
ATOM     16  H   UNL     1      36.360  26.601   9.401  1.00  0.00     0.210 HD
ENDBRANCH  14  15
ENDBRANCH   5  14
BRANCH   4  17
ATOM     17  O   UNL     1      38.712  27.505   7.810  1.00  0.00    -0.387 OA
ATOM     18  H   UNL     1      37.909  28.079   7.915  1.00  0.00     0.211 HD
ENDBRANCH   4  17
TORSDOF 7
ENDMDL
MODEL 5
REMARK VINA RESULT:    -4.973      1.763      4.667
REMARK INTER + INTRA:          -6.692
REMARK INTER:                  -6.507
REMARK INTRA:                  -0.185
REMARK UNBOUND:                -0.266
REMARK SMILES CCO[C@H]1O[C@H](CO)[C@@H](O)[C@H](O)[C@@H]1O
REMARK SMILES IDX 4 1 13 2 11 3 9 4 6 5 5 6 3 7 2 8 1 9 14 10 12 12 7 14 8 15
REMARK SMILES IDX 10 17
REMARK H PARENT 14 11 12 13 8 16 10 18
REMARK Flexibility Score: inf
ROOT
ATOM      1  C   UNL     1      39.622  28.370  10.306  1.00  0.00     0.281 C 
ATOM      2  C   UNL     1      39.971  28.541   8.814  1.00  0.00     0.202 C 
ATOM      3  C   UNL     1      38.694  28.781   7.996  1.00  0.00     0.179 C 
ATOM      4  C   UNL     1      37.646  27.698   8.308  1.00  0.00     0.177 C 
ATOM      5  C   UNL     1      37.450  27.593   9.840  1.00  0.00     0.178 C 
ATOM      6  O   UNL     1      38.684  27.316  10.487  1.00  0.00    -0.341 OA
ENDROOT
BRANCH   1   7
ATOM      7  O   UNL     1      39.140  29.597  10.834  1.00  0.00    -0.350 OA
BRANCH   7   8
ATOM      8  C   UNL     1      39.345  29.641  12.231  1.00  0.00     0.160 C 
ATOM      9  C   UNL     1      37.995  29.624  12.931  1.00  0.00     0.035 C 
ENDBRANCH   7   8
ENDBRANCH   1   7
BRANCH   2  10
ATOM     10  O   UNL     1      40.627  27.390   8.342  1.00  0.00    -0.385 OA
ATOM     11  H   UNL     1      41.531  27.675   8.047  1.00  0.00     0.211 HD
ENDBRANCH   2  10
BRANCH   3  12
ATOM     12  O   UNL     1      39.009  28.772   6.626  1.00  0.00    -0.387 OA
ATOM     13  H   UNL     1      38.185  28.504   6.142  1.00  0.00     0.211 HD
ENDBRANCH   3  12
BRANCH   5  14
ATOM     14  C   UNL     1      36.464  26.472  10.189  1.00  0.00     0.191 C 
BRANCH  14  15
ATOM     15  O   UNL     1      36.114  26.559  11.543  1.00  0.00    -0.394 OA
ATOM     16  H   UNL     1      36.164  25.634  11.900  1.00  0.00     0.210 HD
ENDBRANCH  14  15
ENDBRANCH   5  14
BRANCH   4  17
ATOM     17  O   UNL     1      36.433  28.048   7.689  1.00  0.00    -0.387 OA
ATOM     18  H   UNL     1      36.581  28.006   6.708  1.00  0.00     0.211 HD
ENDBRANCH   4  17
TORSDOF 7
ENDMDL
MODEL 6
REMARK VINA RESULT:    -4.916      4.573      7.120
REMARK INTER + INTRA:          -6.618
REMARK INTER:                  -6.285
REMARK INTRA:                  -0.334
REMARK UNBOUND:                -0.266
REMARK SMILES CCO[C@H]1O[C@H](CO)[C@@H](O)[C@H](O)[C@@H]1O
REMARK SMILES IDX 4 1 13 2 11 3 9 4 6 5 5 6 3 7 2 8 1 9 14 10 12 12 7 14 8 15
REMARK SMILES IDX 10 17
REMARK H PARENT 14 11 12 13 8 16 10 18
REMARK Flexibility Score: inf
ROOT
ATOM      1  C   UNL     1      43.272  28.604  11.872  1.00  0.00     0.281 C 
ATOM      2  C   UNL     1      41.831  28.060  11.829  1.00  0.00     0.202 C 
ATOM      3  C   UNL     1      41.629  27.198  10.573  1.00  0.00     0.179 C 
ATOM      4  C   UNL     1      42.082  27.965   9.318  1.00  0.00     0.177 C 
ATOM      5  C   UNL     1      43.515  28.510   9.533  1.00  0.00     0.178 C 
ATOM      6  O   UNL     1      43.572  29.334  10.688  1.00  0.00    -0.341 OA
ENDROOT
BRANCH   1   7
ATOM      7  O   UNL     1      44.188  27.539  12.076  1.00  0.00    -0.350 OA
BRANCH   7   8
ATOM      8  C   UNL     1      44.373  27.311  13.457  1.00  0.00     0.160 C 
ATOM      9  C   UNL     1      45.761  27.785  13.857  1.00  0.00     0.035 C 
ENDBRANCH   7   8
ENDBRANCH   1   7
BRANCH   2  10
ATOM     10  O   UNL     1      40.917  29.128  11.822  1.00  0.00    -0.385 OA
ATOM     11  H   UNL     1      40.254  28.934  11.109  1.00  0.00     0.211 HD
ENDBRANCH   2  10
BRANCH   3  12
ATOM     12  O   UNL     1      40.273  26.845  10.464  1.00  0.00    -0.387 OA
ATOM     13  H   UNL     1      39.771  27.428  11.091  1.00  0.00     0.211 HD
ENDBRANCH   3  12
BRANCH   5  14
ATOM     14  C   UNL     1      43.970  29.341   8.327  1.00  0.00     0.191 C 
BRANCH  14  15
ATOM     15  O   UNL     1      44.761  28.550   7.483  1.00  0.00    -0.394 OA
ATOM     16  H   UNL     1      44.190  27.788   7.204  1.00  0.00     0.210 HD
ENDBRANCH  14  15
ENDBRANCH   5  14
BRANCH   4  17
ATOM     17  O   UNL     1      42.057  27.090   8.218  1.00  0.00    -0.387 OA
ATOM     18  H   UNL     1      41.258  27.321   7.676  1.00  0.00     0.211 HD
ENDBRANCH   4  17
TORSDOF 7
ENDMDL
MODEL 7
REMARK VINA RESULT:    -4.854      1.655      3.817
REMARK INTER + INTRA:          -6.538
REMARK INTER:                  -6.144
REMARK INTRA:                  -0.394
REMARK UNBOUND:                -0.266
REMARK SMILES CCO[C@H]1O[C@H](CO)[C@@H](O)[C@H](O)[C@@H]1O
REMARK SMILES IDX 4 1 13 2 11 3 9 4 6 5 5 6 3 7 2 8 1 9 14 10 12 12 7 14 8 15
REMARK SMILES IDX 10 17
REMARK H PARENT 14 11 12 13 8 16 10 18
REMARK Flexibility Score: inf
ROOT
ATOM      1  C   UNL     1      38.884  28.268   8.950  1.00  0.00     0.281 C 
ATOM      2  C   UNL     1      37.904  27.973   7.798  1.00  0.00     0.202 C 
ATOM      3  C   UNL     1      36.512  28.528   8.132  1.00  0.00     0.179 C 
ATOM      4  C   UNL     1      36.062  28.044   9.522  1.00  0.00     0.177 C 
ATOM      5  C   UNL     1      37.170  28.344  10.560  1.00  0.00     0.178 C 
ATOM      6  O   UNL     1      38.396  27.739  10.176  1.00  0.00    -0.341 OA
ENDROOT
BRANCH   1   7
ATOM      7  O   UNL     1      39.121  29.665   9.039  1.00  0.00    -0.350 OA
BRANCH   7   8
ATOM      8  C   UNL     1      40.345  29.995   8.418  1.00  0.00     0.160 C 
ATOM      9  C   UNL     1      41.390  28.957   8.798  1.00  0.00     0.035 C 
ENDBRANCH   7   8
ENDBRANCH   1   7
BRANCH   2  10
ATOM     10  O   UNL     1      37.822  26.586   7.584  1.00  0.00    -0.385 OA
ATOM     11  H   UNL     1      37.178  26.230   8.250  1.00  0.00     0.211 HD
ENDBRANCH   2  10
BRANCH   3  12
ATOM     12  O   UNL     1      35.596  28.111   7.152  1.00  0.00    -0.387 OA
ATOM     13  H   UNL     1      36.105  27.574   6.491  1.00  0.00     0.211 HD
ENDBRANCH   3  12
BRANCH   5  14
ATOM     14  C   UNL     1      36.783  27.810  11.944  1.00  0.00     0.191 C 
BRANCH  14  15
ATOM     15  O   UNL     1      36.088  26.601  11.803  1.00  0.00    -0.394 OA
ATOM     16  H   UNL     1      36.733  25.884  12.036  1.00  0.00     0.210 HD
ENDBRANCH  14  15
ENDBRANCH   5  14
BRANCH   4  17
ATOM     17  O   UNL     1      34.876  28.712   9.874  1.00  0.00    -0.387 OA
ATOM     18  H   UNL     1      34.240  28.027  10.208  1.00  0.00     0.211 HD
ENDBRANCH   4  17
TORSDOF 7
ENDMDL
MODEL 8
REMARK VINA RESULT:    -4.845      1.888      4.610
REMARK INTER + INTRA:          -6.526
REMARK INTER:                  -6.122
REMARK INTRA:                  -0.404
REMARK UNBOUND:                -0.266
REMARK SMILES CCO[C@H]1O[C@H](CO)[C@@H](O)[C@H](O)[C@@H]1O
REMARK SMILES IDX 4 1 13 2 11 3 9 4 6 5 5 6 3 7 2 8 1 9 14 10 12 12 7 14 8 15
REMARK SMILES IDX 10 17
REMARK H PARENT 14 11 12 13 8 16 10 18
REMARK Flexibility Score: inf
ROOT
ATOM      1  C   UNL     1      36.961  28.471  10.406  1.00  0.00     0.281 C 
ATOM      2  C   UNL     1      37.331  27.168   9.669  1.00  0.00     0.202 C 
ATOM      3  C   UNL     1      37.676  27.470   8.203  1.00  0.00     0.179 C 
ATOM      4  C   UNL     1      36.558  28.303   7.550  1.00  0.00     0.177 C 
ATOM      5  C   UNL     1      36.248  29.536   8.433  1.00  0.00     0.178 C 
ATOM      6  O   UNL     1      35.890  29.136   9.747  1.00  0.00    -0.341 OA
ENDROOT
BRANCH   1   7
ATOM      7  O   UNL     1      38.104  29.304  10.521  1.00  0.00    -0.350 OA
BRANCH   7   8
ATOM      8  C   UNL     1      38.659  29.196  11.815  1.00  0.00     0.160 C 
ATOM      9  C   UNL     1      37.538  29.240  12.842  1.00  0.00     0.035 C 
ENDBRANCH   7   8
ENDBRANCH   1   7
BRANCH   2  10
ATOM     10  O   UNL     1      36.255  26.265   9.726  1.00  0.00    -0.385 OA
ATOM     11  H   UNL     1      36.325  25.684   8.924  1.00  0.00     0.211 HD
ENDBRANCH   2  10
BRANCH   3  12
ATOM     12  O   UNL     1      37.851  26.262   7.507  1.00  0.00    -0.387 OA
ATOM     13  H   UNL     1      38.179  26.496   6.600  1.00  0.00     0.211 HD
ENDBRANCH   3  12
BRANCH   5  14
ATOM     14  C   UNL     1      35.088  30.350   7.846  1.00  0.00     0.191 C 
BRANCH  14  15
ATOM     15  O   UNL     1      35.552  31.125   6.775  1.00  0.00    -0.394 OA
ATOM     16  H   UNL     1      35.357  30.604   5.953  1.00  0.00     0.210 HD
ENDBRANCH  14  15
ENDBRANCH   5  14
BRANCH   4  17
ATOM     17  O   UNL     1      36.985  28.716   6.276  1.00  0.00    -0.387 OA
ATOM     18  H   UNL     1      37.972  28.613   6.248  1.00  0.00     0.211 HD
ENDBRANCH   4  17
TORSDOF 7
ENDMDL
MODEL 9
REMARK VINA RESULT:    -4.814      5.981      8.834
REMARK INTER + INTRA:          -6.487
REMARK INTER:                  -6.148
REMARK INTRA:                  -0.339
REMARK UNBOUND:                -0.266
REMARK SMILES CCO[C@H]1O[C@H](CO)[C@@H](O)[C@H](O)[C@@H]1O
REMARK SMILES IDX 4 1 13 2 11 3 9 4 6 5 5 6 3 7 2 8 1 9 14 10 12 12 7 14 8 15
REMARK SMILES IDX 10 17
REMARK H PARENT 14 11 12 13 8 16 10 18
REMARK Flexibility Score: inf
ROOT
ATOM      1  C   UNL     1      43.921  27.994  12.386  1.00  0.00     0.281 C 
ATOM      2  C   UNL     1      45.077  28.970  12.088  1.00  0.00     0.202 C 
ATOM      3  C   UNL     1      46.356  28.188  11.751  1.00  0.00     0.179 C 
ATOM      4  C   UNL     1      46.643  27.136  12.838  1.00  0.00     0.177 C 
ATOM      5  C   UNL     1      45.377  26.279  13.077  1.00  0.00     0.178 C 
ATOM      6  O   UNL     1      44.274  27.099  13.434  1.00  0.00    -0.341 OA
ENDROOT
BRANCH   1   7
ATOM      7  O   UNL     1      43.557  27.298  11.203  1.00  0.00    -0.350 OA
BRANCH   7   8
ATOM      8  C   UNL     1      42.604  28.042  10.472  1.00  0.00     0.160 C 
ATOM      9  C   UNL     1      41.294  27.269  10.436  1.00  0.00     0.035 C 
ENDBRANCH   7   8
ENDBRANCH   1   7
BRANCH   2  10
ATOM     10  O   UNL     1      45.306  29.793  13.204  1.00  0.00    -0.385 OA
ATOM     11  H   UNL     1      45.645  29.207  13.929  1.00  0.00     0.211 HD
ENDBRANCH   2  10
BRANCH   3  12
ATOM     12  O   UNL     1      47.434  29.082  11.643  1.00  0.00    -0.387 OA
ATOM     13  H   UNL     1      47.292  29.607  10.812  1.00  0.00     0.211 HD
ENDBRANCH   3  12
BRANCH   5  14
ATOM     14  C   UNL     1      45.607  25.267  14.205  1.00  0.00     0.191 C 
BRANCH  14  15
ATOM     15  O   UNL     1      46.350  25.867  15.231  1.00  0.00    -0.394 OA
ATOM     16  H   UNL     1      47.046  25.208  15.489  1.00  0.00     0.210 HD
ENDBRANCH  14  15
ENDBRANCH   5  14
BRANCH   4  17
ATOM     17  O   UNL     1      47.706  26.321  12.411  1.00  0.00    -0.387 OA
ATOM     18  H   UNL     1      48.549  26.785  12.654  1.00  0.00     0.211 HD
ENDBRANCH   4  17
TORSDOF 7
ENDMDL
