MODEL 1
REMARK VINA RESULT:     0.068      0.000      0.000
REMARK INTER + INTRA:           0.054
REMARK INTER:                   0.072
REMARK INTRA:                  -0.018
REMARK UNBOUND:                -0.018
REMARK SMILES O=C([O-])c1cccnc1
REMARK SMILES IDX 4 1 5 2 9 3 6 4 8 5 7 6 2 7 1 8 3 9
REMARK H PARENT
REMARK Flexibility Score: inf
ROOT
ATOM      1  C   UNL     1     -21.092  -6.300  17.165  1.00  0.00     0.016 A 
ATOM      2  C   UNL     1     -21.355  -6.772  18.461  1.00  0.00     0.013 A 
ATOM      3  C   UNL     1     -21.478  -7.097  16.073  1.00  0.00     0.120 A 
ATOM      4  C   UNL     1     -21.986  -8.004  18.645  1.00  0.00     0.021 A 
ATOM      5  N   UNL     1     -22.091  -8.293  16.279  1.00  0.00    -0.264 NA
ATOM      6  C   UNL     1     -22.350  -8.759  17.528  1.00  0.00     0.111 A 
ENDROOT
BRANCH   1   7
ATOM      7  C   UNL     1     -20.425  -4.997  16.959  1.00  0.00     0.073 C 
ATOM      8  O   UNL     1     -20.991  -4.085  16.300  1.00  0.00    -0.545 OA
ATOM      9  O   UNL     1     -19.161  -4.760  17.490  1.00  0.00    -0.545 OA
ENDBRANCH   1   7
TORSDOF 1
ENDMDL
MODEL 2
REMARK VINA RESULT:     1.664      3.028      3.827
REMARK INTER + INTRA:           1.744
REMARK INTER:                   1.766
REMARK INTRA:                  -0.022
REMARK UNBOUND:                -0.018
REMARK SMILES O=C([O-])c1cccnc1
REMARK SMILES IDX 4 1 5 2 9 3 6 4 8 5 7 6 2 7 1 8 3 9
REMARK H PARENT
REMARK Flexibility Score: inf
ROOT
ATOM      1  C   UNL     1     -21.862  -7.792  17.166  1.00  0.00     0.016 A 
ATOM      2  C   UNL     1     -21.700  -7.230  18.443  1.00  0.00     0.013 A 
ATOM      3  C   UNL     1     -21.393  -7.071  16.054  1.00  0.00     0.120 A 
ATOM      4  C   UNL     1     -21.088  -5.983  18.588  1.00  0.00     0.021 A 
ATOM      5  N   UNL     1     -20.801  -5.859  16.223  1.00  0.00    -0.264 NA
ATOM      6  C   UNL     1     -20.640  -5.305  17.453  1.00  0.00     0.111 A 
ENDROOT
BRANCH   1   7
ATOM      7  C   UNL     1     -22.508  -9.112  17.001  1.00  0.00     0.073 C 
ATOM      8  O   UNL     1     -22.478  -9.961  17.932  1.00  0.00    -0.545 OA
ATOM      9  O   UNL     1     -23.159  -9.434  15.816  1.00  0.00    -0.545 OA
ENDBRANCH   1   7
TORSDOF 1
ENDMDL
MODEL 3
REMARK VINA RESULT:     1.753      3.090      4.008
REMARK INTER + INTRA:           1.838
REMARK INTER:                   1.860
REMARK INTRA:                  -0.022
REMARK UNBOUND:                -0.018
REMARK SMILES O=C([O-])c1cccnc1
REMARK SMILES IDX 4 1 5 2 9 3 6 4 8 5 7 6 2 7 1 8 3 9
REMARK H PARENT
REMARK Flexibility Score: inf
ROOT
ATOM      1  C   UNL     1     -21.806  -7.733  17.209  1.00  0.00     0.016 A 
ATOM      2  C   UNL     1     -21.354  -7.008  16.094  1.00  0.00     0.013 A 
ATOM      3  C   UNL     1     -21.615  -7.180  18.488  1.00  0.00     0.120 A 
ATOM      4  C   UNL     1     -20.732  -5.770  16.268  1.00  0.00     0.021 A 
ATOM      5  N   UNL     1     -21.006  -5.973  18.629  1.00  0.00    -0.264 NA
ATOM      6  C   UNL     1     -20.565  -5.264  17.557  1.00  0.00     0.111 A 
ENDROOT
BRANCH   1   7
ATOM      7  C   UNL     1     -22.466  -9.045  17.038  1.00  0.00     0.073 C 
ATOM      8  O   UNL     1     -23.076  -9.320  15.970  1.00  0.00    -0.545 OA
ATOM      9  O   UNL     1     -22.423  -9.994  18.053  1.00  0.00    -0.545 OA
ENDBRANCH   1   7
TORSDOF 1
ENDMDL
MODEL 4
REMARK VINA RESULT:     2.005      2.736      3.744
REMARK INTER + INTRA:           2.104
REMARK INTER:                   2.122
REMARK INTRA:                  -0.018
REMARK UNBOUND:                -0.018
REMARK SMILES O=C([O-])c1cccnc1
REMARK SMILES IDX 4 1 5 2 9 3 6 4 8 5 7 6 2 7 1 8 3 9
REMARK H PARENT
REMARK Flexibility Score: inf
ROOT
ATOM      1  C   UNL     1     -20.971  -6.138  17.183  1.00  0.00     0.016 A 
ATOM      2  C   UNL     1     -19.712  -6.018  17.793  1.00  0.00     0.013 A 
ATOM      3  C   UNL     1     -21.488  -5.027  16.493  1.00  0.00     0.120 A 
ATOM      4  C   UNL     1     -19.003  -4.818  17.708  1.00  0.00     0.021 A 
ATOM      5  N   UNL     1     -20.777  -3.870  16.426  1.00  0.00    -0.264 NA
ATOM      6  C   UNL     1     -19.559  -3.743  17.013  1.00  0.00     0.111 A 
ENDROOT
BRANCH   1   7
ATOM      7  C   UNL     1     -21.731  -7.404  17.265  1.00  0.00     0.073 C 
ATOM      8  O   UNL     1     -22.152  -7.967  16.221  1.00  0.00    -0.545 OA
ATOM      9  O   UNL     1     -21.990  -7.990  18.499  1.00  0.00    -0.545 OA
ENDBRANCH   1   7
TORSDOF 1
ENDMDL
MODEL 5
REMARK VINA RESULT:     2.465      2.774      3.910
REMARK INTER + INTRA:           2.591
REMARK INTER:                   2.610
REMARK INTRA:                  -0.019
REMARK UNBOUND:                -0.018
REMARK SMILES O=C([O-])c1cccnc1
REMARK SMILES IDX 4 1 5 2 9 3 6 4 8 5 7 6 2 7 1 8 3 9
REMARK H PARENT
REMARK Flexibility Score: inf
ROOT
ATOM      1  C   UNL     1     -20.995  -6.188  17.213  1.00  0.00     0.016 A 
ATOM      2  C   UNL     1     -21.496  -5.095  16.487  1.00  0.00     0.013 A 
ATOM      3  C   UNL     1     -19.754  -6.049  17.857  1.00  0.00     0.120 A 
ATOM      4  C   UNL     1     -20.766  -3.907  16.416  1.00  0.00     0.021 A 
ATOM      5  N   UNL     1     -19.063  -4.881  17.772  1.00  0.00    -0.264 NA
ATOM      6  C   UNL     1     -19.538  -3.818  17.072  1.00  0.00     0.111 A 
ENDROOT
BRANCH   1   7
ATOM      7  C   UNL     1     -21.760  -7.451  17.295  1.00  0.00     0.073 C 
ATOM      8  O   UNL     1     -22.189  -8.009  16.250  1.00  0.00    -0.545 OA
ATOM      9  O   UNL     1     -22.016  -8.040  18.528  1.00  0.00    -0.545 OA
ENDBRANCH   1   7
TORSDOF 1
ENDMDL
