MODEL 1
REMARK VINA RESULT:    -1.424      0.000      0.000
REMARK INTER + INTRA:          -1.753
REMARK INTER:                  -1.507
REMARK INTRA:                  -0.246
REMARK UNBOUND:                -0.246
REMARK SMILES O=c1cc(-c2ccccc2)oc2ccccc12
REMARK SMILES IDX 4 1 3 2 2 3 1 4 17 5 16 6 15 7 14 8 13 9 12 10 11 11 5 12
REMARK SMILES IDX 8 13 7 14 9 15 6 16 10 17
REMARK H PARENT
REMARK Flexibility Score: inf
ROOT
ATOM      1  C   UNL     1     169.102 175.989 155.324  1.00  0.00     0.138 A 
ATOM      2  C   UNL     1     168.785 175.993 153.950  1.00  0.00     0.100 A 
ATOM      3  C   UNL     1     167.452 175.876 153.550  1.00  0.00     0.193 A 
ATOM      4  O   UNL     1     167.169 175.879 152.322  1.00  0.00    -0.289 OA
ATOM      5  C   UNL     1     166.448 175.757 154.521  1.00  0.00     0.065 A 
ATOM      6  C   UNL     1     165.087 175.636 154.188  1.00  0.00     0.016 A 
ATOM      7  C   UNL     1     164.126 175.520 155.196  1.00  0.00     0.001 A 
ATOM      8  C   UNL     1     164.512 175.525 156.539  1.00  0.00     0.004 A 
ATOM      9  C   UNL     1     165.863 175.644 156.881  1.00  0.00     0.048 A 
ATOM     10  C   UNL     1     166.833 175.761 155.880  1.00  0.00     0.138 A 
ATOM     11  O   UNL     1     168.114 175.875 156.214  1.00  0.00    -0.456 OA
ENDROOT
BRANCH   1  12
ATOM     12  C   UNL     1     170.502 176.110 155.838  1.00  0.00     0.017 A 
ATOM     13  C   UNL     1     173.125 176.266 156.869  1.00  0.00     0.000 A 
ATOM     14  C   UNL     1     172.227 175.331 157.382  1.00  0.00     0.001 A 
ATOM     15  C   UNL     1     172.724 177.125 155.846  1.00  0.00     0.001 A 
ATOM     16  C   UNL     1     170.928 175.252 156.873  1.00  0.00     0.012 A 
ATOM     17  C   UNL     1     171.426 177.052 155.331  1.00  0.00     0.012 A 
ENDBRANCH   1  12
TORSDOF 1
ENDMDL
MODEL 2
REMARK VINA RESULT:     0.409     12.493     14.216
REMARK INTER + INTRA:           0.187
REMARK INTER:                   0.430
REMARK INTRA:                  -0.243
REMARK UNBOUND:                -0.246
REMARK SMILES O=c1cc(-c2ccccc2)oc2ccccc12
REMARK SMILES IDX 4 1 3 2 2 3 1 4 17 5 16 6 15 7 14 8 13 9 12 10 11 11 5 12
REMARK SMILES IDX 8 13 7 14 9 15 6 16 10 17
REMARK H PARENT
REMARK Flexibility Score: inf
ROOT
ATOM      1  C   UNL     1     166.110 164.679 149.243  1.00  0.00     0.138 A 
ATOM      2  C   UNL     1     166.764 164.266 148.064  1.00  0.00     0.100 A 
ATOM      3  C   UNL     1     167.989 163.600 148.152  1.00  0.00     0.193 A 
ATOM      4  O   UNL     1     168.573 163.232 147.098  1.00  0.00    -0.289 OA
ATOM      5  C   UNL     1     168.551 163.353 149.412  1.00  0.00     0.065 A 
ATOM      6  C   UNL     1     169.781 162.689 149.572  1.00  0.00     0.016 A 
ATOM      7  C   UNL     1     170.297 162.469 150.853  1.00  0.00     0.001 A 
ATOM      8  C   UNL     1     169.593 162.905 151.979  1.00  0.00     0.004 A 
ATOM      9  C   UNL     1     168.370 163.567 151.830  1.00  0.00     0.048 A 
ATOM     10  C   UNL     1     167.845 163.793 150.553  1.00  0.00     0.138 A 
ATOM     11  O   UNL     1     166.681 164.422 150.422  1.00  0.00    -0.456 OA
ENDROOT
BRANCH   1  12
ATOM     12  C   UNL     1     164.797 165.395 149.239  1.00  0.00     0.017 A 
ATOM     13  C   UNL     1     162.353 166.804 149.162  1.00  0.00     0.000 A 
ATOM     14  C   UNL     1     163.403 167.182 148.326  1.00  0.00     0.001 A 
ATOM     15  C   UNL     1     162.512 165.729 150.036  1.00  0.00     0.001 A 
ATOM     16  C   UNL     1     164.614 166.486 148.363  1.00  0.00     0.012 A 
ATOM     17  C   UNL     1     163.720 165.027 150.078  1.00  0.00     0.012 A 
ENDBRANCH   1  12
TORSDOF 1
ENDMDL
MODEL 3
REMARK VINA RESULT:     0.924     11.572     12.639
REMARK INTER + INTRA:           0.732
REMARK INTER:                   0.958
REMARK INTRA:                  -0.226
REMARK UNBOUND:                -0.246
REMARK SMILES O=c1cc(-c2ccccc2)oc2ccccc12
REMARK SMILES IDX 4 1 3 2 2 3 1 4 17 5 16 6 15 7 14 8 13 9 12 10 11 11 5 12
REMARK SMILES IDX 8 13 7 14 9 15 6 16 10 17
REMARK H PARENT
REMARK Flexibility Score: inf
ROOT
ATOM      1  C   UNL     1     167.367 164.275 152.165  1.00  0.00     0.138 A 
ATOM      2  C   UNL     1     167.225 163.230 153.101  1.00  0.00     0.100 A 
ATOM      3  C   UNL     1     167.157 163.530 154.463  1.00  0.00     0.193 A 
ATOM      4  O   UNL     1     167.031 162.596 155.299  1.00  0.00    -0.289 OA
ATOM      5  C   UNL     1     167.231 164.866 154.880  1.00  0.00     0.065 A 
ATOM      6  C   UNL     1     167.169 165.238 156.235  1.00  0.00     0.016 A 
ATOM      7  C   UNL     1     167.248 166.586 156.597  1.00  0.00     0.001 A 
ATOM      8  C   UNL     1     167.386 167.570 155.615  1.00  0.00     0.004 A 
ATOM      9  C   UNL     1     167.450 167.211 154.265  1.00  0.00     0.048 A 
ATOM     10  C   UNL     1     167.372 165.865 153.892  1.00  0.00     0.138 A 
ATOM     11  O   UNL     1     167.432 165.533 152.606  1.00  0.00    -0.456 OA
ENDROOT
BRANCH   1  12
ATOM     12  C   UNL     1     167.447 164.043 150.689  1.00  0.00     0.017 A 
ATOM     13  C   UNL     1     167.509 163.640 147.896  1.00  0.00     0.000 A 
ATOM     14  C   UNL     1     166.374 164.184 148.498  1.00  0.00     0.001 A 
ATOM     15  C   UNL     1     168.612 163.296 148.676  1.00  0.00     0.001 A 
ATOM     16  C   UNL     1     166.342 164.384 149.881  1.00  0.00     0.012 A 
ATOM     17  C   UNL     1     168.587 163.493 150.060  1.00  0.00     0.012 A 
ENDBRANCH   1  12
TORSDOF 1
ENDMDL
MODEL 4
REMARK VINA RESULT:     1.217     12.180     13.090
REMARK INTER + INTRA:           1.043
REMARK INTER:                   1.278
REMARK INTRA:                  -0.235
REMARK UNBOUND:                -0.246
REMARK SMILES O=c1cc(-c2ccccc2)oc2ccccc12
REMARK SMILES IDX 4 1 3 2 2 3 1 4 17 5 16 6 15 7 14 8 13 9 12 10 11 11 5 12
REMARK SMILES IDX 8 13 7 14 9 15 6 16 10 17
REMARK H PARENT
REMARK Flexibility Score: inf
ROOT
ATOM      1  C   UNL     1     167.630 164.123 152.037  1.00  0.00     0.138 A 
ATOM      2  C   UNL     1     168.705 163.352 151.547  1.00  0.00     0.100 A 
ATOM      3  C   UNL     1     168.815 163.119 150.175  1.00  0.00     0.193 A 
ATOM      4  O   UNL     1     169.776 162.430 149.737  1.00  0.00    -0.289 OA
ATOM      5  C   UNL     1     167.856 163.654 149.304  1.00  0.00     0.065 A 
ATOM      6  C   UNL     1     167.908 163.457 147.912  1.00  0.00     0.016 A 
ATOM      7  C   UNL     1     166.924 164.013 147.088  1.00  0.00     0.001 A 
ATOM      8  C   UNL     1     165.887 164.768 147.643  1.00  0.00     0.004 A 
ATOM      9  C   UNL     1     165.827 164.968 149.026  1.00  0.00     0.048 A 
ATOM     10  C   UNL     1     166.805 164.416 149.859  1.00  0.00     0.138 A 
ATOM     11  O   UNL     1     166.740 164.613 151.172  1.00  0.00    -0.456 OA
ENDROOT
BRANCH   1  12
ATOM     12  C   UNL     1     167.437 164.421 153.490  1.00  0.00     0.017 A 
ATOM     13  C   UNL     1     167.074 165.078 156.211  1.00  0.00     0.000 A 
ATOM     14  C   UNL     1     167.205 166.090 155.260  1.00  0.00     0.001 A 
ATOM     15  C   UNL     1     167.123 163.742 155.816  1.00  0.00     0.001 A 
ATOM     16  C   UNL     1     167.385 165.766 153.912  1.00  0.00     0.012 A 
ATOM     17  C   UNL     1     167.302 163.410 154.469  1.00  0.00     0.012 A 
ENDBRANCH   1  12
TORSDOF 1
ENDMDL
MODEL 5
REMARK VINA RESULT:     1.506     15.618     18.574
REMARK INTER + INTRA:           1.349
REMARK INTER:                   1.570
REMARK INTRA:                  -0.221
REMARK UNBOUND:                -0.246
REMARK SMILES O=c1cc(-c2ccccc2)oc2ccccc12
REMARK SMILES IDX 4 1 3 2 2 3 1 4 17 5 16 6 15 7 14 8 13 9 12 10 11 11 5 12
REMARK SMILES IDX 8 13 7 14 9 15 6 16 10 17
REMARK H PARENT
REMARK Flexibility Score: inf
ROOT
ATOM      1  C   UNL     1     156.313 162.611 156.525  1.00  0.00     0.138 A 
ATOM      2  C   UNL     1     156.253 163.418 155.370  1.00  0.00     0.100 A 
ATOM      3  C   UNL     1     157.414 163.643 154.627  1.00  0.00     0.193 A 
ATOM      4  O   UNL     1     157.361 164.364 153.594  1.00  0.00    -0.289 OA
ATOM      5  C   UNL     1     158.622 163.065 155.040  1.00  0.00     0.065 A 
ATOM      6  C   UNL     1     159.827 163.251 154.339  1.00  0.00     0.016 A 
ATOM      7  C   UNL     1     161.004 162.652 154.795  1.00  0.00     0.001 A 
ATOM      8  C   UNL     1     160.989 161.863 155.949  1.00  0.00     0.004 A 
ATOM      9  C   UNL     1     159.797 161.672 156.654  1.00  0.00     0.048 A 
ATOM     10  C   UNL     1     158.613 162.268 156.206  1.00  0.00     0.138 A 
ATOM     11  O   UNL     1     157.484 162.080 156.882  1.00  0.00    -0.456 OA
ENDROOT
BRANCH   1  12
ATOM     12  C   UNL     1     155.119 162.318 157.377  1.00  0.00     0.017 A 
ATOM     13  C   UNL     1     152.875 161.852 159.025  1.00  0.00     0.000 A 
ATOM     14  C   UNL     1     153.577 163.053 159.125  1.00  0.00     0.001 A 
ATOM     15  C   UNL     1     153.284 160.882 158.110  1.00  0.00     0.001 A 
ATOM     16  C   UNL     1     154.689 163.286 158.309  1.00  0.00     0.012 A 
ATOM     17  C   UNL     1     154.394 161.107 157.291  1.00  0.00     0.012 A 
ENDBRANCH   1  12
TORSDOF 1
ENDMDL
