MODEL 1
REMARK VINA RESULT:    -3.979      0.000      0.000
REMARK INTER + INTRA:          -5.183
REMARK INTER:                  -4.909
REMARK INTRA:                  -0.273
REMARK UNBOUND:                -0.273
REMARK SMILES C=CC[C@@H](C)C(=O)CC
REMARK SMILES IDX 4 1 5 2 6 3 7 4 8 5 9 6 3 7 2 8 1 9
REMARK H PARENT
REMARK Flexibility Score: inf
ROOT
ATOM      1  C   UNL     1     -11.749   5.351 -16.250  1.00  0.00     0.057 C 
ATOM      2  C   UNL     1     -10.944   5.060 -14.979  1.00  0.00     0.016 C 
ENDROOT
BRANCH   1   3
ATOM      3  C   UNL     1     -12.413   4.080 -16.738  1.00  0.00     0.135 C 
ATOM      4  O   UNL     1     -12.094   3.604 -17.818  1.00  0.00    -0.299 OA
BRANCH   3   5
ATOM      5  C   UNL     1     -13.455   3.379 -15.906  1.00  0.00     0.072 C 
ATOM      6  C   UNL     1     -13.268   1.867 -15.968  1.00  0.00     0.012 C 
ENDBRANCH   3   5
ENDBRANCH   1   3
BRANCH   1   7
ATOM      7  C   UNL     1     -12.784   6.466 -15.993  1.00  0.00     0.038 C 
BRANCH   7   8
ATOM      8  C   UNL     1     -13.647   6.721 -17.202  1.00  0.00    -0.034 C 
ATOM      9  C   UNL     1     -14.922   7.107 -17.092  1.00  0.00     0.004 C 
ENDBRANCH   7   8
ENDBRANCH   1   7
TORSDOF 4
ENDMDL
MODEL 2
REMARK VINA RESULT:    -3.835      2.188      3.259
REMARK INTER + INTRA:          -5.005
REMARK INTER:                  -4.679
REMARK INTRA:                  -0.326
REMARK UNBOUND:                -0.273
REMARK SMILES C=CC[C@@H](C)C(=O)CC
REMARK SMILES IDX 4 1 5 2 6 3 7 4 8 5 9 6 3 7 2 8 1 9
REMARK H PARENT
REMARK Flexibility Score: inf
ROOT
ATOM      1  C   UNL     1     -12.825   3.126 -15.629  1.00  0.00     0.057 C 
ATOM      2  C   UNL     1     -13.390   1.718 -15.850  1.00  0.00     0.016 C 
ENDROOT
BRANCH   1   3
ATOM      3  C   UNL     1     -11.788   3.093 -14.525  1.00  0.00     0.135 C 
ATOM      4  O   UNL     1     -12.135   2.880 -13.372  1.00  0.00    -0.299 OA
BRANCH   3   5
ATOM      5  C   UNL     1     -10.327   3.305 -14.825  1.00  0.00     0.072 C 
ATOM      6  C   UNL     1      -9.489   2.162 -14.262  1.00  0.00     0.012 C 
ENDBRANCH   3   5
ENDBRANCH   1   3
BRANCH   1   7
ATOM      7  C   UNL     1     -12.237   3.686 -16.941  1.00  0.00     0.038 C 
BRANCH   7   8
ATOM      8  C   UNL     1     -12.559   5.147 -17.122  1.00  0.00    -0.034 C 
ATOM      9  C   UNL     1     -13.666   5.697 -16.615  1.00  0.00     0.004 C 
ENDBRANCH   7   8
ENDBRANCH   1   7
TORSDOF 4
ENDMDL
MODEL 3
REMARK VINA RESULT:    -3.790      1.529      3.683
REMARK INTER + INTRA:          -4.950
REMARK INTER:                  -4.662
REMARK INTRA:                  -0.288
REMARK UNBOUND:                -0.273
REMARK SMILES C=CC[C@@H](C)C(=O)CC
REMARK SMILES IDX 4 1 5 2 6 3 7 4 8 5 9 6 3 7 2 8 1 9
REMARK H PARENT
REMARK Flexibility Score: inf
ROOT
ATOM      1  C   UNL     1     -12.315   5.114 -15.585  1.00  0.00     0.057 C 
ATOM      2  C   UNL     1     -10.837   5.114 -15.176  1.00  0.00     0.016 C 
ENDROOT
BRANCH   1   3
ATOM      3  C   UNL     1     -12.698   6.479 -16.118  1.00  0.00     0.135 C 
ATOM      4  O   UNL     1     -12.104   7.473 -15.724  1.00  0.00    -0.299 OA
BRANCH   3   5
ATOM      5  C   UNL     1     -13.793   6.635 -17.140  1.00  0.00     0.072 C 
ATOM      6  C   UNL     1     -15.123   6.946 -16.463  1.00  0.00     0.012 C 
ENDBRANCH   3   5
ENDBRANCH   1   3
BRANCH   1   7
ATOM      7  C   UNL     1     -12.591   4.005 -16.621  1.00  0.00     0.038 C 
BRANCH   7   8
ATOM      8  C   UNL     1     -13.633   3.030 -16.137  1.00  0.00    -0.034 C 
ATOM      9  C   UNL     1     -13.336   1.757 -15.857  1.00  0.00     0.004 C 
ENDBRANCH   7   8
ENDBRANCH   1   7
TORSDOF 4
ENDMDL
MODEL 4
REMARK VINA RESULT:    -3.750      1.827      4.217
REMARK INTER + INTRA:          -4.900
REMARK INTER:                  -4.700
REMARK INTRA:                  -0.199
REMARK UNBOUND:                -0.273
REMARK SMILES C=CC[C@@H](C)C(=O)CC
REMARK SMILES IDX 4 1 5 2 6 3 7 4 8 5 9 6 3 7 2 8 1 9
REMARK H PARENT
REMARK Flexibility Score: inf
ROOT
ATOM      1  C   UNL     1     -11.648   5.119 -16.363  1.00  0.00     0.057 C 
ATOM      2  C   UNL     1     -12.485   3.907 -16.787  1.00  0.00     0.016 C 
ENDROOT
BRANCH   1   3
ATOM      3  C   UNL     1     -12.545   6.331 -16.209  1.00  0.00     0.135 C 
ATOM      4  O   UNL     1     -12.336   7.130 -15.307  1.00  0.00    -0.299 OA
BRANCH   3   5
ATOM      5  C   UNL     1     -13.686   6.578 -17.160  1.00  0.00     0.072 C 
ATOM      6  C   UNL     1     -14.957   6.935 -16.397  1.00  0.00     0.012 C 
ENDBRANCH   3   5
ENDBRANCH   1   3
BRANCH   1   7
ATOM      7  C   UNL     1     -10.877   4.818 -15.061  1.00  0.00     0.038 C 
BRANCH   7   8
ATOM      8  C   UNL     1     -10.536   3.356 -14.935  1.00  0.00    -0.034 C 
ATOM      9  C   UNL     1      -9.294   2.938 -14.675  1.00  0.00     0.004 C 
ENDBRANCH   7   8
ENDBRANCH   1   7
TORSDOF 4
ENDMDL
MODEL 5
REMARK VINA RESULT:    -3.727      2.048      4.362
REMARK INTER + INTRA:          -4.872
REMARK INTER:                  -4.686
REMARK INTRA:                  -0.185
REMARK UNBOUND:                -0.273
REMARK SMILES C=CC[C@@H](C)C(=O)CC
REMARK SMILES IDX 4 1 5 2 6 3 7 4 8 5 9 6 3 7 2 8 1 9
REMARK H PARENT
REMARK Flexibility Score: inf
ROOT
ATOM      1  C   UNL     1     -13.081   6.471 -16.736  1.00  0.00     0.057 C 
ATOM      2  C   UNL     1     -14.608   6.520 -16.607  1.00  0.00     0.016 C 
ENDROOT
BRANCH   1   3
ATOM      3  C   UNL     1     -12.444   7.139 -15.535  1.00  0.00     0.135 C 
ATOM      4  O   UNL     1     -11.564   6.559 -14.914  1.00  0.00    -0.299 OA
BRANCH   3   5
ATOM      5  C   UNL     1     -12.867   8.516 -15.096  1.00  0.00     0.072 C 
ATOM      6  C   UNL     1     -11.668   9.318 -14.604  1.00  0.00     0.012 C 
ENDBRANCH   3   5
ENDBRANCH   1   3
BRANCH   1   7
ATOM      7  C   UNL     1     -12.597   5.015 -16.896  1.00  0.00     0.038 C 
BRANCH   7   8
ATOM      8  C   UNL     1     -13.539   4.035 -16.246  1.00  0.00    -0.034 C 
ATOM      9  C   UNL     1     -13.168   2.786 -15.949  1.00  0.00     0.004 C 
ENDBRANCH   7   8
ENDBRANCH   1   7
TORSDOF 4
ENDMDL
MODEL 6
REMARK VINA RESULT:    -3.712      1.932      2.828
REMARK INTER + INTRA:          -4.854
REMARK INTER:                  -4.615
REMARK INTRA:                  -0.239
REMARK UNBOUND:                -0.273
REMARK SMILES C=CC[C@@H](C)C(=O)CC
REMARK SMILES IDX 4 1 5 2 6 3 7 4 8 5 9 6 3 7 2 8 1 9
REMARK H PARENT
REMARK Flexibility Score: inf
ROOT
ATOM      1  C   UNL     1     -12.572   3.751 -15.712  1.00  0.00     0.057 C 
ATOM      2  C   UNL     1     -13.034   2.323 -16.022  1.00  0.00     0.016 C 
ENDROOT
BRANCH   1   3
ATOM      3  C   UNL     1     -11.215   3.715 -15.038  1.00  0.00     0.135 C 
ATOM      4  O   UNL     1     -10.488   4.697 -15.086  1.00  0.00    -0.299 OA
BRANCH   3   5
ATOM      5  C   UNL     1     -10.749   2.491 -14.296  1.00  0.00     0.072 C 
ATOM      6  C   UNL     1      -9.228   2.388 -14.325  1.00  0.00     0.012 C 
ENDBRANCH   3   5
ENDBRANCH   1   3
BRANCH   1   7
ATOM      7  C   UNL     1     -12.542   4.603 -16.997  1.00  0.00     0.038 C 
BRANCH   7   8
ATOM      8  C   UNL     1     -13.429   5.817 -16.888  1.00  0.00    -0.034 C 
ATOM      9  C   UNL     1     -13.075   6.891 -16.177  1.00  0.00     0.004 C 
ENDBRANCH   7   8
ENDBRANCH   1   7
TORSDOF 4
ENDMDL
MODEL 7
REMARK VINA RESULT:    -3.695      1.717      3.533
REMARK INTER + INTRA:          -4.833
REMARK INTER:                  -4.391
REMARK INTRA:                  -0.442
REMARK UNBOUND:                -0.273
REMARK SMILES C=CC[C@@H](C)C(=O)CC
REMARK SMILES IDX 4 1 5 2 6 3 7 4 8 5 9 6 3 7 2 8 1 9
REMARK H PARENT
REMARK Flexibility Score: inf
ROOT
ATOM      1  C   UNL     1     -11.809   5.072 -16.503  1.00  0.00     0.057 C 
ATOM      2  C   UNL     1     -12.995   6.043 -16.484  1.00  0.00     0.016 C 
ENDROOT
BRANCH   1   3
ATOM      3  C   UNL     1     -11.172   5.016 -15.130  1.00  0.00     0.135 C 
ATOM      4  O   UNL     1     -11.508   5.820 -14.272  1.00  0.00    -0.299 OA
BRANCH   3   5
ATOM      5  C   UNL     1     -10.137   3.975 -14.795  1.00  0.00     0.072 C 
ATOM      6  C   UNL     1     -10.590   3.122 -13.615  1.00  0.00     0.012 C 
ENDBRANCH   3   5
ENDBRANCH   1   3
BRANCH   1   7
ATOM      7  C   UNL     1     -12.260   3.674 -16.974  1.00  0.00     0.038 C 
BRANCH   7   8
ATOM      8  C   UNL     1     -13.369   3.122 -16.115  1.00  0.00    -0.034 C 
ATOM      9  C   UNL     1     -13.436   1.827 -15.792  1.00  0.00     0.004 C 
ENDBRANCH   7   8
ENDBRANCH   1   7
TORSDOF 4
ENDMDL
MODEL 8
REMARK VINA RESULT:    -3.650      1.667      4.212
REMARK INTER + INTRA:          -4.777
REMARK INTER:                  -4.485
REMARK INTRA:                  -0.292
REMARK UNBOUND:                -0.273
REMARK SMILES C=CC[C@@H](C)C(=O)CC
REMARK SMILES IDX 4 1 5 2 6 3 7 4 8 5 9 6 3 7 2 8 1 9
REMARK H PARENT
REMARK Flexibility Score: inf
ROOT
ATOM      1  C   UNL     1     -12.247   2.673 -15.670  1.00  0.00     0.057 C 
ATOM      2  C   UNL     1     -13.663   2.101 -15.542  1.00  0.00     0.016 C 
ENDROOT
BRANCH   1   3
ATOM      3  C   UNL     1     -12.262   3.874 -16.594  1.00  0.00     0.135 C 
ATOM      4  O   UNL     1     -12.142   3.713 -17.800  1.00  0.00    -0.299 OA
BRANCH   3   5
ATOM      5  C   UNL     1     -12.439   5.268 -16.054  1.00  0.00     0.072 C 
ATOM      6  C   UNL     1     -13.435   6.054 -16.899  1.00  0.00     0.012 C 
ENDBRANCH   3   5
ENDBRANCH   1   3
BRANCH   1   7
ATOM      7  C   UNL     1     -11.681   3.036 -14.281  1.00  0.00     0.038 C 
BRANCH   7   8
ATOM      8  C   UNL     1     -10.338   2.398 -14.037  1.00  0.00    -0.034 C 
ATOM      9  C   UNL     1      -9.242   2.779 -14.700  1.00  0.00     0.004 C 
ENDBRANCH   7   8
ENDBRANCH   1   7
TORSDOF 4
ENDMDL
MODEL 9
REMARK VINA RESULT:    -3.642      2.390      4.380
REMARK INTER + INTRA:          -4.767
REMARK INTER:                  -4.435
REMARK INTRA:                  -0.332
REMARK UNBOUND:                -0.273
REMARK SMILES C=CC[C@@H](C)C(=O)CC
REMARK SMILES IDX 4 1 5 2 6 3 7 4 8 5 9 6 3 7 2 8 1 9
REMARK H PARENT
REMARK Flexibility Score: inf
ROOT
ATOM      1  C   UNL     1     -11.067   3.677 -14.464  1.00  0.00     0.057 C 
ATOM      2  C   UNL     1     -11.209   4.721 -13.349  1.00  0.00     0.016 C 
ENDROOT
BRANCH   1   3
ATOM      3  C   UNL     1     -11.657   4.220 -15.749  1.00  0.00     0.135 C 
ATOM      4  O   UNL     1     -11.272   5.296 -16.187  1.00  0.00    -0.299 OA
BRANCH   3   5
ATOM      5  C   UNL     1     -12.703   3.450 -16.511  1.00  0.00     0.072 C 
ATOM      6  C   UNL     1     -13.061   2.160 -15.782  1.00  0.00     0.012 C 
ENDBRANCH   3   5
ENDBRANCH   1   3
BRANCH   1   7
ATOM      7  C   UNL     1      -9.589   3.275 -14.645  1.00  0.00     0.038 C 
BRANCH   7   8
ATOM      8  C   UNL     1      -9.315   1.889 -14.121  1.00  0.00    -0.034 C 
ATOM      9  C   UNL     1      -9.237   1.629 -12.813  1.00  0.00     0.004 C 
ENDBRANCH   7   8
ENDBRANCH   1   7
TORSDOF 4
ENDMDL
