MODEL 1
REMARK VINA RESULT:    -6.666      0.000      0.000
REMARK INTER + INTRA:          -6.666
REMARK INTER:                  -6.666
REMARK INTRA:                   0.000
REMARK UNBOUND:                 0.000
REMARK SMILES c1ccc2nc3ccccc3cc2c1
REMARK SMILES IDX 1 1 2 2 3 3 4 4 13 5 14 6 12 7 11 8 10 9 9 10 8 11 7 12 6 13
REMARK SMILES IDX 5 14
REMARK H PARENT
REMARK Flexibility Score: inf
ROOT
ATOM      1  C   UNL     1      18.968 -15.705 -20.605  1.00  0.00     0.001 A 
ATOM      2  C   UNL     1      20.039 -15.598 -21.497  1.00  0.00     0.002 A 
ATOM      3  C   UNL     1      20.528 -16.736 -22.147  1.00  0.00     0.029 A 
ATOM      4  C   UNL     1      19.946 -17.986 -21.907  1.00  0.00     0.071 A 
ATOM      5  C   UNL     1      18.863 -18.096 -21.005  1.00  0.00     0.001 A 
ATOM      6  C   UNL     1      18.378 -16.950 -20.357  1.00  0.00     0.010 A 
ATOM      7  C   UNL     1      18.292 -19.354 -20.776  1.00  0.00     0.020 A 
ATOM      8  C   UNL     1      18.798 -20.480 -21.439  1.00  0.00     0.001 A 
ATOM      9  C   UNL     1      18.248 -21.754 -21.232  1.00  0.00     0.010 A 
ATOM     10  C   UNL     1      18.773 -22.861 -21.906  1.00  0.00     0.001 A 
ATOM     11  C   UNL     1      19.846 -22.703 -22.789  1.00  0.00     0.002 A 
ATOM     12  C   UNL     1      20.400 -21.437 -23.003  1.00  0.00     0.029 A 
ATOM     13  C   UNL     1      19.883 -20.323 -22.332  1.00  0.00     0.071 A 
ATOM     14  N   UNL     1      20.422 -19.092 -22.540  1.00  0.00    -0.248 NA
ENDROOT
TORSDOF 0
ENDMDL
MODEL 2
REMARK VINA RESULT:    -6.664      0.065      4.831
REMARK INTER + INTRA:          -6.664
REMARK INTER:                  -6.664
REMARK INTRA:                   0.000
REMARK UNBOUND:                 0.000
REMARK SMILES c1ccc2nc3ccccc3cc2c1
REMARK SMILES IDX 1 1 2 2 3 3 4 4 13 5 14 6 12 7 11 8 10 9 9 10 8 11 7 12 6 13
REMARK SMILES IDX 5 14
REMARK H PARENT
REMARK Flexibility Score: inf
ROOT
ATOM      1  C   UNL     1      18.724 -22.869 -21.820  1.00  0.00     0.001 A 
ATOM      2  C   UNL     1      19.802 -22.729 -22.698  1.00  0.00     0.002 A 
ATOM      3  C   UNL     1      20.363 -21.468 -22.928  1.00  0.00     0.029 A 
ATOM      4  C   UNL     1      19.846 -20.341 -22.276  1.00  0.00     0.071 A 
ATOM      5  C   UNL     1      18.755 -20.482 -21.387  1.00  0.00     0.001 A 
ATOM      6  C   UNL     1      18.199 -21.750 -21.164  1.00  0.00     0.010 A 
ATOM      7  C   UNL     1      18.250 -19.345 -20.744  1.00  0.00     0.020 A 
ATOM      8  C   UNL     1      18.827 -18.092 -20.989  1.00  0.00     0.001 A 
ATOM      9  C   UNL     1      18.345 -16.934 -20.360  1.00  0.00     0.010 A 
ATOM     10  C   UNL     1      18.940 -15.695 -20.623  1.00  0.00     0.001 A 
ATOM     11  C   UNL     1      20.017 -15.607 -21.509  1.00  0.00     0.002 A 
ATOM     12  C   UNL     1      20.505 -16.755 -22.141  1.00  0.00     0.029 A 
ATOM     13  C   UNL     1      19.916 -17.999 -21.886  1.00  0.00     0.071 A 
ATOM     14  N   UNL     1      20.391 -19.116 -22.499  1.00  0.00    -0.248 NA
ENDROOT
TORSDOF 0
ENDMDL
MODEL 3
REMARK VINA RESULT:    -6.560      0.826      2.135
REMARK INTER + INTRA:          -6.560
REMARK INTER:                  -6.560
REMARK INTRA:                   0.000
REMARK UNBOUND:                 0.000
REMARK SMILES c1ccc2nc3ccccc3cc2c1
REMARK SMILES IDX 1 1 2 2 3 3 4 4 13 5 14 6 12 7 11 8 10 9 9 10 8 11 7 12 6 13
REMARK SMILES IDX 5 14
REMARK H PARENT
REMARK Flexibility Score: inf
ROOT
ATOM      1  C   UNL     1      20.037 -15.624 -21.506  1.00  0.00     0.001 A 
ATOM      2  C   UNL     1      19.017 -15.856 -20.578  1.00  0.00     0.002 A 
ATOM      3  C   UNL     1      18.501 -17.146 -20.409  1.00  0.00     0.029 A 
ATOM      4  C   UNL     1      19.006 -18.208 -21.167  1.00  0.00     0.071 A 
ATOM      5  C   UNL     1      20.037 -17.974 -22.107  1.00  0.00     0.001 A 
ATOM      6  C   UNL     1      20.548 -16.678 -22.270  1.00  0.00     0.010 A 
ATOM      7  C   UNL     1      20.531 -19.048 -22.858  1.00  0.00     0.020 A 
ATOM      8  C   UNL     1      19.999 -20.331 -22.671  1.00  0.00     0.001 A 
ATOM      9  C   UNL     1      20.473 -21.428 -23.408  1.00  0.00     0.010 A 
ATOM     10  C   UNL     1      19.924 -22.698 -23.202  1.00  0.00     0.001 A 
ATOM     11  C   UNL     1      18.905 -22.880 -22.261  1.00  0.00     0.002 A 
ATOM     12  C   UNL     1      18.428 -21.793 -21.522  1.00  0.00     0.029 A 
ATOM     13  C   UNL     1      18.969 -20.518 -21.722  1.00  0.00     0.071 A 
ATOM     14  N   UNL     1      18.505 -19.461 -21.002  1.00  0.00    -0.248 NA
ENDROOT
TORSDOF 0
ENDMDL
MODEL 4
REMARK VINA RESULT:    -6.539      0.819      5.275
REMARK INTER + INTRA:          -6.539
REMARK INTER:                  -6.539
REMARK INTRA:                   0.000
REMARK UNBOUND:                 0.000
REMARK SMILES c1ccc2nc3ccccc3cc2c1
REMARK SMILES IDX 1 1 2 2 3 3 4 4 13 5 14 6 12 7 11 8 10 9 9 10 8 11 7 12 6 13
REMARK SMILES IDX 5 14
REMARK H PARENT
REMARK Flexibility Score: inf
ROOT
ATOM      1  C   UNL     1      19.837 -22.673 -23.125  1.00  0.00     0.001 A 
ATOM      2  C   UNL     1      18.803 -22.847 -22.200  1.00  0.00     0.002 A 
ATOM      3  C   UNL     1      18.322 -21.756 -21.470  1.00  0.00     0.029 A 
ATOM      4  C   UNL     1      18.874 -20.484 -21.664  1.00  0.00     0.071 A 
ATOM      5  C   UNL     1      19.920 -20.306 -22.599  1.00  0.00     0.001 A 
ATOM      6  C   UNL     1      20.397 -21.407 -23.327  1.00  0.00     0.010 A 
ATOM      7  C   UNL     1      20.461 -19.027 -22.780  1.00  0.00     0.020 A 
ATOM      8  C   UNL     1      19.963 -17.948 -22.038  1.00  0.00     0.001 A 
ATOM      9  C   UNL     1      20.483 -16.655 -22.197  1.00  0.00     0.010 A 
ATOM     10  C   UNL     1      19.968 -15.596 -21.443  1.00  0.00     0.001 A 
ATOM     11  C   UNL     1      18.933 -15.820 -20.530  1.00  0.00     0.002 A 
ATOM     12  C   UNL     1      18.408 -17.106 -20.365  1.00  0.00     0.029 A 
ATOM     13  C   UNL     1      18.917 -18.173 -21.114  1.00  0.00     0.071 A 
ATOM     14  N   UNL     1      18.406 -19.423 -20.954  1.00  0.00    -0.248 NA
ENDROOT
TORSDOF 0
ENDMDL
MODEL 5
REMARK VINA RESULT:    -5.894     13.775     14.877
REMARK INTER + INTRA:          -5.894
REMARK INTER:                  -5.894
REMARK INTRA:                   0.000
REMARK UNBOUND:                 0.000
REMARK SMILES c1ccc2nc3ccccc3cc2c1
REMARK SMILES IDX 1 1 2 2 3 3 4 4 13 5 14 6 12 7 11 8 10 9 9 10 8 11 7 12 6 13
REMARK SMILES IDX 5 14
REMARK H PARENT
REMARK Flexibility Score: inf
ROOT
ATOM      1  C   UNL     1      16.689 -19.282  -4.228  1.00  0.00     0.001 A 
ATOM      2  C   UNL     1      17.311 -20.534  -4.246  1.00  0.00     0.002 A 
ATOM      3  C   UNL     1      17.227 -21.343  -5.384  1.00  0.00     0.029 A 
ATOM      4  C   UNL     1      16.521 -20.902  -6.509  1.00  0.00     0.071 A 
ATOM      5  C   UNL     1      15.891 -19.636  -6.492  1.00  0.00     0.001 A 
ATOM      6  C   UNL     1      15.979 -18.831  -5.346  1.00  0.00     0.010 A 
ATOM      7  C   UNL     1      15.188 -19.209  -7.625  1.00  0.00     0.020 A 
ATOM      8  C   UNL     1      15.118 -20.037  -8.754  1.00  0.00     0.001 A 
ATOM      9  C   UNL     1      14.422 -19.638  -9.905  1.00  0.00     0.010 A 
ATOM     10  C   UNL     1      14.367 -20.485 -11.018  1.00  0.00     0.001 A 
ATOM     11  C   UNL     1      15.006 -21.728 -10.988  1.00  0.00     0.002 A 
ATOM     12  C   UNL     1      15.703 -22.133  -9.845  1.00  0.00     0.029 A 
ATOM     13  C   UNL     1      15.762 -21.295  -8.726  1.00  0.00     0.071 A 
ATOM     14  N   UNL     1      16.440 -21.689  -7.615  1.00  0.00    -0.248 NA
ENDROOT
TORSDOF 0
ENDMDL
MODEL 6
REMARK VINA RESULT:    -5.883     13.736     15.094
REMARK INTER + INTRA:          -5.883
REMARK INTER:                  -5.883
REMARK INTRA:                   0.000
REMARK UNBOUND:                 0.000
REMARK SMILES c1ccc2nc3ccccc3cc2c1
REMARK SMILES IDX 1 1 2 2 3 3 4 4 13 5 14 6 12 7 11 8 10 9 9 10 8 11 7 12 6 13
REMARK SMILES IDX 5 14
REMARK H PARENT
REMARK Flexibility Score: inf
ROOT
ATOM      1  C   UNL     1      14.369 -20.568 -11.032  1.00  0.00     0.001 A 
ATOM      2  C   UNL     1      15.066 -21.780 -11.025  1.00  0.00     0.002 A 
ATOM      3  C   UNL     1      15.801 -22.162  -9.898  1.00  0.00     0.029 A 
ATOM      4  C   UNL     1      15.839 -21.333  -8.771  1.00  0.00     0.071 A 
ATOM      5  C   UNL     1      15.134 -20.106  -8.776  1.00  0.00     0.001 A 
ATOM      6  C   UNL     1      14.400 -19.730  -9.911  1.00  0.00     0.010 A 
ATOM      7  C   UNL     1      15.183 -19.288  -7.641  1.00  0.00     0.020 A 
ATOM      8  C   UNL     1      15.925 -19.692  -6.522  1.00  0.00     0.001 A 
ATOM      9  C   UNL     1      15.993 -18.895  -5.369  1.00  0.00     0.010 A 
ATOM     10  C   UNL     1      16.742 -19.322  -4.268  1.00  0.00     0.001 A 
ATOM     11  C   UNL     1      17.422 -20.543  -4.309  1.00  0.00     0.002 A 
ATOM     12  C   UNL     1      17.359 -21.344  -5.454  1.00  0.00     0.029 A 
ATOM     13  C   UNL     1      16.614 -20.925  -6.562  1.00  0.00     0.071 A 
ATOM     14  N   UNL     1      16.552 -21.705  -7.675  1.00  0.00    -0.248 NA
ENDROOT
TORSDOF 0
ENDMDL
MODEL 7
REMARK VINA RESULT:    -5.778      3.335      5.950
REMARK INTER + INTRA:          -5.778
REMARK INTER:                  -5.778
REMARK INTRA:                   0.000
REMARK UNBOUND:                 0.000
REMARK SMILES c1ccc2nc3ccccc3cc2c1
REMARK SMILES IDX 1 1 2 2 3 3 4 4 13 5 14 6 12 7 11 8 10 9 9 10 8 11 7 12 6 13
REMARK SMILES IDX 5 14
REMARK H PARENT
REMARK Flexibility Score: inf
ROOT
ATOM      1  C   UNL     1      19.275 -25.390 -17.377  1.00  0.00     0.001 A 
ATOM      2  C   UNL     1      19.629 -24.212 -16.712  1.00  0.00     0.002 A 
ATOM      3  C   UNL     1      19.985 -23.073 -17.442  1.00  0.00     0.029 A 
ATOM      4  C   UNL     1      19.986 -23.108 -18.841  1.00  0.00     0.071 A 
ATOM      5  C   UNL     1      19.628 -24.299 -19.515  1.00  0.00     0.001 A 
ATOM      6  C   UNL     1      19.273 -25.437 -18.775  1.00  0.00     0.010 A 
ATOM      7  C   UNL     1      19.634 -24.317 -20.915  1.00  0.00     0.020 A 
ATOM      8  C   UNL     1      19.993 -23.164 -21.626  1.00  0.00     0.001 A 
ATOM      9  C   UNL     1      20.009 -23.150 -23.029  1.00  0.00     0.010 A 
ATOM     10  C   UNL     1      20.372 -21.985 -23.713  1.00  0.00     0.001 A 
ATOM     11  C   UNL     1      20.718 -20.831 -23.003  1.00  0.00     0.002 A 
ATOM     12  C   UNL     1      20.705 -20.836 -21.604  1.00  0.00     0.029 A 
ATOM     13  C   UNL     1      20.344 -21.996 -20.910  1.00  0.00     0.071 A 
ATOM     14  N   UNL     1      20.330 -22.000 -19.550  1.00  0.00    -0.248 NA
ENDROOT
TORSDOF 0
ENDMDL
MODEL 8
REMARK VINA RESULT:    -5.756      3.460      5.907
REMARK INTER + INTRA:          -5.756
REMARK INTER:                  -5.756
REMARK INTRA:                   0.000
REMARK UNBOUND:                 0.000
REMARK SMILES c1ccc2nc3ccccc3cc2c1
REMARK SMILES IDX 1 1 2 2 3 3 4 4 13 5 14 6 12 7 11 8 10 9 9 10 8 11 7 12 6 13
REMARK SMILES IDX 5 14
REMARK H PARENT
REMARK Flexibility Score: inf
ROOT
ATOM      1  C   UNL     1      19.626 -24.277 -16.833  1.00  0.00     0.001 A 
ATOM      2  C   UNL     1      19.275 -25.430 -17.542  1.00  0.00     0.002 A 
ATOM      3  C   UNL     1      19.278 -25.423 -18.941  1.00  0.00     0.029 A 
ATOM      4  C   UNL     1      19.634 -24.261 -19.636  1.00  0.00     0.071 A 
ATOM      5  C   UNL     1      19.989 -23.094 -18.920  1.00  0.00     0.001 A 
ATOM      6  C   UNL     1      19.983 -23.110 -17.517  1.00  0.00     0.010 A 
ATOM      7  C   UNL     1      20.343 -21.940 -19.631  1.00  0.00     0.020 A 
ATOM      8  C   UNL     1      20.339 -21.957 -21.032  1.00  0.00     0.001 A 
ATOM      9  C   UNL     1      20.689 -20.818 -21.773  1.00  0.00     0.010 A 
ATOM     10  C   UNL     1      20.677 -20.862 -23.171  1.00  0.00     0.001 A 
ATOM     11  C   UNL     1      20.319 -22.039 -23.835  1.00  0.00     0.002 A 
ATOM     12  C   UNL     1      19.969 -23.180 -23.105  1.00  0.00     0.029 A 
ATOM     13  C   UNL     1      19.977 -23.146 -21.705  1.00  0.00     0.071 A 
ATOM     14  N   UNL     1      19.638 -24.255 -20.995  1.00  0.00    -0.248 NA
ENDROOT
TORSDOF 0
ENDMDL
MODEL 9
REMARK VINA RESULT:    -5.744      3.244      5.239
REMARK INTER + INTRA:          -5.744
REMARK INTER:                  -5.744
REMARK INTRA:                   0.000
REMARK UNBOUND:                 0.000
REMARK SMILES c1ccc2nc3ccccc3cc2c1
REMARK SMILES IDX 1 1 2 2 3 3 4 4 13 5 14 6 12 7 11 8 10 9 9 10 8 11 7 12 6 13
REMARK SMILES IDX 5 14
REMARK H PARENT
REMARK Flexibility Score: inf
ROOT
ATOM      1  C   UNL     1      20.376 -21.721 -23.511  1.00  0.00     0.001 A 
ATOM      2  C   UNL     1      20.743 -20.609 -22.747  1.00  0.00     0.002 A 
ATOM      3  C   UNL     1      20.739 -20.684 -21.350  1.00  0.00     0.029 A 
ATOM      4  C   UNL     1      20.369 -21.873 -20.712  1.00  0.00     0.071 A 
ATOM      5  C   UNL     1      19.998 -22.999 -21.483  1.00  0.00     0.001 A 
ATOM      6  C   UNL     1      20.004 -22.916 -22.884  1.00  0.00     0.010 A 
ATOM      7  C   UNL     1      19.630 -24.182 -20.829  1.00  0.00     0.020 A 
ATOM      8  C   UNL     1      19.634 -24.233 -19.429  1.00  0.00     0.001 A 
ATOM      9  C   UNL     1      19.271 -25.403 -18.744  1.00  0.00     0.010 A 
ATOM     10  C   UNL     1      19.284 -25.427 -17.345  1.00  0.00     0.001 A 
ATOM     11  C   UNL     1      19.659 -24.288 -16.625  1.00  0.00     0.002 A 
ATOM     12  C   UNL     1      20.022 -23.118 -17.300  1.00  0.00     0.029 A 
ATOM     13  C   UNL     1      20.012 -23.083 -18.699  1.00  0.00     0.071 A 
ATOM     14  N   UNL     1      20.366 -21.946 -19.355  1.00  0.00    -0.248 NA
ENDROOT
TORSDOF 0
ENDMDL
