MODEL 1
REMARK VINA RESULT:    -5.494      0.000      0.000
REMARK INTER + INTRA:          -5.655
REMARK INTER:                  -5.655
REMARK INTRA:                   0.000
REMARK UNBOUND:                 0.000
REMARK SMILES C=C1[C@H](O)C[C@]23C[C@H]1C(C)(C)[C@H]2CC[C@@H]3C
REMARK SMILES IDX 16 1 15 2 14 3 13 4 12 5 6 6 7 7 8 8 9 9 10 10 11 11 2 12
REMARK SMILES IDX 1 13 3 14 5 15 4 16
REMARK H PARENT 4 17
REMARK Flexibility Score: inf
ROOT
ATOM      1  C   UNL     1      40.375   6.738  -8.342  1.00  0.00     0.008 C 
ATOM      2  C   UNL     1      39.259   6.134  -9.206  1.00  0.00    -0.008 C 
ATOM      3  C   UNL     1      39.297   6.674 -10.633  1.00  0.00     0.004 C 
ATOM      4  C   UNL     1      38.523   5.656 -11.449  1.00  0.00     0.005 C 
ATOM      5  C   UNL     1      38.916   4.302 -10.840  1.00  0.00     0.002 C 
ATOM      6  C   UNL     1      39.256   4.580  -9.356  1.00  0.00    -0.020 C 
ATOM      7  C   UNL     1      38.130   3.904  -8.568  1.00  0.00     0.016 C 
ATOM      8  C   UNL     1      37.918   2.629  -9.370  1.00  0.00     0.023 C 
ATOM      9  C   UNL     1      37.871   3.132 -10.844  1.00  0.00    -0.025 C 
ATOM     10  C   UNL     1      38.264   2.040 -11.872  1.00  0.00     0.012 C 
ATOM     11  C   UNL     1      36.422   3.568 -11.187  1.00  0.00     0.012 C 
ATOM     12  C   UNL     1      39.121   1.724  -9.105  1.00  0.00    -0.045 C 
ATOM     13  C   UNL     1      38.948   0.395  -9.021  1.00  0.00     0.011 C 
ATOM     14  C   UNL     1      40.537   2.315  -9.112  1.00  0.00     0.140 C 
ATOM     15  C   UNL     1      40.585   3.867  -8.958  1.00  0.00     0.044 C 
ENDROOT
BRANCH  14  16
ATOM     16  O   UNL     1      41.338   1.712  -8.125  1.00  0.00    -0.389 OA
ATOM     17  H   UNL     1      41.285   0.729  -8.261  1.00  0.00     0.211 HD
ENDBRANCH  14  16
TORSDOF 1
ENDMDL
MODEL 2
REMARK VINA RESULT:    -5.321     15.014     16.858
REMARK INTER + INTRA:          -5.476
REMARK INTER:                  -5.476
REMARK INTRA:                   0.000
REMARK UNBOUND:                 0.000
REMARK SMILES C=C1[C@H](O)C[C@]23C[C@H]1C(C)(C)[C@H]2CC[C@@H]3C
REMARK SMILES IDX 16 1 15 2 14 3 13 4 12 5 6 6 7 7 8 8 9 9 10 10 11 11 2 12
REMARK SMILES IDX 1 13 3 14 5 15 4 16
REMARK H PARENT 4 17
REMARK Flexibility Score: inf
ROOT
ATOM      1  C   UNL     1      33.963  10.161   1.925  1.00  0.00     0.008 C 
ATOM      2  C   UNL     1      34.670  10.835   3.110  1.00  0.00    -0.008 C 
ATOM      3  C   UNL     1      33.808  11.929   3.732  1.00  0.00     0.004 C 
ATOM      4  C   UNL     1      34.380  12.123   5.124  1.00  0.00     0.005 C 
ATOM      5  C   UNL     1      34.751  10.706   5.584  1.00  0.00     0.002 C 
ATOM      6  C   UNL     1      35.077   9.907   4.299  1.00  0.00    -0.020 C 
ATOM      7  C   UNL     1      36.586   9.654   4.373  1.00  0.00     0.016 C 
ATOM      8  C   UNL     1      36.776   9.370   5.855  1.00  0.00     0.023 C 
ATOM      9  C   UNL     1      35.973  10.512   6.547  1.00  0.00    -0.025 C 
ATOM     10  C   UNL     1      35.500  10.142   7.977  1.00  0.00     0.012 C 
ATOM     11  C   UNL     1      36.883  11.761   6.688  1.00  0.00     0.012 C 
ATOM     12  C   UNL     1      36.177   7.991   6.130  1.00  0.00    -0.045 C 
ATOM     13  C   UNL     1      36.765   7.178   7.022  1.00  0.00     0.011 C 
ATOM     14  C   UNL     1      34.818   7.615   5.527  1.00  0.00     0.140 C 
ATOM     15  C   UNL     1      34.376   8.514   4.330  1.00  0.00     0.044 C 
ENDROOT
BRANCH  14  16
ATOM     16  O   UNL     1      34.798   6.262   5.140  1.00  0.00    -0.389 OA
ATOM     17  H   UNL     1      35.726   5.918   5.221  1.00  0.00     0.211 HD
ENDBRANCH  14  16
TORSDOF 1
ENDMDL
MODEL 3
REMARK VINA RESULT:    -5.169      1.987      4.599
REMARK INTER + INTRA:          -5.321
REMARK INTER:                  -5.321
REMARK INTRA:                   0.000
REMARK UNBOUND:                 0.000
REMARK SMILES C=C1[C@H](O)C[C@]23C[C@H]1C(C)(C)[C@H]2CC[C@@H]3C
REMARK SMILES IDX 16 1 15 2 14 3 13 4 12 5 6 6 7 7 8 8 9 9 10 10 11 11 2 12
REMARK SMILES IDX 1 13 3 14 5 15 4 16
REMARK H PARENT 4 17
REMARK Flexibility Score: inf
ROOT
ATOM      1  C   UNL     1      36.496   3.128 -10.983  1.00  0.00     0.008 C 
ATOM      2  C   UNL     1      37.543   2.783  -9.914  1.00  0.00    -0.008 C 
ATOM      3  C   UNL     1      38.407   1.597 -10.333  1.00  0.00     0.004 C 
ATOM      4  C   UNL     1      39.653   1.708  -9.474  1.00  0.00     0.005 C 
ATOM      5  C   UNL     1      39.928   3.217  -9.395  1.00  0.00     0.002 C 
ATOM      6  C   UNL     1      38.552   3.913  -9.536  1.00  0.00    -0.020 C 
ATOM      7  C   UNL     1      38.283   4.521  -8.156  1.00  0.00     0.016 C 
ATOM      8  C   UNL     1      39.667   5.014  -7.763  1.00  0.00     0.023 C 
ATOM      9  C   UNL     1      40.590   3.804  -8.101  1.00  0.00    -0.025 C 
ATOM     10  C   UNL     1      42.060   4.218  -8.369  1.00  0.00     0.012 C 
ATOM     11  C   UNL     1      40.614   2.830  -6.893  1.00  0.00     0.012 C 
ATOM     12  C   UNL     1      39.974   6.236  -8.629  1.00  0.00    -0.045 C 
ATOM     13  C   UNL     1      40.662   7.264  -8.108  1.00  0.00     0.011 C 
ATOM     14  C   UNL     1      39.653   6.209 -10.129  1.00  0.00     0.140 C 
ATOM     15  C   UNL     1      38.641   5.096 -10.549  1.00  0.00     0.044 C 
ENDROOT
BRANCH  14  16
ATOM     16  O   UNL     1      39.191   7.463 -10.566  1.00  0.00    -0.389 OA
ATOM     17  H   UNL     1      38.251   7.345 -10.865  1.00  0.00     0.211 HD
ENDBRANCH  14  16
TORSDOF 1
ENDMDL
MODEL 4
REMARK VINA RESULT:    -5.138     15.147     16.668
REMARK INTER + INTRA:          -5.288
REMARK INTER:                  -5.288
REMARK INTRA:                   0.000
REMARK UNBOUND:                 0.000
REMARK SMILES C=C1[C@H](O)C[C@]23C[C@H]1C(C)(C)[C@H]2CC[C@@H]3C
REMARK SMILES IDX 16 1 15 2 14 3 13 4 12 5 6 6 7 7 8 8 9 9 10 10 11 11 2 12
REMARK SMILES IDX 1 13 3 14 5 15 4 16
REMARK H PARENT 4 17
REMARK Flexibility Score: inf
ROOT
ATOM      1  C   UNL     1      34.379  10.604   2.837  1.00  0.00     0.008 C 
ATOM      2  C   UNL     1      35.420  10.289   3.921  1.00  0.00    -0.008 C 
ATOM      3  C   UNL     1      35.487  11.392   4.974  1.00  0.00     0.004 C 
ATOM      4  C   UNL     1      36.131  10.732   6.179  1.00  0.00     0.005 C 
ATOM      5  C   UNL     1      35.543   9.313   6.196  1.00  0.00     0.002 C 
ATOM      6  C   UNL     1      35.213   8.967   4.724  1.00  0.00    -0.020 C 
ATOM      7  C   UNL     1      36.219   7.873   4.350  1.00  0.00     0.016 C 
ATOM      8  C   UNL     1      36.270   7.053   5.629  1.00  0.00     0.023 C 
ATOM      9  C   UNL     1      36.417   8.132   6.744  1.00  0.00    -0.025 C 
ATOM     10  C   UNL     1      35.900   7.653   8.125  1.00  0.00     0.012 C 
ATOM     11  C   UNL     1      37.920   8.476   6.924  1.00  0.00     0.012 C 
ATOM     12  C   UNL     1      34.949   6.292   5.731  1.00  0.00    -0.045 C 
ATOM     13  C   UNL     1      34.936   5.047   6.234  1.00  0.00     0.011 C 
ATOM     14  C   UNL     1      33.628   7.010   5.427  1.00  0.00     0.140 C 
ATOM     15  C   UNL     1      33.790   8.336   4.618  1.00  0.00     0.044 C 
ENDROOT
BRANCH  14  16
ATOM     16  O   UNL     1      32.731   6.153   4.763  1.00  0.00    -0.389 OA
ATOM     17  H   UNL     1      32.909   6.236   3.789  1.00  0.00     0.211 HD
ENDBRANCH  14  16
TORSDOF 1
ENDMDL
MODEL 5
REMARK VINA RESULT:    -5.122      2.598      4.746
REMARK INTER + INTRA:          -5.272
REMARK INTER:                  -5.272
REMARK INTRA:                   0.000
REMARK UNBOUND:                 0.000
REMARK SMILES C=C1[C@H](O)C[C@]23C[C@H]1C(C)(C)[C@H]2CC[C@@H]3C
REMARK SMILES IDX 16 1 15 2 14 3 13 4 12 5 6 6 7 7 8 8 9 9 10 10 11 11 2 12
REMARK SMILES IDX 1 13 3 14 5 15 4 16
REMARK H PARENT 4 17
REMARK Flexibility Score: inf
ROOT
ATOM      1  C   UNL     1      42.424   1.974  -5.770  1.00  0.00     0.008 C 
ATOM      2  C   UNL     1      42.999   2.680  -7.006  1.00  0.00    -0.008 C 
ATOM      3  C   UNL     1      44.042   1.819  -7.713  1.00  0.00     0.004 C 
ATOM      4  C   UNL     1      44.123   2.389  -9.117  1.00  0.00     0.005 C 
ATOM      5  C   UNL     1      42.672   2.756  -9.462  1.00  0.00     0.002 C 
ATOM      6  C   UNL     1      41.979   3.083  -8.118  1.00  0.00    -0.020 C 
ATOM      7  C   UNL     1      41.718   4.591  -8.174  1.00  0.00     0.016 C 
ATOM      8  C   UNL     1      41.315   4.779  -9.628  1.00  0.00     0.023 C 
ATOM      9  C   UNL     1      42.400   3.976 -10.409  1.00  0.00    -0.025 C 
ATOM     10  C   UNL     1      41.917   3.500 -11.803  1.00  0.00     0.012 C 
ATOM     11  C   UNL     1      43.632   4.889 -10.650  1.00  0.00     0.012 C 
ATOM     12  C   UNL     1      39.920   4.176  -9.791  1.00  0.00    -0.045 C 
ATOM     13  C   UNL     1      39.037   4.761 -10.616  1.00  0.00     0.011 C 
ATOM     14  C   UNL     1      39.596   2.817  -9.157  1.00  0.00     0.140 C 
ATOM     15  C   UNL     1      40.589   2.380  -8.036  1.00  0.00     0.044 C 
ENDROOT
BRANCH  14  16
ATOM     16  O   UNL     1      38.279   2.796  -8.664  1.00  0.00    -0.389 OA
ATOM     17  H   UNL     1      38.310   3.117  -7.724  1.00  0.00     0.211 HD
ENDBRANCH  14  16
TORSDOF 1
ENDMDL
MODEL 6
REMARK VINA RESULT:    -5.116     14.679     16.298
REMARK INTER + INTRA:          -5.266
REMARK INTER:                  -5.266
REMARK INTRA:                   0.000
REMARK UNBOUND:                 0.000
REMARK SMILES C=C1[C@H](O)C[C@]23C[C@H]1C(C)(C)[C@H]2CC[C@@H]3C
REMARK SMILES IDX 16 1 15 2 14 3 13 4 12 5 6 6 7 7 8 8 9 9 10 10 11 11 2 12
REMARK SMILES IDX 1 13 3 14 5 15 4 16
REMARK H PARENT 4 17
REMARK Flexibility Score: inf
ROOT
ATOM      1  C   UNL     1      35.547   4.274   7.381  1.00  0.00     0.008 C 
ATOM      2  C   UNL     1      35.141   5.311   6.323  1.00  0.00    -0.008 C 
ATOM      3  C   UNL     1      33.936   6.132   6.774  1.00  0.00     0.004 C 
ATOM      4  C   UNL     1      33.983   7.383   5.916  1.00  0.00     0.005 C 
ATOM      5  C   UNL     1      35.480   7.710   5.801  1.00  0.00     0.002 C 
ATOM      6  C   UNL     1      36.226   6.360   5.922  1.00  0.00    -0.020 C 
ATOM      7  C   UNL     1      36.809   6.115   4.527  1.00  0.00     0.016 C 
ATOM      8  C   UNL     1      37.244   7.516   4.126  1.00  0.00     0.023 C 
ATOM      9  C   UNL     1      36.012   8.396   4.496  1.00  0.00    -0.025 C 
ATOM     10  C   UNL     1      36.381   9.879   4.758  1.00  0.00     0.012 C 
ATOM     11  C   UNL     1      35.009   8.388   3.312  1.00  0.00     0.012 C 
ATOM     12  C   UNL     1      38.475   7.863   4.964  1.00  0.00    -0.045 C 
ATOM     13  C   UNL     1      39.466   8.587   4.420  1.00  0.00     0.011 C 
ATOM     14  C   UNL     1      38.495   7.538   6.463  1.00  0.00     0.140 C 
ATOM     15  C   UNL     1      37.429   6.487   6.906  1.00  0.00     0.044 C 
ENDROOT
BRANCH  14  16
ATOM     16  O   UNL     1      39.775   7.119   6.868  1.00  0.00    -0.389 OA
ATOM     17  H   UNL     1      40.324   7.008   6.047  1.00  0.00     0.211 HD
ENDBRANCH  14  16
TORSDOF 1
ENDMDL
MODEL 7
REMARK VINA RESULT:    -5.042     14.780     16.763
REMARK INTER + INTRA:          -5.189
REMARK INTER:                  -5.189
REMARK INTRA:                   0.000
REMARK UNBOUND:                 0.000
REMARK SMILES C=C1[C@H](O)C[C@]23C[C@H]1C(C)(C)[C@H]2CC[C@@H]3C
REMARK SMILES IDX 16 1 15 2 14 3 13 4 12 5 6 6 7 7 8 8 9 9 10 10 11 11 2 12
REMARK SMILES IDX 1 13 3 14 5 15 4 16
REMARK H PARENT 4 17
REMARK Flexibility Score: inf
ROOT
ATOM      1  C   UNL     1      35.236   5.363   6.023  1.00  0.00     0.008 C 
ATOM      2  C   UNL     1      35.903   6.659   6.505  1.00  0.00    -0.008 C 
ATOM      3  C   UNL     1      37.412   6.493   6.656  1.00  0.00     0.004 C 
ATOM      4  C   UNL     1      37.958   7.909   6.627  1.00  0.00     0.005 C 
ATOM      5  C   UNL     1      37.091   8.630   5.584  1.00  0.00     0.002 C 
ATOM      6  C   UNL     1      35.716   7.918   5.601  1.00  0.00    -0.020 C 
ATOM      7  C   UNL     1      34.755   8.949   6.199  1.00  0.00     0.016 C 
ATOM      8  C   UNL     1      35.255  10.239   5.566  1.00  0.00     0.023 C 
ATOM      9  C   UNL     1      36.800  10.160   5.761  1.00  0.00    -0.025 C 
ATOM     10  C   UNL     1      37.586  10.999   4.721  1.00  0.00     0.012 C 
ATOM     11  C   UNL     1      37.165  10.725   7.159  1.00  0.00     0.012 C 
ATOM     12  C   UNL     1      34.855  10.202   4.092  1.00  0.00    -0.045 C 
ATOM     13  C   UNL     1      34.482  11.336   3.477  1.00  0.00     0.011 C 
ATOM     14  C   UNL     1      35.049   8.916   3.279  1.00  0.00     0.140 C 
ATOM     15  C   UNL     1      35.233   7.631   4.146  1.00  0.00     0.044 C 
ENDROOT
BRANCH  14  16
ATOM     16  O   UNL     1      33.991   8.731   2.371  1.00  0.00    -0.389 OA
ATOM     17  H   UNL     1      34.387   8.681   1.461  1.00  0.00     0.211 HD
ENDBRANCH  14  16
TORSDOF 1
ENDMDL
MODEL 8
REMARK VINA RESULT:    -4.989     14.954     16.536
REMARK INTER + INTRA:          -5.135
REMARK INTER:                  -5.135
REMARK INTRA:                   0.000
REMARK UNBOUND:                 0.000
REMARK SMILES C=C1[C@H](O)C[C@]23C[C@H]1C(C)(C)[C@H]2CC[C@@H]3C
REMARK SMILES IDX 16 1 15 2 14 3 13 4 12 5 6 6 7 7 8 8 9 9 10 10 11 11 2 12
REMARK SMILES IDX 1 13 3 14 5 15 4 16
REMARK H PARENT 4 17
REMARK Flexibility Score: inf
ROOT
ATOM      1  C   UNL     1      39.104   6.882   7.754  1.00  0.00     0.008 C 
ATOM      2  C   UNL     1      38.397   7.999   6.973  1.00  0.00    -0.008 C 
ATOM      3  C   UNL     1      39.234   8.474   5.789  1.00  0.00     0.004 C 
ATOM      4  C   UNL     1      38.242   9.156   4.866  1.00  0.00     0.005 C 
ATOM      5  C   UNL     1      36.976   8.292   4.963  1.00  0.00     0.002 C 
ATOM      6  C   UNL     1      36.998   7.653   6.372  1.00  0.00    -0.020 C 
ATOM      7  C   UNL     1      35.842   8.326   7.119  1.00  0.00     0.016 C 
ATOM      8  C   UNL     1      34.784   8.416   6.030  1.00  0.00     0.023 C 
ATOM      9  C   UNL     1      35.573   8.974   4.807  1.00  0.00    -0.025 C 
ATOM     10  C   UNL     1      34.925   8.606   3.447  1.00  0.00     0.012 C 
ATOM     11  C   UNL     1      35.601  10.524   4.884  1.00  0.00     0.012 C 
ATOM     12  C   UNL     1      34.265   6.999   5.787  1.00  0.00    -0.045 C 
ATOM     13  C   UNL     1      32.967   6.807   5.503  1.00  0.00     0.011 C 
ATOM     14  C   UNL     1      35.253   5.829   5.692  1.00  0.00     0.140 C 
ATOM     15  C   UNL     1      36.664   6.131   6.287  1.00  0.00     0.044 C 
ENDROOT
BRANCH  14  16
ATOM     16  O   UNL     1      34.721   4.673   6.290  1.00  0.00    -0.389 OA
ATOM     17  H   UNL     1      35.273   3.903   5.989  1.00  0.00     0.211 HD
ENDBRANCH  14  16
TORSDOF 1
ENDMDL
