MODEL 1
REMARK VINA RESULT:    -3.147      0.000      0.000
REMARK INTER + INTRA:          -3.740
REMARK INTER:                  -3.699
REMARK INTRA:                  -0.041
REMARK UNBOUND:                -0.041
REMARK SMILES CCCCC(=O)[O-]
REMARK SMILES IDX 4 1 5 2 6 3 7 4 3 5 2 6 1 7
REMARK H PARENT
REMARK Flexibility Score: inf
ROOT
ATOM      1  C   UNL     1      -5.251  -3.727   2.256  1.00  0.00     0.053 C 
ENDROOT
BRANCH   1   2
ATOM      2  C   UNL     1      -4.767  -4.146   0.903  1.00  0.00     0.041 C 
ATOM      3  O   UNL     1      -4.490  -5.353   0.676  1.00  0.00    -0.550 OA
ATOM      4  O   UNL     1      -4.668  -3.212  -0.119  1.00  0.00    -0.550 OA
ENDBRANCH   1   2
BRANCH   1   5
ATOM      5  C   UNL     1      -4.856  -2.271   2.539  1.00  0.00     0.006 C 
BRANCH   5   6
ATOM      6  C   UNL     1      -4.450  -2.045   4.003  1.00  0.00    -0.003 C 
ATOM      7  C   UNL     1      -4.726  -3.259   4.888  1.00  0.00     0.004 C 
ENDBRANCH   5   6
ENDBRANCH   1   5
TORSDOF 3
ENDMDL
MODEL 2
REMARK VINA RESULT:    -2.958      2.686      3.876
REMARK INTER + INTRA:          -3.517
REMARK INTER:                  -3.463
REMARK INTRA:                  -0.054
REMARK UNBOUND:                -0.041
REMARK SMILES CCCCC(=O)[O-]
REMARK SMILES IDX 4 1 5 2 6 3 7 4 3 5 2 6 1 7
REMARK H PARENT
REMARK Flexibility Score: inf
ROOT
ATOM      1  C   UNL     1      -6.388  -5.535  -0.857  1.00  0.00     0.053 C 
ENDROOT
BRANCH   1   2
ATOM      2  C   UNL     1      -5.956  -5.422  -2.286  1.00  0.00     0.041 C 
ATOM      3  O   UNL     1      -6.294  -4.421  -2.972  1.00  0.00    -0.550 OA
ATOM      4  O   UNL     1      -5.142  -6.397  -2.845  1.00  0.00    -0.550 OA
ENDBRANCH   1   2
BRANCH   1   5
ATOM      5  C   UNL     1      -5.224  -5.191   0.082  1.00  0.00     0.006 C 
BRANCH   5   6
ATOM      6  C   UNL     1      -4.998  -3.678   0.211  1.00  0.00    -0.003 C 
ATOM      7  C   UNL     1      -4.905  -3.215   1.664  1.00  0.00     0.004 C 
ENDBRANCH   5   6
ENDBRANCH   1   5
TORSDOF 3
ENDMDL
MODEL 3
REMARK VINA RESULT:    -2.947      2.166      3.842
REMARK INTER + INTRA:          -3.505
REMARK INTER:                  -3.427
REMARK INTRA:                  -0.078
REMARK UNBOUND:                -0.041
REMARK SMILES CCCCC(=O)[O-]
REMARK SMILES IDX 4 1 5 2 6 3 7 4 3 5 2 6 1 7
REMARK H PARENT
REMARK Flexibility Score: inf
ROOT
ATOM      1  C   UNL     1      -5.438  -4.849   1.893  1.00  0.00     0.053 C 
ENDROOT
BRANCH   1   2
ATOM      2  C   UNL     1      -5.113  -3.535   2.533  1.00  0.00     0.041 C 
ATOM      3  O   UNL     1      -4.919  -3.467   3.775  1.00  0.00    -0.550 OA
ATOM      4  O   UNL     1      -4.977  -2.397   1.751  1.00  0.00    -0.550 OA
ENDBRANCH   1   2
BRANCH   1   5
ATOM      5  C   UNL     1      -4.683  -4.999   0.566  1.00  0.00     0.006 C 
BRANCH   5   6
ATOM      6  C   UNL     1      -5.615  -5.341  -0.606  1.00  0.00    -0.003 C 
ATOM      7  C   UNL     1      -7.063  -5.556  -0.169  1.00  0.00     0.004 C 
ENDBRANCH   5   6
ENDBRANCH   1   5
TORSDOF 3
ENDMDL
MODEL 4
REMARK VINA RESULT:    -2.896      4.699      5.718
REMARK INTER + INTRA:          -3.444
REMARK INTER:                  -3.358
REMARK INTRA:                  -0.086
REMARK UNBOUND:                -0.041
REMARK SMILES CCCCC(=O)[O-]
REMARK SMILES IDX 4 1 5 2 6 3 7 4 3 5 2 6 1 7
REMARK H PARENT
REMARK Flexibility Score: inf
ROOT
ATOM      1  C   UNL     1      -2.301  -0.260   6.462  1.00  0.00     0.053 C 
ENDROOT
BRANCH   1   2
ATOM      2  C   UNL     1      -1.437   0.415   5.443  1.00  0.00     0.041 C 
ATOM      3  O   UNL     1      -0.399  -0.156   5.016  1.00  0.00    -0.550 OA
ATOM      4  O   UNL     1      -1.803   1.652   4.931  1.00  0.00    -0.550 OA
ENDBRANCH   1   2
BRANCH   1   5
ATOM      5  C   UNL     1      -3.733  -0.413   5.931  1.00  0.00     0.006 C 
BRANCH   5   6
ATOM      6  C   UNL     1      -3.823  -1.394   4.752  1.00  0.00    -0.003 C 
ATOM      7  C   UNL     1      -4.575  -2.677   5.106  1.00  0.00     0.004 C 
ENDBRANCH   5   6
ENDBRANCH   1   5
TORSDOF 3
ENDMDL
MODEL 5
REMARK VINA RESULT:    -2.894      3.076      5.334
REMARK INTER + INTRA:          -3.442
REMARK INTER:                  -3.423
REMARK INTRA:                  -0.020
REMARK UNBOUND:                -0.041
REMARK SMILES CCCCC(=O)[O-]
REMARK SMILES IDX 4 1 5 2 6 3 7 4 3 5 2 6 1 7
REMARK H PARENT
REMARK Flexibility Score: inf
ROOT
ATOM      1  C   UNL     1      -6.283  -5.370  -0.063  1.00  0.00     0.053 C 
ENDROOT
BRANCH   1   2
ATOM      2  C   UNL     1      -5.242  -4.941   0.923  1.00  0.00     0.041 C 
ATOM      3  O   UNL     1      -4.357  -4.110   0.588  1.00  0.00    -0.550 OA
ATOM      4  O   UNL     1      -5.278  -5.421   2.225  1.00  0.00    -0.550 OA
ENDBRANCH   1   2
BRANCH   1   5
ATOM      5  C   UNL     1      -5.670  -5.511  -1.462  1.00  0.00     0.006 C 
BRANCH   5   6
ATOM      6  C   UNL     1      -6.703  -5.927  -2.519  1.00  0.00    -0.003 C 
ATOM      7  C   UNL     1      -6.094  -6.760  -3.646  1.00  0.00     0.004 C 
ENDBRANCH   5   6
ENDBRANCH   1   5
TORSDOF 3
ENDMDL
MODEL 6
REMARK VINA RESULT:    -2.742      1.767      2.575
REMARK INTER + INTRA:          -3.263
REMARK INTER:                  -3.199
REMARK INTRA:                  -0.064
REMARK UNBOUND:                -0.041
REMARK SMILES CCCCC(=O)[O-]
REMARK SMILES IDX 4 1 5 2 6 3 7 4 3 5 2 6 1 7
REMARK H PARENT
REMARK Flexibility Score: inf
ROOT
ATOM      1  C   UNL     1      -4.785  -3.323   0.671  1.00  0.00     0.053 C 
ENDROOT
BRANCH   1   2
ATOM      2  C   UNL     1      -5.071  -4.790   0.754  1.00  0.00     0.041 C 
ATOM      3  O   UNL     1      -5.105  -5.488  -0.294  1.00  0.00    -0.550 OA
ATOM      4  O   UNL     1      -5.251  -5.394   1.990  1.00  0.00    -0.550 OA
ENDBRANCH   1   2
BRANCH   1   5
ATOM      5  C   UNL     1      -4.950  -2.668   2.049  1.00  0.00     0.006 C 
BRANCH   5   6
ATOM      6  C   UNL     1      -6.072  -1.619   2.072  1.00  0.00    -0.003 C 
ATOM      7  C   UNL     1      -6.262  -0.927   0.723  1.00  0.00     0.004 C 
ENDBRANCH   5   6
ENDBRANCH   1   5
TORSDOF 3
ENDMDL
MODEL 7
REMARK VINA RESULT:    -2.719      4.468      5.433
REMARK INTER + INTRA:          -3.236
REMARK INTER:                  -3.180
REMARK INTRA:                  -0.057
REMARK UNBOUND:                -0.041
REMARK SMILES CCCCC(=O)[O-]
REMARK SMILES IDX 4 1 5 2 6 3 7 4 3 5 2 6 1 7
REMARK H PARENT
REMARK Flexibility Score: inf
ROOT
ATOM      1  C   UNL     1      -3.012  -0.147   5.846  1.00  0.00     0.053 C 
ENDROOT
BRANCH   1   2
ATOM      2  C   UNL     1      -3.750  -1.363   5.380  1.00  0.00     0.041 C 
ATOM      3  O   UNL     1      -3.947  -1.551   4.150  1.00  0.00    -0.550 OA
ATOM      4  O   UNL     1      -4.175  -2.312   6.299  1.00  0.00    -0.550 OA
ENDBRANCH   1   2
BRANCH   1   5
ATOM      5  C   UNL     1      -1.816   0.138   4.927  1.00  0.00     0.006 C 
BRANCH   5   6
ATOM      6  C   UNL     1      -0.469  -0.015   5.649  1.00  0.00    -0.003 C 
ATOM      7  C   UNL     1      -0.573   0.231   7.153  1.00  0.00     0.004 C 
ENDBRANCH   5   6
ENDBRANCH   1   5
TORSDOF 3
ENDMDL
MODEL 8
REMARK VINA RESULT:    -2.713      2.082      3.692
REMARK INTER + INTRA:          -3.230
REMARK INTER:                  -3.186
REMARK INTRA:                  -0.043
REMARK UNBOUND:                -0.041
REMARK SMILES CCCCC(=O)[O-]
REMARK SMILES IDX 4 1 5 2 6 3 7 4 3 5 2 6 1 7
REMARK H PARENT
REMARK Flexibility Score: inf
ROOT
ATOM      1  C   UNL     1      -5.226  -3.960   3.125  1.00  0.00     0.053 C 
ENDROOT
BRANCH   1   2
ATOM      2  C   UNL     1      -5.109  -2.489   2.872  1.00  0.00     0.041 C 
ATOM      3  O   UNL     1      -4.263  -1.804   3.503  1.00  0.00    -0.550 OA
ATOM      4  O   UNL     1      -5.900  -1.886   1.904  1.00  0.00    -0.550 OA
ENDBRANCH   1   2
BRANCH   1   5
ATOM      5  C   UNL     1      -5.824  -4.668   1.902  1.00  0.00     0.006 C 
BRANCH   5   6
ATOM      6  C   UNL     1      -4.776  -4.954   0.816  1.00  0.00    -0.003 C 
ATOM      7  C   UNL     1      -5.402  -5.323  -0.528  1.00  0.00     0.004 C 
ENDBRANCH   5   6
ENDBRANCH   1   5
TORSDOF 3
ENDMDL
MODEL 9
REMARK VINA RESULT:    -2.690      5.908      6.894
REMARK INTER + INTRA:          -3.202
REMARK INTER:                  -3.118
REMARK INTRA:                  -0.084
REMARK UNBOUND:                -0.041
REMARK SMILES CCCCC(=O)[O-]
REMARK SMILES IDX 4 1 5 2 6 3 7 4 3 5 2 6 1 7
REMARK H PARENT
REMARK Flexibility Score: inf
ROOT
ATOM      1  C   UNL     1      -0.996   0.794   5.955  1.00  0.00     0.053 C 
ENDROOT
BRANCH   1   2
ATOM      2  C   UNL     1      -0.569  -0.076   7.096  1.00  0.00     0.041 C 
ATOM      3  O   UNL     1      -0.921   0.206   8.272  1.00  0.00    -0.550 OA
ATOM      4  O   UNL     1       0.175  -1.222   6.856  1.00  0.00    -0.550 OA
ENDBRANCH   1   2
BRANCH   1   5
ATOM      5  C   UNL     1      -1.908   0.013   5.000  1.00  0.00     0.006 C 
BRANCH   5   6
ATOM      6  C   UNL     1      -3.205  -0.456   5.675  1.00  0.00    -0.003 C 
ATOM      7  C   UNL     1      -3.967  -1.486   4.843  1.00  0.00     0.004 C 
ENDBRANCH   5   6
ENDBRANCH   1   5
TORSDOF 3
ENDMDL
