MODEL 1
REMARK VINA RESULT:    -4.290      0.000      0.000
REMARK INTER + INTRA:          -4.828
REMARK INTER:                  -4.792
REMARK INTRA:                  -0.036
REMARK UNBOUND:                -0.036
REMARK SMILES O=C([O-])c1ccc(O)c(O)c1
REMARK SMILES IDX 4 1 11 2 5 3 9 4 6 5 7 6 2 7 1 8 3 9 10 10 8 12
REMARK H PARENT 10 11 8 13
REMARK Flexibility Score: inf
ROOT
ATOM      1  C   UNL     1     147.795 161.286 160.860  1.00  0.00     0.001 A 
ATOM      2  C   UNL     1     146.612 161.243 161.616  1.00  0.00     0.060 A 
ATOM      3  C   UNL     1     148.409 160.078 160.483  1.00  0.00     0.014 A 
ATOM      4  C   UNL     1     146.049 160.013 161.992  1.00  0.00     0.158 A 
ATOM      5  C   UNL     1     147.849 158.853 160.857  1.00  0.00     0.051 A 
ATOM      6  C   UNL     1     146.672 158.814 161.610  1.00  0.00     0.157 A 
ENDROOT
BRANCH   1   7
ATOM      7  C   UNL     1     148.383 162.585 160.466  1.00  0.00     0.072 C 
ATOM      8  O   UNL     1     148.996 163.294 161.309  1.00  0.00    -0.545 OA
ATOM      9  O   UNL     1     148.268 163.044 159.159  1.00  0.00    -0.545 OA
ENDBRANCH   1   7
BRANCH   4  10
ATOM     10  O   UNL     1     144.875 159.981 162.743  1.00  0.00    -0.504 OA
ATOM     11  H   UNL     1     144.202 160.739 162.711  1.00  0.00     0.293 HD
ENDBRANCH   4  10
BRANCH   6  12
ATOM     12  O   UNL     1     146.138 157.577 161.968  1.00  0.00    -0.504 OA
ATOM     13  H   UNL     1     146.722 156.770 162.146  1.00  0.00     0.293 HD
ENDBRANCH   6  12
TORSDOF 3
ENDMDL
MODEL 2
REMARK VINA RESULT:    -4.173      1.275      4.269
REMARK INTER + INTRA:          -4.697
REMARK INTER:                  -4.662
REMARK INTRA:                  -0.036
REMARK UNBOUND:                -0.036
REMARK SMILES O=C([O-])c1ccc(O)c(O)c1
REMARK SMILES IDX 4 1 11 2 5 3 9 4 6 5 7 6 2 7 1 8 3 9 10 10 8 12
REMARK H PARENT 10 11 8 13
REMARK Flexibility Score: inf
ROOT
ATOM      1  C   UNL     1     147.217 159.488 161.231  1.00  0.00     0.001 A 
ATOM      2  C   UNL     1     146.680 160.786 161.274  1.00  0.00     0.060 A 
ATOM      3  C   UNL     1     148.566 159.320 160.870  1.00  0.00     0.014 A 
ATOM      4  C   UNL     1     147.475 161.899 160.962  1.00  0.00     0.158 A 
ATOM      5  C   UNL     1     149.359 160.427 160.559  1.00  0.00     0.051 A 
ATOM      6  C   UNL     1     148.821 161.717 160.602  1.00  0.00     0.157 A 
ENDROOT
BRANCH   1   7
ATOM      7  C   UNL     1     146.374 158.318 161.563  1.00  0.00     0.072 C 
ATOM      8  O   UNL     1     145.654 157.777 160.682  1.00  0.00    -0.545 OA
ATOM      9  O   UNL     1     146.362 157.800 162.852  1.00  0.00    -0.545 OA
ENDBRANCH   1   7
BRANCH   4  10
ATOM     10  O   UNL     1     146.933 163.182 161.007  1.00  0.00    -0.504 OA
ATOM     11  H   UNL     1     146.173 163.416 161.636  1.00  0.00     0.293 HD
ENDBRANCH   4  10
BRANCH   6  12
ATOM     12  O   UNL     1     149.637 162.802 160.287  1.00  0.00    -0.504 OA
ATOM     13  H   UNL     1     149.991 162.955 159.351  1.00  0.00     0.293 HD
ENDBRANCH   6  12
TORSDOF 3
ENDMDL
MODEL 3
REMARK VINA RESULT:    -3.699     19.609     20.951
REMARK INTER + INTRA:          -4.168
REMARK INTER:                  -4.132
REMARK INTRA:                  -0.036
REMARK UNBOUND:                -0.036
REMARK SMILES O=C([O-])c1ccc(O)c(O)c1
REMARK SMILES IDX 4 1 11 2 5 3 9 4 6 5 7 6 2 7 1 8 3 9 10 10 8 12
REMARK H PARENT 10 11 8 13
REMARK Flexibility Score: inf
ROOT
ATOM      1  C   UNL     1     159.503 147.814 170.999  1.00  0.00     0.001 A 
ATOM      2  C   UNL     1     158.851 146.815 170.257  1.00  0.00     0.060 A 
ATOM      3  C   UNL     1     160.652 147.476 171.737  1.00  0.00     0.014 A 
ATOM      4  C   UNL     1     159.336 145.498 170.251  1.00  0.00     0.158 A 
ATOM      5  C   UNL     1     161.136 146.165 171.731  1.00  0.00     0.051 A 
ATOM      6  C   UNL     1     160.484 145.173 170.991  1.00  0.00     0.157 A 
ENDROOT
BRANCH   1   7
ATOM      7  C   UNL     1     158.987 149.201 171.001  1.00  0.00     0.072 C 
ATOM      8  O   UNL     1     158.033 149.529 171.756  1.00  0.00    -0.545 OA
ATOM      9  O   UNL     1     159.547 150.163 170.169  1.00  0.00    -0.545 OA
ENDBRANCH   1   7
BRANCH   4  10
ATOM     10  O   UNL     1     158.682 144.514 169.511  1.00  0.00    -0.504 OA
ATOM     11  H   UNL     1     158.655 144.540 168.498  1.00  0.00     0.293 HD
ENDBRANCH   4  10
BRANCH   6  12
ATOM     12  O   UNL     1     160.991 143.875 171.005  1.00  0.00    -0.504 OA
ATOM     13  H   UNL     1     161.986 143.686 171.011  1.00  0.00     0.293 HD
ENDBRANCH   6  12
TORSDOF 3
ENDMDL
MODEL 4
REMARK VINA RESULT:    -3.672      1.478      4.710
REMARK INTER + INTRA:          -4.137
REMARK INTER:                  -4.101
REMARK INTRA:                  -0.036
REMARK UNBOUND:                -0.036
REMARK SMILES O=C([O-])c1ccc(O)c(O)c1
REMARK SMILES IDX 4 1 11 2 5 3 9 4 6 5 7 6 2 7 1 8 3 9 10 10 8 12
REMARK H PARENT 10 11 8 13
REMARK Flexibility Score: inf
ROOT
ATOM      1  C   UNL     1     147.148 159.453 161.290  1.00  0.00     0.001 A 
ATOM      2  C   UNL     1     148.500 159.204 160.999  1.00  0.00     0.060 A 
ATOM      3  C   UNL     1     146.685 160.781 161.299  1.00  0.00     0.014 A 
ATOM      4  C   UNL     1     149.377 160.263 160.722  1.00  0.00     0.158 A 
ATOM      5  C   UNL     1     147.558 161.836 161.022  1.00  0.00     0.051 A 
ATOM      6  C   UNL     1     148.903 161.585 160.733  1.00  0.00     0.157 A 
ENDROOT
BRANCH   1   7
ATOM      7  C   UNL     1     146.227 158.332 161.582  1.00  0.00     0.072 C 
ATOM      8  O   UNL     1     145.567 157.787 160.658  1.00  0.00    -0.545 OA
ATOM      9  O   UNL     1     146.077 157.864 162.882  1.00  0.00    -0.545 OA
ENDBRANCH   1   7
BRANCH   4  10
ATOM     10  O   UNL     1     150.717 160.006 160.434  1.00  0.00    -0.504 OA
ATOM     11  H   UNL     1     151.358 160.748 160.176  1.00  0.00     0.293 HD
ENDBRANCH   4  10
BRANCH   6  12
ATOM     12  O   UNL     1     149.749 162.658 160.461  1.00  0.00    -0.504 OA
ATOM     13  H   UNL     1     149.881 163.014 159.522  1.00  0.00     0.293 HD
ENDBRANCH   6  12
TORSDOF 3
ENDMDL
MODEL 5
REMARK VINA RESULT:    -3.522     13.789     14.813
REMARK INTER + INTRA:          -3.969
REMARK INTER:                  -3.925
REMARK INTRA:                  -0.044
REMARK UNBOUND:                -0.036
REMARK SMILES O=C([O-])c1ccc(O)c(O)c1
REMARK SMILES IDX 4 1 11 2 5 3 9 4 6 5 7 6 2 7 1 8 3 9 10 10 8 12
REMARK H PARENT 10 11 8 13
REMARK Flexibility Score: inf
ROOT
ATOM      1  C   UNL     1     161.663 163.185 163.585  1.00  0.00     0.001 A 
ATOM      2  C   UNL     1     161.892 162.205 164.566  1.00  0.00     0.060 A 
ATOM      3  C   UNL     1     160.637 164.125 163.785  1.00  0.00     0.014 A 
ATOM      4  C   UNL     1     161.109 162.164 165.730  1.00  0.00     0.158 A 
ATOM      5  C   UNL     1     159.857 164.085 164.944  1.00  0.00     0.051 A 
ATOM      6  C   UNL     1     160.087 163.109 165.918  1.00  0.00     0.157 A 
ENDROOT
BRANCH   1   7
ATOM      7  C   UNL     1     162.493 163.223 162.359  1.00  0.00     0.072 C 
ATOM      8  O   UNL     1     162.320 164.125 161.496  1.00  0.00    -0.545 OA
ATOM      9  O   UNL     1     163.475 162.264 162.143  1.00  0.00    -0.545 OA
ENDBRANCH   1   7
BRANCH   4  10
ATOM     10  O   UNL     1     161.344 161.189 166.698  1.00  0.00    -0.504 OA
ATOM     11  H   UNL     1     160.599 160.833 167.285  1.00  0.00     0.293 HD
ENDBRANCH   4  10
BRANCH   6  12
ATOM     12  O   UNL     1     159.293 163.095 167.063  1.00  0.00    -0.504 OA
ATOM     13  H   UNL     1     158.376 163.523 167.087  1.00  0.00     0.293 HD
ENDBRANCH   6  12
TORSDOF 3
ENDMDL
MODEL 6
REMARK VINA RESULT:    -3.326     20.477     21.888
REMARK INTER + INTRA:          -3.751
REMARK INTER:                  -3.715
REMARK INTRA:                  -0.036
REMARK UNBOUND:                -0.036
REMARK SMILES O=C([O-])c1ccc(O)c(O)c1
REMARK SMILES IDX 4 1 11 2 5 3 9 4 6 5 7 6 2 7 1 8 3 9 10 10 8 12
REMARK H PARENT 10 11 8 13
REMARK Flexibility Score: inf
ROOT
ATOM      1  C   UNL     1     159.284 145.598 170.313  1.00  0.00     0.001 A 
ATOM      2  C   UNL     1     159.546 146.915 170.726  1.00  0.00     0.060 A 
ATOM      3  C   UNL     1     159.940 144.536 170.962  1.00  0.00     0.014 A 
ATOM      4  C   UNL     1     160.448 147.170 171.771  1.00  0.00     0.158 A 
ATOM      5  C   UNL     1     160.838 144.789 172.002  1.00  0.00     0.051 A 
ATOM      6  C   UNL     1     161.096 146.101 172.411  1.00  0.00     0.157 A 
ENDROOT
BRANCH   1   7
ATOM      7  C   UNL     1     158.332 145.335 169.211  1.00  0.00     0.072 C 
ATOM      8  O   UNL     1     157.132 145.041 169.458  1.00  0.00    -0.545 OA
ATOM      9  O   UNL     1     158.748 145.409 167.887  1.00  0.00    -0.545 OA
ENDBRANCH   1   7
BRANCH   4  10
ATOM     10  O   UNL     1     160.701 148.481 172.173  1.00  0.00    -0.504 OA
ATOM     11  H   UNL     1     160.016 149.217 172.048  1.00  0.00     0.293 HD
ENDBRANCH   4  10
BRANCH   6  12
ATOM     12  O   UNL     1     161.997 146.322 173.452  1.00  0.00    -0.504 OA
ATOM     13  H   UNL     1     162.384 147.238 173.642  1.00  0.00     0.293 HD
ENDBRANCH   6  12
TORSDOF 3
ENDMDL
MODEL 7
REMARK VINA RESULT:    -2.998     14.401     15.905
REMARK INTER + INTRA:          -3.385
REMARK INTER:                  -3.345
REMARK INTRA:                  -0.040
REMARK UNBOUND:                -0.036
REMARK SMILES O=C([O-])c1ccc(O)c(O)c1
REMARK SMILES IDX 4 1 11 2 5 3 9 4 6 5 7 6 2 7 1 8 3 9 10 10 8 12
REMARK H PARENT 10 11 8 13
REMARK Flexibility Score: inf
ROOT
ATOM      1  C   UNL     1     148.666 144.589 161.375  1.00  0.00     0.001 A 
ATOM      2  C   UNL     1     147.890 145.675 160.936  1.00  0.00     0.060 A 
ATOM      3  C   UNL     1     148.257 143.876 162.516  1.00  0.00     0.014 A 
ATOM      4  C   UNL     1     146.724 146.044 161.624  1.00  0.00     0.158 A 
ATOM      5  C   UNL     1     147.096 144.242 163.201  1.00  0.00     0.051 A 
ATOM      6  C   UNL     1     146.326 145.323 162.762  1.00  0.00     0.157 A 
ENDROOT
BRANCH   1   7
ATOM      7  C   UNL     1     149.894 144.205 160.645  1.00  0.00     0.072 C 
ATOM      8  O   UNL     1     150.950 143.919 161.271  1.00  0.00    -0.545 OA
ATOM      9  O   UNL     1     149.902 144.155 159.256  1.00  0.00    -0.545 OA
ENDBRANCH   1   7
BRANCH   4  10
ATOM     10  O   UNL     1     145.960 147.123 161.180  1.00  0.00    -0.504 OA
ATOM     11  H   UNL     1     145.242 147.011 160.473  1.00  0.00     0.293 HD
ENDBRANCH   4  10
BRANCH   6  12
ATOM     12  O   UNL     1     145.173 145.664 163.466  1.00  0.00    -0.504 OA
ATOM     13  H   UNL     1     144.296 145.860 163.000  1.00  0.00     0.293 HD
ENDBRANCH   6  12
TORSDOF 3
ENDMDL
