MODEL 1
REMARK VINA RESULT:    -7.873      0.000      0.000
REMARK INTER + INTRA:         -12.662
REMARK INTER:                 -10.635
REMARK INTRA:                  -2.027
REMARK UNBOUND:                -2.027
REMARK SMILES CC[C@@H](CC[C@H](C)[C@@H]1CC[C@H]2[C@H]3CC(=O)C4=CC(=O)CC[C@]4(C)[C@@H]3CC[C@]21C)C(C)C
REMARK SMILES IDX 4 1 3 2 2 3 1 4 29 5 30 6 31 7 5 8 6 9 7 10 8 11 9 12 27 13
REMARK SMILES IDX 10 14 11 15 26 16 28 17 12 18 25 19 24 20 13 21 22 22 14 23
REMARK SMILES IDX 16 24 21 25 23 26 15 27 17 28 20 29 18 30 19 31
REMARK H PARENT
REMARK Flexibility Score: inf
ROOT
ATOM      1  C   UNL     1      11.074  -5.112  60.331  1.00  0.00     0.004 C 
ENDROOT
BRANCH   1   2
ATOM      2  C   UNL     1      11.469  -5.110  61.845  1.00  0.00    -0.009 C 
BRANCH   2   3
ATOM      3  C   UNL     1      10.906  -6.391  62.529  1.00  0.00     0.000 C 
ATOM      4  C   UNL     1      11.164  -6.471  64.037  1.00  0.00     0.004 C 
ENDBRANCH   2   3
BRANCH   2   5
ATOM      5  C   UNL     1      11.056  -3.796  62.599  1.00  0.00    -0.014 C 
ATOM      6  C   UNL     1       9.583  -3.421  62.368  1.00  0.00     0.007 C 
ATOM      7  C   UNL     1      11.940  -2.600  62.191  1.00  0.00     0.007 C 
ENDBRANCH   2   5
ENDBRANCH   1   2
BRANCH   1   8
ATOM      8  C   UNL     1      11.867  -6.025  59.350  1.00  0.00     0.004 C 
BRANCH   8   9
ATOM      9  C   UNL     1      13.376  -6.338  59.626  1.00  0.00    -0.011 C 
ATOM     10  C   UNL     1      14.121  -6.162  58.284  1.00  0.00     0.008 C 
BRANCH   9  11
ATOM     11  C   UNL     1      13.643  -7.786  60.182  1.00  0.00    -0.002 C 
ATOM     12  C   UNL     1      12.397  -8.654  60.353  1.00  0.00     0.005 C 
ATOM     13  C   UNL     1      14.435  -7.937  61.553  1.00  0.00    -0.026 C 
ATOM     14  C   UNL     1      12.801  -9.734  61.331  1.00  0.00     0.005 C 
ATOM     15  C   UNL     1      13.601  -8.968  62.375  1.00  0.00    -0.001 C 
ATOM     16  C   UNL     1      15.855  -8.492  61.234  1.00  0.00     0.007 C 
ATOM     17  C   UNL     1      14.536  -6.633  62.393  1.00  0.00     0.012 C 
ATOM     18  C   UNL     1      14.363  -9.819  63.451  1.00  0.00     0.004 C 
ATOM     19  C   UNL     1      16.569  -9.073  62.446  1.00  0.00     0.005 C 
ATOM     20  C   UNL     1      15.787 -10.263  63.042  1.00  0.00     0.003 C 
ATOM     21  C   UNL     1      13.533 -11.056  63.857  1.00  0.00     0.085 C 
ATOM     22  C   UNL     1      16.572 -11.011  64.219  1.00  0.00    -0.000 C 
ATOM     23  C   UNL     1      14.197 -11.845  64.932  1.00  0.00     0.159 C 
ATOM     24  C   UNL     1      15.619 -11.621  65.261  1.00  0.00     0.005 C 
ATOM     25  C   UNL     1      17.557 -10.058  64.977  1.00  0.00     0.020 C 
ATOM     26  C   UNL     1      17.375 -12.173  63.581  1.00  0.00     0.017 C 
ATOM     27  O   UNL     1      13.523 -12.712  65.555  1.00  0.00    -0.295 OA
ATOM     28  C   UNL     1      16.055 -11.947  66.494  1.00  0.00     0.055 C 
ATOM     29  C   UNL     1      18.310 -10.742  66.130  1.00  0.00     0.081 C 
ATOM     30  C   UNL     1      17.399 -11.587  66.965  1.00  0.00     0.156 C 
ATOM     31  O   UNL     1      17.790 -11.995  68.090  1.00  0.00    -0.295 OA
ENDBRANCH   9  11
ENDBRANCH   8   9
ENDBRANCH   1   8
TORSDOF 6
ENDMDL
MODEL 2
REMARK VINA RESULT:    -7.731      2.318      4.297
REMARK INTER + INTRA:         -12.470
REMARK INTER:                 -10.898
REMARK INTRA:                  -1.572
REMARK UNBOUND:                -2.027
REMARK SMILES CC[C@@H](CC[C@H](C)[C@@H]1CC[C@H]2[C@H]3CC(=O)C4=CC(=O)CC[C@]4(C)[C@@H]3CC[C@]21C)C(C)C
REMARK SMILES IDX 4 1 3 2 2 3 1 4 29 5 30 6 31 7 5 8 6 9 7 10 8 11 9 12 27 13
REMARK SMILES IDX 10 14 11 15 26 16 28 17 12 18 25 19 24 20 13 21 22 22 14 23
REMARK SMILES IDX 16 24 21 25 23 26 15 27 17 28 20 29 18 30 19 31
REMARK H PARENT
REMARK Flexibility Score: inf
ROOT
ATOM      1  C   UNL     1      11.236  -8.883  60.644  1.00  0.00     0.004 C 
ENDROOT
BRANCH   1   2
ATOM      2  C   UNL     1      11.509  -7.417  61.118  1.00  0.00    -0.009 C 
BRANCH   2   3
ATOM      3  C   UNL     1      12.439  -6.704  60.091  1.00  0.00     0.000 C 
ATOM      4  C   UNL     1      11.707  -5.806  59.088  1.00  0.00     0.004 C 
ENDBRANCH   2   3
BRANCH   2   5
ATOM      5  C   UNL     1      12.056  -7.325  62.588  1.00  0.00    -0.014 C 
ATOM      6  C   UNL     1      11.054  -6.667  63.550  1.00  0.00     0.007 C 
ATOM      7  C   UNL     1      13.388  -6.550  62.656  1.00  0.00     0.007 C 
ENDBRANCH   2   5
ENDBRANCH   1   2
BRANCH   1   8
ATOM      8  C   UNL     1      12.440  -9.758  60.186  1.00  0.00     0.004 C 
BRANCH   8   9
ATOM      9  C   UNL     1      13.107 -10.753  61.193  1.00  0.00    -0.011 C 
ATOM     10  C   UNL     1      11.977 -11.298  62.096  1.00  0.00     0.008 C 
BRANCH   9  11
ATOM     11  C   UNL     1      14.225 -10.108  62.093  1.00  0.00    -0.002 C 
ATOM     12  C   UNL     1      15.182  -9.167  61.362  1.00  0.00     0.005 C 
ATOM     13  C   UNL     1      15.167 -11.071  62.939  1.00  0.00    -0.026 C 
ATOM     14  C   UNL     1      16.407  -9.089  62.245  1.00  0.00     0.005 C 
ATOM     15  C   UNL     1      16.609 -10.533  62.680  1.00  0.00    -0.001 C 
ATOM     16  C   UNL     1      14.778 -10.934  64.440  1.00  0.00     0.007 C 
ATOM     17  C   UNL     1      15.134 -12.562  62.500  1.00  0.00     0.012 C 
ATOM     18  C   UNL     1      17.686 -10.796  63.790  1.00  0.00     0.004 C 
ATOM     19  C   UNL     1      15.839 -11.462  65.395  1.00  0.00     0.005 C 
ATOM     20  C   UNL     1      17.167 -10.689  65.243  1.00  0.00     0.003 C 
ATOM     21  C   UNL     1      18.900  -9.860  63.605  1.00  0.00     0.085 C 
ATOM     22  C   UNL     1      18.266 -11.096  66.333  1.00  0.00    -0.000 C 
ATOM     23  C   UNL     1      19.975 -10.137  64.599  1.00  0.00     0.159 C 
ATOM     24  C   UNL     1      19.701 -10.959  65.795  1.00  0.00     0.005 C 
ATOM     25  C   UNL     1      18.086 -12.567  66.838  1.00  0.00     0.020 C 
ATOM     26  C   UNL     1      18.119 -10.123  67.530  1.00  0.00     0.017 C 
ATOM     27  O   UNL     1      21.124  -9.653  64.404  1.00  0.00    -0.295 OA
ATOM     28  C   UNL     1      20.729 -11.596  66.390  1.00  0.00     0.055 C 
ATOM     29  C   UNL     1      19.142 -12.996  67.870  1.00  0.00     0.081 C 
ATOM     30  C   UNL     1      20.520 -12.577  67.462  1.00  0.00     0.156 C 
ATOM     31  O   UNL     1      21.518 -13.075  68.048  1.00  0.00    -0.295 OA
ENDBRANCH   9  11
ENDBRANCH   8   9
ENDBRANCH   1   8
TORSDOF 6
ENDMDL
MODEL 3
REMARK VINA RESULT:    -7.705      2.938      4.809
REMARK INTER + INTRA:         -12.434
REMARK INTER:                 -10.960
REMARK INTRA:                  -1.474
REMARK UNBOUND:                -2.027
REMARK SMILES CC[C@@H](CC[C@H](C)[C@@H]1CC[C@H]2[C@H]3CC(=O)C4=CC(=O)CC[C@]4(C)[C@@H]3CC[C@]21C)C(C)C
REMARK SMILES IDX 4 1 3 2 2 3 1 4 29 5 30 6 31 7 5 8 6 9 7 10 8 11 9 12 27 13
REMARK SMILES IDX 10 14 11 15 26 16 28 17 12 18 25 19 24 20 13 21 22 22 14 23
REMARK SMILES IDX 16 24 21 25 23 26 15 27 17 28 20 29 18 30 19 31
REMARK H PARENT
REMARK Flexibility Score: inf
ROOT
ATOM      1  C   UNL     1      12.627 -10.090  57.795  1.00  0.00     0.004 C 
ENDROOT
BRANCH   1   2
ATOM      2  C   UNL     1      13.056  -8.859  56.930  1.00  0.00    -0.009 C 
BRANCH   2   3
ATOM      3  C   UNL     1      14.541  -8.502  57.237  1.00  0.00     0.000 C 
ATOM      4  C   UNL     1      15.374  -8.133  56.005  1.00  0.00     0.004 C 
ENDBRANCH   2   3
BRANCH   2   5
ATOM      5  C   UNL     1      12.099  -7.624  57.078  1.00  0.00    -0.014 C 
ATOM      6  C   UNL     1      11.792  -6.949  55.732  1.00  0.00     0.007 C 
ATOM      7  C   UNL     1      12.674  -6.565  58.042  1.00  0.00     0.007 C 
ENDBRANCH   2   5
ENDBRANCH   1   2
BRANCH   1   8
ATOM      8  C   UNL     1      13.498 -10.482  59.025  1.00  0.00     0.004 C 
BRANCH   8   9
ATOM      9  C   UNL     1      12.925 -10.309  60.472  1.00  0.00    -0.011 C 
ATOM     10  C   UNL     1      11.705  -9.368  60.359  1.00  0.00     0.008 C 
BRANCH   9  11
ATOM     11  C   UNL     1      13.949  -9.709  61.504  1.00  0.00    -0.002 C 
ATOM     12  C   UNL     1      14.992  -8.764  60.907  1.00  0.00     0.005 C 
ATOM     13  C   UNL     1      14.783 -10.711  62.416  1.00  0.00    -0.026 C 
ATOM     14  C   UNL     1      16.117  -8.731  61.918  1.00  0.00     0.005 C 
ATOM     15  C   UNL     1      16.251 -10.191  62.328  1.00  0.00    -0.001 C 
ATOM     16  C   UNL     1      14.238 -10.611  63.871  1.00  0.00     0.007 C 
ATOM     17  C   UNL     1      14.776 -12.188  61.932  1.00  0.00     0.012 C 
ATOM     18  C   UNL     1      17.200 -10.504  63.538  1.00  0.00     0.004 C 
ATOM     19  C   UNL     1      15.184 -11.184  64.917  1.00  0.00     0.005 C 
ATOM     20  C   UNL     1      16.531 -10.429  64.930  1.00  0.00     0.003 C 
ATOM     21  C   UNL     1      18.440  -9.584  63.512  1.00  0.00     0.085 C 
ATOM     22  C   UNL     1      17.501 -10.885  66.117  1.00  0.00    -0.000 C 
ATOM     23  C   UNL     1      19.399  -9.906  64.605  1.00  0.00     0.159 C 
ATOM     24  C   UNL     1      18.987 -10.757  65.740  1.00  0.00     0.005 C 
ATOM     25  C   UNL     1      17.248 -12.367  66.556  1.00  0.00     0.020 C 
ATOM     26  C   UNL     1      17.241  -9.945  67.321  1.00  0.00     0.017 C 
ATOM     27  O   UNL     1      20.568  -9.436  64.547  1.00  0.00    -0.295 OA
ATOM     28  C   UNL     1      19.937 -11.428  66.421  1.00  0.00     0.055 C 
ATOM     29  C   UNL     1      18.182 -12.843  67.681  1.00  0.00     0.081 C 
ATOM     30  C   UNL     1      19.602 -12.436  67.435  1.00  0.00     0.156 C 
ATOM     31  O   UNL     1      20.524 -12.967  68.108  1.00  0.00    -0.295 OA
ENDBRANCH   9  11
ENDBRANCH   8   9
ENDBRANCH   1   8
TORSDOF 6
ENDMDL
MODEL 4
REMARK VINA RESULT:    -7.661      1.940      3.053
REMARK INTER + INTRA:         -12.375
REMARK INTER:                 -10.736
REMARK INTRA:                  -1.639
REMARK UNBOUND:                -2.027
REMARK SMILES CC[C@@H](CC[C@H](C)[C@@H]1CC[C@H]2[C@H]3CC(=O)C4=CC(=O)CC[C@]4(C)[C@@H]3CC[C@]21C)C(C)C
REMARK SMILES IDX 4 1 3 2 2 3 1 4 29 5 30 6 31 7 5 8 6 9 7 10 8 11 9 12 27 13
REMARK SMILES IDX 10 14 11 15 26 16 28 17 12 18 25 19 24 20 13 21 22 22 14 23
REMARK SMILES IDX 16 24 21 25 23 26 15 27 17 28 20 29 18 30 19 31
REMARK H PARENT
REMARK Flexibility Score: inf
ROOT
ATOM      1  C   UNL     1      12.149  -8.140  60.335  1.00  0.00     0.004 C 
ENDROOT
BRANCH   1   2
ATOM      2  C   UNL     1      11.209  -7.712  61.510  1.00  0.00    -0.009 C 
BRANCH   2   3
ATOM      3  C   UNL     1      10.280  -6.555  61.035  1.00  0.00     0.000 C 
ATOM      4  C   UNL     1       9.404  -6.899  59.826  1.00  0.00     0.004 C 
ENDBRANCH   2   3
BRANCH   2   5
ATOM      5  C   UNL     1      11.979  -7.358  62.832  1.00  0.00    -0.014 C 
ATOM      6  C   UNL     1      11.174  -6.429  63.754  1.00  0.00     0.007 C 
ATOM      7  C   UNL     1      13.345  -6.704  62.542  1.00  0.00     0.007 C 
ENDBRANCH   2   5
ENDBRANCH   1   2
BRANCH   1   8
ATOM      8  C   UNL     1      12.088  -9.610  59.823  1.00  0.00     0.004 C 
BRANCH   8   9
ATOM      9  C   UNL     1      13.399 -10.461  59.741  1.00  0.00    -0.011 C 
ATOM     10  C   UNL     1      13.250 -11.391  58.516  1.00  0.00     0.008 C 
BRANCH   9  11
ATOM     11  C   UNL     1      13.686 -11.330  61.021  1.00  0.00    -0.002 C 
ATOM     12  C   UNL     1      12.492 -11.518  61.956  1.00  0.00     0.005 C 
ATOM     13  C   UNL     1      14.887 -10.905  61.973  1.00  0.00    -0.026 C 
ATOM     14  C   UNL     1      13.094 -11.907  63.288  1.00  0.00     0.005 C 
ATOM     15  C   UNL     1      14.287 -10.970  63.412  1.00  0.00    -0.001 C 
ATOM     16  C   UNL     1      16.035 -11.941  61.796  1.00  0.00     0.007 C 
ATOM     17  C   UNL     1      15.415  -9.461  61.746  1.00  0.00     0.012 C 
ATOM     18  C   UNL     1      15.281 -11.238  64.596  1.00  0.00     0.004 C 
ATOM     19  C   UNL     1      17.062 -11.910  62.920  1.00  0.00     0.005 C 
ATOM     20  C   UNL     1      16.415 -12.242  64.282  1.00  0.00     0.003 C 
ATOM     21  C   UNL     1      14.517 -11.699  65.856  1.00  0.00     0.085 C 
ATOM     22  C   UNL     1      17.476 -12.380  65.471  1.00  0.00    -0.000 C 
ATOM     23  C   UNL     1      15.426 -11.890  67.021  1.00  0.00     0.159 C 
ATOM     24  C   UNL     1      16.889 -11.963  66.831  1.00  0.00     0.005 C 
ATOM     25  C   UNL     1      18.761 -11.519  65.224  1.00  0.00     0.020 C 
ATOM     26  C   UNL     1      17.874 -13.874  65.572  1.00  0.00     0.017 C 
ATOM     27  O   UNL     1      14.924 -11.992  68.174  1.00  0.00    -0.295 OA
ATOM     28  C   UNL     1      17.691 -11.641  67.865  1.00  0.00     0.055 C 
ATOM     29  C   UNL     1      19.791 -11.613  66.362  1.00  0.00     0.081 C 
ATOM     30  C   UNL     1      19.145 -11.505  67.708  1.00  0.00     0.156 C 
ATOM     31  O   UNL     1      19.859 -11.294  68.724  1.00  0.00    -0.295 OA
ENDBRANCH   9  11
ENDBRANCH   8   9
ENDBRANCH   1   8
TORSDOF 6
ENDMDL
MODEL 5
REMARK VINA RESULT:    -7.570      3.227      8.713
REMARK INTER + INTRA:         -12.252
REMARK INTER:                 -10.876
REMARK INTRA:                  -1.376
REMARK UNBOUND:                -2.027
REMARK SMILES CC[C@@H](CC[C@H](C)[C@@H]1CC[C@H]2[C@H]3CC(=O)C4=CC(=O)CC[C@]4(C)[C@@H]3CC[C@]21C)C(C)C
REMARK SMILES IDX 4 1 3 2 2 3 1 4 29 5 30 6 31 7 5 8 6 9 7 10 8 11 9 12 27 13
REMARK SMILES IDX 10 14 11 15 26 16 28 17 12 18 25 19 24 20 13 21 22 22 14 23
REMARK SMILES IDX 16 24 21 25 23 26 15 27 17 28 20 29 18 30 19 31
REMARK H PARENT
REMARK Flexibility Score: inf
ROOT
ATOM      1  C   UNL     1      19.363 -12.380  65.867  1.00  0.00     0.004 C 
ENDROOT
BRANCH   1   2
ATOM      2  C   UNL     1      20.632 -11.978  66.691  1.00  0.00    -0.009 C 
BRANCH   2   3
ATOM      3  C   UNL     1      20.217 -11.655  68.157  1.00  0.00     0.000 C 
ATOM      4  C   UNL     1      20.626 -12.718  69.182  1.00  0.00     0.004 C 
ENDBRANCH   2   3
BRANCH   2   5
ATOM      5  C   UNL     1      21.465 -10.821  66.033  1.00  0.00    -0.014 C 
ATOM      6  C   UNL     1      20.907 -10.395  64.666  1.00  0.00     0.007 C 
ATOM      7  C   UNL     1      22.948 -11.208  65.863  1.00  0.00     0.007 C 
ENDBRANCH   2   5
ENDBRANCH   1   2
BRANCH   1   8
ATOM      8  C   UNL     1      17.969 -11.880  66.347  1.00  0.00     0.004 C 
BRANCH   8   9
ATOM      9  C   UNL     1      17.510 -10.420  66.018  1.00  0.00    -0.011 C 
ATOM     10  C   UNL     1      17.314  -9.699  67.370  1.00  0.00     0.008 C 
BRANCH   9  11
ATOM     11  C   UNL     1      16.177 -10.334  65.186  1.00  0.00    -0.002 C 
ATOM     12  C   UNL     1      15.298 -11.583  65.242  1.00  0.00     0.005 C 
ATOM     13  C   UNL     1      16.270  -9.970  63.640  1.00  0.00    -0.026 C 
ATOM     14  C   UNL     1      14.398 -11.484  64.030  1.00  0.00     0.005 C 
ATOM     15  C   UNL     1      15.347 -11.013  62.937  1.00  0.00    -0.001 C 
ATOM     16  C   UNL     1      15.729  -8.523  63.449  1.00  0.00     0.007 C 
ATOM     17  C   UNL     1      17.691 -10.107  63.025  1.00  0.00     0.012 C 
ATOM     18  C   UNL     1      14.703 -10.599  61.568  1.00  0.00     0.004 C 
ATOM     19  C   UNL     1      15.371  -8.192  62.007  1.00  0.00     0.005 C 
ATOM     20  C   UNL     1      14.257  -9.120  61.477  1.00  0.00     0.003 C 
ATOM     21  C   UNL     1      13.512 -11.519  61.224  1.00  0.00     0.085 C 
ATOM     22  C   UNL     1      13.731  -8.713  60.022  1.00  0.00    -0.000 C 
ATOM     23  C   UNL     1      12.924 -11.198  59.893  1.00  0.00     0.159 C 
ATOM     24  C   UNL     1      13.251  -9.929  59.212  1.00  0.00     0.005 C 
ATOM     25  C   UNL     1      14.828  -7.981  59.177  1.00  0.00     0.020 C 
ATOM     26  C   UNL     1      12.517  -7.768  60.211  1.00  0.00     0.017 C 
ATOM     27  O   UNL     1      12.138 -12.029  59.358  1.00  0.00    -0.295 OA
ATOM     28  C   UNL     1      13.137  -9.869  57.870  1.00  0.00     0.055 C 
ATOM     29  C   UNL     1      14.359  -7.596  57.764  1.00  0.00     0.081 C 
ATOM     30  C   UNL     1      13.618  -8.715  57.100  1.00  0.00     0.156 C 
ATOM     31  O   UNL     1      13.404  -8.667  55.859  1.00  0.00    -0.295 OA
ENDBRANCH   9  11
ENDBRANCH   8   9
ENDBRANCH   1   8
TORSDOF 6
ENDMDL
MODEL 6
REMARK VINA RESULT:    -7.434      3.265      8.844
REMARK INTER + INTRA:         -12.068
REMARK INTER:                 -10.660
REMARK INTRA:                  -1.408
REMARK UNBOUND:                -2.027
REMARK SMILES CC[C@@H](CC[C@H](C)[C@@H]1CC[C@H]2[C@H]3CC(=O)C4=CC(=O)CC[C@]4(C)[C@@H]3CC[C@]21C)C(C)C
REMARK SMILES IDX 4 1 3 2 2 3 1 4 29 5 30 6 31 7 5 8 6 9 7 10 8 11 9 12 27 13
REMARK SMILES IDX 10 14 11 15 26 16 28 17 12 18 25 19 24 20 13 21 22 22 14 23
REMARK SMILES IDX 16 24 21 25 23 26 15 27 17 28 20 29 18 30 19 31
REMARK H PARENT
REMARK Flexibility Score: inf
ROOT
ATOM      1  C   UNL     1      19.246 -12.551  66.000  1.00  0.00     0.004 C 
ENDROOT
BRANCH   1   2
ATOM      2  C   UNL     1      20.352 -11.561  66.496  1.00  0.00    -0.009 C 
BRANCH   2   3
ATOM      3  C   UNL     1      21.410 -11.360  65.371  1.00  0.00     0.000 C 
ATOM      4  C   UNL     1      21.017 -10.333  64.305  1.00  0.00     0.004 C 
ENDBRANCH   2   3
BRANCH   2   5
ATOM      5  C   UNL     1      21.001 -11.980  67.863  1.00  0.00    -0.014 C 
ATOM      6  C   UNL     1      21.749 -13.319  67.775  1.00  0.00     0.007 C 
ATOM      7  C   UNL     1      19.953 -12.072  68.991  1.00  0.00     0.007 C 
ENDBRANCH   2   5
ENDBRANCH   1   2
BRANCH   1   8
ATOM      8  C   UNL     1      17.755 -12.110  66.081  1.00  0.00     0.004 C 
BRANCH   8   9
ATOM      9  C   UNL     1      17.373 -10.608  65.861  1.00  0.00    -0.011 C 
ATOM     10  C   UNL     1      17.183  -9.987  67.263  1.00  0.00     0.008 C 
BRANCH   9  11
ATOM     11  C   UNL     1      16.064 -10.392  65.015  1.00  0.00    -0.002 C 
ATOM     12  C   UNL     1      15.066 -11.548  65.061  1.00  0.00     0.005 C 
ATOM     13  C   UNL     1      16.208 -10.039  63.471  1.00  0.00    -0.026 C 
ATOM     14  C   UNL     1      14.193 -11.362  63.840  1.00  0.00     0.005 C 
ATOM     15  C   UNL     1      15.195 -10.986  62.757  1.00  0.00    -0.001 C 
ATOM     16  C   UNL     1      15.814  -8.545  63.276  1.00  0.00     0.007 C 
ATOM     17  C   UNL     1      17.615 -10.314  62.871  1.00  0.00     0.012 C 
ATOM     18  C   UNL     1      14.608 -10.510  61.382  1.00  0.00     0.004 C 
ATOM     19  C   UNL     1      15.505  -8.180  61.831  1.00  0.00     0.005 C 
ATOM     20  C   UNL     1      14.311  -8.995  61.289  1.00  0.00     0.003 C 
ATOM     21  C   UNL     1      13.337 -11.308  61.025  1.00  0.00     0.085 C 
ATOM     22  C   UNL     1      13.842  -8.537  59.829  1.00  0.00    -0.000 C 
ATOM     23  C   UNL     1      12.797 -10.931  59.688  1.00  0.00     0.159 C 
ATOM     24  C   UNL     1      13.255  -9.700  59.012  1.00  0.00     0.005 C 
ATOM     25  C   UNL     1      15.015  -7.916  58.996  1.00  0.00     0.020 C 
ATOM     26  C   UNL     1      12.725  -7.478  60.007  1.00  0.00     0.017 C 
ATOM     27  O   UNL     1      11.939 -11.680  59.144  1.00  0.00    -0.295 OA
ATOM     28  C   UNL     1      13.160  -9.629  57.669  1.00  0.00     0.055 C 
ATOM     29  C   UNL     1      14.600  -7.487  57.578  1.00  0.00     0.081 C 
ATOM     30  C   UNL     1      13.761  -8.527  56.905  1.00  0.00     0.156 C 
ATOM     31  O   UNL     1      13.565  -8.458  55.663  1.00  0.00    -0.295 OA
ENDBRANCH   9  11
ENDBRANCH   8   9
ENDBRANCH   1   8
TORSDOF 6
ENDMDL
MODEL 7
REMARK VINA RESULT:    -7.320      3.140      8.661
REMARK INTER + INTRA:         -11.914
REMARK INTER:                 -10.492
REMARK INTRA:                  -1.422
REMARK UNBOUND:                -2.027
REMARK SMILES CC[C@@H](CC[C@H](C)[C@@H]1CC[C@H]2[C@H]3CC(=O)C4=CC(=O)CC[C@]4(C)[C@@H]3CC[C@]21C)C(C)C
REMARK SMILES IDX 4 1 3 2 2 3 1 4 29 5 30 6 31 7 5 8 6 9 7 10 8 11 9 12 27 13
REMARK SMILES IDX 10 14 11 15 26 16 28 17 12 18 25 19 24 20 13 21 22 22 14 23
REMARK SMILES IDX 16 24 21 25 23 26 15 27 17 28 20 29 18 30 19 31
REMARK H PARENT
REMARK Flexibility Score: inf
ROOT
ATOM      1  C   UNL     1      19.051 -12.112  66.252  1.00  0.00     0.004 C 
ENDROOT
BRANCH   1   2
ATOM      2  C   UNL     1      19.993 -11.014  66.850  1.00  0.00    -0.009 C 
BRANCH   2   3
ATOM      3  C   UNL     1      19.138  -9.949  67.599  1.00  0.00     0.000 C 
ATOM      4  C   UNL     1      19.234 -10.017  69.126  1.00  0.00     0.004 C 
ENDBRANCH   2   3
BRANCH   2   5
ATOM      5  C   UNL     1      20.958 -10.372  65.790  1.00  0.00    -0.014 C 
ATOM      6  C   UNL     1      20.346 -10.334  64.381  1.00  0.00     0.007 C 
ATOM      7  C   UNL     1      22.309 -11.113  65.722  1.00  0.00     0.007 C 
ENDBRANCH   2   5
ENDBRANCH   1   2
BRANCH   1   8
ATOM      8  C   UNL     1      17.510 -11.908  66.345  1.00  0.00     0.004 C 
BRANCH   8   9
ATOM      9  C   UNL     1      16.604 -12.252  65.115  1.00  0.00    -0.011 C 
ATOM     10  C   UNL     1      17.221 -13.498  64.441  1.00  0.00     0.008 C 
BRANCH   9  11
ATOM     11  C   UNL     1      16.487 -11.094  64.057  1.00  0.00    -0.002 C 
ATOM     12  C   UNL     1      16.843  -9.702  64.578  1.00  0.00     0.005 C 
ATOM     13  C   UNL     1      15.105 -10.901  63.293  1.00  0.00    -0.026 C 
ATOM     14  C   UNL     1      16.191  -8.741  63.608  1.00  0.00     0.005 C 
ATOM     15  C   UNL     1      14.825  -9.368  63.371  1.00  0.00    -0.001 C 
ATOM     16  C   UNL     1      15.296 -11.362  61.819  1.00  0.00     0.007 C 
ATOM     17  C   UNL     1      13.897 -11.635  63.941  1.00  0.00     0.012 C 
ATOM     18  C   UNL     1      13.942  -8.738  62.238  1.00  0.00     0.004 C 
ATOM     19  C   UNL     1      14.211 -10.861  60.877  1.00  0.00     0.005 C 
ATOM     20  C   UNL     1      14.181  -9.318  60.824  1.00  0.00     0.003 C 
ATOM     21  C   UNL     1      14.113  -7.204  62.202  1.00  0.00     0.085 C 
ATOM     22  C   UNL     1      13.167  -8.740  59.730  1.00  0.00    -0.000 C 
ATOM     23  C   UNL     1      13.230  -6.567  61.185  1.00  0.00     0.159 C 
ATOM     24  C   UNL     1      12.575  -7.381  60.141  1.00  0.00     0.005 C 
ATOM     25  C   UNL     1      11.972  -9.715  59.453  1.00  0.00     0.020 C 
ATOM     26  C   UNL     1      13.965  -8.527  58.419  1.00  0.00     0.017 C 
ATOM     27  O   UNL     1      13.053  -5.318  61.229  1.00  0.00    -0.295 OA
ATOM     28  C   UNL     1      11.446  -6.915  59.573  1.00  0.00     0.055 C 
ATOM     29  C   UNL     1      10.967  -9.177  58.422  1.00  0.00     0.081 C 
ATOM     30  C   UNL     1      10.632  -7.739  58.669  1.00  0.00     0.156 C 
ATOM     31  O   UNL     1       9.637  -7.226  58.092  1.00  0.00    -0.295 OA
ENDBRANCH   9  11
ENDBRANCH   8   9
ENDBRANCH   1   8
TORSDOF 6
ENDMDL
MODEL 8
REMARK VINA RESULT:    -7.315      3.468      8.465
REMARK INTER + INTRA:         -11.908
REMARK INTER:                 -10.337
REMARK INTRA:                  -1.571
REMARK UNBOUND:                -2.027
REMARK SMILES CC[C@@H](CC[C@H](C)[C@@H]1CC[C@H]2[C@H]3CC(=O)C4=CC(=O)CC[C@]4(C)[C@@H]3CC[C@]21C)C(C)C
REMARK SMILES IDX 4 1 3 2 2 3 1 4 29 5 30 6 31 7 5 8 6 9 7 10 8 11 9 12 27 13
REMARK SMILES IDX 10 14 11 15 26 16 28 17 12 18 25 19 24 20 13 21 22 22 14 23
REMARK SMILES IDX 16 24 21 25 23 26 15 27 17 28 20 29 18 30 19 31
REMARK H PARENT
REMARK Flexibility Score: inf
ROOT
ATOM      1  C   UNL     1      17.491 -11.698  64.727  1.00  0.00     0.004 C 
ENDROOT
BRANCH   1   2
ATOM      2  C   UNL     1      17.652 -10.372  65.542  1.00  0.00    -0.009 C 
BRANCH   2   3
ATOM      3  C   UNL     1      19.047  -9.747  65.245  1.00  0.00     0.000 C 
ATOM      4  C   UNL     1      19.375  -9.604  63.756  1.00  0.00     0.004 C 
ENDBRANCH   2   3
BRANCH   2   5
ATOM      5  C   UNL     1      17.388 -10.547  67.081  1.00  0.00    -0.014 C 
ATOM      6  C   UNL     1      18.424  -9.810  67.945  1.00  0.00     0.007 C 
ATOM      7  C   UNL     1      17.368 -12.033  67.493  1.00  0.00     0.007 C 
ENDBRANCH   2   5
ENDBRANCH   1   2
BRANCH   1   8
ATOM      8  C   UNL     1      16.138 -11.975  64.007  1.00  0.00     0.004 C 
BRANCH   8   9
ATOM      9  C   UNL     1      14.907 -11.047  64.278  1.00  0.00    -0.011 C 
ATOM     10  C   UNL     1      13.886 -11.883  65.082  1.00  0.00     0.008 C 
BRANCH   9  11
ATOM     11  C   UNL     1      14.216 -10.494  62.977  1.00  0.00    -0.002 C 
ATOM     12  C   UNL     1      14.429 -11.340  61.722  1.00  0.00     0.005 C 
ATOM     13  C   UNL     1      14.535  -9.004  62.523  1.00  0.00    -0.026 C 
ATOM     14  C   UNL     1      14.145 -10.406  60.566  1.00  0.00     0.005 C 
ATOM     15  C   UNL     1      14.827  -9.115  60.994  1.00  0.00    -0.001 C 
ATOM     16  C   UNL     1      13.272  -8.134  62.791  1.00  0.00     0.007 C 
ATOM     17  C   UNL     1      15.785  -8.373  63.198  1.00  0.00     0.012 C 
ATOM     18  C   UNL     1      14.557  -7.844  60.114  1.00  0.00     0.004 C 
ATOM     19  C   UNL     1      13.274  -6.809  62.042  1.00  0.00     0.005 C 
ATOM     20  C   UNL     1      13.305  -7.028  60.514  1.00  0.00     0.003 C 
ATOM     21  C   UNL     1      14.471  -8.223  58.620  1.00  0.00     0.085 C 
ATOM     22  C   UNL     1      13.147  -5.673  59.676  1.00  0.00    -0.000 C 
ATOM     23  C   UNL     1      14.289  -7.027  57.750  1.00  0.00     0.159 C 
ATOM     24  C   UNL     1      13.889  -5.728  58.330  1.00  0.00     0.005 C 
ATOM     25  C   UNL     1      13.676  -4.425  60.460  1.00  0.00     0.020 C 
ATOM     26  C   UNL     1      11.639  -5.484  59.373  1.00  0.00     0.017 C 
ATOM     27  O   UNL     1      14.479  -7.143  56.508  1.00  0.00    -0.295 OA
ATOM     28  C   UNL     1      14.203  -4.600  57.663  1.00  0.00     0.055 C 
ATOM     29  C   UNL     1      13.559  -3.110  59.672  1.00  0.00     0.081 C 
ATOM     30  C   UNL     1      14.013  -3.269  58.254  1.00  0.00     0.156 C 
ATOM     31  O   UNL     1      14.234  -2.245  57.555  1.00  0.00    -0.295 OA
ENDBRANCH   9  11
ENDBRANCH   8   9
ENDBRANCH   1   8
TORSDOF 6
ENDMDL
MODEL 9
REMARK VINA RESULT:    -7.142      2.046      3.743
REMARK INTER + INTRA:         -11.673
REMARK INTER:                  -9.936
REMARK INTRA:                  -1.737
REMARK UNBOUND:                -2.027
REMARK SMILES CC[C@@H](CC[C@H](C)[C@@H]1CC[C@H]2[C@H]3CC(=O)C4=CC(=O)CC[C@]4(C)[C@@H]3CC[C@]21C)C(C)C
REMARK SMILES IDX 4 1 3 2 2 3 1 4 29 5 30 6 31 7 5 8 6 9 7 10 8 11 9 12 27 13
REMARK SMILES IDX 10 14 11 15 26 16 28 17 12 18 25 19 24 20 13 21 22 22 14 23
REMARK SMILES IDX 16 24 21 25 23 26 15 27 17 28 20 29 18 30 19 31
REMARK H PARENT
REMARK Flexibility Score: inf
ROOT
ATOM      1  C   UNL     1      11.923  -6.440  56.681  1.00  0.00     0.004 C 
ENDROOT
BRANCH   1   2
ATOM      2  C   UNL     1      11.359  -7.620  55.821  1.00  0.00    -0.009 C 
BRANCH   2   3
ATOM      3  C   UNL     1       9.980  -8.065  56.393  1.00  0.00     0.000 C 
ATOM      4  C   UNL     1       8.890  -8.271  55.337  1.00  0.00     0.004 C 
ENDBRANCH   2   3
BRANCH   2   5
ATOM      5  C   UNL     1      12.361  -8.819  55.668  1.00  0.00    -0.014 C 
ATOM      6  C   UNL     1      11.892 -10.079  56.412  1.00  0.00     0.007 C 
ATOM      7  C   UNL     1      13.775  -8.451  56.161  1.00  0.00     0.007 C 
ENDBRANCH   2   5
ENDBRANCH   1   2
BRANCH   1   8
ATOM      8  C   UNL     1      11.445  -6.292  58.156  1.00  0.00     0.004 C 
BRANCH   8   9
ATOM      9  C   UNL     1      12.496  -6.260  59.315  1.00  0.00    -0.011 C 
ATOM     10  C   UNL     1      13.714  -5.466  58.790  1.00  0.00     0.008 C 
BRANCH   9  11
ATOM     11  C   UNL     1      12.971  -7.680  59.796  1.00  0.00    -0.002 C 
ATOM     12  C   UNL     1      11.889  -8.760  59.792  1.00  0.00     0.005 C 
ATOM     13  C   UNL     1      13.666  -7.806  61.221  1.00  0.00    -0.026 C 
ATOM     14  C   UNL     1      12.400  -9.831  60.730  1.00  0.00     0.005 C 
ATOM     15  C   UNL     1      12.965  -9.027  61.892  1.00  0.00    -0.001 C 
ATOM     16  C   UNL     1      15.182  -8.081  60.999  1.00  0.00     0.007 C 
ATOM     17  C   UNL     1      13.466  -6.576  62.151  1.00  0.00     0.012 C 
ATOM     18  C   UNL     1      13.778  -9.820  62.975  1.00  0.00     0.004 C 
ATOM     19  C   UNL     1      15.890  -8.628  62.231  1.00  0.00     0.005 C 
ATOM     20  C   UNL     1      15.287  -9.980  62.672  1.00  0.00     0.003 C 
ATOM     21  C   UNL     1      13.152 -11.210  63.219  1.00  0.00     0.085 C 
ATOM     22  C   UNL     1      16.095 -10.676  63.864  1.00  0.00    -0.000 C 
ATOM     23  C   UNL     1      13.857 -11.959  64.297  1.00  0.00     0.159 C 
ATOM     24  C   UNL     1      15.186 -11.523  64.770  1.00  0.00     0.005 C 
ATOM     25  C   UNL     1      16.832  -9.633  64.771  1.00  0.00     0.020 C 
ATOM     26  C   UNL     1      17.140 -11.627  63.227  1.00  0.00     0.017 C 
ATOM     27  O   UNL     1      13.300 -12.976  64.796  1.00  0.00    -0.295 OA
ATOM     28  C   UNL     1      15.573 -11.869  66.014  1.00  0.00     0.055 C 
ATOM     29  C   UNL     1      17.600 -10.270  65.940  1.00  0.00     0.081 C 
ATOM     30  C   UNL     1      16.790 -11.323  66.630  1.00  0.00     0.156 C 
ATOM     31  O   UNL     1      17.157 -11.749  67.757  1.00  0.00    -0.295 OA
ENDBRANCH   9  11
ENDBRANCH   8   9
ENDBRANCH   1   8
TORSDOF 6
ENDMDL
