MODEL 1
REMARK VINA RESULT:    -3.570      0.000      0.000
REMARK INTER + INTRA:          -4.085
REMARK INTER:                  -3.987
REMARK INTRA:                  -0.098
REMARK UNBOUND:                -0.098
REMARK SMILES COc1cc(OC)c2ccc(=O)oc2c1
REMARK SMILES IDX 3 1 15 2 14 3 8 4 9 5 10 6 11 7 12 8 13 9 5 10 4 11 2 12
REMARK SMILES IDX 1 13 6 14 7 15
REMARK H PARENT
REMARK Flexibility Score: inf
ROOT
ATOM      1  C   UNL     1      80.386   1.643  68.226  1.00  0.00     0.126 A 
ATOM      2  C   UNL     1      80.872   2.245  67.063  1.00  0.00     0.094 A 
ATOM      3  C   UNL     1      80.001   2.868  66.167  1.00  0.00     0.145 A 
ATOM      4  C   UNL     1      78.614   2.895  66.433  1.00  0.00     0.060 A 
ATOM      5  C   UNL     1      77.777   3.533  65.505  1.00  0.00     0.023 A 
ATOM      6  C   UNL     1      78.330   4.113  64.365  1.00  0.00     0.095 A 
ATOM      7  C   UNL     1      79.712   4.045  64.173  1.00  0.00     0.336 A 
ATOM      8  O   UNL     1      80.231   4.563  63.149  1.00  0.00    -0.246 OA
ATOM      9  O   UNL     1      80.487   3.435  65.065  1.00  0.00    -0.422 OA
ATOM     10  C   UNL     1      78.108   2.293  67.601  1.00  0.00     0.133 A 
ATOM     11  C   UNL     1      79.003   1.668  68.494  1.00  0.00     0.093 A 
ENDROOT
BRANCH   1  12
ATOM     12  O   UNL     1      81.308   1.031  69.090  1.00  0.00    -0.496 OA
ATOM     13  C   UNL     1      81.945  -0.217  68.838  1.00  0.00     0.278 C 
ENDBRANCH   1  12
BRANCH  10  14
ATOM     14  O   UNL     1      76.725   2.330  67.848  1.00  0.00    -0.496 OA
ATOM     15  C   UNL     1      76.122   2.146  69.125  1.00  0.00     0.278 C 
ENDBRANCH  10  14
TORSDOF 2
ENDMDL
MODEL 2
REMARK VINA RESULT:    -3.460     20.305     21.156
REMARK INTER + INTRA:          -3.963
REMARK INTER:                  -3.856
REMARK INTRA:                  -0.107
REMARK UNBOUND:                -0.098
REMARK SMILES COc1cc(OC)c2ccc(=O)oc2c1
REMARK SMILES IDX 3 1 15 2 14 3 8 4 9 5 10 6 11 7 12 8 13 9 5 10 4 11 2 12
REMARK SMILES IDX 1 13 6 14 7 15
REMARK H PARENT
REMARK Flexibility Score: inf
ROOT
ATOM      1  C   UNL     1      72.917  -9.275  50.195  1.00  0.00     0.126 A 
ATOM      2  C   UNL     1      72.537 -10.068  51.281  1.00  0.00     0.094 A 
ATOM      3  C   UNL     1      71.450  -9.708  52.079  1.00  0.00     0.145 A 
ATOM      4  C   UNL     1      70.721  -8.532  51.791  1.00  0.00     0.060 A 
ATOM      5  C   UNL     1      69.636  -8.211  52.620  1.00  0.00     0.023 A 
ATOM      6  C   UNL     1      69.312  -9.047  53.686  1.00  0.00     0.095 A 
ATOM      7  C   UNL     1      70.082 -10.192  53.906  1.00  0.00     0.336 A 
ATOM      8  O   UNL     1      69.805 -10.961  54.865  1.00  0.00    -0.246 OA
ATOM      9  O   UNL     1      71.106 -10.478  53.109  1.00  0.00    -0.422 OA
ATOM     10  C   UNL     1      71.091  -7.722  50.700  1.00  0.00     0.133 A 
ATOM     11  C   UNL     1      72.192  -8.103  49.906  1.00  0.00     0.093 A 
ENDROOT
BRANCH   1  12
ATOM     12  O   UNL     1      74.019  -9.687  49.428  1.00  0.00    -0.496 OA
ATOM     13  C   UNL     1      74.660 -10.951  49.552  1.00  0.00     0.278 C 
ENDBRANCH   1  12
BRANCH  10  14
ATOM     14  O   UNL     1      70.352  -6.557  50.430  1.00  0.00    -0.496 OA
ATOM     15  C   UNL     1      70.595  -5.677  49.338  1.00  0.00     0.278 C 
ENDBRANCH  10  14
TORSDOF 2
ENDMDL
MODEL 3
REMARK VINA RESULT:    -3.370      1.258      4.450
REMARK INTER + INTRA:          -3.863
REMARK INTER:                  -3.767
REMARK INTRA:                  -0.096
REMARK UNBOUND:                -0.098
REMARK SMILES COc1cc(OC)c2ccc(=O)oc2c1
REMARK SMILES IDX 3 1 15 2 14 3 8 4 9 5 10 6 11 7 12 8 13 9 5 10 4 11 2 12
REMARK SMILES IDX 1 13 6 14 7 15
REMARK H PARENT
REMARK Flexibility Score: inf
ROOT
ATOM      1  C   UNL     1      79.311   3.711  64.366  1.00  0.00     0.126 A 
ATOM      2  C   UNL     1      80.285   3.121  65.176  1.00  0.00     0.094 A 
ATOM      3  C   UNL     1      79.945   2.578  66.416  1.00  0.00     0.145 A 
ATOM      4  C   UNL     1      78.605   2.620  66.863  1.00  0.00     0.060 A 
ATOM      5  C   UNL     1      78.311   2.061  68.115  1.00  0.00     0.023 A 
ATOM      6  C   UNL     1      79.332   1.489  68.871  1.00  0.00     0.095 A 
ATOM      7  C   UNL     1      80.633   1.486  68.361  1.00  0.00     0.336 A 
ATOM      8  O   UNL     1      81.570   0.975  69.029  1.00  0.00    -0.246 OA
ATOM      9  O   UNL     1      80.890   2.022  67.172  1.00  0.00    -0.422 OA
ATOM     10  C   UNL     1      77.611   3.210  66.058  1.00  0.00     0.133 A 
ATOM     11  C   UNL     1      77.974   3.754  64.809  1.00  0.00     0.093 A 
ENDROOT
BRANCH   1  12
ATOM     12  O   UNL     1      79.710   4.240  63.129  1.00  0.00    -0.496 OA
ATOM     13  C   UNL     1      79.916   3.469  61.950  1.00  0.00     0.278 C 
ENDBRANCH   1  12
BRANCH  10  14
ATOM     14  O   UNL     1      76.285   3.241  66.521  1.00  0.00    -0.496 OA
ATOM     15  C   UNL     1      75.205   3.879  65.846  1.00  0.00     0.278 C 
ENDBRANCH  10  14
TORSDOF 2
ENDMDL
MODEL 4
REMARK VINA RESULT:    -3.359      1.407      3.971
REMARK INTER + INTRA:          -3.850
REMARK INTER:                  -3.743
REMARK INTRA:                  -0.107
REMARK UNBOUND:                -0.098
REMARK SMILES COc1cc(OC)c2ccc(=O)oc2c1
REMARK SMILES IDX 3 1 15 2 14 3 8 4 9 5 10 6 11 7 12 8 13 9 5 10 4 11 2 12
REMARK SMILES IDX 1 13 6 14 7 15
REMARK H PARENT
REMARK Flexibility Score: inf
ROOT
ATOM      1  C   UNL     1      80.170   2.329  67.069  1.00  0.00     0.126 A 
ATOM      2  C   UNL     1      78.942   2.321  67.735  1.00  0.00     0.094 A 
ATOM      3  C   UNL     1      77.784   2.768  67.098  1.00  0.00     0.145 A 
ATOM      4  C   UNL     1      77.845   3.235  65.766  1.00  0.00     0.060 A 
ATOM      5  C   UNL     1      76.656   3.675  65.166  1.00  0.00     0.023 A 
ATOM      6  C   UNL     1      75.465   3.638  65.890  1.00  0.00     0.095 A 
ATOM      7  C   UNL     1      75.486   3.163  67.204  1.00  0.00     0.336 A 
ATOM      8  O   UNL     1      74.421   3.122  67.875  1.00  0.00    -0.246 OA
ATOM      9  O   UNL     1      76.625   2.751  67.753  1.00  0.00    -0.422 OA
ATOM     10  C   UNL     1      79.075   3.250  65.080  1.00  0.00     0.133 A 
ATOM     11  C   UNL     1      80.234   2.794  65.740  1.00  0.00     0.093 A 
ENDROOT
BRANCH   1  12
ATOM     12  O   UNL     1      81.302   1.867  67.759  1.00  0.00    -0.496 OA
ATOM     13  C   UNL     1      81.623   0.494  67.954  1.00  0.00     0.278 C 
ENDBRANCH   1  12
BRANCH  10  14
ATOM     14  O   UNL     1      79.115   3.718  63.755  1.00  0.00    -0.496 OA
ATOM     15  C   UNL     1      80.002   4.724  63.276  1.00  0.00     0.278 C 
ENDBRANCH  10  14
TORSDOF 2
ENDMDL
MODEL 5
REMARK VINA RESULT:    -3.317      1.763      3.971
REMARK INTER + INTRA:          -3.803
REMARK INTER:                  -3.687
REMARK INTRA:                  -0.115
REMARK UNBOUND:                -0.098
REMARK SMILES COc1cc(OC)c2ccc(=O)oc2c1
REMARK SMILES IDX 3 1 15 2 14 3 8 4 9 5 10 6 11 7 12 8 13 9 5 10 4 11 2 12
REMARK SMILES IDX 1 13 6 14 7 15
REMARK H PARENT
REMARK Flexibility Score: inf
ROOT
ATOM      1  C   UNL     1      76.761   2.861  66.918  1.00  0.00     0.126 A 
ATOM      2  C   UNL     1      76.532   3.520  65.708  1.00  0.00     0.094 A 
ATOM      3  C   UNL     1      77.590   3.816  64.846  1.00  0.00     0.145 A 
ATOM      4  C   UNL     1      78.909   3.447  65.195  1.00  0.00     0.060 A 
ATOM      5  C   UNL     1      79.940   3.764  64.299  1.00  0.00     0.023 A 
ATOM      6  C   UNL     1      79.639   4.423  63.108  1.00  0.00     0.095 A 
ATOM      7  C   UNL     1      78.310   4.754  62.835  1.00  0.00     0.336 A 
ATOM      8  O   UNL     1      78.017   5.350  61.764  1.00  0.00    -0.246 OA
ATOM      9  O   UNL     1      77.348   4.444  63.698  1.00  0.00    -0.422 OA
ATOM     10  C   UNL     1      79.157   2.782  66.412  1.00  0.00     0.133 A 
ATOM     11  C   UNL     1      78.075   2.493  67.268  1.00  0.00     0.093 A 
ENDROOT
BRANCH   1  12
ATOM     12  O   UNL     1      75.659   2.590  67.744  1.00  0.00    -0.496 OA
ATOM     13  C   UNL     1      74.603   3.508  68.007  1.00  0.00     0.278 C 
ENDBRANCH   1  12
BRANCH  10  14
ATOM     14  O   UNL     1      80.476   2.424  66.740  1.00  0.00    -0.496 OA
ATOM     15  C   UNL     1      81.184   2.896  67.881  1.00  0.00     0.278 C 
ENDBRANCH  10  14
TORSDOF 2
ENDMDL
MODEL 6
REMARK VINA RESULT:    -3.292     19.435     20.371
REMARK INTER + INTRA:          -3.775
REMARK INTER:                  -3.675
REMARK INTRA:                  -0.100
REMARK UNBOUND:                -0.098
REMARK SMILES COc1cc(OC)c2ccc(=O)oc2c1
REMARK SMILES IDX 3 1 15 2 14 3 8 4 9 5 10 6 11 7 12 8 13 9 5 10 4 11 2 12
REMARK SMILES IDX 1 13 6 14 7 15
REMARK H PARENT
REMARK Flexibility Score: inf
ROOT
ATOM      1  C   UNL     1      68.281  -7.705  54.232  1.00  0.00     0.126 A 
ATOM      2  C   UNL     1      68.922  -7.448  53.018  1.00  0.00     0.094 A 
ATOM      3  C   UNL     1      69.912  -8.309  52.540  1.00  0.00     0.145 A 
ATOM      4  C   UNL     1      70.273  -9.454  53.285  1.00  0.00     0.060 A 
ATOM      5  C   UNL     1      71.272 -10.290  52.765  1.00  0.00     0.023 A 
ATOM      6  C   UNL     1      71.870  -9.973  51.547  1.00  0.00     0.095 A 
ATOM      7  C   UNL     1      71.458  -8.823  50.869  1.00  0.00     0.336 A 
ATOM      8  O   UNL     1      71.986  -8.519  49.766  1.00  0.00    -0.246 OA
ATOM      9  O   UNL     1      70.509  -8.044  51.380  1.00  0.00    -0.422 OA
ATOM     10  C   UNL     1      69.637  -9.727  54.511  1.00  0.00     0.133 A 
ATOM     11  C   UNL     1      68.639  -8.845  54.978  1.00  0.00     0.093 A 
ENDROOT
BRANCH   1  12
ATOM     12  O   UNL     1      67.293  -6.805  54.663  1.00  0.00    -0.496 OA
ATOM     13  C   UNL     1      65.894  -6.994  54.480  1.00  0.00     0.278 C 
ENDBRANCH   1  12
BRANCH  10  14
ATOM     14  O   UNL     1      70.011 -10.870  55.238  1.00  0.00    -0.496 OA
ATOM     15  C   UNL     1      70.050 -10.952  56.659  1.00  0.00     0.278 C 
ENDBRANCH  10  14
TORSDOF 2
ENDMDL
MODEL 7
REMARK VINA RESULT:    -3.279      8.340     10.466
REMARK INTER + INTRA:          -3.760
REMARK INTER:                  -3.655
REMARK INTRA:                  -0.105
REMARK UNBOUND:                -0.098
REMARK SMILES COc1cc(OC)c2ccc(=O)oc2c1
REMARK SMILES IDX 3 1 15 2 14 3 8 4 9 5 10 6 11 7 12 8 13 9 5 10 4 11 2 12
REMARK SMILES IDX 1 13 6 14 7 15
REMARK H PARENT
REMARK Flexibility Score: inf
ROOT
ATOM      1  C   UNL     1      81.609   4.159  56.187  1.00  0.00     0.126 A 
ATOM      2  C   UNL     1      81.626   5.532  56.443  1.00  0.00     0.094 A 
ATOM      3  C   UNL     1      82.114   6.024  57.655  1.00  0.00     0.145 A 
ATOM      4  C   UNL     1      82.598   5.131  58.637  1.00  0.00     0.060 A 
ATOM      5  C   UNL     1      83.078   5.671  59.839  1.00  0.00     0.023 A 
ATOM      6  C   UNL     1      83.066   7.051  60.027  1.00  0.00     0.095 A 
ATOM      7  C   UNL     1      82.571   7.870  59.009  1.00  0.00     0.336 A 
ATOM      8  O   UNL     1      82.551   9.120  59.160  1.00  0.00    -0.246 OA
ATOM      9  O   UNL     1      82.120   7.337  57.877  1.00  0.00    -0.422 OA
ATOM     10  C   UNL     1      82.588   3.744  58.394  1.00  0.00     0.133 A 
ATOM     11  C   UNL     1      82.091   3.266  57.164  1.00  0.00     0.093 A 
ENDROOT
BRANCH   1  12
ATOM     12  O   UNL     1      81.107   3.722  54.951  1.00  0.00    -0.496 OA
ATOM     13  C   UNL     1      79.755   3.870  54.532  1.00  0.00     0.278 C 
ENDBRANCH   1  12
BRANCH  10  14
ATOM     14  O   UNL     1      83.074   2.872  59.384  1.00  0.00    -0.496 OA
ATOM     15  C   UNL     1      82.477   1.627  59.733  1.00  0.00     0.278 C 
ENDBRANCH  10  14
TORSDOF 2
ENDMDL
MODEL 8
REMARK VINA RESULT:    -3.265     19.330     20.229
REMARK INTER + INTRA:          -3.746
REMARK INTER:                  -3.627
REMARK INTRA:                  -0.119
REMARK UNBOUND:                -0.098
REMARK SMILES COc1cc(OC)c2ccc(=O)oc2c1
REMARK SMILES IDX 3 1 15 2 14 3 8 4 9 5 10 6 11 7 12 8 13 9 5 10 4 11 2 12
REMARK SMILES IDX 1 13 6 14 7 15
REMARK H PARENT
REMARK Flexibility Score: inf
ROOT
ATOM      1  C   UNL     1      69.648  -9.484  55.146  1.00  0.00     0.126 A 
ATOM      2  C   UNL     1      70.415 -10.288  54.300  1.00  0.00     0.094 A 
ATOM      3  C   UNL     1      70.786  -9.837  53.032  1.00  0.00     0.145 A 
ATOM      4  C   UNL     1      70.387  -8.555  52.593  1.00  0.00     0.060 A 
ATOM      5  C   UNL     1      70.784  -8.144  51.312  1.00  0.00     0.023 A 
ATOM      6  C   UNL     1      71.550  -8.999  50.521  1.00  0.00     0.095 A 
ATOM      7  C   UNL     1      71.904 -10.253  51.026  1.00  0.00     0.336 A 
ATOM      8  O   UNL     1      72.595 -11.040  50.326  1.00  0.00    -0.246 OA
ATOM      9  O   UNL     1      71.517 -10.622  52.243  1.00  0.00    -0.422 OA
ATOM     10  C   UNL     1      69.614  -7.731  53.434  1.00  0.00     0.133 A 
ATOM     11  C   UNL     1      69.248  -8.204  54.711  1.00  0.00     0.093 A 
ENDROOT
BRANCH   1  12
ATOM     12  O   UNL     1      69.304  -9.989  56.409  1.00  0.00    -0.496 OA
ATOM     13  C   UNL     1      69.941 -11.099  57.034  1.00  0.00     0.278 C 
ENDBRANCH   1  12
BRANCH  10  14
ATOM     14  O   UNL     1      69.227  -6.459  52.978  1.00  0.00    -0.496 OA
ATOM     15  C   UNL     1      67.897  -6.092  52.629  1.00  0.00     0.278 C 
ENDBRANCH  10  14
TORSDOF 2
ENDMDL
MODEL 9
REMARK VINA RESULT:    -3.251     19.519     21.001
REMARK INTER + INTRA:          -3.730
REMARK INTER:                  -3.618
REMARK INTRA:                  -0.112
REMARK UNBOUND:                -0.098
REMARK SMILES COc1cc(OC)c2ccc(=O)oc2c1
REMARK SMILES IDX 3 1 15 2 14 3 8 4 9 5 10 6 11 7 12 8 13 9 5 10 4 11 2 12
REMARK SMILES IDX 1 13 6 14 7 15
REMARK H PARENT
REMARK Flexibility Score: inf
ROOT
ATOM      1  C   UNL     1      70.733  -7.040  50.691  1.00  0.00     0.126 A 
ATOM      2  C   UNL     1      69.995  -6.981  51.875  1.00  0.00     0.094 A 
ATOM      3  C   UNL     1      70.003  -8.050  52.773  1.00  0.00     0.145 A 
ATOM      4  C   UNL     1      70.764  -9.206  52.489  1.00  0.00     0.060 A 
ATOM      5  C   UNL     1      70.742 -10.254  53.420  1.00  0.00     0.023 A 
ATOM      6  C   UNL     1      69.983 -10.127  54.582  1.00  0.00     0.095 A 
ATOM      7  C   UNL     1      69.256  -8.952  54.791  1.00  0.00     0.336 A 
ATOM      8  O   UNL     1      68.563  -8.819  55.835  1.00  0.00    -0.246 OA
ATOM      9  O   UNL     1      69.291  -7.971  53.895  1.00  0.00    -0.422 OA
ATOM     10  C   UNL     1      71.514  -9.281  51.299  1.00  0.00     0.133 A 
ATOM     11  C   UNL     1      71.493  -8.191  50.405  1.00  0.00     0.093 A 
ENDROOT
BRANCH   1  12
ATOM     12  O   UNL     1      70.688  -5.935  49.825  1.00  0.00    -0.496 OA
ATOM     13  C   UNL     1      69.529  -5.143  49.590  1.00  0.00     0.278 C 
ENDBRANCH   1  12
BRANCH  10  14
ATOM     14  O   UNL     1      72.265 -10.440  51.036  1.00  0.00    -0.496 OA
ATOM     15  C   UNL     1      72.289 -11.125  49.788  1.00  0.00     0.278 C 
ENDBRANCH  10  14
TORSDOF 2
ENDMDL
