MODEL 1
REMARK VINA RESULT:    -2.940      0.000      0.000
REMARK INTER + INTRA:          -3.198
REMARK INTER:                  -3.198
REMARK INTRA:                   0.000
REMARK UNBOUND:                 0.000
REMARK SMILES [NH3+]CC(=O)[O-]
REMARK SMILES IDX 2 1 1 2 3 6 4 7 5 8
REMARK H PARENT 1 3 1 4 1 5
REMARK Flexibility Score: inf
ROOT
ATOM      1  C   UNL     1      16.314   8.584  57.134  1.00  0.00     0.312 C 
ENDROOT
BRANCH   1   2
ATOM      2  N   UNL     1      15.738   7.671  58.120  1.00  0.00    -0.353 N 
ATOM      3  H   UNL     1      16.037   7.950  59.084  1.00  0.00     0.344 HD
ATOM      4  H   UNL     1      14.696   7.718  58.063  1.00  0.00     0.344 HD
ATOM      5  H   UNL     1      16.046   6.691  57.925  1.00  0.00     0.344 HD
ENDBRANCH   1   2
BRANCH   1   6
ATOM      6  C   UNL     1      15.484   9.825  57.015  1.00  0.00     0.096 C 
ATOM      7  O   UNL     1      14.910  10.101  55.930  1.00  0.00    -0.544 OA
ATOM      8  O   UNL     1      15.304  10.649  58.119  1.00  0.00    -0.544 OA
ENDBRANCH   1   6
TORSDOF 2
ENDMDL
MODEL 2
REMARK VINA RESULT:    -2.924      3.457      3.721
REMARK INTER + INTRA:          -3.180
REMARK INTER:                  -3.180
REMARK INTRA:                   0.000
REMARK UNBOUND:                 0.000
REMARK SMILES [NH3+]CC(=O)[O-]
REMARK SMILES IDX 2 1 1 2 3 6 4 7 5 8
REMARK H PARENT 1 3 1 4 1 5
REMARK Flexibility Score: inf
ROOT
ATOM      1  C   UNL     1      13.606   8.871  54.029  1.00  0.00     0.312 C 
ENDROOT
BRANCH   1   2
ATOM      2  N   UNL     1      13.591   9.946  53.038  1.00  0.00    -0.353 N 
ATOM      3  H   UNL     1      13.380  10.859  53.503  1.00  0.00     0.344 HD
ATOM      4  H   UNL     1      14.531  10.007  52.585  1.00  0.00     0.344 HD
ATOM      5  H   UNL     1      12.872   9.747  52.304  1.00  0.00     0.344 HD
ENDBRANCH   1   2
BRANCH   1   6
ATOM      6  C   UNL     1      13.820   9.424  55.404  1.00  0.00     0.096 C 
ATOM      7  O   UNL     1      14.825  10.141  55.649  1.00  0.00    -0.544 OA
ATOM      8  O   UNL     1      12.883   9.188  56.402  1.00  0.00    -0.544 OA
ENDBRANCH   1   6
TORSDOF 2
ENDMDL
MODEL 3
REMARK VINA RESULT:    -2.879      3.924      4.247
REMARK INTER + INTRA:          -3.131
REMARK INTER:                  -3.131
REMARK INTRA:                   0.000
REMARK UNBOUND:                 0.000
REMARK SMILES [NH3+]CC(=O)[O-]
REMARK SMILES IDX 2 1 1 2 3 6 4 7 5 8
REMARK H PARENT 1 3 1 4 1 5
REMARK Flexibility Score: inf
ROOT
ATOM      1  C   UNL     1      15.127   6.929  56.077  1.00  0.00     0.312 C 
ENDROOT
BRANCH   1   2
ATOM      2  N   UNL     1      15.518   6.218  57.293  1.00  0.00    -0.353 N 
ATOM      3  H   UNL     1      16.557   6.254  57.410  1.00  0.00     0.344 HD
ATOM      4  H   UNL     1      15.068   6.676  58.117  1.00  0.00     0.344 HD
ATOM      5  H   UNL     1      15.202   5.222  57.243  1.00  0.00     0.344 HD
ENDBRANCH   1   2
BRANCH   1   6
ATOM      6  C   UNL     1      14.483   5.994  55.101  1.00  0.00     0.096 C 
ATOM      7  O   UNL     1      15.192   5.328  54.301  1.00  0.00    -0.544 OA
ATOM      8  O   UNL     1      13.105   5.820  55.109  1.00  0.00    -0.544 OA
ENDBRANCH   1   6
TORSDOF 2
ENDMDL
MODEL 4
REMARK VINA RESULT:    -2.869      3.979      4.381
REMARK INTER + INTRA:          -3.121
REMARK INTER:                  -3.121
REMARK INTRA:                   0.000
REMARK UNBOUND:                 0.000
REMARK SMILES [NH3+]CC(=O)[O-]
REMARK SMILES IDX 2 1 1 2 3 6 4 7 5 8
REMARK H PARENT 1 3 1 4 1 5
REMARK Flexibility Score: inf
ROOT
ATOM      1  C   UNL     1      15.130   6.877  56.104  1.00  0.00     0.312 C 
ENDROOT
BRANCH   1   2
ATOM      2  N   UNL     1      15.548   6.281  57.372  1.00  0.00    -0.353 N 
ATOM      3  H   UNL     1      15.179   6.847  58.172  1.00  0.00     0.344 HD
ATOM      4  H   UNL     1      15.163   5.312  57.439  1.00  0.00     0.344 HD
ATOM      5  H   UNL     1      16.592   6.237  57.422  1.00  0.00     0.344 HD
ENDBRANCH   1   2
BRANCH   1   6
ATOM      6  C   UNL     1      14.636   5.822  55.163  1.00  0.00     0.096 C 
ATOM      7  O   UNL     1      13.401   5.621  55.029  1.00  0.00    -0.544 OA
ATOM      8  O   UNL     1      15.539   5.097  54.395  1.00  0.00    -0.544 OA
ENDBRANCH   1   6
TORSDOF 2
ENDMDL
MODEL 5
REMARK VINA RESULT:    -2.791      4.475      4.683
REMARK INTER + INTRA:          -3.036
REMARK INTER:                  -3.036
REMARK INTRA:                   0.000
REMARK UNBOUND:                 0.000
REMARK SMILES [NH3+]CC(=O)[O-]
REMARK SMILES IDX 2 1 1 2 3 6 4 7 5 8
REMARK H PARENT 1 3 1 4 1 5
REMARK Flexibility Score: inf
ROOT
ATOM      1  C   UNL     1      13.653   8.609  54.918  1.00  0.00     0.312 C 
ENDROOT
BRANCH   1   2
ATOM      2  N   UNL     1      13.439   9.265  53.629  1.00  0.00    -0.353 N 
ATOM      3  H   UNL     1      13.411  10.303  53.756  1.00  0.00     0.344 HD
ATOM      4  H   UNL     1      14.229   9.024  52.988  1.00  0.00     0.344 HD
ATOM      5  H   UNL     1      12.542   8.936  53.203  1.00  0.00     0.344 HD
ENDBRANCH   1   2
BRANCH   1   6
ATOM      6  C   UNL     1      13.434   7.132  54.802  1.00  0.00     0.096 C 
ATOM      7  O   UNL     1      12.312   6.635  55.081  1.00  0.00    -0.544 OA
ATOM      8  O   UNL     1      14.455   6.312  54.337  1.00  0.00    -0.544 OA
ENDBRANCH   1   6
TORSDOF 2
ENDMDL
MODEL 6
REMARK VINA RESULT:    -2.779      1.318      1.420
REMARK INTER + INTRA:          -3.023
REMARK INTER:                  -3.023
REMARK INTRA:                   0.000
REMARK UNBOUND:                 0.000
REMARK SMILES [NH3+]CC(=O)[O-]
REMARK SMILES IDX 2 1 1 2 3 6 4 7 5 8
REMARK H PARENT 1 3 1 4 1 5
REMARK Flexibility Score: inf
ROOT
ATOM      1  C   UNL     1      16.059   8.781  57.161  1.00  0.00     0.312 C 
ENDROOT
BRANCH   1   2
ATOM      2  N   UNL     1      15.889   7.695  58.125  1.00  0.00    -0.353 N 
ATOM      3  H   UNL     1      16.315   6.815  57.753  1.00  0.00     0.344 HD
ATOM      4  H   UNL     1      16.368   7.951  59.018  1.00  0.00     0.344 HD
ATOM      5  H   UNL     1      14.872   7.541  58.316  1.00  0.00     0.344 HD
ENDBRANCH   1   2
BRANCH   1   6
ATOM      6  C   UNL     1      14.745   9.158  56.552  1.00  0.00     0.096 C 
ATOM      7  O   UNL     1      14.702   9.977  55.596  1.00  0.00    -0.544 OA
ATOM      8  O   UNL     1      13.572   8.567  57.006  1.00  0.00    -0.544 OA
ENDBRANCH   1   6
TORSDOF 2
ENDMDL
MODEL 7
REMARK VINA RESULT:    -2.722      3.491      4.017
REMARK INTER + INTRA:          -2.961
REMARK INTER:                  -2.961
REMARK INTRA:                   0.000
REMARK UNBOUND:                 0.000
REMARK SMILES [NH3+]CC(=O)[O-]
REMARK SMILES IDX 2 1 1 2 3 6 4 7 5 8
REMARK H PARENT 1 3 1 4 1 5
REMARK Flexibility Score: inf
ROOT
ATOM      1  C   UNL     1      15.314   6.972  56.882  1.00  0.00     0.312 C 
ENDROOT
BRANCH   1   2
ATOM      2  N   UNL     1      15.868   7.506  58.125  1.00  0.00    -0.353 N 
ATOM      3  H   UNL     1      16.523   6.812  58.552  1.00  0.00     0.344 HD
ATOM      4  H   UNL     1      16.395   8.384  57.915  1.00  0.00     0.344 HD
ATOM      5  H   UNL     1      15.096   7.724  58.797  1.00  0.00     0.344 HD
ENDBRANCH   1   2
BRANCH   1   6
ATOM      6  C   UNL     1      16.287   6.043  56.225  1.00  0.00     0.096 C 
ATOM      7  O   UNL     1      17.524   6.273  56.291  1.00  0.00    -0.544 OA
ATOM      8  O   UNL     1      15.832   4.898  55.585  1.00  0.00    -0.544 OA
ENDBRANCH   1   6
TORSDOF 2
ENDMDL
MODEL 8
REMARK VINA RESULT:    -2.717      3.446      3.601
REMARK INTER + INTRA:          -2.956
REMARK INTER:                  -2.956
REMARK INTRA:                   0.000
REMARK UNBOUND:                 0.000
REMARK SMILES [NH3+]CC(=O)[O-]
REMARK SMILES IDX 2 1 1 2 3 6 4 7 5 8
REMARK H PARENT 1 3 1 4 1 5
REMARK Flexibility Score: inf
ROOT
ATOM      1  C   UNL     1      13.122   6.985  54.982  1.00  0.00     0.312 C 
ENDROOT
BRANCH   1   2
ATOM      2  N   UNL     1      14.348   6.369  54.476  1.00  0.00    -0.353 N 
ATOM      3  H   UNL     1      14.327   6.338  53.430  1.00  0.00     0.344 HD
ATOM      4  H   UNL     1      15.169   6.940  54.781  1.00  0.00     0.344 HD
ATOM      5  H   UNL     1      14.446   5.400  54.857  1.00  0.00     0.344 HD
ENDBRANCH   1   2
BRANCH   1   6
ATOM      6  C   UNL     1      13.221   8.479  54.929  1.00  0.00     0.096 C 
ATOM      7  O   UNL     1      13.535   9.055  53.855  1.00  0.00    -0.544 OA
ATOM      8  O   UNL     1      12.915   9.236  56.053  1.00  0.00    -0.544 OA
ENDBRANCH   1   6
TORSDOF 2
ENDMDL
MODEL 9
REMARK VINA RESULT:    -2.676      2.108      2.255
REMARK INTER + INTRA:          -2.911
REMARK INTER:                  -2.911
REMARK INTRA:                   0.000
REMARK UNBOUND:                 0.000
REMARK SMILES [NH3+]CC(=O)[O-]
REMARK SMILES IDX 2 1 1 2 3 6 4 7 5 8
REMARK H PARENT 1 3 1 4 1 5
REMARK Flexibility Score: inf
ROOT
ATOM      1  C   UNL     1      16.647   6.736  56.604  1.00  0.00     0.312 C 
ENDROOT
BRANCH   1   2
ATOM      2  N   UNL     1      15.860   5.554  56.950  1.00  0.00    -0.353 N 
ATOM      3  H   UNL     1      14.940   5.842  57.359  1.00  0.00     0.344 HD
ATOM      4  H   UNL     1      15.684   4.995  56.085  1.00  0.00     0.344 HD
ATOM      5  H   UNL     1      16.382   4.963  57.637  1.00  0.00     0.344 HD
ENDBRANCH   1   2
BRANCH   1   6
ATOM      6  C   UNL     1      15.946   7.984  57.043  1.00  0.00     0.096 C 
ATOM      7  O   UNL     1      14.765   7.929  57.476  1.00  0.00    -0.544 OA
ATOM      8  O   UNL     1      16.615   9.202  57.021  1.00  0.00    -0.544 OA
ENDBRANCH   1   6
TORSDOF 2
ENDMDL
