MODEL 1
REMARK VINA RESULT:    -4.001      0.000      0.000
REMARK INTER + INTRA:          -5.321
REMARK INTER:                  -4.820
REMARK INTRA:                  -0.501
REMARK UNBOUND:                -0.501
REMARK SMILES NC(=O)C[C@@H]([NH3+])C(=O)[O-]
REMARK SMILES IDX 4 1 5 2 6 3 7 7 8 8 9 9 2 10 3 11 1 12
REMARK H PARENT 6 4 6 5 6 6 1 13 1 14
REMARK Flexibility Score: inf
ROOT
ATOM      1  C   UNL     1      35.403   4.855  -7.545  1.00  0.00     0.171 C 
ENDROOT
BRANCH   1   2
ATOM      2  C   UNL     1      35.343   3.424  -8.117  1.00  0.00     0.237 C 
BRANCH   2   3
ATOM      3  N   UNL     1      34.234   2.676  -7.512  1.00  0.00    -0.350 N 
ATOM      4  H   UNL     1      34.249   1.686  -7.847  1.00  0.00     0.345 HD
ATOM      5  H   UNL     1      33.322   3.103  -7.796  1.00  0.00     0.345 HD
ATOM      6  H   UNL     1      34.307   2.686  -6.468  1.00  0.00     0.345 HD
ENDBRANCH   2   3
BRANCH   2   7
ATOM      7  C   UNL     1      35.191   3.450  -9.617  1.00  0.00     0.100 C 
ATOM      8  O   UNL     1      36.028   2.857 -10.348  1.00  0.00    -0.544 OA
ATOM      9  O   UNL     1      34.132   4.135 -10.202  1.00  0.00    -0.544 OA
ENDBRANCH   2   7
ENDBRANCH   1   2
BRANCH   1  10
ATOM     10  C   UNL     1      34.077   5.280  -6.981  1.00  0.00     0.223 C 
ATOM     11  O   UNL     1      33.811   5.060  -5.769  1.00  0.00    -0.275 OA
ATOM     12  N   UNL     1      33.103   5.901  -7.818  1.00  0.00    -0.369 N 
ATOM     13  H   UNL     1      32.176   6.185  -7.428  1.00  0.00     0.159 HD
ATOM     14  H   UNL     1      33.302   6.076  -8.828  1.00  0.00     0.159 HD
ENDBRANCH   1  10
TORSDOF 4
ENDMDL
MODEL 2
REMARK VINA RESULT:    -3.966      1.866      2.494
REMARK INTER + INTRA:          -5.279
REMARK INTER:                  -4.796
REMARK INTRA:                  -0.483
REMARK UNBOUND:                -0.501
REMARK SMILES NC(=O)C[C@@H]([NH3+])C(=O)[O-]
REMARK SMILES IDX 4 1 5 2 6 3 7 7 8 8 9 9 2 10 3 11 1 12
REMARK H PARENT 6 4 6 5 6 6 1 13 1 14
REMARK Flexibility Score: inf
ROOT
ATOM      1  C   UNL     1      34.270   4.058  -7.894  1.00  0.00     0.171 C 
ENDROOT
BRANCH   1   2
ATOM      2  C   UNL     1      33.696   4.986  -8.984  1.00  0.00     0.237 C 
BRANCH   2   3
ATOM      3  N   UNL     1      33.002   6.125  -8.372  1.00  0.00    -0.350 N 
ATOM      4  H   UNL     1      32.002   6.135  -8.674  1.00  0.00     0.345 HD
ATOM      5  H   UNL     1      33.445   7.020  -8.684  1.00  0.00     0.345 HD
ATOM      6  H   UNL     1      33.044   6.067  -7.328  1.00  0.00     0.345 HD
ENDBRANCH   2   3
BRANCH   2   7
ATOM      7  C   UNL     1      34.786   5.477  -9.901  1.00  0.00     0.100 C 
ATOM      8  O   UNL     1      34.494   6.126 -10.941  1.00  0.00    -0.544 OA
ATOM      9  O   UNL     1      36.119   5.210  -9.612  1.00  0.00    -0.544 OA
ENDBRANCH   2   7
ENDBRANCH   1   2
BRANCH   1  10
ATOM     10  C   UNL     1      34.631   4.821  -6.652  1.00  0.00     0.223 C 
ATOM     11  O   UNL     1      33.768   5.000  -5.752  1.00  0.00    -0.275 OA
ATOM     12  N   UNL     1      35.937   5.375  -6.500  1.00  0.00    -0.369 N 
ATOM     13  H   UNL     1      36.184   5.916  -5.642  1.00  0.00     0.159 HD
ATOM     14  H   UNL     1      36.659   5.249  -7.244  1.00  0.00     0.159 HD
ENDBRANCH   1  10
TORSDOF 4
ENDMDL
MODEL 3
REMARK VINA RESULT:    -3.904      1.747      2.230
REMARK INTER + INTRA:          -5.204
REMARK INTER:                  -4.739
REMARK INTRA:                  -0.466
REMARK UNBOUND:                -0.501
REMARK SMILES NC(=O)C[C@@H]([NH3+])C(=O)[O-]
REMARK SMILES IDX 4 1 5 2 6 3 7 7 8 8 9 9 2 10 3 11 1 12
REMARK H PARENT 6 4 6 5 6 6 1 13 1 14
REMARK Flexibility Score: inf
ROOT
ATOM      1  C   UNL     1      34.314   5.347  -8.082  1.00  0.00     0.171 C 
ENDROOT
BRANCH   1   2
ATOM      2  C   UNL     1      35.823   5.604  -8.276  1.00  0.00     0.237 C 
BRANCH   2   3
ATOM      3  N   UNL     1      36.546   5.371  -7.021  1.00  0.00    -0.350 N 
ATOM      4  H   UNL     1      35.932   5.605  -6.208  1.00  0.00     0.345 HD
ATOM      5  H   UNL     1      37.391   5.988  -6.979  1.00  0.00     0.345 HD
ATOM      6  H   UNL     1      36.847   4.372  -6.946  1.00  0.00     0.345 HD
ENDBRANCH   2   3
BRANCH   2   7
ATOM      7  C   UNL     1      36.382   4.725  -9.365  1.00  0.00     0.100 C 
ATOM      8  O   UNL     1      37.171   5.206 -10.222  1.00  0.00    -0.544 OA
ATOM      9  O   UNL     1      36.025   3.384  -9.438  1.00  0.00    -0.544 OA
ENDBRANCH   2   7
ENDBRANCH   1   2
BRANCH   1  10
ATOM     10  C   UNL     1      34.051   4.477  -6.887  1.00  0.00     0.223 C 
ATOM     11  O   UNL     1      33.781   5.003  -5.774  1.00  0.00    -0.275 OA
ATOM     12  N   UNL     1      34.139   3.057  -6.994  1.00  0.00    -0.369 N 
ATOM     13  H   UNL     1      33.968   2.452  -6.160  1.00  0.00     0.159 HD
ATOM     14  H   UNL     1      34.376   2.605  -7.906  1.00  0.00     0.159 HD
ENDBRANCH   1  10
TORSDOF 4
ENDMDL
MODEL 4
REMARK VINA RESULT:    -3.880      1.955      2.191
REMARK INTER + INTRA:          -5.175
REMARK INTER:                  -4.785
REMARK INTRA:                  -0.390
REMARK UNBOUND:                -0.501
REMARK SMILES NC(=O)C[C@@H]([NH3+])C(=O)[O-]
REMARK SMILES IDX 4 1 5 2 6 3 7 7 8 8 9 9 2 10 3 11 1 12
REMARK H PARENT 6 4 6 5 6 6 1 13 1 14
REMARK Flexibility Score: inf
ROOT
ATOM      1  C   UNL     1      35.552   5.303  -7.216  1.00  0.00     0.171 C 
ENDROOT
BRANCH   1   2
ATOM      2  C   UNL     1      35.626   5.266  -8.756  1.00  0.00     0.237 C 
BRANCH   2   3
ATOM      3  N   UNL     1      36.239   4.012  -9.209  1.00  0.00    -0.350 N 
ATOM      4  H   UNL     1      36.000   3.240  -8.545  1.00  0.00     0.345 HD
ATOM      5  H   UNL     1      37.280   4.112  -9.230  1.00  0.00     0.345 HD
ATOM      6  H   UNL     1      35.899   3.757 -10.166  1.00  0.00     0.345 HD
ENDBRANCH   2   3
BRANCH   2   7
ATOM      7  C   UNL     1      34.256   5.421  -9.365  1.00  0.00     0.100 C 
ATOM      8  O   UNL     1      33.850   4.597 -10.227  1.00  0.00    -0.544 OA
ATOM      9  O   UNL     1      33.435   6.477  -8.985  1.00  0.00    -0.544 OA
ENDBRANCH   2   7
ENDBRANCH   1   2
BRANCH   1  10
ATOM     10  C   UNL     1      34.484   4.386  -6.692  1.00  0.00     0.223 C 
ATOM     11  O   UNL     1      34.633   3.137  -6.772  1.00  0.00    -0.275 OA
ATOM     12  N   UNL     1      33.283   4.921  -6.136  1.00  0.00    -0.369 N 
ATOM     13  H   UNL     1      32.536   4.283  -5.783  1.00  0.00     0.159 HD
ATOM     14  H   UNL     1      33.138   5.953  -6.077  1.00  0.00     0.159 HD
ENDBRANCH   1  10
TORSDOF 4
ENDMDL
MODEL 5
REMARK VINA RESULT:    -3.847     11.589     12.512
REMARK INTER + INTRA:          -5.136
REMARK INTER:                  -4.885
REMARK INTRA:                  -0.250
REMARK UNBOUND:                -0.501
REMARK SMILES NC(=O)C[C@@H]([NH3+])C(=O)[O-]
REMARK SMILES IDX 4 1 5 2 6 3 7 7 8 8 9 9 2 10 3 11 1 12
REMARK H PARENT 6 4 6 5 6 6 1 13 1 14
REMARK Flexibility Score: inf
ROOT
ATOM      1  C   UNL     1      26.083  -1.349  -1.101  1.00  0.00     0.171 C 
ENDROOT
BRANCH   1   2
ATOM      2  C   UNL     1      25.287  -1.931  -2.287  1.00  0.00     0.237 C 
BRANCH   2   3
ATOM      3  N   UNL     1      26.039  -1.769  -3.536  1.00  0.00    -0.350 N 
ATOM      4  H   UNL     1      25.662  -2.418  -4.264  1.00  0.00     0.345 HD
ATOM      5  H   UNL     1      27.045  -2.006  -3.378  1.00  0.00     0.345 HD
ATOM      6  H   UNL     1      25.969  -0.785  -3.886  1.00  0.00     0.345 HD
ENDBRANCH   2   3
BRANCH   2   7
ATOM      7  C   UNL     1      24.970  -3.386  -2.059  1.00  0.00     0.100 C 
ATOM      8  O   UNL     1      23.815  -3.733  -1.694  1.00  0.00    -0.544 OA
ATOM      9  O   UNL     1      25.950  -4.355  -2.242  1.00  0.00    -0.544 OA
ENDBRANCH   2   7
ENDBRANCH   1   2
BRANCH   1  10
ATOM     10  C   UNL     1      27.148  -0.397  -1.564  1.00  0.00     0.223 C 
ATOM     11  O   UNL     1      26.834   0.603  -2.266  1.00  0.00    -0.275 OA
ATOM     12  N   UNL     1      28.518  -0.634  -1.245  1.00  0.00    -0.369 N 
ATOM     13  H   UNL     1      29.259   0.021  -1.577  1.00  0.00     0.159 HD
ATOM     14  H   UNL     1      28.796  -1.466  -0.678  1.00  0.00     0.159 HD
ENDBRANCH   1  10
TORSDOF 4
ENDMDL
MODEL 6
REMARK VINA RESULT:    -3.810     10.884     11.858
REMARK INTER + INTRA:          -5.092
REMARK INTER:                  -4.823
REMARK INTRA:                  -0.269
REMARK UNBOUND:                -0.501
REMARK SMILES NC(=O)C[C@@H]([NH3+])C(=O)[O-]
REMARK SMILES IDX 4 1 5 2 6 3 7 7 8 8 9 9 2 10 3 11 1 12
REMARK H PARENT 6 4 6 5 6 6 1 13 1 14
REMARK Flexibility Score: inf
ROOT
ATOM      1  C   UNL     1      40.085   2.366   1.642  1.00  0.00     0.171 C 
ENDROOT
BRANCH   1   2
ATOM      2  C   UNL     1      39.096   3.384   2.245  1.00  0.00     0.237 C 
BRANCH   2   3
ATOM      3  N   UNL     1      39.351   4.726   1.709  1.00  0.00    -0.350 N 
ATOM      4  H   UNL     1      40.274   5.075   2.053  1.00  0.00     0.345 HD
ATOM      5  H   UNL     1      38.610   5.386   2.039  1.00  0.00     0.345 HD
ATOM      6  H   UNL     1      39.357   4.712   0.663  1.00  0.00     0.345 HD
ENDBRANCH   2   3
BRANCH   2   7
ATOM      7  C   UNL     1      37.671   2.979   1.968  1.00  0.00     0.100 C 
ATOM      8  O   UNL     1      36.751   3.839   1.998  1.00  0.00    -0.544 OA
ATOM      9  O   UNL     1      37.361   1.654   1.685  1.00  0.00    -0.544 OA
ENDBRANCH   2   7
ENDBRANCH   1   2
BRANCH   1  10
ATOM     10  C   UNL     1      41.507   2.826   1.786  1.00  0.00     0.223 C 
ATOM     11  O   UNL     1      41.993   3.637   0.952  1.00  0.00    -0.275 OA
ATOM     12  N   UNL     1      42.324   2.324   2.843  1.00  0.00    -0.369 N 
ATOM     13  H   UNL     1      43.317   2.634   2.936  1.00  0.00     0.159 HD
ATOM     14  H   UNL     1      41.941   1.640   3.533  1.00  0.00     0.159 HD
ENDBRANCH   1  10
TORSDOF 4
ENDMDL
MODEL 7
REMARK VINA RESULT:    -3.794      1.776      3.638
REMARK INTER + INTRA:          -5.072
REMARK INTER:                  -4.578
REMARK INTRA:                  -0.494
REMARK UNBOUND:                -0.501
REMARK SMILES NC(=O)C[C@@H]([NH3+])C(=O)[O-]
REMARK SMILES IDX 4 1 5 2 6 3 7 7 8 8 9 9 2 10 3 11 1 12
REMARK H PARENT 6 4 6 5 6 6 1 13 1 14
REMARK Flexibility Score: inf
ROOT
ATOM      1  C   UNL     1      34.511   2.830  -8.278  1.00  0.00     0.171 C 
ENDROOT
BRANCH   1   2
ATOM      2  C   UNL     1      35.089   3.856  -7.282  1.00  0.00     0.237 C 
BRANCH   2   3
ATOM      3  N   UNL     1      36.293   4.485  -7.836  1.00  0.00    -0.350 N 
ATOM      4  H   UNL     1      36.955   4.726  -7.063  1.00  0.00     0.345 HD
ATOM      5  H   UNL     1      36.036   5.370  -8.331  1.00  0.00     0.345 HD
ATOM      6  H   UNL     1      36.772   3.842  -8.508  1.00  0.00     0.345 HD
ENDBRANCH   2   3
BRANCH   2   7
ATOM      7  C   UNL     1      34.066   4.909  -6.941  1.00  0.00     0.100 C 
ATOM      8  O   UNL     1      33.653   5.030  -5.757  1.00  0.00    -0.544 OA
ATOM      9  O   UNL     1      33.565   5.747  -7.930  1.00  0.00    -0.544 OA
ENDBRANCH   2   7
ENDBRANCH   1   2
BRANCH   1  10
ATOM     10  C   UNL     1      34.971   3.104  -9.681  1.00  0.00     0.223 C 
ATOM     11  O   UNL     1      36.009   2.541 -10.123  1.00  0.00    -0.275 OA
ATOM     12  N   UNL     1      34.259   4.024 -10.508  1.00  0.00    -0.369 N 
ATOM     13  H   UNL     1      34.586   4.224 -11.479  1.00  0.00     0.159 HD
ATOM     14  H   UNL     1      33.406   4.510 -10.151  1.00  0.00     0.159 HD
ENDBRANCH   1  10
TORSDOF 4
ENDMDL
MODEL 8
REMARK VINA RESULT:    -3.705     11.482     12.558
REMARK INTER + INTRA:          -4.964
REMARK INTER:                  -4.734
REMARK INTRA:                  -0.230
REMARK UNBOUND:                -0.501
REMARK SMILES NC(=O)C[C@@H]([NH3+])C(=O)[O-]
REMARK SMILES IDX 4 1 5 2 6 3 7 7 8 8 9 9 2 10 3 11 1 12
REMARK H PARENT 6 4 6 5 6 6 1 13 1 14
REMARK Flexibility Score: inf
ROOT
ATOM      1  C   UNL     1      25.866  -2.065  -1.347  1.00  0.00     0.171 C 
ENDROOT
BRANCH   1   2
ATOM      2  C   UNL     1      26.484  -1.205  -2.468  1.00  0.00     0.237 C 
BRANCH   2   3
ATOM      3  N   UNL     1      26.088  -1.718  -3.785  1.00  0.00    -0.350 N 
ATOM      4  H   UNL     1      25.060  -1.588  -3.922  1.00  0.00     0.345 HD
ATOM      5  H   UNL     1      26.298  -2.742  -3.844  1.00  0.00     0.345 HD
ATOM      6  H   UNL     1      26.602  -1.218  -4.547  1.00  0.00     0.345 HD
ENDBRANCH   2   3
BRANCH   2   7
ATOM      7  C   UNL     1      26.068   0.238  -2.330  1.00  0.00     0.100 C 
ATOM      8  O   UNL     1      24.901   0.593  -2.645  1.00  0.00    -0.544 OA
ATOM      9  O   UNL     1      26.971   1.186  -1.863  1.00  0.00    -0.544 OA
ENDBRANCH   2   7
ENDBRANCH   1   2
BRANCH   1  10
ATOM     10  C   UNL     1      25.172  -3.276  -1.900  1.00  0.00     0.223 C 
ATOM     11  O   UNL     1      25.846  -4.283  -2.247  1.00  0.00    -0.275 OA
ATOM     12  N   UNL     1      23.755  -3.283  -2.068  1.00  0.00    -0.369 N 
ATOM     13  H   UNL     1      23.274  -4.121  -2.464  1.00  0.00     0.159 HD
ATOM     14  H   UNL     1      23.183  -2.451  -1.800  1.00  0.00     0.159 HD
ENDBRANCH   1  10
TORSDOF 4
ENDMDL
MODEL 9
REMARK VINA RESULT:    -3.632      1.960      3.638
REMARK INTER + INTRA:          -4.876
REMARK INTER:                  -4.385
REMARK INTRA:                  -0.491
REMARK UNBOUND:                -0.501
REMARK SMILES NC(=O)C[C@@H]([NH3+])C(=O)[O-]
REMARK SMILES IDX 4 1 5 2 6 3 7 7 8 8 9 9 2 10 3 11 1 12
REMARK H PARENT 6 4 6 5 6 6 1 13 1 14
REMARK Flexibility Score: inf
ROOT
ATOM      1  C   UNL     1      33.489   5.714  -8.963  1.00  0.00     0.171 C 
ENDROOT
BRANCH   1   2
ATOM      2  C   UNL     1      33.687   4.649  -7.865  1.00  0.00     0.237 C 
BRANCH   2   3
ATOM      3  N   UNL     1      34.061   3.362  -8.462  1.00  0.00    -0.350 N 
ATOM      4  H   UNL     1      34.734   2.863  -7.836  1.00  0.00     0.345 HD
ATOM      5  H   UNL     1      34.530   3.521  -9.383  1.00  0.00     0.345 HD
ATOM      6  H   UNL     1      33.216   2.761  -8.606  1.00  0.00     0.345 HD
ENDBRANCH   2   3
BRANCH   2   7
ATOM      7  C   UNL     1      34.739   5.085  -6.876  1.00  0.00     0.100 C 
ATOM      8  O   UNL     1      34.401   5.505  -5.738  1.00  0.00    -0.544 OA
ATOM      9  O   UNL     1      36.085   5.035  -7.216  1.00  0.00    -0.544 OA
ENDBRANCH   2   7
ENDBRANCH   1   2
BRANCH   1  10
ATOM     10  C   UNL     1      34.277   5.387 -10.198  1.00  0.00     0.223 C 
ATOM     11  O   UNL     1      33.724   4.780 -11.154  1.00  0.00    -0.275 OA
ATOM     12  N   UNL     1      35.660   5.730 -10.284  1.00  0.00    -0.369 N 
ATOM     13  H   UNL     1      36.211   5.491 -11.138  1.00  0.00     0.159 HD
ATOM     14  H   UNL     1      36.137   6.220  -9.494  1.00  0.00     0.159 HD
ENDBRANCH   1  10
TORSDOF 4
ENDMDL
