MODEL 1
REMARK VINA RESULT:    -3.129      0.000      0.000
REMARK INTER + INTRA:          -4.216
REMARK INTER:                  -4.044
REMARK INTRA:                  -0.171
REMARK UNBOUND:                -0.171
REMARK SMILES CCCCCCC(=O)[O-]
REMARK SMILES IDX 5 1 6 2 7 3 8 4 9 5 4 6 3 7 2 8 1 9
REMARK H PARENT
REMARK Flexibility Score: inf
ROOT
ATOM      1  C   UNL     1      -2.464  -7.378  31.181  1.00  0.00     0.006 C 
ENDROOT
BRANCH   1   2
ATOM      2  C   UNL     1      -3.568  -7.704  30.163  1.00  0.00     0.053 C 
BRANCH   2   3
ATOM      3  C   UNL     1      -4.021  -9.128  30.265  1.00  0.00     0.041 C 
ATOM      4  O   UNL     1      -4.836  -9.597  29.426  1.00  0.00    -0.550 OA
ATOM      5  O   UNL     1      -3.517  -9.947  31.267  1.00  0.00    -0.550 OA
ENDBRANCH   2   3
ENDBRANCH   1   2
BRANCH   1   6
ATOM      6  C   UNL     1      -1.507  -6.249  30.747  1.00  0.00     0.000 C 
BRANCH   6   7
ATOM      7  C   UNL     1      -1.919  -4.836  31.200  1.00  0.00    -0.000 C 
BRANCH   7   8
ATOM      8  C   UNL     1      -2.094  -4.723  32.721  1.00  0.00    -0.003 C 
ATOM      9  C   UNL     1      -3.158  -3.689  33.077  1.00  0.00     0.004 C 
ENDBRANCH   7   8
ENDBRANCH   6   7
ENDBRANCH   1   6
TORSDOF 5
ENDMDL
MODEL 2
REMARK VINA RESULT:    -3.020     15.484     16.492
REMARK INTER + INTRA:          -4.075
REMARK INTER:                  -3.755
REMARK INTRA:                  -0.319
REMARK UNBOUND:                -0.171
REMARK SMILES CCCCCCC(=O)[O-]
REMARK SMILES IDX 5 1 6 2 7 3 8 4 9 5 4 6 3 7 2 8 1 9
REMARK H PARENT
REMARK Flexibility Score: inf
ROOT
ATOM      1  C   UNL     1     -12.739   5.268  28.473  1.00  0.00     0.006 C 
ENDROOT
BRANCH   1   2
ATOM      2  C   UNL     1     -13.213   5.580  29.901  1.00  0.00     0.053 C 
BRANCH   2   3
ATOM      3  C   UNL     1     -12.095   5.489  30.893  1.00  0.00     0.041 C 
ATOM      4  O   UNL     1     -12.315   5.688  32.118  1.00  0.00    -0.550 OA
ATOM      5  O   UNL     1     -10.816   5.150  30.471  1.00  0.00    -0.550 OA
ENDBRANCH   2   3
ENDBRANCH   1   2
BRANCH   1   6
ATOM      6  C   UNL     1     -12.872   6.444  27.483  1.00  0.00     0.000 C 
BRANCH   6   7
ATOM      7  C   UNL     1     -12.255   7.771  27.962  1.00  0.00    -0.000 C 
BRANCH   7   8
ATOM      8  C   UNL     1     -10.876   8.046  27.345  1.00  0.00    -0.003 C 
ATOM      9  C   UNL     1      -9.775   7.953  28.396  1.00  0.00     0.004 C 
ENDBRANCH   7   8
ENDBRANCH   6   7
ENDBRANCH   1   6
TORSDOF 5
ENDMDL
MODEL 3
REMARK VINA RESULT:    -2.954     15.293     16.924
REMARK INTER + INTRA:          -3.988
REMARK INTER:                  -3.623
REMARK INTRA:                  -0.365
REMARK UNBOUND:                -0.171
REMARK SMILES CCCCCCC(=O)[O-]
REMARK SMILES IDX 5 1 6 2 7 3 8 4 9 5 4 6 3 7 2 8 1 9
REMARK H PARENT
REMARK Flexibility Score: inf
ROOT
ATOM      1  C   UNL     1     -11.267   7.912  28.869  1.00  0.00     0.006 C 
ENDROOT
BRANCH   1   2
ATOM      2  C   UNL     1      -9.819   8.005  28.366  1.00  0.00     0.053 C 
BRANCH   2   3
ATOM      3  C   UNL     1      -9.071   6.725  28.574  1.00  0.00     0.041 C 
ATOM      4  O   UNL     1      -9.622   5.620  28.326  1.00  0.00    -0.550 OA
ATOM      5  O   UNL     1      -7.753   6.753  29.011  1.00  0.00    -0.550 OA
ENDBRANCH   2   3
ENDBRANCH   1   2
BRANCH   1   6
ATOM      6  C   UNL     1     -12.337   8.010  27.762  1.00  0.00     0.000 C 
BRANCH   6   7
ATOM      7  C   UNL     1     -11.785   8.072  26.326  1.00  0.00    -0.000 C 
BRANCH   7   8
ATOM      8  C   UNL     1     -11.971   6.756  25.557  1.00  0.00    -0.003 C 
ATOM      9  C   UNL     1     -13.051   5.892  26.200  1.00  0.00     0.004 C 
ENDBRANCH   7   8
ENDBRANCH   6   7
ENDBRANCH   1   6
TORSDOF 5
ENDMDL
MODEL 4
REMARK VINA RESULT:    -2.951      1.937      3.039
REMARK INTER + INTRA:          -3.985
REMARK INTER:                  -3.793
REMARK INTRA:                  -0.191
REMARK UNBOUND:                -0.171
REMARK SMILES CCCCCCC(=O)[O-]
REMARK SMILES IDX 5 1 6 2 7 3 8 4 9 5 4 6 3 7 2 8 1 9
REMARK H PARENT
REMARK Flexibility Score: inf
ROOT
ATOM      1  C   UNL     1      -1.741  -5.315  32.895  1.00  0.00     0.006 C 
ENDROOT
BRANCH   1   2
ATOM      2  C   UNL     1      -1.088  -6.046  31.712  1.00  0.00     0.053 C 
BRANCH   2   3
ATOM      3  C   UNL     1      -2.102  -6.732  30.849  1.00  0.00     0.041 C 
ATOM      4  O   UNL     1      -2.446  -6.226  29.748  1.00  0.00    -0.550 OA
ATOM      5  O   UNL     1      -2.643  -7.948  31.247  1.00  0.00    -0.550 OA
ENDBRANCH   2   3
ENDBRANCH   1   2
BRANCH   1   6
ATOM      6  C   UNL     1      -2.472  -4.010  32.517  1.00  0.00     0.000 C 
BRANCH   6   7
ATOM      7  C   UNL     1      -3.935  -3.924  32.990  1.00  0.00    -0.000 C 
BRANCH   7   8
ATOM      8  C   UNL     1      -4.381  -2.487  33.296  1.00  0.00    -0.003 C 
ATOM      9  C   UNL     1      -3.179  -1.560  33.447  1.00  0.00     0.004 C 
ENDBRANCH   7   8
ENDBRANCH   6   7
ENDBRANCH   1   6
TORSDOF 5
ENDMDL
MODEL 5
REMARK VINA RESULT:    -2.927      3.190      4.581
REMARK INTER + INTRA:          -3.953
REMARK INTER:                  -3.547
REMARK INTRA:                  -0.406
REMARK UNBOUND:                -0.171
REMARK SMILES CCCCCCC(=O)[O-]
REMARK SMILES IDX 5 1 6 2 7 3 8 4 9 5 4 6 3 7 2 8 1 9
REMARK H PARENT
REMARK Flexibility Score: inf
ROOT
ATOM      1  C   UNL     1      -1.873  -5.270  32.976  1.00  0.00     0.006 C 
ENDROOT
BRANCH   1   2
ATOM      2  C   UNL     1      -2.545  -3.916  32.707  1.00  0.00     0.053 C 
BRANCH   2   3
ATOM      3  C   UNL     1      -4.023  -3.967  32.943  1.00  0.00     0.041 C 
ATOM      4  O   UNL     1      -4.690  -4.971  32.575  1.00  0.00    -0.550 OA
ATOM      5  O   UNL     1      -4.659  -2.922  33.600  1.00  0.00    -0.550 OA
ENDBRANCH   2   3
ENDBRANCH   1   2
BRANCH   1   6
ATOM      6  C   UNL     1      -1.311  -5.967  31.720  1.00  0.00     0.000 C 
BRANCH   6   7
ATOM      7  C   UNL     1      -2.108  -7.196  31.244  1.00  0.00    -0.000 C 
BRANCH   7   8
ATOM      8  C   UNL     1      -3.080  -6.872  30.100  1.00  0.00    -0.003 C 
ATOM      9  C   UNL     1      -2.595  -5.673  29.291  1.00  0.00     0.004 C 
ENDBRANCH   7   8
ENDBRANCH   6   7
ENDBRANCH   1   6
TORSDOF 5
ENDMDL
MODEL 6
REMARK VINA RESULT:    -2.921      2.946      4.995
REMARK INTER + INTRA:          -3.946
REMARK INTER:                  -3.827
REMARK INTRA:                  -0.119
REMARK UNBOUND:                -0.171
REMARK SMILES CCCCCCC(=O)[O-]
REMARK SMILES IDX 5 1 6 2 7 3 8 4 9 5 4 6 3 7 2 8 1 9
REMARK H PARENT
REMARK Flexibility Score: inf
ROOT
ATOM      1  C   UNL     1      -1.344  -6.366  31.193  1.00  0.00     0.006 C 
ENDROOT
BRANCH   1   2
ATOM      2  C   UNL     1      -1.979  -4.978  31.362  1.00  0.00     0.053 C 
BRANCH   2   3
ATOM      3  C   UNL     1      -2.291  -4.676  32.796  1.00  0.00     0.041 C 
ATOM      4  O   UNL     1      -1.791  -5.377  33.715  1.00  0.00    -0.550 OA
ATOM      5  O   UNL     1      -3.109  -3.601  33.118  1.00  0.00    -0.550 OA
ENDBRANCH   2   3
ENDBRANCH   1   2
BRANCH   1   6
ATOM      6  C   UNL     1      -2.354  -7.531  31.141  1.00  0.00     0.000 C 
BRANCH   6   7
ATOM      7  C   UNL     1      -3.475  -7.375  30.096  1.00  0.00    -0.000 C 
BRANCH   7   8
ATOM      8  C   UNL     1      -4.410  -8.592  30.037  1.00  0.00    -0.003 C 
ATOM      9  C   UNL     1      -4.212  -9.373  28.741  1.00  0.00     0.004 C 
ENDBRANCH   7   8
ENDBRANCH   6   7
ENDBRANCH   1   6
TORSDOF 5
ENDMDL
MODEL 7
REMARK VINA RESULT:    -2.894      3.397      4.939
REMARK INTER + INTRA:          -3.911
REMARK INTER:                  -3.808
REMARK INTRA:                  -0.103
REMARK UNBOUND:                -0.171
REMARK SMILES CCCCCCC(=O)[O-]
REMARK SMILES IDX 5 1 6 2 7 3 8 4 9 5 4 6 3 7 2 8 1 9
REMARK H PARENT
REMARK Flexibility Score: inf
ROOT
ATOM      1  C   UNL     1      -3.275  -3.624  33.072  1.00  0.00     0.006 C 
ENDROOT
BRANCH   1   2
ATOM      2  C   UNL     1      -2.712  -4.517  31.956  1.00  0.00     0.053 C 
BRANCH   2   3
ATOM      3  C   UNL     1      -1.602  -5.394  32.449  1.00  0.00     0.041 C 
ATOM      4  O   UNL     1      -1.337  -5.452  33.679  1.00  0.00    -0.550 OA
ATOM      5  O   UNL     1      -0.882  -6.173  31.553  1.00  0.00    -0.550 OA
ENDBRANCH   2   3
ENDBRANCH   1   2
BRANCH   1   6
ATOM      6  C   UNL     1      -3.315  -2.120  32.730  1.00  0.00     0.000 C 
BRANCH   6   7
ATOM      7  C   UNL     1      -3.706  -1.196  33.898  1.00  0.00    -0.000 C 
BRANCH   7   8
ATOM      8  C   UNL     1      -2.593  -0.210  34.279  1.00  0.00    -0.003 C 
ATOM      9  C   UNL     1      -2.743   0.255  35.724  1.00  0.00     0.004 C 
ENDBRANCH   7   8
ENDBRANCH   6   7
ENDBRANCH   1   6
TORSDOF 5
ENDMDL
MODEL 8
REMARK VINA RESULT:    -2.871     15.840     17.111
REMARK INTER + INTRA:          -3.882
REMARK INTER:                  -3.492
REMARK INTRA:                  -0.390
REMARK UNBOUND:                -0.171
REMARK SMILES CCCCCCC(=O)[O-]
REMARK SMILES IDX 5 1 6 2 7 3 8 4 9 5 4 6 3 7 2 8 1 9
REMARK H PARENT
REMARK Flexibility Score: inf
ROOT
ATOM      1  C   UNL     1     -11.025   7.763  27.626  1.00  0.00     0.006 C 
ENDROOT
BRANCH   1   2
ATOM      2  C   UNL     1     -11.864   7.866  28.909  1.00  0.00     0.053 C 
BRANCH   2   3
ATOM      3  C   UNL     1     -12.058   6.531  29.559  1.00  0.00     0.041 C 
ATOM      4  O   UNL     1     -13.210   6.155  29.904  1.00  0.00    -0.550 OA
ATOM      5  O   UNL     1     -10.972   5.688  29.753  1.00  0.00    -0.550 OA
ENDBRANCH   2   3
ENDBRANCH   1   2
BRANCH   1   6
ATOM      6  C   UNL     1     -11.812   8.021  26.324  1.00  0.00     0.000 C 
BRANCH   6   7
ATOM      7  C   UNL     1     -12.062   6.774  25.456  1.00  0.00    -0.000 C 
BRANCH   7   8
ATOM      8  C   UNL     1     -13.122   5.835  26.050  1.00  0.00    -0.003 C 
ATOM      9  C   UNL     1     -12.506   4.501  26.461  1.00  0.00     0.004 C 
ENDBRANCH   7   8
ENDBRANCH   6   7
ENDBRANCH   1   6
TORSDOF 5
ENDMDL
MODEL 9
REMARK VINA RESULT:    -2.862     15.841     16.656
REMARK INTER + INTRA:          -3.870
REMARK INTER:                  -3.560
REMARK INTRA:                  -0.311
REMARK UNBOUND:                -0.171
REMARK SMILES CCCCCCC(=O)[O-]
REMARK SMILES IDX 5 1 6 2 7 3 8 4 9 5 4 6 3 7 2 8 1 9
REMARK H PARENT
REMARK Flexibility Score: inf
ROOT
ATOM      1  C   UNL     1     -12.881   7.074  27.904  1.00  0.00     0.006 C 
ENDROOT
BRANCH   1   2
ATOM      2  C   UNL     1     -12.361   5.682  28.294  1.00  0.00     0.053 C 
BRANCH   2   3
ATOM      3  C   UNL     1     -12.876   5.246  29.631  1.00  0.00     0.041 C 
ATOM      4  O   UNL     1     -12.856   6.041  30.609  1.00  0.00    -0.550 OA
ATOM      5  O   UNL     1     -13.409   3.974  29.789  1.00  0.00    -0.550 OA
ENDBRANCH   2   3
ENDBRANCH   1   2
BRANCH   1   6
ATOM      6  C   UNL     1     -11.778   8.123  27.655  1.00  0.00     0.000 C 
BRANCH   6   7
ATOM      7  C   UNL     1     -10.627   8.114  28.678  1.00  0.00    -0.000 C 
BRANCH   7   8
ATOM      8  C   UNL     1      -9.273   7.752  28.051  1.00  0.00    -0.003 C 
ATOM      9  C   UNL     1      -9.235   8.124  26.572  1.00  0.00     0.004 C 
ENDBRANCH   7   8
ENDBRANCH   6   7
ENDBRANCH   1   6
TORSDOF 5
ENDMDL
