MODEL 1
REMARK VINA RESULT:    -3.366      0.000      0.000
REMARK INTER + INTRA:          -4.104
REMARK INTER:                  -3.956
REMARK INTRA:                  -0.148
REMARK UNBOUND:                -0.148
REMARK SMILES O=C([O-])CCC(=O)[O-]
REMARK SMILES IDX 4 1 2 2 1 3 3 4 5 5 6 6 7 7 8 8
REMARK H PARENT
REMARK Flexibility Score: inf
ROOT
ATOM      1  C   UNL     1      88.054  77.706  66.875  1.00  0.00     0.059 C 
ENDROOT
BRANCH   1   2
ATOM      2  C   UNL     1      89.152  76.923  67.526  1.00  0.00     0.042 C 
ATOM      3  O   UNL     1      90.196  77.503  67.923  1.00  0.00    -0.550 OA
ATOM      4  O   UNL     1      89.039  75.544  67.657  1.00  0.00    -0.550 OA
ENDBRANCH   1   2
BRANCH   1   5
ATOM      5  C   UNL     1      86.673  77.147  67.233  1.00  0.00     0.059 C 
BRANCH   5   6
ATOM      6  C   UNL     1      86.317  77.428  68.662  1.00  0.00     0.042 C 
ATOM      7  O   UNL     1      86.124  78.611  69.046  1.00  0.00    -0.550 OA
ATOM      8  O   UNL     1      86.155  76.378  69.558  1.00  0.00    -0.550 OA
ENDBRANCH   5   6
ENDBRANCH   1   5
TORSDOF 3
ENDMDL
MODEL 2
REMARK VINA RESULT:    -3.363      2.396      3.337
REMARK INTER + INTRA:          -4.101
REMARK INTER:                  -4.069
REMARK INTRA:                  -0.032
REMARK UNBOUND:                -0.148
REMARK SMILES O=C([O-])CCC(=O)[O-]
REMARK SMILES IDX 4 1 2 2 1 3 3 4 5 5 6 6 7 7 8 8
REMARK H PARENT
REMARK Flexibility Score: inf
ROOT
ATOM      1  C   UNL     1      88.848  75.838  67.650  1.00  0.00     0.059 C 
ENDROOT
BRANCH   1   2
ATOM      2  C   UNL     1      88.884  77.276  67.230  1.00  0.00     0.042 C 
ATOM      3  O   UNL     1      89.985  77.848  67.023  1.00  0.00    -0.550 OA
ATOM      4  O   UNL     1      87.701  77.993  67.106  1.00  0.00    -0.550 OA
ENDBRANCH   1   2
BRANCH   1   5
ATOM      5  C   UNL     1      87.565  75.144  67.181  1.00  0.00     0.059 C 
BRANCH   5   6
ATOM      6  C   UNL     1      87.550  73.695  67.561  1.00  0.00     0.042 C 
ATOM      7  O   UNL     1      86.806  72.887  66.946  1.00  0.00    -0.550 OA
ATOM      8  O   UNL     1      88.389  73.229  68.566  1.00  0.00    -0.550 OA
ENDBRANCH   5   6
ENDBRANCH   1   5
TORSDOF 3
ENDMDL
MODEL 3
REMARK VINA RESULT:    -3.279      2.207      3.388
REMARK INTER + INTRA:          -4.002
REMARK INTER:                  -3.896
REMARK INTRA:                  -0.106
REMARK UNBOUND:                -0.148
REMARK SMILES O=C([O-])CCC(=O)[O-]
REMARK SMILES IDX 4 1 2 2 1 3 3 4 5 5 6 6 7 7 8 8
REMARK H PARENT
REMARK Flexibility Score: inf
ROOT
ATOM      1  C   UNL     1      87.062  75.302  67.568  1.00  0.00     0.059 C 
ENDROOT
BRANCH   1   2
ATOM      2  C   UNL     1      87.503  73.870  67.565  1.00  0.00     0.042 C 
ATOM      3  O   UNL     1      86.882  73.017  66.880  1.00  0.00    -0.550 OA
ATOM      4  O   UNL     1      88.577  73.473  68.352  1.00  0.00    -0.550 OA
ENDBRANCH   1   2
BRANCH   1   5
ATOM      5  C   UNL     1      88.085  76.210  66.878  1.00  0.00     0.059 C 
BRANCH   5   6
ATOM      6  C   UNL     1      88.921  76.957  67.873  1.00  0.00     0.042 C 
ATOM      7  O   UNL     1      90.005  77.487  67.518  1.00  0.00    -0.550 OA
ATOM      8  O   UNL     1      88.479  77.103  69.182  1.00  0.00    -0.550 OA
ENDBRANCH   5   6
ENDBRANCH   1   5
TORSDOF 3
ENDMDL
MODEL 4
REMARK VINA RESULT:    -3.274      0.345      3.474
REMARK INTER + INTRA:          -3.996
REMARK INTER:                  -3.843
REMARK INTRA:                  -0.153
REMARK UNBOUND:                -0.148
REMARK SMILES O=C([O-])CCC(=O)[O-]
REMARK SMILES IDX 4 1 2 2 1 3 3 4 5 5 6 6 7 7 8 8
REMARK H PARENT
REMARK Flexibility Score: inf
ROOT
ATOM      1  C   UNL     1      86.573  77.016  67.591  1.00  0.00     0.059 C 
ENDROOT
BRANCH   1   2
ATOM      2  C   UNL     1      86.310  77.546  68.968  1.00  0.00     0.042 C 
ATOM      3  O   UNL     1      86.362  76.779  69.964  1.00  0.00    -0.550 OA
ATOM      4  O   UNL     1      85.969  78.882  69.145  1.00  0.00    -0.550 OA
ENDBRANCH   1   2
BRANCH   1   5
ATOM      5  C   UNL     1      87.912  77.518  67.040  1.00  0.00     0.059 C 
BRANCH   5   6
ATOM      6  C   UNL     1      89.070  76.802  67.665  1.00  0.00     0.042 C 
ATOM      7  O   UNL     1      90.072  77.450  68.067  1.00  0.00    -0.550 OA
ATOM      8  O   UNL     1      89.025  75.424  67.841  1.00  0.00    -0.550 OA
ENDBRANCH   5   6
ENDBRANCH   1   5
TORSDOF 3
ENDMDL
MODEL 5
REMARK VINA RESULT:    -3.223      1.998      3.377
REMARK INTER + INTRA:          -3.936
REMARK INTER:                  -3.746
REMARK INTRA:                  -0.190
REMARK UNBOUND:                -0.148
REMARK SMILES O=C([O-])CCC(=O)[O-]
REMARK SMILES IDX 4 1 2 2 1 3 3 4 5 5 6 6 7 7 8 8
REMARK H PARENT
REMARK Flexibility Score: inf
ROOT
ATOM      1  C   UNL     1      86.972  77.581  70.407  1.00  0.00     0.059 C 
ENDROOT
BRANCH   1   2
ATOM      2  C   UNL     1      86.598  76.139  70.574  1.00  0.00     0.042 C 
ATOM      3  O   UNL     1      87.483  75.245  70.525  1.00  0.00    -0.550 OA
ATOM      4  O   UNL     1      85.266  75.782  70.743  1.00  0.00    -0.550 OA
ENDBRANCH   1   2
BRANCH   1   5
ATOM      5  C   UNL     1      86.242  78.219  69.221  1.00  0.00     0.059 C 
BRANCH   5   6
ATOM      6  C   UNL     1      86.640  77.588  67.922  1.00  0.00     0.042 C 
ATOM      7  O   UNL     1      87.824  77.683  67.508  1.00  0.00    -0.550 OA
ATOM      8  O   UNL     1      85.712  76.858  67.189  1.00  0.00    -0.550 OA
ENDBRANCH   5   6
ENDBRANCH   1   5
TORSDOF 3
ENDMDL
MODEL 6
REMARK VINA RESULT:    -3.199      1.487      2.211
REMARK INTER + INTRA:          -3.907
REMARK INTER:                  -3.790
REMARK INTRA:                  -0.117
REMARK UNBOUND:                -0.148
REMARK SMILES O=C([O-])CCC(=O)[O-]
REMARK SMILES IDX 4 1 2 2 1 3 3 4 5 5 6 6 7 7 8 8
REMARK H PARENT
REMARK Flexibility Score: inf
ROOT
ATOM      1  C   UNL     1      88.571  75.656  67.744  1.00  0.00     0.059 C 
ENDROOT
BRANCH   1   2
ATOM      2  C   UNL     1      89.045  77.065  67.553  1.00  0.00     0.042 C 
ATOM      3  O   UNL     1      88.323  77.901  66.950  1.00  0.00    -0.550 OA
ATOM      4  O   UNL     1      90.303  77.442  68.006  1.00  0.00    -0.550 OA
ENDBRANCH   1   2
BRANCH   1   5
ATOM      5  C   UNL     1      87.042  75.580  67.814  1.00  0.00     0.059 C 
BRANCH   5   6
ATOM      6  C   UNL     1      86.550  75.634  69.228  1.00  0.00     0.042 C 
ATOM      7  O   UNL     1      86.517  74.589  69.928  1.00  0.00    -0.550 OA
ATOM      8  O   UNL     1      86.167  76.849  69.786  1.00  0.00    -0.550 OA
ENDBRANCH   5   6
ENDBRANCH   1   5
TORSDOF 3
ENDMDL
MODEL 7
REMARK VINA RESULT:    -3.158      1.963      2.744
REMARK INTER + INTRA:          -3.859
REMARK INTER:                  -3.756
REMARK INTRA:                  -0.103
REMARK UNBOUND:                -0.148
REMARK SMILES O=C([O-])CCC(=O)[O-]
REMARK SMILES IDX 4 1 2 2 1 3 3 4 5 5 6 6 7 7 8 8
REMARK H PARENT
REMARK Flexibility Score: inf
ROOT
ATOM      1  C   UNL     1      87.238  75.100  66.909  1.00  0.00     0.059 C 
ENDROOT
BRANCH   1   2
ATOM      2  C   UNL     1      87.625  74.310  68.122  1.00  0.00     0.042 C 
ATOM      3  O   UNL     1      86.809  74.160  69.068  1.00  0.00    -0.550 OA
ATOM      4  O   UNL     1      88.903  73.774  68.223  1.00  0.00    -0.550 OA
ENDBRANCH   1   2
BRANCH   1   5
ATOM      5  C   UNL     1      86.218  76.192  67.248  1.00  0.00     0.059 C 
BRANCH   5   6
ATOM      6  C   UNL     1      86.889  77.488  67.590  1.00  0.00     0.042 C 
ATOM      7  O   UNL     1      86.423  78.221  68.500  1.00  0.00    -0.550 OA
ATOM      8  O   UNL     1      88.054  77.864  66.932  1.00  0.00    -0.550 OA
ENDBRANCH   5   6
ENDBRANCH   1   5
TORSDOF 3
ENDMDL
MODEL 8
REMARK VINA RESULT:    -3.138      1.691      3.471
REMARK INTER + INTRA:          -3.836
REMARK INTER:                  -3.716
REMARK INTRA:                  -0.120
REMARK UNBOUND:                -0.148
REMARK SMILES O=C([O-])CCC(=O)[O-]
REMARK SMILES IDX 4 1 2 2 1 3 3 4 5 5 6 6 7 7 8 8
REMARK H PARENT
REMARK Flexibility Score: inf
ROOT
ATOM      1  C   UNL     1      87.279  75.352  67.888  1.00  0.00     0.059 C 
ENDROOT
BRANCH   1   2
ATOM      2  C   UNL     1      86.862  75.366  69.327  1.00  0.00     0.042 C 
ATOM      3  O   UNL     1      86.151  76.303  69.773  1.00  0.00    -0.550 OA
ATOM      4  O   UNL     1      87.294  74.362  70.185  1.00  0.00    -0.550 OA
ENDBRANCH   1   2
BRANCH   1   5
ATOM      5  C   UNL     1      88.787  75.575  67.735  1.00  0.00     0.059 C 
BRANCH   5   6
ATOM      6  C   UNL     1      89.122  77.030  67.615  1.00  0.00     0.042 C 
ATOM      7  O   UNL     1      88.298  77.830  67.102  1.00  0.00    -0.550 OA
ATOM      8  O   UNL     1      90.329  77.510  68.111  1.00  0.00    -0.550 OA
ENDBRANCH   5   6
ENDBRANCH   1   5
TORSDOF 3
ENDMDL
MODEL 9
REMARK VINA RESULT:    -2.752      2.603      3.476
REMARK INTER + INTRA:          -3.382
REMARK INTER:                  -3.289
REMARK INTRA:                  -0.093
REMARK UNBOUND:                -0.148
REMARK SMILES O=C([O-])CCC(=O)[O-]
REMARK SMILES IDX 4 1 2 2 1 3 3 4 5 5 6 6 7 7 8 8
REMARK H PARENT
REMARK Flexibility Score: inf
ROOT
ATOM      1  C   UNL     1      86.685  75.915  67.956  1.00  0.00     0.059 C 
ENDROOT
BRANCH   1   2
ATOM      2  C   UNL     1      87.681  77.029  67.851  1.00  0.00     0.042 C 
ATOM      3  O   UNL     1      87.601  77.864  66.913  1.00  0.00    -0.550 OA
ATOM      4  O   UNL     1      88.722  77.120  68.767  1.00  0.00    -0.550 OA
ENDBRANCH   1   2
BRANCH   1   5
ATOM      5  C   UNL     1      86.909  74.853  66.875  1.00  0.00     0.059 C 
BRANCH   5   6
ATOM      6  C   UNL     1      87.308  73.536  67.468  1.00  0.00     0.042 C 
ATOM      7  O   UNL     1      88.337  73.451  68.187  1.00  0.00    -0.550 OA
ATOM      8  O   UNL     1      86.518  72.411  67.260  1.00  0.00    -0.550 OA
ENDBRANCH   5   6
ENDBRANCH   1   5
TORSDOF 3
ENDMDL
