MODEL 1
REMARK VINA RESULT:    -3.067      0.000      0.000
REMARK INTER + INTRA:          -3.336
REMARK INTER:                  -3.336
REMARK INTRA:                   0.000
REMARK UNBOUND:                 0.000
REMARK SMILES [NH3+]CC(=O)[O-]
REMARK SMILES IDX 2 1 1 2 3 6 4 7 5 8
REMARK H PARENT 1 3 1 4 1 5
REMARK Flexibility Score: inf
ROOT
ATOM      1  C   UNL     1      54.606  38.614  -5.095  1.00  0.00     0.312 C 
ENDROOT
BRANCH   1   2
ATOM      2  N   UNL     1      55.093  39.963  -4.816  1.00  0.00    -0.353 N 
ATOM      3  H   UNL     1      54.282  40.623  -4.797  1.00  0.00     0.344 HD
ATOM      4  H   UNL     1      55.759  40.267  -5.563  1.00  0.00     0.344 HD
ATOM      5  H   UNL     1      55.570  39.988  -3.885  1.00  0.00     0.344 HD
ENDBRANCH   1   2
BRANCH   1   6
ATOM      6  C   UNL     1      53.308  38.365  -4.390  1.00  0.00     0.096 C 
ATOM      7  O   UNL     1      53.246  38.430  -3.134  1.00  0.00    -0.544 OA
ATOM      8  O   UNL     1      52.156  38.112  -5.124  1.00  0.00    -0.544 OA
ENDBRANCH   1   6
TORSDOF 2
ENDMDL
MODEL 2
REMARK VINA RESULT:    -3.046      0.946      1.482
REMARK INTER + INTRA:          -3.313
REMARK INTER:                  -3.313
REMARK INTRA:                   0.000
REMARK UNBOUND:                 0.000
REMARK SMILES [NH3+]CC(=O)[O-]
REMARK SMILES IDX 2 1 1 2 3 6 4 7 5 8
REMARK H PARENT 1 3 1 4 1 5
REMARK Flexibility Score: inf
ROOT
ATOM      1  C   UNL     1      54.755  38.728  -5.370  1.00  0.00     0.312 C 
ENDROOT
BRANCH   1   2
ATOM      2  N   UNL     1      55.125  39.998  -4.749  1.00  0.00    -0.353 N 
ATOM      3  H   UNL     1      56.008  40.348  -5.186  1.00  0.00     0.344 HD
ATOM      4  H   UNL     1      55.284  39.864  -3.723  1.00  0.00     0.344 HD
ATOM      5  H   UNL     1      54.369  40.706  -4.900  1.00  0.00     0.344 HD
ENDBRANCH   1   2
BRANCH   1   6
ATOM      6  C   UNL     1      53.835  37.953  -4.479  1.00  0.00     0.096 C 
ATOM      7  O   UNL     1      53.533  36.763  -4.761  1.00  0.00    -0.544 OA
ATOM      8  O   UNL     1      53.352  38.527  -3.310  1.00  0.00    -0.544 OA
ENDBRANCH   1   6
TORSDOF 2
ENDMDL
MODEL 3
REMARK VINA RESULT:    -2.937      1.785      2.051
REMARK INTER + INTRA:          -3.194
REMARK INTER:                  -3.194
REMARK INTRA:                   0.000
REMARK UNBOUND:                 0.000
REMARK SMILES [NH3+]CC(=O)[O-]
REMARK SMILES IDX 2 1 1 2 3 6 4 7 5 8
REMARK H PARENT 1 3 1 4 1 5
REMARK Flexibility Score: inf
ROOT
ATOM      1  C   UNL     1      53.327  38.333  -3.470  1.00  0.00     0.312 C 
ENDROOT
BRANCH   1   2
ATOM      2  N   UNL     1      54.764  38.538  -3.635  1.00  0.00    -0.353 N 
ATOM      3  H   UNL     1      55.001  38.498  -4.652  1.00  0.00     0.344 HD
ATOM      4  H   UNL     1      55.294  37.788  -3.133  1.00  0.00     0.344 HD
ATOM      5  H   UNL     1      55.039  39.476  -3.260  1.00  0.00     0.344 HD
ENDBRANCH   1   2
BRANCH   1   6
ATOM      6  C   UNL     1      52.797  37.426  -4.538  1.00  0.00     0.096 C 
ATOM      7  O   UNL     1      51.711  37.694  -5.116  1.00  0.00    -0.544 OA
ATOM      8  O   UNL     1      53.529  36.312  -4.930  1.00  0.00    -0.544 OA
ENDBRANCH   1   6
TORSDOF 2
ENDMDL
MODEL 4
REMARK VINA RESULT:    -2.819     13.302     13.645
REMARK INTER + INTRA:          -3.066
REMARK INTER:                  -3.066
REMARK INTRA:                   0.000
REMARK UNBOUND:                 0.000
REMARK SMILES [NH3+]CC(=O)[O-]
REMARK SMILES IDX 2 1 1 2 3 6 4 7 5 8
REMARK H PARENT 1 3 1 4 1 5
REMARK Flexibility Score: inf
ROOT
ATOM      1  C   UNL     1      45.109  39.154   6.430  1.00  0.00     0.312 C 
ENDROOT
BRANCH   1   2
ATOM      2  N   UNL     1      44.072  40.074   6.895  1.00  0.00    -0.353 N 
ATOM      3  H   UNL     1      44.015  40.885   6.237  1.00  0.00     0.344 HD
ATOM      4  H   UNL     1      44.309  40.429   7.850  1.00  0.00     0.344 HD
ATOM      5  H   UNL     1      43.145  39.589   6.917  1.00  0.00     0.344 HD
ENDBRANCH   1   2
BRANCH   1   6
ATOM      6  C   UNL     1      44.738  38.568   5.102  1.00  0.00     0.096 C 
ATOM      7  O   UNL     1      44.340  37.376   5.025  1.00  0.00    -0.544 OA
ATOM      8  O   UNL     1      44.783  39.355   3.958  1.00  0.00    -0.544 OA
ENDBRANCH   1   6
TORSDOF 2
ENDMDL
MODEL 5
REMARK VINA RESULT:    -2.667      3.667      3.907
REMARK INTER + INTRA:          -2.901
REMARK INTER:                  -2.901
REMARK INTRA:                   0.000
REMARK UNBOUND:                 0.000
REMARK SMILES [NH3+]CC(=O)[O-]
REMARK SMILES IDX 2 1 1 2 3 6 4 7 5 8
REMARK H PARENT 1 3 1 4 1 5
REMARK Flexibility Score: inf
ROOT
ATOM      1  C   UNL     1      53.271  35.812  -5.641  1.00  0.00     0.312 C 
ENDROOT
BRANCH   1   2
ATOM      2  N   UNL     1      53.288  36.414  -4.309  1.00  0.00    -0.353 N 
ATOM      3  H   UNL     1      52.551  37.154  -4.259  1.00  0.00     0.344 HD
ATOM      4  H   UNL     1      54.221  36.851  -4.124  1.00  0.00     0.344 HD
ATOM      5  H   UNL     1      53.088  35.687  -3.583  1.00  0.00     0.344 HD
ENDBRANCH   1   2
BRANCH   1   6
ATOM      6  C   UNL     1      51.946  35.168  -5.912  1.00  0.00     0.096 C 
ATOM      7  O   UNL     1      51.681  34.036  -5.428  1.00  0.00    -0.544 OA
ATOM      8  O   UNL     1      50.986  35.841  -6.656  1.00  0.00    -0.544 OA
ENDBRANCH   1   6
TORSDOF 2
ENDMDL
MODEL 6
REMARK VINA RESULT:    -2.661      2.043      2.414
REMARK INTER + INTRA:          -2.895
REMARK INTER:                  -2.895
REMARK INTRA:                   0.000
REMARK UNBOUND:                 0.000
REMARK SMILES [NH3+]CC(=O)[O-]
REMARK SMILES IDX 2 1 1 2 3 6 4 7 5 8
REMARK H PARENT 1 3 1 4 1 5
REMARK Flexibility Score: inf
ROOT
ATOM      1  C   UNL     1      54.460  38.682  -4.745  1.00  0.00     0.312 C 
ENDROOT
BRANCH   1   2
ATOM      2  N   UNL     1      55.125  39.980  -4.836  1.00  0.00    -0.353 N 
ATOM      3  H   UNL     1      55.182  40.265  -5.840  1.00  0.00     0.344 HD
ATOM      4  H   UNL     1      56.094  39.916  -4.446  1.00  0.00     0.344 HD
ATOM      5  H   UNL     1      54.579  40.702  -4.310  1.00  0.00     0.344 HD
ENDBRANCH   1   2
BRANCH   1   6
ATOM      6  C   UNL     1      54.428  38.010  -6.083  1.00  0.00     0.096 C 
ATOM      7  O   UNL     1      54.877  38.601  -7.100  1.00  0.00    -0.544 OA
ATOM      8  O   UNL     1      53.950  36.711  -6.197  1.00  0.00    -0.544 OA
ENDBRANCH   1   6
TORSDOF 2
ENDMDL
MODEL 7
REMARK VINA RESULT:    -2.635      2.337      2.559
REMARK INTER + INTRA:          -2.866
REMARK INTER:                  -2.866
REMARK INTRA:                   0.000
REMARK UNBOUND:                 0.000
REMARK SMILES [NH3+]CC(=O)[O-]
REMARK SMILES IDX 2 1 1 2 3 6 4 7 5 8
REMARK H PARENT 1 3 1 4 1 5
REMARK Flexibility Score: inf
ROOT
ATOM      1  C   UNL     1      53.695  37.157  -5.329  1.00  0.00     0.312 C 
ENDROOT
BRANCH   1   2
ATOM      2  N   UNL     1      53.375  35.945  -4.577  1.00  0.00    -0.353 N 
ATOM      3  H   UNL     1      53.940  35.930  -3.697  1.00  0.00     0.344 HD
ATOM      4  H   UNL     1      53.609  35.098  -5.145  1.00  0.00     0.344 HD
ATOM      5  H   UNL     1      52.359  35.935  -4.328  1.00  0.00     0.344 HD
ENDBRANCH   1   2
BRANCH   1   6
ATOM      6  C   UNL     1      53.914  38.312  -4.400  1.00  0.00     0.096 C 
ATOM      7  O   UNL     1      54.689  39.249  -4.727  1.00  0.00    -0.544 OA
ATOM      8  O   UNL     1      53.222  38.378  -3.198  1.00  0.00    -0.544 OA
ENDBRANCH   1   6
TORSDOF 2
ENDMDL
MODEL 8
REMARK VINA RESULT:    -2.606     13.104     13.536
REMARK INTER + INTRA:          -2.834
REMARK INTER:                  -2.834
REMARK INTRA:                   0.000
REMARK UNBOUND:                 0.000
REMARK SMILES [NH3+]CC(=O)[O-]
REMARK SMILES IDX 2 1 1 2 3 6 4 7 5 8
REMARK H PARENT 1 3 1 4 1 5
REMARK Flexibility Score: inf
ROOT
ATOM      1  C   UNL     1      45.053  39.487   4.493  1.00  0.00     0.312 C 
ENDROOT
BRANCH   1   2
ATOM      2  N   UNL     1      44.793  38.513   3.434  1.00  0.00    -0.353 N 
ATOM      3  H   UNL     1      45.563  37.807   3.423  1.00  0.00     0.344 HD
ATOM      4  H   UNL     1      44.759  38.993   2.505  1.00  0.00     0.344 HD
ATOM      5  H   UNL     1      43.886  38.022   3.612  1.00  0.00     0.344 HD
ENDBRANCH   1   2
BRANCH   1   6
ATOM      6  C   UNL     1      44.453  39.032   5.788  1.00  0.00     0.096 C 
ATOM      7  O   UNL     1      44.306  37.803   6.020  1.00  0.00    -0.544 OA
ATOM      8  O   UNL     1      44.104  39.963   6.757  1.00  0.00    -0.544 OA
ENDBRANCH   1   6
TORSDOF 2
ENDMDL
MODEL 9
REMARK VINA RESULT:    -2.498     12.583     12.962
REMARK INTER + INTRA:          -2.717
REMARK INTER:                  -2.717
REMARK INTRA:                   0.000
REMARK UNBOUND:                 0.000
REMARK SMILES [NH3+]CC(=O)[O-]
REMARK SMILES IDX 2 1 1 2 3 6 4 7 5 8
REMARK H PARENT 1 3 1 4 1 5
REMARK Flexibility Score: inf
ROOT
ATOM      1  C   UNL     1      44.939  39.239   5.706  1.00  0.00     0.312 C 
ENDROOT
BRANCH   1   2
ATOM      2  N   UNL     1      44.677  38.013   6.457  1.00  0.00    -0.353 N 
ATOM      3  H   UNL     1      45.501  37.375   6.368  1.00  0.00     0.344 HD
ATOM      4  H   UNL     1      43.832  37.530   6.073  1.00  0.00     0.344 HD
ATOM      5  H   UNL     1      44.529  38.235   7.469  1.00  0.00     0.344 HD
ENDBRANCH   1   2
BRANCH   1   6
ATOM      6  C   UNL     1      44.944  38.965   4.233  1.00  0.00     0.096 C 
ATOM      7  O   UNL     1      44.510  37.869   3.791  1.00  0.00    -0.544 OA
ATOM      8  O   UNL     1      45.381  39.941   3.347  1.00  0.00    -0.544 OA
ENDBRANCH   1   6
TORSDOF 2
ENDMDL
