MODEL 1
REMARK VINA RESULT:    -0.821      0.000      0.000
REMARK INTER + INTRA:          -3.699
REMARK INTER:                  -2.166
REMARK INTRA:                  -1.534
REMARK UNBOUND:                -1.534
REMARK SMILES CCCCCCCCCCCCCCCCCCCCCCCCCCCCCC(=O)[O-]
REMARK SMILES IDX 16 1 17 2 18 3 19 4 20 5 21 6 22 7 23 8 24 9 25 10 26 11
REMARK SMILES IDX 27 12 28 13 29 14 30 15 31 16 32 17 15 18 14 19 13 20 12 21
REMARK SMILES IDX 11 22 10 23 9 24 8 25 7 26 6 27 5 28 4 29 3 30 2 31 1 32
REMARK H PARENT
REMARK Flexibility Score: inf
ROOT
ATOM      1  C   UNL     1       3.210 -22.363 -16.235  1.00  0.00     0.000 C 
ENDROOT
BRANCH   1   2
ATOM      2  C   UNL     1       4.136 -21.757 -15.167  1.00  0.00     0.000 C 
BRANCH   2   3
ATOM      3  C   UNL     1       4.993 -20.604 -15.721  1.00  0.00     0.000 C 
BRANCH   3   4
ATOM      4  C   UNL     1       6.318 -21.089 -16.331  1.00  0.00     0.000 C 
BRANCH   4   5
ATOM      5  C   UNL     1       7.547 -20.456 -15.655  1.00  0.00     0.000 C 
BRANCH   5   6
ATOM      6  C   UNL     1       7.906 -21.142 -14.327  1.00  0.00     0.000 C 
BRANCH   6   7
ATOM      7  C   UNL     1       9.418 -21.145 -14.056  1.00  0.00     0.000 C 
BRANCH   7   8
ATOM      8  C   UNL     1      10.120 -20.012 -14.822  1.00  0.00     0.000 C 
BRANCH   8   9
ATOM      9  C   UNL     1      11.085 -20.535 -15.899  1.00  0.00     0.000 C 
BRANCH   9  10
ATOM     10  C   UNL     1      10.768 -21.978 -16.328  1.00  0.00     0.000 C 
BRANCH  10  11
ATOM     11  C   UNL     1      10.888 -22.187 -17.847  1.00  0.00     0.000 C 
BRANCH  11  12
ATOM     12  C   UNL     1       9.550 -22.379 -18.585  1.00  0.00     0.000 C 
BRANCH  12  13
ATOM     13  C   UNL     1       9.275 -21.305 -19.659  1.00  0.00     0.006 C 
BRANCH  13  14
ATOM     14  C   UNL     1      10.340 -21.304 -20.763  1.00  0.00     0.053 C 
BRANCH  14  15
ATOM     15  C   UNL     1       9.705 -21.498 -22.104  1.00  0.00     0.041 C 
ATOM     16  O   UNL     1       8.538 -21.962 -22.194  1.00  0.00    -0.550 OA
ATOM     17  O   UNL     1      10.417 -21.197 -23.259  1.00  0.00    -0.550 OA
ENDBRANCH  14  15
ENDBRANCH  13  14
ENDBRANCH  12  13
ENDBRANCH  11  12
ENDBRANCH  10  11
ENDBRANCH   9  10
ENDBRANCH   8   9
ENDBRANCH   7   8
ENDBRANCH   6   7
ENDBRANCH   5   6
ENDBRANCH   4   5
ENDBRANCH   3   4
ENDBRANCH   2   3
ENDBRANCH   1   2
BRANCH   1  18
ATOM     18  C   UNL     1       1.932 -22.969 -15.633  1.00  0.00     0.000 C 
BRANCH  18  19
ATOM     19  C   UNL     1       0.742 -21.995 -15.650  1.00  0.00     0.000 C 
BRANCH  19  20
ATOM     20  C   UNL     1      -0.606 -22.661 -16.003  1.00  0.00     0.000 C 
BRANCH  20  21
ATOM     21  C   UNL     1      -1.578 -22.668 -14.812  1.00  0.00     0.000 C 
BRANCH  21  22
ATOM     22  C   UNL     1      -2.979 -23.124 -15.245  1.00  0.00     0.000 C 
BRANCH  22  23
ATOM     23  C   UNL     1      -4.003 -21.974 -15.268  1.00  0.00     0.000 C 
BRANCH  23  24
ATOM     24  C   UNL     1      -4.271 -21.362 -16.656  1.00  0.00    -0.000 C 
BRANCH  24  25
ATOM     25  C   UNL     1      -5.666 -21.709 -17.204  1.00  0.00    -0.000 C 
BRANCH  25  26
ATOM     26  C   UNL     1      -6.798 -21.146 -16.330  1.00  0.00    -0.000 C 
BRANCH  26  27
ATOM     27  C   UNL     1      -8.155 -21.812 -16.621  1.00  0.00    -0.000 C 
BRANCH  27  28
ATOM     28  C   UNL     1      -9.083 -21.815 -15.395  1.00  0.00    -0.000 C 
BRANCH  28  29
ATOM     29  C   UNL     1      -8.342 -22.147 -14.088  1.00  0.00    -0.000 C 
BRANCH  29  30
ATOM     30  C   UNL     1      -7.778 -20.896 -13.399  1.00  0.00    -0.000 C 
BRANCH  30  31
ATOM     31  C   UNL     1      -8.660 -20.412 -12.239  1.00  0.00    -0.003 C 
ATOM     32  C   UNL     1      -8.455 -21.274 -10.997  1.00  0.00     0.004 C 
ENDBRANCH  30  31
ENDBRANCH  29  30
ENDBRANCH  28  29
ENDBRANCH  27  28
ENDBRANCH  26  27
ENDBRANCH  25  26
ENDBRANCH  24  25
ENDBRANCH  23  24
ENDBRANCH  22  23
ENDBRANCH  21  22
ENDBRANCH  20  21
ENDBRANCH  19  20
ENDBRANCH  18  19
ENDBRANCH   1  18
TORSDOF 28
ENDMDL
MODEL 2
REMARK VINA RESULT:    -0.558      1.356      2.251
REMARK INTER + INTRA:          -3.004
REMARK INTER:                  -2.036
REMARK INTRA:                  -0.968
REMARK UNBOUND:                -1.534
REMARK SMILES CCCCCCCCCCCCCCCCCCCCCCCCCCCCCC(=O)[O-]
REMARK SMILES IDX 16 1 17 2 18 3 19 4 20 5 21 6 22 7 23 8 24 9 25 10 26 11
REMARK SMILES IDX 27 12 28 13 29 14 30 15 31 16 32 17 15 18 14 19 13 20 12 21
REMARK SMILES IDX 11 22 10 23 9 24 8 25 7 26 6 27 5 28 4 29 3 30 2 31 1 32
REMARK H PARENT
REMARK Flexibility Score: inf
ROOT
ATOM      1  C   UNL     1       1.874 -23.044 -16.356  1.00  0.00     0.000 C 
ENDROOT
BRANCH   1   2
ATOM      2  C   UNL     1       3.165 -22.657 -15.617  1.00  0.00     0.000 C 
BRANCH   2   3
ATOM      3  C   UNL     1       4.383 -22.597 -16.557  1.00  0.00     0.000 C 
BRANCH   3   4
ATOM      4  C   UNL     1       5.712 -22.835 -15.822  1.00  0.00     0.000 C 
BRANCH   4   5
ATOM      5  C   UNL     1       6.877 -23.125 -16.786  1.00  0.00     0.000 C 
BRANCH   5   6
ATOM      6  C   UNL     1       7.242 -21.907 -17.649  1.00  0.00     0.000 C 
BRANCH   6   7
ATOM      7  C   UNL     1       7.865 -20.768 -16.826  1.00  0.00     0.000 C 
BRANCH   7   8
ATOM      8  C   UNL     1       9.153 -21.230 -16.127  1.00  0.00     0.000 C 
BRANCH   8   9
ATOM      9  C   UNL     1       9.951 -22.244 -16.965  1.00  0.00     0.000 C 
BRANCH   9  10
ATOM     10  C   UNL     1      10.442 -21.653 -18.298  1.00  0.00     0.000 C 
BRANCH  10  11
ATOM     11  C   UNL     1      10.635 -22.722 -19.387  1.00  0.00     0.000 C 
BRANCH  11  12
ATOM     12  C   UNL     1       9.512 -22.790 -20.439  1.00  0.00     0.000 C 
BRANCH  12  13
ATOM     13  C   UNL     1       8.901 -21.414 -20.782  1.00  0.00     0.006 C 
BRANCH  13  14
ATOM     14  C   UNL     1       9.356 -20.905 -22.157  1.00  0.00     0.053 C 
BRANCH  14  15
ATOM     15  C   UNL     1       9.446 -22.038 -23.131  1.00  0.00     0.041 C 
ATOM     16  O   UNL     1       8.407 -22.485 -23.685  1.00  0.00    -0.550 OA
ATOM     17  O   UNL     1      10.677 -22.623 -23.402  1.00  0.00    -0.550 OA
ENDBRANCH  14  15
ENDBRANCH  13  14
ENDBRANCH  12  13
ENDBRANCH  11  12
ENDBRANCH  10  11
ENDBRANCH   9  10
ENDBRANCH   8   9
ENDBRANCH   7   8
ENDBRANCH   6   7
ENDBRANCH   5   6
ENDBRANCH   4   5
ENDBRANCH   3   4
ENDBRANCH   2   3
ENDBRANCH   1   2
BRANCH   1  18
ATOM     18  C   UNL     1       0.624 -22.910 -15.471  1.00  0.00     0.000 C 
BRANCH  18  19
ATOM     19  C   UNL     1      -0.440 -21.978 -16.076  1.00  0.00     0.000 C 
BRANCH  19  20
ATOM     20  C   UNL     1      -1.822 -22.082 -15.395  1.00  0.00     0.000 C 
BRANCH  20  21
ATOM     21  C   UNL     1      -2.962 -21.641 -16.327  1.00  0.00     0.000 C 
BRANCH  21  22
ATOM     22  C   UNL     1      -4.278 -22.341 -15.960  1.00  0.00     0.000 C 
BRANCH  22  23
ATOM     23  C   UNL     1      -5.471 -21.858 -16.808  1.00  0.00     0.000 C 
BRANCH  23  24
ATOM     24  C   UNL     1      -6.579 -21.129 -16.024  1.00  0.00    -0.000 C 
BRANCH  24  25
ATOM     25  C   UNL     1      -7.655 -22.084 -15.481  1.00  0.00    -0.000 C 
BRANCH  25  26
ATOM     26  C   UNL     1      -8.948 -21.351 -15.088  1.00  0.00    -0.000 C 
BRANCH  26  27
ATOM     27  C   UNL     1      -9.106 -21.212 -13.563  1.00  0.00    -0.000 C 
BRANCH  27  28
ATOM     28  C   UNL     1      -7.839 -21.630 -12.799  1.00  0.00    -0.000 C 
BRANCH  28  29
ATOM     29  C   UNL     1      -7.944 -23.044 -12.201  1.00  0.00    -0.000 C 
BRANCH  29  30
ATOM     30  C   UNL     1      -7.434 -23.110 -10.754  1.00  0.00    -0.000 C 
BRANCH  30  31
ATOM     31  C   UNL     1      -8.560 -22.942  -9.723  1.00  0.00    -0.003 C 
ATOM     32  C   UNL     1      -8.991 -21.483  -9.613  1.00  0.00     0.004 C 
ENDBRANCH  30  31
ENDBRANCH  29  30
ENDBRANCH  28  29
ENDBRANCH  27  28
ENDBRANCH  26  27
ENDBRANCH  25  26
ENDBRANCH  24  25
ENDBRANCH  23  24
ENDBRANCH  22  23
ENDBRANCH  21  22
ENDBRANCH  20  21
ENDBRANCH  19  20
ENDBRANCH  18  19
ENDBRANCH   1  18
TORSDOF 28
ENDMDL
MODEL 3
REMARK VINA RESULT:    -0.198      5.486     15.569
REMARK INTER + INTRA:          -2.055
REMARK INTER:                  -1.370
REMARK INTRA:                  -0.685
REMARK UNBOUND:                -1.534
REMARK SMILES CCCCCCCCCCCCCCCCCCCCCCCCCCCCCC(=O)[O-]
REMARK SMILES IDX 16 1 17 2 18 3 19 4 20 5 21 6 22 7 23 8 24 9 25 10 26 11
REMARK SMILES IDX 27 12 28 13 29 14 30 15 31 16 32 17 15 18 14 19 13 20 12 21
REMARK SMILES IDX 11 22 10 23 9 24 8 25 7 26 6 27 5 28 4 29 3 30 2 31 1 32
REMARK H PARENT
REMARK Flexibility Score: inf
ROOT
ATOM      1  C   UNL     1       4.505 -22.340 -15.944  1.00  0.00     0.000 C 
ENDROOT
BRANCH   1   2
ATOM      2  C   UNL     1       3.196 -22.925 -16.497  1.00  0.00     0.000 C 
BRANCH   2   3
ATOM      3  C   UNL     1       2.133 -23.124 -15.402  1.00  0.00     0.000 C 
BRANCH   3   4
ATOM      4  C   UNL     1       0.729 -22.688 -15.850  1.00  0.00     0.000 C 
BRANCH   4   5
ATOM      5  C   UNL     1      -0.369 -23.124 -14.864  1.00  0.00     0.000 C 
BRANCH   5   6
ATOM      6  C   UNL     1      -1.783 -22.922 -15.432  1.00  0.00     0.000 C 
BRANCH   6   7
ATOM      7  C   UNL     1      -2.797 -22.511 -14.352  1.00  0.00     0.000 C 
BRANCH   7   8
ATOM      8  C   UNL     1      -4.239 -22.765 -14.821  1.00  0.00     0.000 C 
BRANCH   8   9
ATOM      9  C   UNL     1      -5.220 -22.945 -13.650  1.00  0.00     0.000 C 
BRANCH   9  10
ATOM     10  C   UNL     1      -6.680 -22.680 -14.056  1.00  0.00     0.000 C 
BRANCH  10  11
ATOM     11  C   UNL     1      -6.801 -21.994 -15.427  1.00  0.00     0.000 C 
BRANCH  11  12
ATOM     12  C   UNL     1      -8.244 -21.729 -15.896  1.00  0.00     0.000 C 
BRANCH  12  13
ATOM     13  C   UNL     1      -9.125 -21.039 -14.833  1.00  0.00     0.006 C 
BRANCH  13  14
ATOM     14  C   UNL     1      -8.328 -20.048 -13.974  1.00  0.00     0.053 C 
BRANCH  14  15
ATOM     15  C   UNL     1      -8.830 -20.053 -12.565  1.00  0.00     0.041 C 
ATOM     16  O   UNL     1      -9.081 -18.970 -11.975  1.00  0.00    -0.550 OA
ATOM     17  O   UNL     1      -8.991 -21.258 -11.890  1.00  0.00    -0.550 OA
ENDBRANCH  14  15
ENDBRANCH  13  14
ENDBRANCH  12  13
ENDBRANCH  11  12
ENDBRANCH  10  11
ENDBRANCH   9  10
ENDBRANCH   8   9
ENDBRANCH   7   8
ENDBRANCH   6   7
ENDBRANCH   5   6
ENDBRANCH   4   5
ENDBRANCH   3   4
ENDBRANCH   2   3
ENDBRANCH   1   2
BRANCH   1  18
ATOM     18  C   UNL     1       5.511 -21.987 -17.052  1.00  0.00     0.000 C 
BRANCH  18  19
ATOM     19  C   UNL     1       5.991 -20.528 -16.982  1.00  0.00     0.000 C 
BRANCH  19  20
ATOM     20  C   UNL     1       6.705 -20.167 -15.662  1.00  0.00     0.000 C 
BRANCH  20  21
ATOM     21  C   UNL     1       8.197 -20.534 -15.691  1.00  0.00     0.000 C 
BRANCH  21  22
ATOM     22  C   UNL     1       8.949 -19.888 -14.518  1.00  0.00     0.000 C 
BRANCH  22  23
ATOM     23  C   UNL     1      10.479 -20.019 -14.641  1.00  0.00     0.000 C 
BRANCH  23  24
ATOM     24  C   UNL     1      11.037 -21.434 -14.402  1.00  0.00    -0.000 C 
BRANCH  24  25
ATOM     25  C   UNL     1      11.122 -22.270 -15.690  1.00  0.00    -0.000 C 
BRANCH  25  26
ATOM     26  C   UNL     1      11.066 -21.404 -16.958  1.00  0.00    -0.000 C 
BRANCH  26  27
ATOM     27  C   UNL     1      10.923 -22.244 -18.240  1.00  0.00    -0.000 C 
BRANCH  27  28
ATOM     28  C   UNL     1      10.985 -21.387 -19.515  1.00  0.00    -0.000 C 
BRANCH  28  29
ATOM     29  C   UNL     1       9.766 -21.593 -20.431  1.00  0.00    -0.000 C 
BRANCH  29  30
ATOM     30  C   UNL     1       9.402 -20.327 -21.221  1.00  0.00    -0.000 C 
BRANCH  30  31
ATOM     31  C   UNL     1       9.289 -20.584 -22.730  1.00  0.00    -0.003 C 
ATOM     32  C   UNL     1       9.059 -22.064 -23.019  1.00  0.00     0.004 C 
ENDBRANCH  30  31
ENDBRANCH  29  30
ENDBRANCH  28  29
ENDBRANCH  27  28
ENDBRANCH  26  27
ENDBRANCH  25  26
ENDBRANCH  24  25
ENDBRANCH  23  24
ENDBRANCH  22  23
ENDBRANCH  21  22
ENDBRANCH  20  21
ENDBRANCH  19  20
ENDBRANCH  18  19
ENDBRANCH   1  18
TORSDOF 28
ENDMDL
MODEL 4
REMARK VINA RESULT:    -0.093      5.335     15.316
REMARK INTER + INTRA:          -1.780
REMARK INTER:                  -1.671
REMARK INTRA:                  -0.109
REMARK UNBOUND:                -1.534
REMARK SMILES CCCCCCCCCCCCCCCCCCCCCCCCCCCCCC(=O)[O-]
REMARK SMILES IDX 16 1 17 2 18 3 19 4 20 5 21 6 22 7 23 8 24 9 25 10 26 11
REMARK SMILES IDX 27 12 28 13 29 14 30 15 31 16 32 17 15 18 14 19 13 20 12 21
REMARK SMILES IDX 11 22 10 23 9 24 8 25 7 26 6 27 5 28 4 29 3 30 2 31 1 32
REMARK H PARENT
REMARK Flexibility Score: inf
ROOT
ATOM      1  C   UNL     1       5.169 -21.774 -15.498  1.00  0.00     0.000 C 
ENDROOT
BRANCH   1   2
ATOM      2  C   UNL     1       3.985 -22.412 -16.243  1.00  0.00     0.000 C 
BRANCH   2   3
ATOM      3  C   UNL     1       2.717 -22.489 -15.374  1.00  0.00     0.000 C 
BRANCH   3   4
ATOM      4  C   UNL     1       1.443 -22.117 -16.148  1.00  0.00     0.000 C 
BRANCH   4   5
ATOM      5  C   UNL     1       0.201 -22.041 -15.242  1.00  0.00     0.000 C 
BRANCH   5   6
ATOM      6  C   UNL     1      -1.039 -22.680 -15.889  1.00  0.00     0.000 C 
BRANCH   6   7
ATOM      7  C   UNL     1      -2.253 -21.739 -15.888  1.00  0.00     0.000 C 
BRANCH   7   8
ATOM      8  C   UNL     1      -3.554 -22.514 -15.626  1.00  0.00     0.000 C 
BRANCH   8   9
ATOM      9  C   UNL     1      -3.784 -22.797 -14.132  1.00  0.00     0.000 C 
BRANCH   9  10
ATOM     10  C   UNL     1      -5.264 -23.055 -13.799  1.00  0.00     0.000 C 
BRANCH  10  11
ATOM     11  C   UNL     1      -6.204 -22.724 -14.972  1.00  0.00     0.000 C 
BRANCH  11  12
ATOM     12  C   UNL     1      -7.699 -22.663 -14.609  1.00  0.00     0.000 C 
BRANCH  12  13
ATOM     13  C   UNL     1      -7.999 -23.056 -13.147  1.00  0.00     0.006 C 
BRANCH  13  14
ATOM     14  C   UNL     1      -9.042 -22.134 -12.501  1.00  0.00     0.053 C 
BRANCH  14  15
ATOM     15  C   UNL     1      -8.385 -21.187 -11.547  1.00  0.00     0.041 C 
ATOM     16  O   UNL     1      -7.996 -20.055 -11.940  1.00  0.00    -0.550 OA
ATOM     17  O   UNL     1      -8.170 -21.568 -10.228  1.00  0.00    -0.550 OA
ENDBRANCH  14  15
ENDBRANCH  13  14
ENDBRANCH  12  13
ENDBRANCH  11  12
ENDBRANCH  10  11
ENDBRANCH   9  10
ENDBRANCH   8   9
ENDBRANCH   7   8
ENDBRANCH   6   7
ENDBRANCH   5   6
ENDBRANCH   4   5
ENDBRANCH   3   4
ENDBRANCH   2   3
ENDBRANCH   1   2
BRANCH   1  18
ATOM     18  C   UNL     1       5.999 -20.842 -16.395  1.00  0.00     0.000 C 
BRANCH  18  19
ATOM     19  C   UNL     1       7.228 -20.258 -15.677  1.00  0.00     0.000 C 
BRANCH  19  20
ATOM     20  C   UNL     1       8.358 -21.283 -15.439  1.00  0.00     0.000 C 
BRANCH  20  21
ATOM     21  C   UNL     1       9.285 -21.418 -16.658  1.00  0.00     0.000 C 
BRANCH  21  22
ATOM     22  C   UNL     1       9.837 -22.845 -16.778  1.00  0.00     0.000 C 
BRANCH  22  23
ATOM     23  C   UNL     1      10.534 -23.107 -18.127  1.00  0.00     0.000 C 
BRANCH  23  24
ATOM     24  C   UNL     1       9.653 -22.893 -19.372  1.00  0.00    -0.000 C 
BRANCH  24  25
ATOM     25  C   UNL     1       8.158 -23.125 -19.094  1.00  0.00    -0.000 C 
BRANCH  25  26
ATOM     26  C   UNL     1       7.284 -22.876 -20.334  1.00  0.00    -0.000 C 
BRANCH  26  27
ATOM     27  C   UNL     1       8.113 -22.763 -21.627  1.00  0.00    -0.000 C 
BRANCH  27  28
ATOM     28  C   UNL     1       8.257 -21.309 -22.107  1.00  0.00    -0.000 C 
BRANCH  28  29
ATOM     29  C   UNL     1       9.714 -20.815 -22.077  1.00  0.00    -0.000 C 
BRANCH  29  30
ATOM     30  C   UNL     1      10.495 -21.209 -23.339  1.00  0.00    -0.000 C 
BRANCH  30  31
ATOM     31  C   UNL     1      11.089 -22.622 -23.249  1.00  0.00    -0.003 C 
ATOM     32  C   UNL     1      11.125 -23.111 -21.805  1.00  0.00     0.004 C 
ENDBRANCH  30  31
ENDBRANCH  29  30
ENDBRANCH  28  29
ENDBRANCH  27  28
ENDBRANCH  26  27
ENDBRANCH  25  26
ENDBRANCH  24  25
ENDBRANCH  23  24
ENDBRANCH  22  23
ENDBRANCH  21  22
ENDBRANCH  20  21
ENDBRANCH  19  20
ENDBRANCH  18  19
ENDBRANCH   1  18
TORSDOF 28
ENDMDL
MODEL 5
REMARK VINA RESULT:    -0.049      1.337      2.811
REMARK INTER + INTRA:          -1.664
REMARK INTER:                  -2.508
REMARK INTRA:                   0.844
REMARK UNBOUND:                -1.534
REMARK SMILES CCCCCCCCCCCCCCCCCCCCCCCCCCCCCC(=O)[O-]
REMARK SMILES IDX 16 1 17 2 18 3 19 4 20 5 21 6 22 7 23 8 24 9 25 10 26 11
REMARK SMILES IDX 27 12 28 13 29 14 30 15 31 16 32 17 15 18 14 19 13 20 12 21
REMARK SMILES IDX 11 22 10 23 9 24 8 25 7 26 6 27 5 28 4 29 3 30 2 31 1 32
REMARK H PARENT
REMARK Flexibility Score: inf
ROOT
ATOM      1  C   UNL     1       1.786 -23.090 -16.378  1.00  0.00     0.000 C 
ENDROOT
BRANCH   1   2
ATOM      2  C   UNL     1       3.101 -22.793 -15.640  1.00  0.00     0.000 C 
BRANCH   2   3
ATOM      3  C   UNL     1       4.238 -22.399 -16.600  1.00  0.00     0.000 C 
BRANCH   3   4
ATOM      4  C   UNL     1       5.608 -22.931 -16.151  1.00  0.00     0.000 C 
BRANCH   4   5
ATOM      5  C   UNL     1       6.765 -22.381 -17.002  1.00  0.00     0.000 C 
BRANCH   5   6
ATOM      6  C   UNL     1       6.933 -20.860 -16.854  1.00  0.00     0.000 C 
BRANCH   6   7
ATOM      7  C   UNL     1       7.483 -20.461 -15.475  1.00  0.00     0.000 C 
BRANCH   7   8
ATOM      8  C   UNL     1       8.494 -21.499 -14.961  1.00  0.00     0.000 C 
BRANCH   8   9
ATOM      9  C   UNL     1       9.206 -22.247 -16.100  1.00  0.00     0.000 C 
BRANCH   9  10
ATOM     10  C   UNL     1       9.625 -21.314 -17.250  1.00  0.00     0.000 C 
BRANCH  10  11
ATOM     11  C   UNL     1      10.368 -22.054 -18.375  1.00  0.00     0.000 C 
BRANCH  11  12
ATOM     12  C   UNL     1       9.513 -22.382 -19.612  1.00  0.00     0.000 C 
BRANCH  12  13
ATOM     13  C   UNL     1      10.344 -22.702 -20.873  1.00  0.00     0.006 C 
BRANCH  13  14
ATOM     14  C   UNL     1      10.455 -21.496 -21.816  1.00  0.00     0.053 C 
BRANCH  14  15
ATOM     15  C   UNL     1       9.195 -21.331 -22.606  1.00  0.00     0.041 C 
ATOM     16  O   UNL     1       8.657 -20.198 -22.716  1.00  0.00    -0.550 OA
ATOM     17  O   UNL     1       8.595 -22.438 -23.194  1.00  0.00    -0.550 OA
ENDBRANCH  14  15
ENDBRANCH  13  14
ENDBRANCH  12  13
ENDBRANCH  11  12
ENDBRANCH  10  11
ENDBRANCH   9  10
ENDBRANCH   8   9
ENDBRANCH   7   8
ENDBRANCH   6   7
ENDBRANCH   5   6
ENDBRANCH   4   5
ENDBRANCH   3   4
ENDBRANCH   2   3
ENDBRANCH   1   2
BRANCH   1  18
ATOM     18  C   UNL     1       0.598 -22.294 -15.813  1.00  0.00     0.000 C 
BRANCH  18  19
ATOM     19  C   UNL     1      -0.712 -23.098 -15.807  1.00  0.00     0.000 C 
BRANCH  19  20
ATOM     20  C   UNL     1      -1.932 -22.301 -15.296  1.00  0.00     0.000 C 
BRANCH  20  21
ATOM     21  C   UNL     1      -2.779 -23.112 -14.302  1.00  0.00     0.000 C 
BRANCH  21  22
ATOM     22  C   UNL     1      -3.578 -22.187 -13.373  1.00  0.00     0.000 C 
BRANCH  22  23
ATOM     23  C   UNL     1      -4.488 -22.957 -12.397  1.00  0.00     0.000 C 
BRANCH  23  24
ATOM     24  C   UNL     1      -5.948 -23.125 -12.857  1.00  0.00    -0.000 C 
BRANCH  24  25
ATOM     25  C   UNL     1      -6.804 -21.872 -12.603  1.00  0.00    -0.000 C 
BRANCH  25  26
ATOM     26  C   UNL     1      -8.253 -22.217 -12.225  1.00  0.00    -0.000 C 
BRANCH  26  27
ATOM     27  C   UNL     1      -9.124 -22.533 -13.455  1.00  0.00    -0.000 C 
BRANCH  27  28
ATOM     28  C   UNL     1      -8.290 -22.731 -14.731  1.00  0.00    -0.000 C 
BRANCH  28  29
ATOM     29  C   UNL     1      -8.738 -21.815 -15.884  1.00  0.00    -0.000 C 
BRANCH  29  30
ATOM     30  C   UNL     1      -7.569 -21.042 -16.511  1.00  0.00    -0.000 C 
BRANCH  30  31
ATOM     31  C   UNL     1      -6.486 -21.969 -17.080  1.00  0.00    -0.003 C 
ATOM     32  C   UNL     1      -5.091 -21.407 -16.825  1.00  0.00     0.004 C 
ENDBRANCH  30  31
ENDBRANCH  29  30
ENDBRANCH  28  29
ENDBRANCH  27  28
ENDBRANCH  26  27
ENDBRANCH  25  26
ENDBRANCH  24  25
ENDBRANCH  23  24
ENDBRANCH  22  23
ENDBRANCH  21  22
ENDBRANCH  20  21
ENDBRANCH  19  20
ENDBRANCH  18  19
ENDBRANCH   1  18
TORSDOF 28
ENDMDL
MODEL 6
REMARK VINA RESULT:     0.813      5.079     14.841
REMARK INTER + INTRA:           0.611
REMARK INTER:                   1.141
REMARK INTRA:                  -0.530
REMARK UNBOUND:                -1.534
REMARK SMILES CCCCCCCCCCCCCCCCCCCCCCCCCCCCCC(=O)[O-]
REMARK SMILES IDX 16 1 17 2 18 3 19 4 20 5 21 6 22 7 23 8 24 9 25 10 26 11
REMARK SMILES IDX 27 12 28 13 29 14 30 15 31 16 32 17 15 18 14 19 13 20 12 21
REMARK SMILES IDX 11 22 10 23 9 24 8 25 7 26 6 27 5 28 4 29 3 30 2 31 1 32
REMARK H PARENT
REMARK Flexibility Score: inf
ROOT
ATOM      1  C   UNL     1       5.679 -21.574 -17.118  1.00  0.00     0.000 C 
ENDROOT
BRANCH   1   2
ATOM      2  C   UNL     1       4.934 -22.651 -16.313  1.00  0.00     0.000 C 
BRANCH   2   3
ATOM      3  C   UNL     1       3.640 -22.115 -15.674  1.00  0.00     0.000 C 
BRANCH   3   4
ATOM      4  C   UNL     1       2.381 -22.825 -16.198  1.00  0.00     0.000 C 
BRANCH   4   5
ATOM      5  C   UNL     1       1.086 -22.080 -15.830  1.00  0.00     0.000 C 
BRANCH   5   6
ATOM      6  C   UNL     1       0.085 -22.976 -15.083  1.00  0.00     0.000 C 
BRANCH   6   7
ATOM      7  C   UNL     1      -1.296 -23.004 -15.757  1.00  0.00     0.000 C 
BRANCH   7   8
ATOM      8  C   UNL     1      -2.356 -22.323 -14.876  1.00  0.00     0.000 C 
BRANCH   8   9
ATOM      9  C   UNL     1      -3.671 -23.119 -14.809  1.00  0.00     0.000 C 
BRANCH   9  10
ATOM     10  C   UNL     1      -4.913 -22.211 -14.833  1.00  0.00     0.000 C 
BRANCH  10  11
ATOM     11  C   UNL     1      -5.663 -22.265 -16.175  1.00  0.00     0.000 C 
BRANCH  11  12
ATOM     12  C   UNL     1      -6.552 -21.044 -16.472  1.00  0.00     0.000 C 
BRANCH  12  13
ATOM     13  C   UNL     1      -8.041 -21.262 -16.127  1.00  0.00     0.006 C 
BRANCH  13  14
ATOM     14  C   UNL     1      -8.231 -22.286 -15.000  1.00  0.00     0.053 C 
BRANCH  14  15
ATOM     15  C   UNL     1      -8.204 -21.608 -13.666  1.00  0.00     0.041 C 
ATOM     16  O   UNL     1      -8.763 -20.491 -13.510  1.00  0.00    -0.550 OA
ATOM     17  O   UNL     1      -7.530 -22.196 -12.603  1.00  0.00    -0.550 OA
ENDBRANCH  14  15
ENDBRANCH  13  14
ENDBRANCH  12  13
ENDBRANCH  11  12
ENDBRANCH  10  11
ENDBRANCH   9  10
ENDBRANCH   8   9
ENDBRANCH   7   8
ENDBRANCH   6   7
ENDBRANCH   5   6
ENDBRANCH   4   5
ENDBRANCH   3   4
ENDBRANCH   2   3
ENDBRANCH   1   2
BRANCH   1  18
ATOM     18  C   UNL     1       6.955 -21.086 -16.414  1.00  0.00     0.000 C 
BRANCH  18  19
ATOM     19  C   UNL     1       6.738 -20.788 -14.921  1.00  0.00     0.000 C 
BRANCH  19  20
ATOM     20  C   UNL     1       7.870 -21.308 -14.009  1.00  0.00     0.000 C 
BRANCH  20  21
ATOM     21  C   UNL     1       9.216 -20.630 -14.312  1.00  0.00     0.000 C 
BRANCH  21  22
ATOM     22  C   UNL     1       9.327 -20.261 -15.799  1.00  0.00     0.000 C 
BRANCH  22  23
ATOM     23  C   UNL     1      10.652 -20.725 -16.434  1.00  0.00     0.000 C 
BRANCH  23  24
ATOM     24  C   UNL     1      10.971 -22.222 -16.266  1.00  0.00    -0.000 C 
BRANCH  24  25
ATOM     25  C   UNL     1      11.090 -22.963 -17.609  1.00  0.00    -0.000 C 
BRANCH  25  26
ATOM     26  C   UNL     1       9.767 -22.979 -18.392  1.00  0.00    -0.000 C 
BRANCH  26  27
ATOM     27  C   UNL     1       9.709 -21.884 -19.473  1.00  0.00    -0.000 C 
BRANCH  27  28
ATOM     28  C   UNL     1       8.342 -21.824 -20.175  1.00  0.00    -0.000 C 
BRANCH  28  29
ATOM     29  C   UNL     1       8.226 -22.825 -21.338  1.00  0.00    -0.000 C 
BRANCH  29  30
ATOM     30  C   UNL     1       8.018 -22.132 -22.693  1.00  0.00    -0.000 C 
BRANCH  30  31
ATOM     31  C   UNL     1       8.794 -22.814 -23.829  1.00  0.00    -0.003 C 
ATOM     32  C   UNL     1      10.226 -23.125 -23.407  1.00  0.00     0.004 C 
ENDBRANCH  30  31
ENDBRANCH  29  30
ENDBRANCH  28  29
ENDBRANCH  27  28
ENDBRANCH  26  27
ENDBRANCH  25  26
ENDBRANCH  24  25
ENDBRANCH  23  24
ENDBRANCH  22  23
ENDBRANCH  21  22
ENDBRANCH  20  21
ENDBRANCH  19  20
ENDBRANCH  18  19
ENDBRANCH   1  18
TORSDOF 28
ENDMDL
MODEL 7
REMARK VINA RESULT:     1.052      2.586      4.509
REMARK INTER + INTRA:           1.241
REMARK INTER:                   0.313
REMARK INTRA:                   0.928
REMARK UNBOUND:                -1.534
REMARK SMILES CCCCCCCCCCCCCCCCCCCCCCCCCCCCCC(=O)[O-]
REMARK SMILES IDX 16 1 17 2 18 3 19 4 20 5 21 6 22 7 23 8 24 9 25 10 26 11
REMARK SMILES IDX 27 12 28 13 29 14 30 15 31 16 32 17 15 18 14 19 13 20 12 21
REMARK SMILES IDX 11 22 10 23 9 24 8 25 7 26 6 27 5 28 4 29 3 30 2 31 1 32
REMARK H PARENT
REMARK Flexibility Score: inf
ROOT
ATOM      1  C   UNL     1       5.911 -20.629 -15.818  1.00  0.00     0.000 C 
ENDROOT
BRANCH   1   2
ATOM      2  C   UNL     1       5.363 -21.941 -16.404  1.00  0.00     0.000 C 
BRANCH   2   3
ATOM      3  C   UNL     1       6.410 -23.069 -16.396  1.00  0.00     0.000 C 
BRANCH   3   4
ATOM      4  C   UNL     1       7.234 -23.125 -17.692  1.00  0.00     0.000 C 
BRANCH   4   5
ATOM      5  C   UNL     1       6.380 -22.878 -18.948  1.00  0.00     0.000 C 
BRANCH   5   6
ATOM      6  C   UNL     1       7.160 -23.125 -20.249  1.00  0.00     0.000 C 
BRANCH   6   7
ATOM      7  C   UNL     1       7.183 -21.891 -21.165  1.00  0.00     0.000 C 
BRANCH   7   8
ATOM      8  C   UNL     1       8.596 -21.635 -21.713  1.00  0.00     0.000 C 
BRANCH   8   9
ATOM      9  C   UNL     1       9.669 -21.638 -20.611  1.00  0.00     0.000 C 
BRANCH   9  10
ATOM     10  C   UNL     1       9.856 -23.024 -19.972  1.00  0.00     0.000 C 
BRANCH  10  11
ATOM     11  C   UNL     1      10.931 -23.032 -18.871  1.00  0.00     0.000 C 
BRANCH  11  12
ATOM     12  C   UNL     1      10.871 -21.841 -17.896  1.00  0.00     0.000 C 
BRANCH  12  13
ATOM     13  C   UNL     1       9.924 -22.068 -16.698  1.00  0.00     0.006 C 
BRANCH  13  14
ATOM     14  C   UNL     1       9.396 -20.749 -16.119  1.00  0.00     0.053 C 
BRANCH  14  15
ATOM     15  C   UNL     1       9.729 -20.645 -14.664  1.00  0.00     0.041 C 
ATOM     16  O   UNL     1       8.919 -21.061 -13.794  1.00  0.00    -0.550 OA
ATOM     17  O   UNL     1      10.924 -20.056 -14.266  1.00  0.00    -0.550 OA
ENDBRANCH  14  15
ENDBRANCH  13  14
ENDBRANCH  12  13
ENDBRANCH  11  12
ENDBRANCH  10  11
ENDBRANCH   9  10
ENDBRANCH   8   9
ENDBRANCH   7   8
ENDBRANCH   6   7
ENDBRANCH   5   6
ENDBRANCH   4   5
ENDBRANCH   3   4
ENDBRANCH   2   3
ENDBRANCH   1   2
BRANCH   1  18
ATOM     18  C   UNL     1       5.176 -20.201 -14.538  1.00  0.00     0.000 C 
BRANCH  18  19
ATOM     19  C   UNL     1       3.693 -20.610 -14.534  1.00  0.00     0.000 C 
BRANCH  19  20
ATOM     20  C   UNL     1       3.319 -21.616 -15.644  1.00  0.00     0.000 C 
BRANCH  20  21
ATOM     21  C   UNL     1       1.834 -21.527 -16.031  1.00  0.00     0.000 C 
BRANCH  21  22
ATOM     22  C   UNL     1       1.166 -22.908 -15.978  1.00  0.00     0.000 C 
BRANCH  22  23
ATOM     23  C   UNL     1      -0.090 -22.933 -15.086  1.00  0.00     0.000 C 
BRANCH  23  24
ATOM     24  C   UNL     1      -1.235 -22.007 -15.539  1.00  0.00    -0.000 C 
BRANCH  24  25
ATOM     25  C   UNL     1      -2.504 -22.161 -14.684  1.00  0.00    -0.000 C 
BRANCH  25  26
ATOM     26  C   UNL     1      -3.782 -22.231 -15.535  1.00  0.00    -0.000 C 
BRANCH  26  27
ATOM     27  C   UNL     1      -4.919 -22.993 -14.831  1.00  0.00    -0.000 C 
BRANCH  27  28
ATOM     28  C   UNL     1      -6.306 -22.613 -15.373  1.00  0.00    -0.000 C 
BRANCH  28  29
ATOM     29  C   UNL     1      -7.285 -22.194 -14.263  1.00  0.00    -0.000 C 
BRANCH  29  30
ATOM     30  C   UNL     1      -6.590 -22.006 -12.906  1.00  0.00    -0.000 C 
BRANCH  30  31
ATOM     31  C   UNL     1      -7.454 -21.227 -11.903  1.00  0.00    -0.003 C 
ATOM     32  C   UNL     1      -8.369 -20.238 -12.618  1.00  0.00     0.004 C 
ENDBRANCH  30  31
ENDBRANCH  29  30
ENDBRANCH  28  29
ENDBRANCH  27  28
ENDBRANCH  26  27
ENDBRANCH  25  26
ENDBRANCH  24  25
ENDBRANCH  23  24
ENDBRANCH  22  23
ENDBRANCH  21  22
ENDBRANCH  20  21
ENDBRANCH  19  20
ENDBRANCH  18  19
ENDBRANCH   1  18
TORSDOF 28
ENDMDL
