MODEL 1
REMARK VINA RESULT:    -5.190      0.000      0.000
REMARK INTER + INTRA:          -5.745
REMARK INTER:                  -6.404
REMARK INTRA:                   0.659
REMARK UNBOUND:                 0.659
REMARK SMILES C=C1[C@@H]2CC[C@H]3[C@@H]2C(C)(C)CCC[C@@]13C
REMARK SMILES IDX 14 1 6 2 7 3 3 4 2 5 1 6 4 7 5 8 15 9 8 10 9 11 10 12 11 13
REMARK SMILES IDX 13 15 12 16
REMARK H PARENT
REMARK Flexibility Score: 80.00
ROOT
ATOM      1  C   UNL     1      -4.169 -16.377   8.284  1.00  0.00    -0.008 C 
ATOM      2  C   UNL     1      -4.541 -15.739   9.673  1.00  0.00     0.003 C 
ATOM      3  C   UNL     1      -3.175 -15.548  10.348  1.00  0.00     0.006 C 
ATOM      4  C   UNL     1      -2.787 -17.021  10.200  1.00  0.00     0.019 C 
ATOM      5  C   UNL     1      -3.022 -17.253   8.733  1.00  0.00    -0.068 C 
ATOM      6  C   UNL     1      -2.370 -18.154   7.988  1.00  0.00     0.009 C 
ATOM      7  C   UNL     1      -3.946 -17.722  10.933  1.00  0.00     0.008 C 
ATOM      8  C   UNL     1      -5.149 -16.806  10.626  1.00  0.00     0.005 C 
ATOM      9  C   UNL     1      -5.309 -17.239   7.681  1.00  0.00     0.016 C 
ENDROOT
BRANCH   3  10
ATOM     10  C   UNL     1      -2.181 -14.441   9.777  1.00  0.00    -0.032 C 
ATOM     11  C   UNL     1      -1.653 -13.627  10.993  1.00  0.00     0.011 C 
ATOM     12  C   UNL     1      -0.899 -15.001   9.099  1.00  0.00     0.011 C 
BRANCH  10  13
ATOM     13  C   UNL     1      -2.887 -13.402   8.846  1.00  0.00     0.007 CG0
ATOM     14  G   UNL     1      -3.715 -13.868   7.621  1.00  0.00     0.000 G0
ENDBRANCH  10  13
ENDBRANCH   3  10
BRANCH   1  15
ATOM     15  C   UNL     1      -3.685 -15.334   7.217  1.00  0.00     0.011 C 
BRANCH  15  16
ATOM     16  C   UNL     1      -3.722 -13.855   7.625  1.00  0.00     0.001 CG0
ATOM     17  G   UNL     1      -2.887 -13.391   8.846  1.00  0.00     0.000 G0
ENDBRANCH  15  16
ENDBRANCH   1  15
TORSDOF 0
ENDMDL
MODEL 2
REMARK VINA RESULT:    -4.924      1.715      3.598
REMARK INTER + INTRA:          -5.416
REMARK INTER:                  -6.086
REMARK INTRA:                   0.670
REMARK UNBOUND:                 0.659
REMARK SMILES C=C1[C@@H]2CC[C@H]3[C@@H]2C(C)(C)CCC[C@@]13C
REMARK SMILES IDX 14 1 6 2 7 3 3 4 2 5 1 6 4 7 5 8 15 9 8 10 9 11 10 12 11 13
REMARK SMILES IDX 13 15 12 16
REMARK H PARENT
REMARK Flexibility Score: 80.00
ROOT
ATOM      1  C   UNL     1      -2.176 -15.930   8.800  1.00  0.00    -0.008 C 
ATOM      2  C   UNL     1      -3.504 -15.090   8.741  1.00  0.00     0.003 C 
ATOM      3  C   UNL     1      -4.584 -16.115   9.118  1.00  0.00     0.006 C 
ATOM      4  C   UNL     1      -4.182 -17.092   8.011  1.00  0.00     0.019 C 
ATOM      5  C   UNL     1      -2.705 -17.236   8.253  1.00  0.00    -0.068 C 
ATOM      6  C   UNL     1      -1.982 -18.321   7.945  1.00  0.00     0.009 C 
ATOM      7  C   UNL     1      -4.323 -16.212   6.754  1.00  0.00     0.008 C 
ATOM      8  C   UNL     1      -3.918 -14.814   7.268  1.00  0.00     0.005 C 
ATOM      9  C   UNL     1      -1.055 -15.370   7.885  1.00  0.00     0.016 C 
ENDROOT
BRANCH   3  10
ATOM     10  C   UNL     1      -4.647 -16.652  10.617  1.00  0.00    -0.032 C 
ATOM     11  C   UNL     1      -6.135 -16.584  11.067  1.00  0.00     0.011 C 
ATOM     12  C   UNL     1      -4.257 -18.147  10.793  1.00  0.00     0.011 C 
BRANCH  10  13
ATOM     13  C   UNL     1      -3.858 -15.755  11.626  1.00  0.00     0.007 CG0
ATOM     14  G   UNL     1      -2.364 -15.417  11.387  1.00  0.00     0.000 G0
ENDBRANCH  10  13
ENDBRANCH   3  10
BRANCH   1  15
ATOM     15  C   UNL     1      -1.614 -16.126  10.252  1.00  0.00     0.011 C 
BRANCH  15  16
ATOM     16  C   UNL     1      -2.361 -15.412  11.387  1.00  0.00     0.001 CG0
ATOM     17  G   UNL     1      -3.855 -15.746  11.630  1.00  0.00     0.000 G0
ENDBRANCH  15  16
ENDBRANCH   1  15
TORSDOF 0
ENDMDL
MODEL 3
REMARK VINA RESULT:    -4.879      1.561      3.479
REMARK INTER + INTRA:          -5.361
REMARK INTER:                  -6.006
REMARK INTRA:                   0.645
REMARK UNBOUND:                 0.659
REMARK SMILES C=C1[C@@H]2CC[C@H]3[C@@H]2C(C)(C)CCC[C@@]13C
REMARK SMILES IDX 14 1 6 2 7 3 3 4 2 5 1 6 4 7 5 8 15 9 8 10 9 11 10 12 11 13
REMARK SMILES IDX 13 15 12 16
REMARK H PARENT
REMARK Flexibility Score: 80.00
ROOT
ATOM      1  C   UNL     1      -3.123 -16.726   9.964  1.00  0.00    -0.008 C 
ATOM      2  C   UNL     1      -3.140 -15.158   9.842  1.00  0.00     0.003 C 
ATOM      3  C   UNL     1      -3.179 -14.925   8.325  1.00  0.00     0.006 C 
ATOM      4  C   UNL     1      -1.918 -15.754   8.067  1.00  0.00     0.019 C 
ATOM      5  C   UNL     1      -2.249 -17.040   8.772  1.00  0.00    -0.068 C 
ATOM      6  C   UNL     1      -1.767 -18.243   8.434  1.00  0.00     0.009 C 
ATOM      7  C   UNL     1      -0.887 -15.034   8.957  1.00  0.00     0.008 C 
ATOM      8  C   UNL     1      -1.738 -14.564  10.156  1.00  0.00     0.005 C 
ATOM      9  C   UNL     1      -2.461 -17.231  11.274  1.00  0.00     0.016 C 
ENDROOT
BRANCH   3  10
ATOM     10  C   UNL     1      -4.505 -15.293   7.522  1.00  0.00    -0.032 C 
ATOM     11  C   UNL     1      -4.835 -14.083   6.602  1.00  0.00     0.011 C 
ATOM     12  C   UNL     1      -4.366 -16.496   6.546  1.00  0.00     0.011 C 
BRANCH  10  13
ATOM     13  C   UNL     1      -5.753 -15.476   8.446  1.00  0.00     0.007 CG0
ATOM     14  G   UNL     1      -5.718 -16.464   9.641  1.00  0.00     0.000 G0
ENDBRANCH  10  13
ENDBRANCH   3  10
BRANCH   1  15
ATOM     15  C   UNL     1      -4.535 -17.390   9.806  1.00  0.00     0.011 C 
BRANCH  15  16
ATOM     16  C   UNL     1      -5.733 -16.443   9.645  1.00  0.00     0.001 CG0
ATOM     17  G   UNL     1      -5.768 -15.476   8.434  1.00  0.00     0.000 G0
ENDBRANCH  15  16
ENDBRANCH   1  15
TORSDOF 0
ENDMDL
MODEL 4
REMARK VINA RESULT:    -4.863      1.378      2.408
REMARK INTER + INTRA:          -5.341
REMARK INTER:                  -6.001
REMARK INTRA:                   0.660
REMARK UNBOUND:                 0.659
REMARK SMILES C=C1[C@@H]2CC[C@H]3[C@@H]2C(C)(C)CCC[C@@]13C
REMARK SMILES IDX 14 1 6 2 7 3 3 4 2 5 1 6 4 7 5 8 15 9 8 10 9 11 10 12 11 13
REMARK SMILES IDX 13 15 12 16
REMARK H PARENT
REMARK Flexibility Score: 80.00
ROOT
ATOM      1  C   UNL     1      -4.549 -16.492  10.342  1.00  0.00    -0.008 C 
ATOM      2  C   UNL     1      -3.518 -15.341  10.632  1.00  0.00     0.003 C 
ATOM      3  C   UNL     1      -2.203 -15.898  10.067  1.00  0.00     0.006 C 
ATOM      4  C   UNL     1      -2.267 -17.172  10.911  1.00  0.00     0.019 C 
ATOM      5  C   UNL     1      -3.647 -17.678  10.597  1.00  0.00    -0.068 C 
ATOM      6  C   UNL     1      -4.015 -18.965  10.629  1.00  0.00     0.009 C 
ATOM      7  C   UNL     1      -2.339 -16.596  12.338  1.00  0.00     0.008 C 
ATOM      8  C   UNL     1      -3.149 -15.297  12.141  1.00  0.00     0.005 C 
ATOM      9  C   UNL     1      -5.750 -16.500  11.325  1.00  0.00     0.016 C 
ENDROOT
BRANCH   3  10
ATOM     10  C   UNL     1      -2.042 -16.041   8.488  1.00  0.00    -0.032 C 
ATOM     11  C   UNL     1      -0.654 -15.446   8.112  1.00  0.00     0.011 C 
ATOM     12  C   UNL     1      -1.990 -17.505   7.967  1.00  0.00     0.011 C 
BRANCH  10  13
ATOM     13  C   UNL     1      -3.093 -15.208   7.684  1.00  0.00     0.007 CG0
ATOM     14  G   UNL     1      -4.610 -15.364   7.962  1.00  0.00     0.000 G0
ENDBRANCH  10  13
ENDBRANCH   3  10
BRANCH   1  15
ATOM     15  C   UNL     1      -5.083 -16.510   8.867  1.00  0.00     0.011 C 
BRANCH  15  16
ATOM     16  C   UNL     1      -4.619 -15.371   7.948  1.00  0.00     0.001 CG0
ATOM     17  G   UNL     1      -3.102 -15.194   7.680  1.00  0.00     0.000 G0
ENDBRANCH  15  16
ENDBRANCH   1  15
TORSDOF 0
ENDMDL
MODEL 5
REMARK VINA RESULT:    -4.796      1.501      2.275
REMARK INTER + INTRA:          -5.259
REMARK INTER:                  -5.923
REMARK INTRA:                   0.664
REMARK UNBOUND:                 0.659
REMARK SMILES C=C1[C@@H]2CC[C@H]3[C@@H]2C(C)(C)CCC[C@@]13C
REMARK SMILES IDX 14 1 6 2 7 3 3 4 2 5 1 6 4 7 5 8 15 9 8 10 9 11 10 12 11 13
REMARK SMILES IDX 13 15 12 16
REMARK H PARENT
REMARK Flexibility Score: 80.00
ROOT
ATOM      1  C   UNL     1      -3.121 -16.206   8.060  1.00  0.00    -0.008 C 
ATOM      2  C   UNL     1      -4.052 -15.249   8.891  1.00  0.00     0.003 C 
ATOM      3  C   UNL     1      -4.039 -15.878  10.292  1.00  0.00     0.006 C 
ATOM      4  C   UNL     1      -4.508 -17.245   9.790  1.00  0.00     0.019 C 
ATOM      5  C   UNL     1      -3.522 -17.521   8.689  1.00  0.00    -0.068 C 
ATOM      6  C   UNL     1      -3.142 -18.742   8.291  1.00  0.00     0.009 C 
ATOM      7  C   UNL     1      -5.833 -16.881   9.093  1.00  0.00     0.008 C 
ATOM      8  C   UNL     1      -5.545 -15.475   8.524  1.00  0.00     0.005 C 
ATOM      9  C   UNL     1      -3.443 -16.208   6.542  1.00  0.00     0.016 C 
ENDROOT
BRANCH   3  10
ATOM     10  C   UNL     1      -2.702 -15.806  11.157  1.00  0.00    -0.032 C 
ATOM     11  C   UNL     1      -3.104 -15.336  12.585  1.00  0.00     0.011 C 
ATOM     12  C   UNL     1      -1.996 -17.172  11.383  1.00  0.00     0.011 C 
BRANCH  10  13
ATOM     13  C   UNL     1      -1.686 -14.741  10.630  1.00  0.00     0.007 CG0
ATOM     14  G   UNL     1      -1.195 -14.770   9.160  1.00  0.00     0.000 G0
ENDBRANCH  10  13
ENDBRANCH   3  10
BRANCH   1  15
ATOM     15  C   UNL     1      -1.589 -15.938   8.266  1.00  0.00     0.011 C 
BRANCH  15  16
ATOM     16  C   UNL     1      -1.207 -14.750   9.160  1.00  0.00     0.001 CG0
ATOM     17  G   UNL     1      -1.689 -14.734  10.634  1.00  0.00     0.000 G0
ENDBRANCH  15  16
ENDBRANCH   1  15
TORSDOF 0
ENDMDL
MODEL 6
REMARK VINA RESULT:    -4.723      1.973      3.993
REMARK INTER + INTRA:          -5.169
REMARK INTER:                  -5.828
REMARK INTRA:                   0.659
REMARK UNBOUND:                 0.659
REMARK SMILES C=C1[C@@H]2CC[C@H]3[C@@H]2C(C)(C)CCC[C@@]13C
REMARK SMILES IDX 14 1 6 2 7 3 3 4 2 5 1 6 4 7 5 8 15 9 8 10 9 11 10 12 11 13
REMARK SMILES IDX 13 15 12 16
REMARK H PARENT
REMARK Flexibility Score: 80.00
ROOT
ATOM      1  C   UNL     1      -1.892 -16.000   8.562  1.00  0.00    -0.008 C 
ATOM      2  C   UNL     1      -1.996 -15.697  10.101  1.00  0.00     0.003 C 
ATOM      3  C   UNL     1      -3.489 -15.399  10.300  1.00  0.00     0.006 C 
ATOM      4  C   UNL     1      -3.508 -14.291   9.244  1.00  0.00     0.019 C 
ATOM      5  C   UNL     1      -2.896 -14.988   8.060  1.00  0.00    -0.068 C 
ATOM      6  C   UNL     1      -3.149 -14.685   6.780  1.00  0.00     0.009 C 
ATOM      7  C   UNL     1      -2.426 -13.334   9.780  1.00  0.00     0.008 C 
ATOM      8  C   UNL     1      -1.409 -14.295  10.430  1.00  0.00     0.005 C 
ATOM      9  C   UNL     1      -0.485 -15.709   7.974  1.00  0.00     0.016 C 
ENDROOT
BRANCH   3  10
ATOM     10  C   UNL     1      -4.538 -16.591  10.167  1.00  0.00    -0.032 C 
ATOM     11  C   UNL     1      -5.494 -16.500  11.391  1.00  0.00     0.011 C 
ATOM     12  C   UNL     1      -5.479 -16.499   8.932  1.00  0.00     0.011 C 
BRANCH  10  13
ATOM     13  C   UNL     1      -3.876 -18.005  10.250  1.00  0.00     0.007 CG0
ATOM     14  G   UNL     1      -2.705 -18.391   9.309  1.00  0.00     0.000 G0
ENDBRANCH  10  13
ENDBRANCH   3  10
BRANCH   1  15
ATOM     15  C   UNL     1      -2.329 -17.455   8.170  1.00  0.00     0.011 C 
BRANCH  15  16
ATOM     16  C   UNL     1      -2.704 -18.399   9.320  1.00  0.00     0.001 CG0
ATOM     17  G   UNL     1      -3.876 -18.011  10.259  1.00  0.00     0.000 G0
ENDBRANCH  15  16
ENDBRANCH   1  15
TORSDOF 0
ENDMDL
MODEL 7
REMARK VINA RESULT:    -4.671      1.089      3.279
REMARK INTER + INTRA:          -5.104
REMARK INTER:                  -5.769
REMARK INTRA:                   0.664
REMARK UNBOUND:                 0.659
REMARK SMILES C=C1[C@@H]2CC[C@H]3[C@@H]2C(C)(C)CCC[C@@]13C
REMARK SMILES IDX 14 1 6 2 7 3 3 4 2 5 1 6 4 7 5 8 15 9 8 10 9 11 10 12 11 13
REMARK SMILES IDX 13 15 12 16
REMARK H PARENT
REMARK Flexibility Score: 80.00
ROOT
ATOM      1  C   UNL     1      -2.858 -16.188  10.041  1.00  0.00    -0.008 C 
ATOM      2  C   UNL     1      -2.420 -16.853   8.685  1.00  0.00     0.003 C 
ATOM      3  C   UNL     1      -3.670 -16.712   7.804  1.00  0.00     0.006 C 
ATOM      4  C   UNL     1      -4.578 -17.423   8.811  1.00  0.00     0.019 C 
ATOM      5  C   UNL     1      -4.294 -16.656  10.073  1.00  0.00    -0.068 C 
ATOM      6  C   UNL     1      -5.160 -16.500  11.083  1.00  0.00     0.009 C 
ATOM      7  C   UNL     1      -3.864 -18.779   8.968  1.00  0.00     0.008 C 
ATOM      8  C   UNL     1      -2.375 -18.402   8.818  1.00  0.00     0.005 C 
ATOM      9  C   UNL     1      -2.080 -16.731  11.268  1.00  0.00     0.016 C 
ENDROOT
BRANCH   3  10
ATOM     10  C   UNL     1      -4.093 -15.263   7.293  1.00  0.00    -0.032 C 
ATOM     11  C   UNL     1      -4.400 -15.384   5.773  1.00  0.00     0.011 C 
ATOM     12  C   UNL     1      -5.409 -14.711   7.912  1.00  0.00     0.011 C 
BRANCH  10  13
ATOM     13  C   UNL     1      -2.944 -14.209   7.412  1.00  0.00     0.007 CG0
ATOM     14  G   UNL     1      -2.233 -13.959   8.766  1.00  0.00     0.000 G0
ENDBRANCH  10  13
ENDBRANCH   3  10
BRANCH   1  15
ATOM     15  C   UNL     1      -2.786 -14.621  10.030  1.00  0.00     0.011 C 
BRANCH  15  16
ATOM     16  C   UNL     1      -2.224 -13.961   8.763  1.00  0.00     0.001 CG0
ATOM     17  G   UNL     1      -2.930 -14.217   7.407  1.00  0.00     0.000 G0
ENDBRANCH  15  16
ENDBRANCH   1  15
TORSDOF 0
ENDMDL
MODEL 8
REMARK VINA RESULT:    -4.658      1.533      3.164
REMARK INTER + INTRA:          -5.088
REMARK INTER:                  -7.407
REMARK INTRA:                   2.318
REMARK UNBOUND:                 0.659
REMARK SMILES C=C1[C@@H]2CC[C@H]3[C@@H]2C(C)(C)CCC[C@@]13C
REMARK SMILES IDX 14 1 6 2 7 3 3 4 2 5 1 6 4 7 5 8 15 9 8 10 9 11 10 12 11 13
REMARK SMILES IDX 13 15 12 16
REMARK H PARENT
REMARK Flexibility Score: 80.00
ROOT
ATOM      1  C   UNL     1      -3.370 -17.019   8.678  1.00  0.00    -0.008 C 
ATOM      2  C   UNL     1      -2.807 -15.956   7.665  1.00  0.00     0.003 C 
ATOM      3  C   UNL     1      -3.041 -14.622   8.390  1.00  0.00     0.006 C 
ATOM      4  C   UNL     1      -4.540 -14.871   8.569  1.00  0.00     0.019 C 
ATOM      5  C   UNL     1      -4.550 -16.234   9.203  1.00  0.00    -0.068 C 
ATOM      6  C   UNL     1      -5.505 -16.688  10.026  1.00  0.00     0.009 C 
ATOM      7  C   UNL     1      -4.997 -15.076   7.112  1.00  0.00     0.008 C 
ATOM      8  C   UNL     1      -3.778 -15.768   6.466  1.00  0.00     0.005 C 
ATOM      9  C   UNL     1      -3.846 -18.327   7.993  1.00  0.00     0.016 C 
ENDROOT
BRANCH   3  10
ATOM     10  C   UNL     1      -2.169 -14.283   9.680  1.00  0.00    -0.032 C 
ATOM     11  C   UNL     1      -0.733 -14.822   9.418  1.00  0.00     0.011 C 
ATOM     12  C   UNL     1      -1.970 -12.765   9.953  1.00  0.00     0.011 C 
BRANCH  10  13
ATOM     13  C   UNL     1      -2.668 -15.013  10.969  1.00  0.00     0.007 CG0
ATOM     14  G   UNL     1      -2.490 -16.544  11.134  1.00  0.00     0.000 G0
ENDBRANCH  10  13
ENDBRANCH   3  10
BRANCH   1  15
ATOM     15  C   UNL     1      -2.379 -17.372   9.842  1.00  0.00     0.011 C 
BRANCH  15  16
ATOM     16  C   UNL     1      -2.479 -16.527  11.120  1.00  0.00     0.001 CG0
ATOM     17  G   UNL     1      -2.671 -14.994  10.993  1.00  0.00     0.000 G0
ENDBRANCH  15  16
ENDBRANCH   1  15
TORSDOF 0
ENDMDL
MODEL 9
REMARK VINA RESULT:    -4.110      2.301      3.909
REMARK INTER + INTRA:          -4.412
REMARK INTER:                  -5.084
REMARK INTRA:                   0.672
REMARK UNBOUND:                 0.659
REMARK SMILES C=C1[C@@H]2CC[C@H]3[C@@H]2C(C)(C)CCC[C@@]13C
REMARK SMILES IDX 14 1 6 2 7 3 3 4 2 5 1 6 4 7 5 8 15 9 8 10 9 11 10 12 11 13
REMARK SMILES IDX 13 15 12 16
REMARK H PARENT
REMARK Flexibility Score: 80.00
ROOT
ATOM      1  C   UNL     1      -2.733 -17.238   9.531  1.00  0.00    -0.008 C 
ATOM      2  C   UNL     1      -1.640 -16.122   9.704  1.00  0.00     0.003 C 
ATOM      3  C   UNL     1      -2.384 -15.018  10.470  1.00  0.00     0.006 C 
ATOM      4  C   UNL     1      -3.502 -14.915   9.429  1.00  0.00     0.019 C 
ATOM      5  C   UNL     1      -3.935 -16.350   9.305  1.00  0.00    -0.068 C 
ATOM      6  C   UNL     1      -5.167 -16.749   8.964  1.00  0.00     0.009 C 
ATOM      7  C   UNL     1      -2.705 -14.599   8.149  1.00  0.00     0.008 C 
ATOM      8  C   UNL     1      -1.391 -15.379   8.362  1.00  0.00     0.005 C 
ATOM      9  C   UNL     1      -2.489 -18.148   8.298  1.00  0.00     0.016 C 
ENDROOT
BRANCH   3  10
ATOM     10  C   UNL     1      -2.784 -15.270  11.991  1.00  0.00    -0.032 C 
ATOM     11  C   UNL     1      -2.375 -14.000  12.790  1.00  0.00     0.011 C 
ATOM     12  C   UNL     1      -4.311 -15.416  12.249  1.00  0.00     0.011 C 
BRANCH  10  13
ATOM     13  C   UNL     1      -2.000 -16.454  12.645  1.00  0.00     0.007 CG0
ATOM     14  G   UNL     1      -2.003 -17.863  11.997  1.00  0.00     0.000 G0
ENDBRANCH  10  13
ENDBRANCH   3  10
BRANCH   1  15
ATOM     15  C   UNL     1      -2.936 -18.131  10.805  1.00  0.00     0.011 C 
BRANCH  15  16
ATOM     16  C   UNL     1      -2.001 -17.867  11.993  1.00  0.00     0.001 CG0
ATOM     17  G   UNL     1      -1.993 -16.461  12.644  1.00  0.00     0.000 G0
ENDBRANCH  15  16
ENDBRANCH   1  15
TORSDOF 0
ENDMDL
