MODEL 1
REMARK VINA RESULT:     8.161      0.000      0.000
REMARK INTER + INTRA:          19.390
REMARK INTER:                  20.566
REMARK INTRA:                  -1.175
REMARK UNBOUND:                -1.175
REMARK SMILES CCCCCCCCCCCCCCCCCCCCCCCCCCCC(=O)[O-]
REMARK SMILES IDX 15 1 16 2 17 3 18 4 19 5 20 6 21 7 22 8 23 9 24 10 25 11
REMARK SMILES IDX 26 12 27 13 28 14 29 15 30 16 14 17 13 18 12 19 11 20 10 21
REMARK SMILES IDX 9 22 8 23 7 24 6 25 5 26 4 27 3 28 2 29 1 30
REMARK H PARENT
REMARK Flexibility Score: inf
ROOT
ATOM      1  C   UNL     1      31.132  20.467  37.696  1.00  0.00     0.000 C 
ENDROOT
BRANCH   1   2
ATOM      2  C   UNL     1      31.749  19.062  37.556  1.00  0.00     0.000 C 
BRANCH   2   3
ATOM      3  C   UNL     1      32.382  18.498  38.839  1.00  0.00     0.000 C 
BRANCH   3   4
ATOM      4  C   UNL     1      33.801  17.949  38.613  1.00  0.00     0.000 C 
BRANCH   4   5
ATOM      5  C   UNL     1      34.149  16.886  39.665  1.00  0.00     0.000 C 
BRANCH   5   6
ATOM      6  C   UNL     1      33.768  17.313  41.093  1.00  0.00     0.000 C 
BRANCH   6   7
ATOM      7  C   UNL     1      34.884  17.148  42.144  1.00  0.00     0.000 C 
BRANCH   7   8
ATOM      8  C   UNL     1      34.567  16.172  43.290  1.00  0.00     0.000 C 
BRANCH   8   9
ATOM      9  C   UNL     1      35.492  14.942  43.300  1.00  0.00     0.000 C 
BRANCH   9  10
ATOM     10  C   UNL     1      34.944  13.774  42.461  1.00  0.00     0.000 C 
BRANCH  10  11
ATOM     11  C   UNL     1      35.268  13.833  40.953  1.00  0.00     0.000 C 
BRANCH  11  12
ATOM     12  C   UNL     1      34.818  12.608  40.138  1.00  0.00     0.006 C 
BRANCH  12  13
ATOM     13  C   UNL     1      33.750  11.774  40.857  1.00  0.00     0.053 C 
BRANCH  13  14
ATOM     14  C   UNL     1      33.482  10.509  40.105  1.00  0.00     0.041 C 
ATOM     15  O   UNL     1      32.464  10.411  39.370  1.00  0.00    -0.550 OA
ATOM     16  O   UNL     1      34.333   9.420  40.251  1.00  0.00    -0.550 OA
ENDBRANCH  13  14
ENDBRANCH  12  13
ENDBRANCH  11  12
ENDBRANCH  10  11
ENDBRANCH   9  10
ENDBRANCH   8   9
ENDBRANCH   7   8
ENDBRANCH   6   7
ENDBRANCH   5   6
ENDBRANCH   4   5
ENDBRANCH   3   4
ENDBRANCH   2   3
ENDBRANCH   1   2
BRANCH   1  17
ATOM     17  C   UNL     1      31.635  21.483  36.648  1.00  0.00     0.000 C 
BRANCH  17  18
ATOM     18  C   UNL     1      32.093  22.805  37.288  1.00  0.00     0.000 C 
BRANCH  18  19
ATOM     19  C   UNL     1      31.615  24.038  36.504  1.00  0.00     0.000 C 
BRANCH  19  20
ATOM     20  C   UNL     1      32.435  24.275  35.223  1.00  0.00     0.000 C 
BRANCH  20  21
ATOM     21  C   UNL     1      31.666  25.124  34.189  1.00  0.00     0.000 C 
BRANCH  21  22
ATOM     22  C   UNL     1      31.684  24.537  32.766  1.00  0.00    -0.000 C 
BRANCH  22  23
ATOM     23  C   UNL     1      30.315  23.999  32.324  1.00  0.00    -0.000 C 
BRANCH  23  24
ATOM     24  C   UNL     1      29.900  24.516  30.937  1.00  0.00    -0.000 C 
BRANCH  24  25
ATOM     25  C   UNL     1      31.079  25.125  30.157  1.00  0.00    -0.000 C 
BRANCH  25  26
ATOM     26  C   UNL     1      31.762  24.106  29.232  1.00  0.00    -0.000 C 
BRANCH  26  27
ATOM     27  C   UNL     1      31.953  24.641  27.804  1.00  0.00    -0.000 C 
BRANCH  27  28
ATOM     28  C   UNL     1      33.014  23.861  27.011  1.00  0.00    -0.000 C 
BRANCH  28  29
ATOM     29  C   UNL     1      34.446  24.406  27.192  1.00  0.00    -0.003 C 
ATOM     30  C   UNL     1      35.010  24.114  28.583  1.00  0.00     0.004 C 
ENDBRANCH  28  29
ENDBRANCH  27  28
ENDBRANCH  26  27
ENDBRANCH  25  26
ENDBRANCH  24  25
ENDBRANCH  23  24
ENDBRANCH  22  23
ENDBRANCH  21  22
ENDBRANCH  20  21
ENDBRANCH  19  20
ENDBRANCH  18  19
ENDBRANCH  17  18
ENDBRANCH   1  17
TORSDOF 26
ENDMDL
MODEL 2
REMARK VINA RESULT:     9.023      4.750     13.836
REMARK INTER + INTRA:          21.563
REMARK INTER:                  21.670
REMARK INTRA:                  -0.107
REMARK UNBOUND:                -1.175
REMARK SMILES CCCCCCCCCCCCCCCCCCCCCCCCCCCC(=O)[O-]
REMARK SMILES IDX 15 1 16 2 17 3 18 4 19 5 20 6 21 7 22 8 23 9 24 10 25 11
REMARK SMILES IDX 26 12 27 13 28 14 29 15 30 16 14 17 13 18 12 19 11 20 10 21
REMARK SMILES IDX 9 22 8 23 7 24 6 25 5 26 4 27 3 28 2 29 1 30
REMARK H PARENT
REMARK Flexibility Score: inf
ROOT
ATOM      1  C   UNL     1      30.938  20.123  37.131  1.00  0.00     0.000 C 
ENDROOT
BRANCH   1   2
ATOM      2  C   UNL     1      31.576  21.112  38.126  1.00  0.00     0.000 C 
BRANCH   2   3
ATOM      3  C   UNL     1      31.390  22.598  37.778  1.00  0.00     0.000 C 
BRANCH   3   4
ATOM      4  C   UNL     1      32.303  23.063  36.630  1.00  0.00     0.000 C 
BRANCH   4   5
ATOM      5  C   UNL     1      31.603  24.126  35.771  1.00  0.00     0.000 C 
BRANCH   5   6
ATOM      6  C   UNL     1      31.887  23.960  34.268  1.00  0.00     0.000 C 
BRANCH   6   7
ATOM      7  C   UNL     1      31.407  25.125  33.380  1.00  0.00     0.000 C 
BRANCH   7   8
ATOM      8  C   UNL     1      30.230  24.796  32.446  1.00  0.00     0.000 C 
BRANCH   8   9
ATOM      9  C   UNL     1      30.653  23.966  31.222  1.00  0.00     0.000 C 
BRANCH   9  10
ATOM     10  C   UNL     1      31.064  24.836  30.020  1.00  0.00     0.000 C 
BRANCH  10  11
ATOM     11  C   UNL     1      32.253  24.302  29.193  1.00  0.00     0.000 C 
BRANCH  11  12
ATOM     12  C   UNL     1      33.627  24.875  29.577  1.00  0.00     0.006 C 
BRANCH  12  13
ATOM     13  C   UNL     1      34.630  24.848  28.417  1.00  0.00     0.053 C 
BRANCH  13  14
ATOM     14  C   UNL     1      34.379  23.663  27.538  1.00  0.00     0.041 C 
ATOM     15  O   UNL     1      35.297  22.831  27.318  1.00  0.00    -0.550 OA
ATOM     16  O   UNL     1      33.141  23.502  26.926  1.00  0.00    -0.550 OA
ENDBRANCH  13  14
ENDBRANCH  12  13
ENDBRANCH  11  12
ENDBRANCH  10  11
ENDBRANCH   9  10
ENDBRANCH   8   9
ENDBRANCH   7   8
ENDBRANCH   6   7
ENDBRANCH   5   6
ENDBRANCH   4   5
ENDBRANCH   3   4
ENDBRANCH   2   3
ENDBRANCH   1   2
BRANCH   1  17
ATOM     17  C   UNL     1      31.707  18.793  36.983  1.00  0.00     0.000 C 
BRANCH  17  18
ATOM     18  C   UNL     1      32.088  18.185  38.344  1.00  0.00     0.000 C 
BRANCH  18  19
ATOM     19  C   UNL     1      33.404  18.754  38.898  1.00  0.00     0.000 C 
BRANCH  19  20
ATOM     20  C   UNL     1      34.265  17.680  39.588  1.00  0.00     0.000 C 
BRANCH  20  21
ATOM     21  C   UNL     1      33.653  17.215  40.926  1.00  0.00     0.000 C 
BRANCH  21  22
ATOM     22  C   UNL     1      34.341  17.814  42.165  1.00  0.00    -0.000 C 
BRANCH  22  23
ATOM     23  C   UNL     1      35.407  16.884  42.764  1.00  0.00    -0.000 C 
BRANCH  23  24
ATOM     24  C   UNL     1      34.793  15.672  43.484  1.00  0.00    -0.000 C 
BRANCH  24  25
ATOM     25  C   UNL     1      35.384  14.337  42.998  1.00  0.00    -0.000 C 
BRANCH  25  26
ATOM     26  C   UNL     1      35.042  14.039  41.530  1.00  0.00    -0.000 C 
BRANCH  26  27
ATOM     27  C   UNL     1      35.211  12.554  41.175  1.00  0.00    -0.000 C 
BRANCH  27  28
ATOM     28  C   UNL     1      34.093  12.029  40.257  1.00  0.00    -0.000 C 
BRANCH  28  29
ATOM     29  C   UNL     1      33.423  10.739  40.776  1.00  0.00    -0.003 C 
ATOM     30  C   UNL     1      32.993   9.808  39.641  1.00  0.00     0.004 C 
ENDBRANCH  28  29
ENDBRANCH  27  28
ENDBRANCH  26  27
ENDBRANCH  25  26
ENDBRANCH  24  25
ENDBRANCH  23  24
ENDBRANCH  22  23
ENDBRANCH  21  22
ENDBRANCH  20  21
ENDBRANCH  19  20
ENDBRANCH  18  19
ENDBRANCH  17  18
ENDBRANCH   1  17
TORSDOF 26
ENDMDL
MODEL 3
REMARK VINA RESULT:     9.238      1.097      2.581
REMARK INTER + INTRA:          22.105
REMARK INTER:                  23.427
REMARK INTRA:                  -1.322
REMARK UNBOUND:                -1.175
REMARK SMILES CCCCCCCCCCCCCCCCCCCCCCCCCCCC(=O)[O-]
REMARK SMILES IDX 15 1 16 2 17 3 18 4 19 5 20 6 21 7 22 8 23 9 24 10 25 11
REMARK SMILES IDX 26 12 27 13 28 14 29 15 30 16 14 17 13 18 12 19 11 20 10 21
REMARK SMILES IDX 9 22 8 23 7 24 6 25 5 26 4 27 3 28 2 29 1 30
REMARK H PARENT
REMARK Flexibility Score: inf
ROOT
ATOM      1  C   UNL     1      32.151  18.340  38.897  1.00  0.00     0.000 C 
ENDROOT
BRANCH   1   2
ATOM      2  C   UNL     1      33.542  18.660  39.479  1.00  0.00     0.000 C 
BRANCH   2   3
ATOM      3  C   UNL     1      34.347  17.438  39.952  1.00  0.00     0.000 C 
BRANCH   3   4
ATOM      4  C   UNL     1      33.819  16.848  41.270  1.00  0.00     0.000 C 
BRANCH   4   5
ATOM      5  C   UNL     1      34.694  17.284  42.454  1.00  0.00     0.000 C 
BRANCH   5   6
ATOM      6  C   UNL     1      34.865  16.176  43.509  1.00  0.00     0.000 C 
BRANCH   6   7
ATOM      7  C   UNL     1      36.247  15.492  43.520  1.00  0.00     0.000 C 
BRANCH   7   8
ATOM      8  C   UNL     1      36.327  14.164  42.749  1.00  0.00     0.000 C 
BRANCH   8   9
ATOM      9  C   UNL     1      34.966  13.713  42.192  1.00  0.00     0.000 C 
BRANCH   9  10
ATOM     10  C   UNL     1      35.093  12.869  40.910  1.00  0.00     0.000 C 
BRANCH  10  11
ATOM     11  C   UNL     1      33.759  12.507  40.223  1.00  0.00     0.000 C 
BRANCH  11  12
ATOM     12  C   UNL     1      32.755  11.744  41.104  1.00  0.00     0.006 C 
BRANCH  12  13
ATOM     13  C   UNL     1      32.936  10.223  41.032  1.00  0.00     0.053 C 
BRANCH  13  14
ATOM     14  C   UNL     1      33.571   9.834  39.734  1.00  0.00     0.041 C 
ATOM     15  O   UNL     1      32.918   9.908  38.661  1.00  0.00    -0.550 OA
ATOM     16  O   UNL     1      34.872   9.345  39.717  1.00  0.00    -0.550 OA
ENDBRANCH  13  14
ENDBRANCH  12  13
ENDBRANCH  11  12
ENDBRANCH  10  11
ENDBRANCH   9  10
ENDBRANCH   8   9
ENDBRANCH   7   8
ENDBRANCH   6   7
ENDBRANCH   5   6
ENDBRANCH   4   5
ENDBRANCH   3   4
ENDBRANCH   2   3
ENDBRANCH   1   2
BRANCH   1  17
ATOM     17  C   UNL     1      31.936  18.856  37.458  1.00  0.00     0.000 C 
BRANCH  17  18
ATOM     18  C   UNL     1      30.989  20.067  37.408  1.00  0.00     0.000 C 
BRANCH  18  19
ATOM     19  C   UNL     1      31.697  21.386  37.756  1.00  0.00     0.000 C 
BRANCH  19  20
ATOM     20  C   UNL     1      31.470  22.475  36.692  1.00  0.00     0.000 C 
BRANCH  20  21
ATOM     21  C   UNL     1      32.556  23.570  36.739  1.00  0.00     0.000 C 
BRANCH  21  22
ATOM     22  C   UNL     1      32.752  24.308  35.403  1.00  0.00    -0.000 C 
BRANCH  22  23
ATOM     23  C   UNL     1      31.434  24.827  34.808  1.00  0.00    -0.000 C 
BRANCH  23  24
ATOM     24  C   UNL     1      31.544  25.124  33.304  1.00  0.00    -0.000 C 
BRANCH  24  25
ATOM     25  C   UNL     1      31.245  23.889  32.435  1.00  0.00    -0.000 C 
BRANCH  25  26
ATOM     26  C   UNL     1      30.050  24.106  31.494  1.00  0.00    -0.000 C 
BRANCH  26  27
ATOM     27  C   UNL     1      30.359  25.107  30.370  1.00  0.00    -0.000 C 
BRANCH  27  28
ATOM     28  C   UNL     1      30.385  24.453  28.978  1.00  0.00    -0.000 C 
BRANCH  28  29
ATOM     29  C   UNL     1      31.800  24.347  28.372  1.00  0.00    -0.003 C 
ATOM     30  C   UNL     1      32.270  22.898  28.237  1.00  0.00     0.004 C 
ENDBRANCH  28  29
ENDBRANCH  27  28
ENDBRANCH  26  27
ENDBRANCH  25  26
ENDBRANCH  24  25
ENDBRANCH  23  24
ENDBRANCH  22  23
ENDBRANCH  21  22
ENDBRANCH  20  21
ENDBRANCH  19  20
ENDBRANCH  18  19
ENDBRANCH  17  18
ENDBRANCH   1  17
TORSDOF 26
ENDMDL
MODEL 4
REMARK VINA RESULT:     9.322      4.467     13.794
REMARK INTER + INTRA:          22.316
REMARK INTER:                  23.188
REMARK INTRA:                  -0.872
REMARK UNBOUND:                -1.175
REMARK SMILES CCCCCCCCCCCCCCCCCCCCCCCCCCCC(=O)[O-]
REMARK SMILES IDX 15 1 16 2 17 3 18 4 19 5 20 6 21 7 22 8 23 9 24 10 25 11
REMARK SMILES IDX 26 12 27 13 28 14 29 15 30 16 14 17 13 18 12 19 11 20 10 21
REMARK SMILES IDX 9 22 8 23 7 24 6 25 5 26 4 27 3 28 2 29 1 30
REMARK H PARENT
REMARK Flexibility Score: inf
ROOT
ATOM      1  C   UNL     1      32.082  19.479  38.624  1.00  0.00     0.000 C 
ENDROOT
BRANCH   1   2
ATOM      2  C   UNL     1      31.480  20.252  37.434  1.00  0.00     0.000 C 
BRANCH   2   3
ATOM      3  C   UNL     1      31.490  21.782  37.580  1.00  0.00     0.000 C 
BRANCH   3   4
ATOM      4  C   UNL     1      32.007  22.499  36.322  1.00  0.00     0.000 C 
BRANCH   4   5
ATOM      5  C   UNL     1      31.163  23.745  36.016  1.00  0.00     0.000 C 
BRANCH   5   6
ATOM      6  C   UNL     1      32.020  24.987  35.715  1.00  0.00     0.000 C 
BRANCH   6   7
ATOM      7  C   UNL     1      32.773  24.950  34.370  1.00  0.00     0.000 C 
BRANCH   7   8
ATOM      8  C   UNL     1      31.981  24.359  33.191  1.00  0.00     0.000 C 
BRANCH   8   9
ATOM      9  C   UNL     1      30.552  24.918  33.091  1.00  0.00     0.000 C 
BRANCH   9  10
ATOM     10  C   UNL     1      30.086  25.117  31.637  1.00  0.00     0.000 C 
BRANCH  10  11
ATOM     11  C   UNL     1      30.414  23.956  30.674  1.00  0.00     0.000 C 
BRANCH  11  12
ATOM     12  C   UNL     1      30.476  24.339  29.185  1.00  0.00     0.006 C 
BRANCH  12  13
ATOM     13  C   UNL     1      31.885  24.740  28.732  1.00  0.00     0.053 C 
BRANCH  13  14
ATOM     14  C   UNL     1      32.772  23.538  28.659  1.00  0.00     0.041 C 
ATOM     15  O   UNL     1      34.024  23.673  28.648  1.00  0.00    -0.550 OA
ATOM     16  O   UNL     1      32.215  22.268  28.557  1.00  0.00    -0.550 OA
ENDBRANCH  13  14
ENDBRANCH  12  13
ENDBRANCH  11  12
ENDBRANCH  10  11
ENDBRANCH   9  10
ENDBRANCH   8   9
ENDBRANCH   7   8
ENDBRANCH   6   7
ENDBRANCH   5   6
ENDBRANCH   4   5
ENDBRANCH   3   4
ENDBRANCH   2   3
ENDBRANCH   1   2
BRANCH   1  17
ATOM     17  C   UNL     1      32.850  18.202  38.220  1.00  0.00     0.000 C 
BRANCH  17  18
ATOM     18  C   UNL     1      33.862  17.765  39.294  1.00  0.00     0.000 C 
BRANCH  18  19
ATOM     19  C   UNL     1      33.283  17.842  40.717  1.00  0.00     0.000 C 
BRANCH  19  20
ATOM     20  C   UNL     1      34.378  17.848  41.798  1.00  0.00     0.000 C 
BRANCH  20  21
ATOM     21  C   UNL     1      34.329  16.583  42.682  1.00  0.00     0.000 C 
BRANCH  21  22
ATOM     22  C   UNL     1      35.707  16.135  43.201  1.00  0.00    -0.000 C 
BRANCH  22  23
ATOM     23  C   UNL     1      36.032  14.676  42.849  1.00  0.00    -0.000 C 
BRANCH  23  24
ATOM     24  C   UNL     1      34.768  13.827  42.634  1.00  0.00    -0.000 C 
BRANCH  24  25
ATOM     25  C   UNL     1      34.967  12.729  41.574  1.00  0.00    -0.000 C 
BRANCH  25  26
ATOM     26  C   UNL     1      34.423  13.136  40.195  1.00  0.00    -0.000 C 
BRANCH  26  27
ATOM     27  C   UNL     1      33.286  12.219  39.717  1.00  0.00    -0.000 C 
BRANCH  27  28
ATOM     28  C   UNL     1      33.332  10.824  40.363  1.00  0.00    -0.000 C 
BRANCH  28  29
ATOM     29  C   UNL     1      34.545   9.978  39.924  1.00  0.00    -0.003 C 
ATOM     30  C   UNL     1      34.156   8.545  39.560  1.00  0.00     0.004 C 
ENDBRANCH  28  29
ENDBRANCH  27  28
ENDBRANCH  26  27
ENDBRANCH  25  26
ENDBRANCH  24  25
ENDBRANCH  23  24
ENDBRANCH  22  23
ENDBRANCH  21  22
ENDBRANCH  20  21
ENDBRANCH  19  20
ENDBRANCH  18  19
ENDBRANCH  17  18
ENDBRANCH   1  17
TORSDOF 26
ENDMDL
MODEL 5
REMARK VINA RESULT:    10.670      4.892     13.553
REMARK INTER + INTRA:          25.712
REMARK INTER:                  25.905
REMARK INTRA:                  -0.193
REMARK UNBOUND:                -1.175
REMARK SMILES CCCCCCCCCCCCCCCCCCCCCCCCCCCC(=O)[O-]
REMARK SMILES IDX 15 1 16 2 17 3 18 4 19 5 20 6 21 7 22 8 23 9 24 10 25 11
REMARK SMILES IDX 26 12 27 13 28 14 29 15 30 16 14 17 13 18 12 19 11 20 10 21
REMARK SMILES IDX 9 22 8 23 7 24 6 25 5 26 4 27 3 28 2 29 1 30
REMARK H PARENT
REMARK Flexibility Score: inf
ROOT
ATOM      1  C   UNL     1      31.233  19.559  37.040  1.00  0.00     0.000 C 
ENDROOT
BRANCH   1   2
ATOM      2  C   UNL     1      31.541  20.995  37.507  1.00  0.00     0.000 C 
BRANCH   2   3
ATOM      3  C   UNL     1      31.527  22.059  36.397  1.00  0.00     0.000 C 
BRANCH   3   4
ATOM      4  C   UNL     1      32.650  23.099  36.552  1.00  0.00     0.000 C 
BRANCH   4   5
ATOM      5  C   UNL     1      32.109  24.522  36.347  1.00  0.00     0.000 C 
BRANCH   5   6
ATOM      6  C   UNL     1      32.279  25.021  34.901  1.00  0.00     0.000 C 
BRANCH   6   7
ATOM      7  C   UNL     1      32.975  24.031  33.945  1.00  0.00     0.000 C 
BRANCH   7   8
ATOM      8  C   UNL     1      34.228  23.343  34.512  1.00  0.00     0.000 C 
BRANCH   8   9
ATOM      9  C   UNL     1      35.530  24.076  34.146  1.00  0.00     0.000 C 
BRANCH   9  10
ATOM     10  C   UNL     1      35.335  25.124  33.035  1.00  0.00     0.000 C 
BRANCH  10  11
ATOM     11  C   UNL     1      35.930  24.748  31.661  1.00  0.00     0.000 C 
BRANCH  11  12
ATOM     12  C   UNL     1      34.946  24.820  30.480  1.00  0.00     0.006 C 
BRANCH  12  13
ATOM     13  C   UNL     1      35.616  24.539  29.129  1.00  0.00     0.053 C 
BRANCH  13  14
ATOM     14  C   UNL     1      34.632  23.940  28.174  1.00  0.00     0.041 C 
ATOM     15  O   UNL     1      34.974  23.681  26.991  1.00  0.00    -0.550 OA
ATOM     16  O   UNL     1      33.322  23.710  28.579  1.00  0.00    -0.550 OA
ENDBRANCH  13  14
ENDBRANCH  12  13
ENDBRANCH  11  12
ENDBRANCH  10  11
ENDBRANCH   9  10
ENDBRANCH   8   9
ENDBRANCH   7   8
ENDBRANCH   6   7
ENDBRANCH   5   6
ENDBRANCH   4   5
ENDBRANCH   3   4
ENDBRANCH   2   3
ENDBRANCH   1   2
BRANCH   1  17
ATOM     17  C   UNL     1      32.169  18.488  37.640  1.00  0.00     0.000 C 
BRANCH  17  18
ATOM     18  C   UNL     1      32.452  18.729  39.133  1.00  0.00     0.000 C 
BRANCH  18  19
ATOM     19  C   UNL     1      33.563  17.818  39.678  1.00  0.00     0.000 C 
BRANCH  19  20
ATOM     20  C   UNL     1      33.523  17.694  41.212  1.00  0.00     0.000 C 
BRANCH  20  21
ATOM     21  C   UNL     1      34.935  17.714  41.834  1.00  0.00     0.000 C 
BRANCH  21  22
ATOM     22  C   UNL     1      34.945  17.493  43.358  1.00  0.00    -0.000 C 
BRANCH  22  23
ATOM     23  C   UNL     1      34.974  16.006  43.745  1.00  0.00    -0.000 C 
BRANCH  23  24
ATOM     24  C   UNL     1      35.594  15.125  42.648  1.00  0.00    -0.000 C 
BRANCH  24  25
ATOM     25  C   UNL     1      35.060  13.682  42.679  1.00  0.00    -0.000 C 
BRANCH  25  26
ATOM     26  C   UNL     1      34.435  13.255  41.341  1.00  0.00    -0.000 C 
BRANCH  26  27
ATOM     27  C   UNL     1      34.185  11.741  41.264  1.00  0.00    -0.000 C 
BRANCH  27  28
ATOM     28  C   UNL     1      32.972  11.380  40.391  1.00  0.00    -0.000 C 
BRANCH  28  29
ATOM     29  C   UNL     1      33.185  10.121  39.525  1.00  0.00    -0.003 C 
ATOM     30  C   UNL     1      34.528   9.444  39.801  1.00  0.00     0.004 C 
ENDBRANCH  28  29
ENDBRANCH  27  28
ENDBRANCH  26  27
ENDBRANCH  25  26
ENDBRANCH  24  25
ENDBRANCH  23  24
ENDBRANCH  22  23
ENDBRANCH  21  22
ENDBRANCH  20  21
ENDBRANCH  19  20
ENDBRANCH  18  19
ENDBRANCH  17  18
ENDBRANCH   1  17
TORSDOF 26
ENDMDL
