MODEL 1
REMARK VINA RESULT:    -5.973      0.000      0.000
REMARK INTER + INTRA:          -7.958
REMARK INTER:                  -7.370
REMARK INTRA:                  -0.588
REMARK UNBOUND:                -0.588
REMARK SMILES CCCCC(=O)c1ccccc1
REMARK SMILES IDX 4 1 3 2 2 3 1 4 5 5 6 6 7 7 8 8 12 9 9 10 11 11 10 12
REMARK H PARENT
REMARK Flexibility Score: inf
ROOT
ATOM      1  C   UNL     1     137.566 121.334 140.631  1.00  0.00     0.081 C 
ENDROOT
BRANCH   1   2
ATOM      2  C   UNL     1     136.165 121.603 141.201  1.00  0.00     0.008 C 
BRANCH   2   3
ATOM      3  C   UNL     1     135.223 122.222 140.157  1.00  0.00    -0.003 C 
ATOM      4  C   UNL     1     133.877 121.504 140.136  1.00  0.00     0.004 C 
ENDBRANCH   2   3
ENDBRANCH   1   2
BRANCH   1   5
ATOM      5  C   UNL     1     137.769 119.880 140.288  1.00  0.00     0.162 C 
ATOM      6  O   UNL     1     138.584 119.218 140.987  1.00  0.00    -0.294 OA
BRANCH   5   7
ATOM      7  C   UNL     1     137.032 119.199 139.185  1.00  0.00     0.017 A 
ATOM      8  C   UNL     1     135.835 118.489 139.416  1.00  0.00     0.012 A 
ATOM      9  C   UNL     1     137.534 119.258 137.869  1.00  0.00     0.012 A 
ATOM     10  C   UNL     1     135.167 117.859 138.361  1.00  0.00     0.001 A 
ATOM     11  C   UNL     1     136.861 118.626 136.819  1.00  0.00     0.001 A 
ATOM     12  C   UNL     1     135.679 117.926 137.065  1.00  0.00     0.000 A 
ENDBRANCH   5   7
ENDBRANCH   1   5
TORSDOF 4
ENDMDL
MODEL 2
REMARK VINA RESULT:    -5.917      0.152      1.403
REMARK INTER + INTRA:          -7.889
REMARK INTER:                  -7.313
REMARK INTRA:                  -0.575
REMARK UNBOUND:                -0.588
REMARK SMILES CCCCC(=O)c1ccccc1
REMARK SMILES IDX 4 1 3 2 2 3 1 4 5 5 6 6 7 7 8 8 12 9 9 10 11 11 10 12
REMARK H PARENT
REMARK Flexibility Score: inf
ROOT
ATOM      1  C   UNL     1     137.625 121.421 140.433  1.00  0.00     0.081 C 
ENDROOT
BRANCH   1   2
ATOM      2  C   UNL     1     136.267 121.736 141.077  1.00  0.00     0.008 C 
BRANCH   2   3
ATOM      3  C   UNL     1     135.209 122.131 140.037  1.00  0.00    -0.003 C 
ATOM      4  C   UNL     1     133.951 121.279 140.179  1.00  0.00     0.004 C 
ENDBRANCH   2   3
ENDBRANCH   1   2
BRANCH   1   5
ATOM      5  C   UNL     1     137.800 119.946 140.168  1.00  0.00     0.162 C 
ATOM      6  O   UNL     1     138.586 119.304 140.916  1.00  0.00    -0.294 OA
BRANCH   5   7
ATOM      7  C   UNL     1     137.066 119.226 139.089  1.00  0.00     0.017 A 
ATOM      8  C   UNL     1     137.482 119.281 137.741  1.00  0.00     0.012 A 
ATOM      9  C   UNL     1     135.923 118.466 139.408  1.00  0.00     0.012 A 
ATOM     10  C   UNL     1     136.772 118.596 136.750  1.00  0.00     0.001 A 
ATOM     11  C   UNL     1     135.219 117.783 138.411  1.00  0.00     0.001 A 
ATOM     12  C   UNL     1     135.642 117.849 137.084  1.00  0.00     0.000 A 
ENDBRANCH   5   7
ENDBRANCH   1   5
TORSDOF 4
ENDMDL
MODEL 3
REMARK VINA RESULT:    -5.913      1.076      4.026
REMARK INTER + INTRA:          -7.884
REMARK INTER:                  -7.301
REMARK INTRA:                  -0.583
REMARK UNBOUND:                -0.588
REMARK SMILES CCCCC(=O)c1ccccc1
REMARK SMILES IDX 4 1 3 2 2 3 1 4 5 5 6 6 7 7 8 8 12 9 9 10 11 11 10 12
REMARK H PARENT
REMARK Flexibility Score: inf
ROOT
ATOM      1  C   UNL     1     137.219 119.242 139.706  1.00  0.00     0.081 C 
ENDROOT
BRANCH   1   2
ATOM      2  C   UNL     1     137.679 119.242 138.241  1.00  0.00     0.008 C 
BRANCH   2   3
ATOM      3  C   UNL     1     136.530 118.929 137.271  1.00  0.00    -0.003 C 
ATOM      4  C   UNL     1     135.462 118.071 137.943  1.00  0.00     0.004 C 
ENDBRANCH   2   3
ENDBRANCH   1   2
BRANCH   1   5
ATOM      5  C   UNL     1     137.003 120.639 140.234  1.00  0.00     0.162 C 
ATOM      6  O   UNL     1     137.984 121.222 140.772  1.00  0.00    -0.294 OA
BRANCH   5   7
ATOM      7  C   UNL     1     135.701 121.354 140.119  1.00  0.00     0.017 A 
ATOM      8  C   UNL     1     134.475 120.720 140.415  1.00  0.00     0.012 A 
ATOM      9  C   UNL     1     135.677 122.701 139.704  1.00  0.00     0.012 A 
ATOM     10  C   UNL     1     133.268 121.417 140.297  1.00  0.00     0.001 A 
ATOM     11  C   UNL     1     134.467 123.391 139.589  1.00  0.00     0.001 A 
ATOM     12  C   UNL     1     133.264 122.750 139.884  1.00  0.00     0.000 A 
ENDBRANCH   5   7
ENDBRANCH   1   5
TORSDOF 4
ENDMDL
MODEL 4
REMARK VINA RESULT:    -5.908      1.142      4.245
REMARK INTER + INTRA:          -7.878
REMARK INTER:                  -7.528
REMARK INTRA:                  -0.350
REMARK UNBOUND:                -0.588
REMARK SMILES CCCCC(=O)c1ccccc1
REMARK SMILES IDX 4 1 3 2 2 3 1 4 5 5 6 6 7 7 8 8 12 9 9 10 11 11 10 12
REMARK H PARENT
REMARK Flexibility Score: inf
ROOT
ATOM      1  C   UNL     1     137.550 119.429 138.552  1.00  0.00     0.081 C 
ENDROOT
BRANCH   1   2
ATOM      2  C   UNL     1     136.430 119.376 137.502  1.00  0.00     0.008 C 
BRANCH   2   3
ATOM      3  C   UNL     1     135.664 118.046 137.537  1.00  0.00    -0.003 C 
ATOM      4  C   UNL     1     135.616 117.402 136.155  1.00  0.00     0.004 C 
ENDBRANCH   2   3
ENDBRANCH   1   2
BRANCH   1   5
ATOM      5  C   UNL     1     137.178 120.287 139.736  1.00  0.00     0.162 C 
ATOM      6  O   UNL     1     138.024 120.407 140.663  1.00  0.00    -0.294 OA
BRANCH   5   7
ATOM      7  C   UNL     1     135.878 121.008 139.835  1.00  0.00     0.017 A 
ATOM      8  C   UNL     1     135.746 122.362 139.456  1.00  0.00     0.012 A 
ATOM      9  C   UNL     1     134.739 120.333 140.320  1.00  0.00     0.012 A 
ATOM     10  C   UNL     1     134.512 123.012 139.563  1.00  0.00     0.001 A 
ATOM     11  C   UNL     1     133.510 120.990 140.423  1.00  0.00     0.001 A 
ATOM     12  C   UNL     1     133.396 122.328 140.045  1.00  0.00     0.000 A 
ENDBRANCH   5   7
ENDBRANCH   1   5
TORSDOF 4
ENDMDL
MODEL 5
REMARK VINA RESULT:    -5.886      1.196      1.525
REMARK INTER + INTRA:          -7.851
REMARK INTER:                  -7.428
REMARK INTRA:                  -0.423
REMARK UNBOUND:                -0.588
REMARK SMILES CCCCC(=O)c1ccccc1
REMARK SMILES IDX 4 1 3 2 2 3 1 4 5 5 6 6 7 7 8 8 12 9 9 10 11 11 10 12
REMARK H PARENT
REMARK Flexibility Score: inf
ROOT
ATOM      1  C   UNL     1     136.604 121.071 140.126  1.00  0.00     0.081 C 
ENDROOT
BRANCH   1   2
ATOM      2  C   UNL     1     135.439 120.733 141.067  1.00  0.00     0.008 C 
BRANCH   2   3
ATOM      3  C   UNL     1     134.109 120.582 140.313  1.00  0.00    -0.003 C 
ATOM      4  C   UNL     1     133.451 121.938 140.080  1.00  0.00     0.004 C 
ENDBRANCH   2   3
ENDBRANCH   1   2
BRANCH   1   5
ATOM      5  C   UNL     1     137.477 119.872 139.850  1.00  0.00     0.162 C 
ATOM      6  O   UNL     1     138.346 119.566 140.711  1.00  0.00    -0.294 OA
BRANCH   5   7
ATOM      7  C   UNL     1     137.334 119.032 138.627  1.00  0.00     0.017 A 
ATOM      8  C   UNL     1     138.074 117.843 138.449  1.00  0.00     0.012 A 
ATOM      9  C   UNL     1     136.439 119.424 137.611  1.00  0.00     0.012 A 
ATOM     10  C   UNL     1     137.919 117.077 137.289  1.00  0.00     0.001 A 
ATOM     11  C   UNL     1     136.290 118.652 136.455  1.00  0.00     0.001 A 
ATOM     12  C   UNL     1     137.029 117.481 136.293  1.00  0.00     0.000 A 
ENDBRANCH   5   7
ENDBRANCH   1   5
TORSDOF 4
ENDMDL
MODEL 6
REMARK VINA RESULT:    -5.871      1.207      1.553
REMARK INTER + INTRA:          -7.832
REMARK INTER:                  -7.448
REMARK INTRA:                  -0.384
REMARK UNBOUND:                -0.588
REMARK SMILES CCCCC(=O)c1ccccc1
REMARK SMILES IDX 4 1 3 2 2 3 1 4 5 5 6 6 7 7 8 8 12 9 9 10 11 11 10 12
REMARK H PARENT
REMARK Flexibility Score: inf
ROOT
ATOM      1  C   UNL     1     136.466 121.054 139.970  1.00  0.00     0.081 C 
ENDROOT
BRANCH   1   2
ATOM      2  C   UNL     1     135.389 120.738 141.019  1.00  0.00     0.008 C 
BRANCH   2   3
ATOM      3  C   UNL     1     133.991 120.612 140.396  1.00  0.00    -0.003 C 
ATOM      4  C   UNL     1     133.408 121.983 140.068  1.00  0.00     0.004 C 
ENDBRANCH   2   3
ENDBRANCH   1   2
BRANCH   1   5
ATOM      5  C   UNL     1     137.381 119.880 139.725  1.00  0.00     0.162 C 
ATOM      6  O   UNL     1     138.264 119.632 140.591  1.00  0.00    -0.294 OA
BRANCH   5   7
ATOM      7  C   UNL     1     137.264 119.000 138.527  1.00  0.00     0.017 A 
ATOM      8  C   UNL     1     136.359 119.283 137.481  1.00  0.00     0.012 A 
ATOM      9  C   UNL     1     138.072 117.850 138.424  1.00  0.00     0.012 A 
ATOM     10  C   UNL     1     136.271 118.436 136.371  1.00  0.00     0.001 A 
ATOM     11  C   UNL     1     137.978 117.010 137.311  1.00  0.00     0.001 A 
ATOM     12  C   UNL     1     137.078 117.302 136.286  1.00  0.00     0.000 A 
ENDBRANCH   5   7
ENDBRANCH   1   5
TORSDOF 4
ENDMDL
MODEL 7
REMARK VINA RESULT:    -5.570      2.094      3.334
REMARK INTER + INTRA:          -7.461
REMARK INTER:                  -6.906
REMARK INTRA:                  -0.555
REMARK UNBOUND:                -0.588
REMARK SMILES CCCCC(=O)c1ccccc1
REMARK SMILES IDX 4 1 3 2 2 3 1 4 5 5 6 6 7 7 8 8 12 9 9 10 11 11 10 12
REMARK H PARENT
REMARK Flexibility Score: inf
ROOT
ATOM      1  C   UNL     1     134.348 122.666 140.043  1.00  0.00     0.081 C 
ENDROOT
BRANCH   1   2
ATOM      2  C   UNL     1     135.375 123.335 139.118  1.00  0.00     0.008 C 
BRANCH   2   3
ATOM      3  C   UNL     1     136.120 124.484 139.812  1.00  0.00    -0.003 C 
ATOM      4  C   UNL     1     136.500 124.110 141.241  1.00  0.00     0.004 C 
ENDBRANCH   2   3
ENDBRANCH   1   2
BRANCH   1   5
ATOM      5  C   UNL     1     134.513 121.167 140.084  1.00  0.00     0.162 C 
ATOM      6  O   UNL     1     133.503 120.472 140.378  1.00  0.00    -0.294 OA
BRANCH   5   7
ATOM      7  C   UNL     1     135.801 120.487 139.768  1.00  0.00     0.017 A 
ATOM      8  C   UNL     1     136.045 119.903 138.506  1.00  0.00     0.012 A 
ATOM      9  C   UNL     1     136.813 120.416 140.748  1.00  0.00     0.012 A 
ATOM     10  C   UNL     1     137.264 119.270 138.240  1.00  0.00     0.001 A 
ATOM     11  C   UNL     1     138.028 119.782 140.474  1.00  0.00     0.001 A 
ATOM     12  C   UNL     1     138.253 119.209 139.222  1.00  0.00     0.000 A 
ENDBRANCH   5   7
ENDBRANCH   1   5
TORSDOF 4
ENDMDL
MODEL 8
REMARK VINA RESULT:    -5.402      1.894      2.934
REMARK INTER + INTRA:          -7.253
REMARK INTER:                  -7.007
REMARK INTRA:                  -0.247
REMARK UNBOUND:                -0.588
REMARK SMILES CCCCC(=O)c1ccccc1
REMARK SMILES IDX 4 1 3 2 2 3 1 4 5 5 6 6 7 7 8 8 12 9 9 10 11 11 10 12
REMARK H PARENT
REMARK Flexibility Score: inf
ROOT
ATOM      1  C   UNL     1     134.779 122.779 139.610  1.00  0.00     0.081 C 
ENDROOT
BRANCH   1   2
ATOM      2  C   UNL     1     133.377 122.309 140.026  1.00  0.00     0.008 C 
BRANCH   2   3
ATOM      3  C   UNL     1     132.285 123.310 139.620  1.00  0.00    -0.003 C 
ATOM      4  C   UNL     1     131.688 124.000 140.842  1.00  0.00     0.004 C 
ENDBRANCH   2   3
ENDBRANCH   1   2
BRANCH   1   5
ATOM      5  C   UNL     1     135.867 121.997 140.303  1.00  0.00     0.162 C 
ATOM      6  O   UNL     1     136.169 122.328 141.482  1.00  0.00    -0.294 OA
BRANCH   5   7
ATOM      7  C   UNL     1     136.569 120.848 139.663  1.00  0.00     0.017 A 
ATOM      8  C   UNL     1     136.096 120.254 138.474  1.00  0.00     0.012 A 
ATOM      9  C   UNL     1     137.740 120.329 140.252  1.00  0.00     0.012 A 
ATOM     10  C   UNL     1     136.776 119.176 137.898  1.00  0.00     0.001 A 
ATOM     11  C   UNL     1     138.415 119.252 139.671  1.00  0.00     0.001 A 
ATOM     12  C   UNL     1     137.933 118.675 138.496  1.00  0.00     0.000 A 
ENDBRANCH   5   7
ENDBRANCH   1   5
TORSDOF 4
ENDMDL
MODEL 9
REMARK VINA RESULT:    -5.400      2.113      5.005
REMARK INTER + INTRA:          -7.250
REMARK INTER:                  -6.667
REMARK INTRA:                  -0.583
REMARK UNBOUND:                -0.588
REMARK SMILES CCCCC(=O)c1ccccc1
REMARK SMILES IDX 4 1 3 2 2 3 1 4 5 5 6 6 7 7 8 8 12 9 9 10 11 11 10 12
REMARK H PARENT
REMARK Flexibility Score: inf
ROOT
ATOM      1  C   UNL     1     135.437 119.542 139.511  1.00  0.00     0.081 C 
ENDROOT
BRANCH   1   2
ATOM      2  C   UNL     1     136.368 119.899 138.343  1.00  0.00     0.008 C 
BRANCH   2   3
ATOM      3  C   UNL     1     137.758 119.263 138.493  1.00  0.00    -0.003 C 
ATOM      4  C   UNL     1     138.299 119.449 139.907  1.00  0.00     0.004 C 
ENDBRANCH   2   3
ENDBRANCH   1   2
BRANCH   1   5
ATOM      5  C   UNL     1     134.675 120.741 140.017  1.00  0.00     0.162 C 
ATOM      6  O   UNL     1     133.494 120.560 140.422  1.00  0.00    -0.294 OA
BRANCH   5   7
ATOM      7  C   UNL     1     135.267 122.108 140.078  1.00  0.00     0.017 A 
ATOM      8  C   UNL     1     134.868 123.133 139.194  1.00  0.00     0.012 A 
ATOM      9  C   UNL     1     136.254 122.399 141.042  1.00  0.00     0.012 A 
ATOM     10  C   UNL     1     135.444 124.405 139.275  1.00  0.00     0.001 A 
ATOM     11  C   UNL     1     136.824 123.673 141.117  1.00  0.00     0.001 A 
ATOM     12  C   UNL     1     136.421 124.675 140.235  1.00  0.00     0.000 A 
ENDBRANCH   5   7
ENDBRANCH   1   5
TORSDOF 4
ENDMDL
