MODEL 1
REMARK VINA RESULT:    -5.753      0.000      0.000
REMARK INTER + INTRA:          -6.090
REMARK INTER:                  -6.090
REMARK INTRA:                   0.000
REMARK UNBOUND:                 0.000
REMARK SMILES Cc1cc(O)c(C)c(C)c1O
REMARK SMILES IDX 1 1 2 2 3 3 4 4 6 5 8 6 10 7 9 8 7 9 11 10 5 12
REMARK H PARENT 11 11 5 13
REMARK Flexibility Score: inf
ROOT
ATOM      1  C   UNL     1      31.913 -11.194  42.948  1.00  0.00     0.048 C 
ATOM      2  C   UNL     1      31.710 -12.455  42.151  1.00  0.00    -0.005 A 
ATOM      3  C   UNL     1      30.896 -12.422  41.013  1.00  0.00     0.053 A 
ATOM      4  C   UNL     1      30.670 -13.575  40.257  1.00  0.00     0.119 A 
ATOM      5  C   UNL     1      31.261 -14.796  40.635  1.00  0.00    -0.003 A 
ATOM      6  C   UNL     1      32.129 -14.833  41.756  1.00  0.00    -0.002 A 
ATOM      7  C   UNL     1      32.327 -13.667  42.529  1.00  0.00     0.121 A 
ATOM      8  C   UNL     1      32.802 -16.125  42.165  1.00  0.00     0.049 C 
ATOM      9  C   UNL     1      31.003 -16.036  39.811  1.00  0.00     0.049 C 
ENDROOT
BRANCH   7  10
ATOM     10  O   UNL     1      33.138 -13.735  43.667  1.00  0.00    -0.507 OA
ATOM     11  H   UNL     1      33.011 -13.145  44.479  1.00  0.00     0.293 HD
ENDBRANCH   7  10
BRANCH   4  12
ATOM     12  O   UNL     1      29.856 -13.505  39.125  1.00  0.00    -0.508 OA
ATOM     13  H   UNL     1      29.168 -12.770  39.008  1.00  0.00     0.293 HD
ENDBRANCH   4  12
TORSDOF 2
ENDMDL
MODEL 2
REMARK VINA RESULT:    -5.681      1.426      3.067
REMARK INTER + INTRA:          -6.013
REMARK INTER:                  -6.013
REMARK INTRA:                   0.000
REMARK UNBOUND:                 0.000
REMARK SMILES Cc1cc(O)c(C)c(C)c1O
REMARK SMILES IDX 1 1 2 2 3 3 4 4 6 5 8 6 10 7 9 8 7 9 11 10 5 12
REMARK H PARENT 11 11 5 13
REMARK Flexibility Score: inf
ROOT
ATOM      1  C   UNL     1      32.035 -10.906  43.666  1.00  0.00     0.048 C 
ATOM      2  C   UNL     1      31.957 -12.242  42.976  1.00  0.00    -0.005 A 
ATOM      3  C   UNL     1      32.613 -13.343  43.539  1.00  0.00     0.053 A 
ATOM      4  C   UNL     1      32.578 -14.595  42.920  1.00  0.00     0.119 A 
ATOM      5  C   UNL     1      31.878 -14.766  41.710  1.00  0.00    -0.003 A 
ATOM      6  C   UNL     1      31.165 -13.672  41.154  1.00  0.00    -0.002 A 
ATOM      7  C   UNL     1      31.232 -12.404  41.776  1.00  0.00     0.121 A 
ATOM      8  C   UNL     1      30.380 -13.837  39.873  1.00  0.00     0.049 C 
ATOM      9  C   UNL     1      31.853 -16.124  41.048  1.00  0.00     0.049 C 
ENDROOT
BRANCH   7  10
ATOM     10  O   UNL     1      30.574 -11.321  41.182  1.00  0.00    -0.507 OA
ATOM     11  H   UNL     1      29.570 -11.272  41.071  1.00  0.00     0.293 HD
ENDBRANCH   7  10
BRANCH   4  12
ATOM     12  O   UNL     1      33.241 -15.671  43.511  1.00  0.00    -0.508 OA
ATOM     13  H   UNL     1      33.444 -15.693  44.503  1.00  0.00     0.293 HD
ENDBRANCH   4  12
TORSDOF 2
ENDMDL
MODEL 3
REMARK VINA RESULT:    -5.487      1.640      3.312
REMARK INTER + INTRA:          -5.808
REMARK INTER:                  -5.808
REMARK INTRA:                   0.000
REMARK UNBOUND:                 0.000
REMARK SMILES Cc1cc(O)c(C)c(C)c1O
REMARK SMILES IDX 1 1 2 2 3 3 4 4 6 5 8 6 10 7 9 8 7 9 11 10 5 12
REMARK H PARENT 11 11 5 13
REMARK Flexibility Score: inf
ROOT
ATOM      1  C   UNL     1      30.615 -15.386  39.557  1.00  0.00     0.048 C 
ATOM      2  C   UNL     1      31.084 -14.438  40.629  1.00  0.00    -0.005 A 
ATOM      3  C   UNL     1      30.564 -13.139  40.669  1.00  0.00     0.053 A 
ATOM      4  C   UNL     1      30.986 -12.225  41.637  1.00  0.00     0.119 A 
ATOM      5  C   UNL     1      31.950 -12.602  42.592  1.00  0.00    -0.003 A 
ATOM      6  C   UNL     1      32.448 -13.931  42.596  1.00  0.00    -0.002 A 
ATOM      7  C   UNL     1      32.034 -14.837  41.593  1.00  0.00     0.121 A 
ATOM      8  C   UNL     1      33.461 -14.369  43.630  1.00  0.00     0.049 C 
ATOM      9  C   UNL     1      32.402 -11.601  43.631  1.00  0.00     0.049 C 
ENDROOT
BRANCH   7  10
ATOM     10  O   UNL     1      32.580 -16.125  41.574  1.00  0.00    -0.507 OA
ATOM     11  H   UNL     1      33.548 -16.317  41.353  1.00  0.00     0.293 HD
ENDBRANCH   7  10
BRANCH   4  12
ATOM     12  O   UNL     1      30.444 -10.940  41.650  1.00  0.00    -0.508 OA
ATOM     13  H   UNL     1      29.503 -10.754  41.321  1.00  0.00     0.293 HD
ENDBRANCH   4  12
TORSDOF 2
ENDMDL
MODEL 4
REMARK VINA RESULT:    -4.974      2.368      3.495
REMARK INTER + INTRA:          -5.265
REMARK INTER:                  -5.265
REMARK INTRA:                   0.000
REMARK UNBOUND:                 0.000
REMARK SMILES Cc1cc(O)c(C)c(C)c1O
REMARK SMILES IDX 1 1 2 2 3 3 4 4 6 5 8 6 10 7 9 8 7 9 11 10 5 12
REMARK H PARENT 11 11 5 13
REMARK Flexibility Score: inf
ROOT
ATOM      1  C   UNL     1      28.356 -10.449  43.571  1.00  0.00     0.048 C 
ATOM      2  C   UNL     1      29.566 -11.250  43.171  1.00  0.00    -0.005 A 
ATOM      3  C   UNL     1      29.391 -12.532  42.635  1.00  0.00     0.053 A 
ATOM      4  C   UNL     1      30.490 -13.313  42.267  1.00  0.00     0.119 A 
ATOM      5  C   UNL     1      31.798 -12.817  42.434  1.00  0.00    -0.003 A 
ATOM      6  C   UNL     1      31.988 -11.500  42.927  1.00  0.00    -0.002 A 
ATOM      7  C   UNL     1      30.870 -10.732  43.322  1.00  0.00     0.121 A 
ATOM      8  C   UNL     1      33.381 -10.933  43.086  1.00  0.00     0.049 C 
ATOM      9  C   UNL     1      32.977 -13.675  42.037  1.00  0.00     0.049 C 
ENDROOT
BRANCH   7  10
ATOM     10  O   UNL     1      31.078  -9.458  43.863  1.00  0.00    -0.507 OA
ATOM     11  H   UNL     1      30.663  -8.617  43.485  1.00  0.00     0.293 HD
ENDBRANCH   7  10
BRANCH   4  12
ATOM     12  O   UNL     1      30.279 -14.585  41.733  1.00  0.00    -0.508 OA
ATOM     13  H   UNL     1      30.706 -15.411  42.137  1.00  0.00     0.293 HD
ENDBRANCH   4  12
TORSDOF 2
ENDMDL
MODEL 5
REMARK VINA RESULT:    -4.922      2.697      5.081
REMARK INTER + INTRA:          -5.210
REMARK INTER:                  -5.210
REMARK INTRA:                   0.000
REMARK UNBOUND:                 0.000
REMARK SMILES Cc1cc(O)c(C)c(C)c1O
REMARK SMILES IDX 1 1 2 2 3 3 4 4 6 5 8 6 10 7 9 8 7 9 11 10 5 12
REMARK H PARENT 11 11 5 13
REMARK Flexibility Score: inf
ROOT
ATOM      1  C   UNL     1      32.882 -13.245  42.168  1.00  0.00     0.048 C 
ATOM      2  C   UNL     1      31.930 -12.439  43.012  1.00  0.00    -0.005 A 
ATOM      3  C   UNL     1      32.435 -11.420  43.829  1.00  0.00     0.053 A 
ATOM      4  C   UNL     1      31.587 -10.661  44.640  1.00  0.00     0.119 A 
ATOM      5  C   UNL     1      30.201 -10.916  44.647  1.00  0.00    -0.003 A 
ATOM      6  C   UNL     1      29.669 -11.911  43.786  1.00  0.00    -0.002 A 
ATOM      7  C   UNL     1      30.542 -12.690  42.992  1.00  0.00     0.121 A 
ATOM      8  C   UNL     1      28.182 -12.182  43.752  1.00  0.00     0.049 C 
ATOM      9  C   UNL     1      29.296 -10.092  45.533  1.00  0.00     0.049 C 
ENDROOT
BRANCH   7  10
ATOM     10  O   UNL     1      30.007 -13.707  42.194  1.00  0.00    -0.507 OA
ATOM     11  H   UNL     1      29.029 -13.763  41.943  1.00  0.00     0.293 HD
ENDBRANCH   7  10
BRANCH   4  12
ATOM     12  O   UNL     1      32.123  -9.651  45.439  1.00  0.00    -0.508 OA
ATOM     13  H   UNL     1      32.523  -8.810  45.038  1.00  0.00     0.293 HD
ENDBRANCH   4  12
TORSDOF 2
ENDMDL
MODEL 6
REMARK VINA RESULT:    -4.849      8.524     10.254
REMARK INTER + INTRA:          -5.132
REMARK INTER:                  -5.132
REMARK INTRA:                   0.000
REMARK UNBOUND:                 0.000
REMARK SMILES Cc1cc(O)c(C)c(C)c1O
REMARK SMILES IDX 1 1 2 2 3 3 4 4 6 5 8 6 10 7 9 8 7 9 11 10 5 12
REMARK H PARENT 11 11 5 13
REMARK Flexibility Score: inf
ROOT
ATOM      1  C   UNL     1      24.429  -7.508  39.110  1.00  0.00     0.048 C 
ATOM      2  C   UNL     1      25.067  -6.789  40.269  1.00  0.00    -0.005 A 
ATOM      3  C   UNL     1      24.254  -6.110  41.184  1.00  0.00     0.053 A 
ATOM      4  C   UNL     1      24.808  -5.417  42.263  1.00  0.00     0.119 A 
ATOM      5  C   UNL     1      26.205  -5.390  42.444  1.00  0.00    -0.003 A 
ATOM      6  C   UNL     1      27.038  -6.117  41.554  1.00  0.00    -0.002 A 
ATOM      7  C   UNL     1      26.467  -6.790  40.451  1.00  0.00     0.121 A 
ATOM      8  C   UNL     1      28.538  -6.130  41.744  1.00  0.00     0.049 C 
ATOM      9  C   UNL     1      26.792  -4.632  43.612  1.00  0.00     0.049 C 
ENDROOT
BRANCH   7  10
ATOM     10  O   UNL     1      27.307  -7.451  39.548  1.00  0.00    -0.507 OA
ATOM     11  H   UNL     1      28.306  -7.297  39.501  1.00  0.00     0.293 HD
ENDBRANCH   7  10
BRANCH   4  12
ATOM     12  O   UNL     1      23.968  -4.754  43.158  1.00  0.00    -0.508 OA
ATOM     13  H   UNL     1      22.962  -4.884  43.142  1.00  0.00     0.293 HD
ENDBRANCH   4  12
TORSDOF 2
ENDMDL
MODEL 7
REMARK VINA RESULT:    -4.733      3.531      5.358
REMARK INTER + INTRA:          -5.010
REMARK INTER:                  -5.010
REMARK INTRA:                   0.000
REMARK UNBOUND:                 0.000
REMARK SMILES Cc1cc(O)c(C)c(C)c1O
REMARK SMILES IDX 1 1 2 2 3 3 4 4 6 5 8 6 10 7 9 8 7 9 11 10 5 12
REMARK H PARENT 11 11 5 13
REMARK Flexibility Score: inf
ROOT
ATOM      1  C   UNL     1      27.988 -11.915  46.862  1.00  0.00     0.048 C 
ATOM      2  C   UNL     1      29.072 -11.674  45.845  1.00  0.00    -0.005 A 
ATOM      3  C   UNL     1      30.083 -10.748  46.128  1.00  0.00     0.053 A 
ATOM      4  C   UNL     1      31.097 -10.484  45.203  1.00  0.00     0.119 A 
ATOM      5  C   UNL     1      31.113 -11.151  43.963  1.00  0.00    -0.003 A 
ATOM      6  C   UNL     1      30.124 -12.129  43.683  1.00  0.00    -0.002 A 
ATOM      7  C   UNL     1      29.089 -12.366  44.615  1.00  0.00     0.121 A 
ATOM      8  C   UNL     1      30.138 -12.882  42.371  1.00  0.00     0.049 C 
ATOM      9  C   UNL     1      32.212 -10.852  42.969  1.00  0.00     0.049 C 
ENDROOT
BRANCH   7  10
ATOM     10  O   UNL     1      28.087 -13.291  44.298  1.00  0.00    -0.507 OA
ATOM     11  H   UNL     1      27.516 -13.754  44.992  1.00  0.00     0.293 HD
ENDBRANCH   7  10
BRANCH   4  12
ATOM     12  O   UNL     1      32.091  -9.558  45.520  1.00  0.00    -0.508 OA
ATOM     13  H   UNL     1      32.933  -9.467  44.963  1.00  0.00     0.293 HD
ENDBRANCH   4  12
TORSDOF 2
ENDMDL
MODEL 8
REMARK VINA RESULT:    -4.655      3.498      4.738
REMARK INTER + INTRA:          -4.927
REMARK INTER:                  -4.927
REMARK INTRA:                   0.000
REMARK UNBOUND:                 0.000
REMARK SMILES Cc1cc(O)c(C)c(C)c1O
REMARK SMILES IDX 1 1 2 2 3 3 4 4 6 5 8 6 10 7 9 8 7 9 11 10 5 12
REMARK H PARENT 11 11 5 13
REMARK Flexibility Score: inf
ROOT
ATOM      1  C   UNL     1      29.573  -9.908  47.291  1.00  0.00     0.048 C 
ATOM      2  C   UNL     1      29.777 -10.677  46.012  1.00  0.00    -0.005 A 
ATOM      3  C   UNL     1      28.815 -11.614  45.617  1.00  0.00     0.053 A 
ATOM      4  C   UNL     1      28.977 -12.359  44.446  1.00  0.00     0.119 A 
ATOM      5  C   UNL     1      30.120 -12.177  43.644  1.00  0.00    -0.003 A 
ATOM      6  C   UNL     1      31.078 -11.194  44.005  1.00  0.00    -0.002 A 
ATOM      7  C   UNL     1      30.916 -10.467  45.206  1.00  0.00     0.121 A 
ATOM      8  C   UNL     1      32.298 -10.957  43.144  1.00  0.00     0.049 C 
ATOM      9  C   UNL     1      30.285 -12.995  42.383  1.00  0.00     0.049 C 
ENDROOT
BRANCH   7  10
ATOM     10  O   UNL     1      31.900  -9.545  45.579  1.00  0.00    -0.507 OA
ATOM     11  H   UNL     1      32.575  -9.158  44.933  1.00  0.00     0.293 HD
ENDBRANCH   7  10
BRANCH   4  12
ATOM     12  O   UNL     1      27.997 -13.282  44.080  1.00  0.00    -0.508 OA
ATOM     13  H   UNL     1      27.638 -13.332  43.133  1.00  0.00     0.293 HD
ENDBRANCH   4  12
TORSDOF 2
ENDMDL
