MODEL 1
REMARK VINA RESULT:    -3.811      0.000      0.000
REMARK INTER + INTRA:          -5.165
REMARK INTER:                  -4.924
REMARK INTRA:                  -0.241
REMARK UNBOUND:                -0.241
REMARK SMILES CCCCCCC(=O)[O-]
REMARK SMILES IDX 5 1 6 2 7 3 8 4 9 5 4 6 3 7 2 8 1 9
REMARK H PARENT
REMARK Flexibility Score: inf
ROOT
ATOM      1  C   UNL     1       6.338  11.109  31.568  1.00  0.00     0.006 C 
ENDROOT
BRANCH   1   2
ATOM      2  C   UNL     1       7.509  10.428  32.283  1.00  0.00     0.053 C 
BRANCH   2   3
ATOM      3  C   UNL     1       8.398   9.742  31.295  1.00  0.00     0.041 C 
ATOM      4  O   UNL     1       9.373   9.051  31.693  1.00  0.00    -0.550 OA
ATOM      5  O   UNL     1       8.180   9.905  29.933  1.00  0.00    -0.550 OA
ENDBRANCH   2   3
ENDBRANCH   1   2
BRANCH   1   6
ATOM      6  C   UNL     1       5.037  10.948  32.365  1.00  0.00     0.000 C 
BRANCH   6   7
ATOM      7  C   UNL     1       3.934  10.332  31.498  1.00  0.00    -0.000 C 
BRANCH   7   8
ATOM      8  C   UNL     1       4.480   9.181  30.645  1.00  0.00    -0.003 C 
ATOM      9  C   UNL     1       3.876   9.195  29.245  1.00  0.00     0.004 C 
ENDBRANCH   7   8
ENDBRANCH   6   7
ENDBRANCH   1   6
TORSDOF 5
ENDMDL
MODEL 2
REMARK VINA RESULT:    -3.684      1.758      2.492
REMARK INTER + INTRA:          -5.002
REMARK INTER:                  -4.832
REMARK INTRA:                  -0.170
REMARK UNBOUND:                -0.241
REMARK SMILES CCCCCCC(=O)[O-]
REMARK SMILES IDX 5 1 6 2 7 3 8 4 9 5 4 6 3 7 2 8 1 9
REMARK H PARENT
REMARK Flexibility Score: inf
ROOT
ATOM      1  C   UNL     1       7.929  10.114  30.909  1.00  0.00     0.006 C 
ENDROOT
BRANCH   1   2
ATOM      2  C   UNL     1       9.126   9.178  31.106  1.00  0.00     0.053 C 
BRANCH   2   3
ATOM      3  C   UNL     1       9.426   8.438  29.842  1.00  0.00     0.041 C 
ATOM      4  O   UNL     1       8.589   7.621  29.372  1.00  0.00    -0.550 OA
ATOM      5  O   UNL     1      10.648   8.612  29.206  1.00  0.00    -0.550 OA
ENDBRANCH   2   3
ENDBRANCH   1   2
BRANCH   1   6
ATOM      6  C   UNL     1       7.722  11.009  32.136  1.00  0.00     0.000 C 
BRANCH   6   7
ATOM      7  C   UNL     1       6.235  11.125  32.489  1.00  0.00    -0.000 C 
BRANCH   7   8
ATOM      8  C   UNL     1       5.377  10.278  31.542  1.00  0.00    -0.003 C 
ATOM      9  C   UNL     1       3.890  10.518  31.781  1.00  0.00     0.004 C 
ENDBRANCH   7   8
ENDBRANCH   6   7
ENDBRANCH   1   6
TORSDOF 5
ENDMDL
MODEL 3
REMARK VINA RESULT:    -3.627      2.552      4.010
REMARK INTER + INTRA:          -4.928
REMARK INTER:                  -4.615
REMARK INTRA:                  -0.313
REMARK UNBOUND:                -0.241
REMARK SMILES CCCCCCC(=O)[O-]
REMARK SMILES IDX 5 1 6 2 7 3 8 4 9 5 4 6 3 7 2 8 1 9
REMARK H PARENT
REMARK Flexibility Score: inf
ROOT
ATOM      1  C   UNL     1       5.883   8.504  29.161  1.00  0.00     0.006 C 
ENDROOT
BRANCH   1   2
ATOM      2  C   UNL     1       6.012   8.791  27.662  1.00  0.00     0.053 C 
BRANCH   2   3
ATOM      3  C   UNL     1       5.755  10.238  27.382  1.00  0.00     0.041 C 
ATOM      4  O   UNL     1       6.516  11.121  27.860  1.00  0.00    -0.550 OA
ATOM      5  O   UNL     1       4.648  10.615  26.634  1.00  0.00    -0.550 OA
ENDBRANCH   2   3
ENDBRANCH   1   2
BRANCH   1   6
ATOM      6  C   UNL     1       4.412   8.346  29.566  1.00  0.00     0.000 C 
BRANCH   6   7
ATOM      7  C   UNL     1       3.978   9.471  30.512  1.00  0.00    -0.000 C 
BRANCH   7   8
ATOM      8  C   UNL     1       5.173  10.018  31.302  1.00  0.00    -0.003 C 
ATOM      9  C   UNL     1       4.722  11.021  32.359  1.00  0.00     0.004 C 
ENDBRANCH   7   8
ENDBRANCH   6   7
ENDBRANCH   1   6
TORSDOF 5
ENDMDL
MODEL 4
REMARK VINA RESULT:    -3.619      2.417      4.400
REMARK INTER + INTRA:          -4.918
REMARK INTER:                  -4.785
REMARK INTRA:                  -0.133
REMARK UNBOUND:                -0.241
REMARK SMILES CCCCCCC(=O)[O-]
REMARK SMILES IDX 5 1 6 2 7 3 8 4 9 5 4 6 3 7 2 8 1 9
REMARK H PARENT
REMARK Flexibility Score: inf
ROOT
ATOM      1  C   UNL     1       7.368  10.145  32.263  1.00  0.00     0.006 C 
ENDROOT
BRANCH   1   2
ATOM      2  C   UNL     1       6.259  11.124  31.865  1.00  0.00     0.053 C 
BRANCH   2   3
ATOM      3  C   UNL     1       4.983  10.391  31.599  1.00  0.00     0.041 C 
ATOM      4  O   UNL     1       3.902  10.798  32.101  1.00  0.00    -0.550 OA
ATOM      5  O   UNL     1       4.993   9.230  30.837  1.00  0.00    -0.550 OA
ENDBRANCH   2   3
ENDBRANCH   1   2
BRANCH   1   6
ATOM      6  C   UNL     1       8.528  10.190  31.262  1.00  0.00     0.000 C 
BRANCH   6   7
ATOM      7  C   UNL     1       9.416   8.947  31.391  1.00  0.00    -0.000 C 
BRANCH   7   8
ATOM      8  C   UNL     1       9.481   8.177  30.066  1.00  0.00    -0.003 C 
ATOM      9  C   UNL     1      10.230   8.973  29.002  1.00  0.00     0.004 C 
ENDBRANCH   7   8
ENDBRANCH   6   7
ENDBRANCH   1   6
TORSDOF 5
ENDMDL
MODEL 5
REMARK VINA RESULT:    -3.553      1.966      3.866
REMARK INTER + INTRA:          -4.833
REMARK INTER:                  -4.506
REMARK INTRA:                  -0.326
REMARK UNBOUND:                -0.241
REMARK SMILES CCCCCCC(=O)[O-]
REMARK SMILES IDX 5 1 6 2 7 3 8 4 9 5 4 6 3 7 2 8 1 9
REMARK H PARENT
REMARK Flexibility Score: inf
ROOT
ATOM      1  C   UNL     1       5.580  10.854  31.594  1.00  0.00     0.006 C 
ENDROOT
BRANCH   1   2
ATOM      2  C   UNL     1       4.841   9.637  31.032  1.00  0.00     0.053 C 
BRANCH   2   3
ATOM      3  C   UNL     1       5.300   9.342  29.639  1.00  0.00     0.041 C 
ATOM      4  O   UNL     1       5.831  10.248  28.942  1.00  0.00    -0.550 OA
ATOM      5  O   UNL     1       5.099   8.082  29.091  1.00  0.00    -0.550 OA
ENDBRANCH   2   3
ENDBRANCH   1   2
BRANCH   1   6
ATOM      6  C   UNL     1       6.810  10.425  32.404  1.00  0.00     0.000 C 
BRANCH   6   7
ATOM      7  C   UNL     1       8.097  10.987  31.789  1.00  0.00    -0.000 C 
BRANCH   7   8
ATOM      8  C   UNL     1       8.765   9.956  30.872  1.00  0.00    -0.003 C 
ATOM      9  C   UNL     1       9.415   8.838  31.681  1.00  0.00     0.004 C 
ENDBRANCH   7   8
ENDBRANCH   6   7
ENDBRANCH   1   6
TORSDOF 5
ENDMDL
MODEL 6
REMARK VINA RESULT:    -3.498      1.483      3.029
REMARK INTER + INTRA:          -4.762
REMARK INTER:                  -4.407
REMARK INTRA:                  -0.355
REMARK UNBOUND:                -0.241
REMARK SMILES CCCCCCC(=O)[O-]
REMARK SMILES IDX 5 1 6 2 7 3 8 4 9 5 4 6 3 7 2 8 1 9
REMARK H PARENT
REMARK Flexibility Score: inf
ROOT
ATOM      1  C   UNL     1       4.666   9.371  29.454  1.00  0.00     0.006 C 
ENDROOT
BRANCH   1   2
ATOM      2  C   UNL     1       5.731   8.559  28.710  1.00  0.00     0.053 C 
BRANCH   2   3
ATOM      3  C   UNL     1       7.076   9.196  28.863  1.00  0.00     0.041 C 
ATOM      4  O   UNL     1       8.042   8.534  29.328  1.00  0.00    -0.550 OA
ATOM      5  O   UNL     1       7.253  10.534  28.538  1.00  0.00    -0.550 OA
ENDBRANCH   2   3
ENDBRANCH   1   2
BRANCH   1   6
ATOM      6  C   UNL     1       4.898   9.326  30.969  1.00  0.00     0.000 C 
BRANCH   6   7
ATOM      7  C   UNL     1       4.419  10.619  31.638  1.00  0.00    -0.000 C 
BRANCH   7   8
ATOM      8  C   UNL     1       5.444  11.123  32.660  1.00  0.00    -0.003 C 
ATOM      9  C   UNL     1       6.870  10.862  32.185  1.00  0.00     0.004 C 
ENDBRANCH   7   8
ENDBRANCH   6   7
ENDBRANCH   1   6
TORSDOF 5
ENDMDL
MODEL 7
REMARK VINA RESULT:    -3.498      1.799      3.060
REMARK INTER + INTRA:          -4.762
REMARK INTER:                  -4.314
REMARK INTRA:                  -0.448
REMARK UNBOUND:                -0.241
REMARK SMILES CCCCCCC(=O)[O-]
REMARK SMILES IDX 5 1 6 2 7 3 8 4 9 5 4 6 3 7 2 8 1 9
REMARK H PARENT
REMARK Flexibility Score: inf
ROOT
ATOM      1  C   UNL     1       8.721   9.760  30.904  1.00  0.00     0.006 C 
ENDROOT
BRANCH   1   2
ATOM      2  C   UNL     1       8.637  10.062  29.405  1.00  0.00     0.053 C 
BRANCH   2   3
ATOM      3  C   UNL     1       7.281   9.719  28.876  1.00  0.00     0.041 C 
ATOM      4  O   UNL     1       6.590  10.594  28.288  1.00  0.00    -0.550 OA
ATOM      5  O   UNL     1       6.757   8.449  29.076  1.00  0.00    -0.550 OA
ENDBRANCH   2   3
ENDBRANCH   1   2
BRANCH   1   6
ATOM      6  C   UNL     1       8.131  10.910  31.730  1.00  0.00     0.000 C 
BRANCH   6   7
ATOM      7  C   UNL     1       6.897  10.449  32.514  1.00  0.00    -0.000 C 
BRANCH   7   8
ATOM      8  C   UNL     1       5.626  11.125  31.987  1.00  0.00    -0.003 C 
ATOM      9  C   UNL     1       4.638  10.097  31.445  1.00  0.00     0.004 C 
ENDBRANCH   7   8
ENDBRANCH   6   7
ENDBRANCH   1   6
TORSDOF 5
ENDMDL
MODEL 8
REMARK VINA RESULT:    -3.407      2.625      3.839
REMARK INTER + INTRA:          -4.643
REMARK INTER:                  -4.350
REMARK INTRA:                  -0.294
REMARK UNBOUND:                -0.241
REMARK SMILES CCCCCCC(=O)[O-]
REMARK SMILES IDX 5 1 6 2 7 3 8 4 9 5 4 6 3 7 2 8 1 9
REMARK H PARENT
REMARK Flexibility Score: inf
ROOT
ATOM      1  C   UNL     1       4.605   8.750  29.713  1.00  0.00     0.006 C 
ENDROOT
BRANCH   1   2
ATOM      2  C   UNL     1       4.163   9.629  30.887  1.00  0.00     0.053 C 
BRANCH   2   3
ATOM      3  C   UNL     1       5.349  10.270  31.536  1.00  0.00     0.041 C 
ATOM      4  O   UNL     1       6.512  10.014  31.124  1.00  0.00    -0.550 OA
ATOM      5  O   UNL     1       5.175  11.111  32.627  1.00  0.00    -0.550 OA
ENDBRANCH   2   3
ENDBRANCH   1   2
BRANCH   1   6
ATOM      6  C   UNL     1       4.368   9.460  28.375  1.00  0.00     0.000 C 
BRANCH   6   7
ATOM      7  C   UNL     1       5.690   9.702  27.638  1.00  0.00    -0.000 C 
BRANCH   7   8
ATOM      8  C   UNL     1       6.670   8.547  27.872  1.00  0.00    -0.003 C 
ATOM      9  C   UNL     1       7.311   8.093  26.564  1.00  0.00     0.004 C 
ENDBRANCH   7   8
ENDBRANCH   6   7
ENDBRANCH   1   6
TORSDOF 5
ENDMDL
