MODEL 1
REMARK VINA RESULT:    -1.894      0.000      0.000
REMARK INTER + INTRA:          -4.910
REMARK INTER:                  -2.559
REMARK INTRA:                  -2.351
REMARK UNBOUND:                -2.351
REMARK SMILES C=CC(C)=CCC=C(C)CCC=C(C)C
REMARK SMILES IDX 8 1 7 2 9 3 10 4 11 5 12 6 14 7 13 8 15 9 6 10 5 11 3 12
REMARK SMILES IDX 4 13 2 14 1 15
REMARK H PARENT
REMARK Flexibility Score: inf
ROOT
ATOM      1  C   UNL     1     163.189 158.121 138.329  1.00  0.00    -0.077 C 
ATOM      2  C   UNL     1     163.987 157.120 137.885  1.00  0.00    -0.024 C 
ATOM      3  C   UNL     1     162.758 159.180 137.349  1.00  0.00     0.039 C 
ENDROOT
BRANCH   1   4
ATOM      4  C   UNL     1     162.751 158.252 139.775  1.00  0.00     0.034 C 
BRANCH   4   5
ATOM      5  C   UNL     1     163.206 159.593 140.363  1.00  0.00     0.032 C 
BRANCH   5   6
ATOM      6  C   UNL     1     164.364 159.398 141.309  1.00  0.00    -0.028 C 
ATOM      7  C   UNL     1     166.706 159.406 142.051  1.00  0.00     0.039 C 
ATOM      8  C   UNL     1     165.659 159.602 140.985  1.00  0.00    -0.080 C 
ATOM      9  C   UNL     1     166.082 160.003 139.591  1.00  0.00     0.039 C 
ENDBRANCH   5   6
ENDBRANCH   4   5
ENDBRANCH   1   4
BRANCH   2  10
ATOM     10  C   UNL     1     164.509 155.991 138.738  1.00  0.00     0.055 C 
BRANCH  10  11
ATOM     11  C   UNL     1     165.983 156.158 139.000  1.00  0.00    -0.020 C 
ATOM     12  C   UNL     1     166.563 156.078 140.214  1.00  0.00    -0.055 C 
ATOM     13  C   UNL     1     165.743 155.877 141.467  1.00  0.00     0.044 C 
BRANCH  12  14
ATOM     14  C   UNL     1     168.038 156.222 140.287  1.00  0.00    -0.005 C 
ATOM     15  C   UNL     1     168.715 157.176 139.649  1.00  0.00     0.009 C 
ENDBRANCH  12  14
ENDBRANCH  10  11
ENDBRANCH   2  10
TORSDOF 6
ENDMDL
MODEL 2
REMARK VINA RESULT:    -1.892     14.685     16.612
REMARK INTER + INTRA:          -4.907
REMARK INTER:                  -2.617
REMARK INTRA:                  -2.290
REMARK UNBOUND:                -2.351
REMARK SMILES C=CC(C)=CCC=C(C)CCC=C(C)C
REMARK SMILES IDX 8 1 7 2 9 3 10 4 11 5 12 6 14 7 13 8 15 9 6 10 5 11 3 12
REMARK SMILES IDX 4 13 2 14 1 15
REMARK H PARENT
REMARK Flexibility Score: inf
ROOT
ATOM      1  C   UNL     1     170.304 172.330 139.298  1.00  0.00    -0.077 C 
ATOM      2  C   UNL     1     170.194 172.181 140.640  1.00  0.00    -0.024 C 
ATOM      3  C   UNL     1     171.645 172.707 138.727  1.00  0.00     0.039 C 
ENDROOT
BRANCH   1   4
ATOM      4  C   UNL     1     169.129 172.184 138.350  1.00  0.00     0.034 C 
BRANCH   4   5
ATOM      5  C   UNL     1     168.994 173.422 137.455  1.00  0.00     0.032 C 
BRANCH   5   6
ATOM      6  C   UNL     1     167.753 174.203 137.807  1.00  0.00    -0.028 C 
ATOM      7  C   UNL     1     166.417 175.971 138.868  1.00  0.00     0.039 C 
ATOM      8  C   UNL     1     167.728 175.263 138.644  1.00  0.00    -0.080 C 
ATOM      9  C   UNL     1     168.965 175.740 139.368  1.00  0.00     0.039 C 
ENDBRANCH   5   6
ENDBRANCH   4   5
ENDBRANCH   1   4
BRANCH   2  10
ATOM     10  C   UNL     1     168.924 171.813 141.366  1.00  0.00     0.055 C 
BRANCH  10  11
ATOM     11  C   UNL     1     168.251 173.042 141.919  1.00  0.00    -0.020 C 
ATOM     12  C   UNL     1     166.971 173.391 141.683  1.00  0.00    -0.055 C 
ATOM     13  C   UNL     1     166.094 172.586 140.752  1.00  0.00     0.044 C 
BRANCH  12  14
ATOM     14  C   UNL     1     166.454 174.613 142.346  1.00  0.00    -0.005 C 
ATOM     15  C   UNL     1     165.197 175.039 142.225  1.00  0.00     0.009 C 
ENDBRANCH  12  14
ENDBRANCH  10  11
ENDBRANCH   2  10
TORSDOF 6
ENDMDL
MODEL 3
REMARK VINA RESULT:    -1.870      1.547      3.810
REMARK INTER + INTRA:          -4.877
REMARK INTER:                  -2.581
REMARK INTRA:                  -2.296
REMARK UNBOUND:                -2.351
REMARK SMILES C=CC(C)=CCC=C(C)CCC=C(C)C
REMARK SMILES IDX 8 1 7 2 9 3 10 4 11 5 12 6 14 7 13 8 15 9 6 10 5 11 3 12
REMARK SMILES IDX 4 13 2 14 1 15
REMARK H PARENT
REMARK Flexibility Score: inf
ROOT
ATOM      1  C   UNL     1     161.856 159.735 139.177  1.00  0.00    -0.077 C 
ATOM      2  C   UNL     1     161.882 159.927 140.518  1.00  0.00    -0.024 C 
ATOM      3  C   UNL     1     160.542 159.386 138.529  1.00  0.00     0.039 C 
ENDROOT
BRANCH   1   4
ATOM      4  C   UNL     1     163.096 159.804 138.306  1.00  0.00     0.034 C 
BRANCH   4   5
ATOM      5  C   UNL     1     163.223 158.546 137.438  1.00  0.00     0.032 C 
BRANCH   5   6
ATOM      6  C   UNL     1     164.426 157.733 137.848  1.00  0.00    -0.028 C 
ATOM      7  C   UNL     1     165.667 155.943 138.984  1.00  0.00     0.039 C 
ATOM      8  C   UNL     1     164.387 156.687 138.701  1.00  0.00    -0.080 C 
ATOM      9  C   UNL     1     163.111 156.259 139.385  1.00  0.00     0.039 C 
ENDBRANCH   5   6
ENDBRANCH   4   5
ENDBRANCH   1   4
BRANCH   2  10
ATOM     10  C   UNL     1     163.114 160.275 141.315  1.00  0.00     0.055 C 
BRANCH  10  11
ATOM     11  C   UNL     1     163.730 159.036 141.912  1.00  0.00    -0.020 C 
ATOM     12  C   UNL     1     165.008 158.648 141.731  1.00  0.00    -0.055 C 
ATOM     13  C   UNL     1     165.943 159.415 140.825  1.00  0.00     0.044 C 
BRANCH  12  14
ATOM     14  C   UNL     1     165.464 157.422 142.431  1.00  0.00    -0.005 C 
ATOM     15  C   UNL     1     166.719 156.975 142.388  1.00  0.00     0.009 C 
ENDBRANCH  12  14
ENDBRANCH  10  11
ENDBRANCH   2  10
TORSDOF 6
ENDMDL
MODEL 4
REMARK VINA RESULT:    -1.844     14.208     16.550
REMARK INTER + INTRA:          -4.842
REMARK INTER:                  -2.497
REMARK INTRA:                  -2.345
REMARK UNBOUND:                -2.351
REMARK SMILES C=CC(C)=CCC=C(C)CCC=C(C)C
REMARK SMILES IDX 8 1 7 2 9 3 10 4 11 5 12 6 14 7 13 8 15 9 6 10 5 11 3 12
REMARK SMILES IDX 4 13 2 14 1 15
REMARK H PARENT
REMARK Flexibility Score: inf
ROOT
ATOM      1  C   UNL     1     165.018 174.506 141.603  1.00  0.00    -0.077 C 
ATOM      2  C   UNL     1     164.850 174.937 140.330  1.00  0.00    -0.024 C 
ATOM      3  C   UNL     1     163.908 173.716 142.244  1.00  0.00     0.039 C 
ENDROOT
BRANCH   1   4
ATOM      4  C   UNL     1     166.249 174.824 142.430  1.00  0.00     0.034 C 
BRANCH   4   5
ATOM      5  C   UNL     1     166.870 173.543 142.999  1.00  0.00     0.032 C 
BRANCH   5   6
ATOM      6  C   UNL     1     168.165 173.218 142.297  1.00  0.00    -0.028 C 
ATOM      7  C   UNL     1     169.634 172.167 140.633  1.00  0.00     0.039 C 
ATOM      8  C   UNL     1     168.278 172.360 141.261  1.00  0.00    -0.080 C 
ATOM      9  C   UNL     1     167.095 171.583 140.731  1.00  0.00     0.039 C 
ENDBRANCH   5   6
ENDBRANCH   4   5
ENDBRANCH   1   4
BRANCH   2  10
ATOM     10  C   UNL     1     165.861 175.742 139.551  1.00  0.00     0.055 C 
BRANCH  10  11
ATOM     11  C   UNL     1     166.634 174.857 138.608  1.00  0.00    -0.020 C 
ATOM     12  C   UNL     1     167.979 174.796 138.539  1.00  0.00    -0.055 C 
ATOM     13  C   UNL     1     168.853 175.695 139.382  1.00  0.00     0.044 C 
BRANCH  12  14
ATOM     14  C   UNL     1     168.579 173.834 137.581  1.00  0.00    -0.005 C 
ATOM     15  C   UNL     1     167.978 172.708 137.197  1.00  0.00     0.009 C 
ENDBRANCH  12  14
ENDBRANCH  10  11
ENDBRANCH   2  10
TORSDOF 6
ENDMDL
MODEL 5
REMARK VINA RESULT:    -1.804      0.995      4.222
REMARK INTER + INTRA:          -4.787
REMARK INTER:                  -2.622
REMARK INTRA:                  -2.165
REMARK UNBOUND:                -2.351
REMARK SMILES C=CC(C)=CCC=C(C)CCC=C(C)C
REMARK SMILES IDX 8 1 7 2 9 3 10 4 11 5 12 6 14 7 13 8 15 9 6 10 5 11 3 12
REMARK SMILES IDX 4 13 2 14 1 15
REMARK H PARENT
REMARK Flexibility Score: inf
ROOT
ATOM      1  C   UNL     1     166.096 156.266 139.860  1.00  0.00    -0.077 C 
ATOM      2  C   UNL     1     165.377 155.922 138.765  1.00  0.00    -0.024 C 
ATOM      3  C   UNL     1     167.550 155.875 139.915  1.00  0.00     0.039 C 
ENDROOT
BRANCH   1   4
ATOM      4  C   UNL     1     165.495 156.980 141.055  1.00  0.00     0.034 C 
BRANCH   4   5
ATOM      5  C   UNL     1     166.305 158.234 141.405  1.00  0.00     0.032 C 
BRANCH   5   6
ATOM      6  C   UNL     1     165.648 159.470 140.842  1.00  0.00    -0.028 C 
ATOM      7  C   UNL     1     165.224 161.269 139.224  1.00  0.00     0.039 C 
ATOM      8  C   UNL     1     166.001 160.061 139.680  1.00  0.00    -0.080 C 
ATOM      9  C   UNL     1     167.154 159.558 138.844  1.00  0.00     0.039 C 
ENDBRANCH   5   6
ENDBRANCH   4   5
ENDBRANCH   1   4
BRANCH   2  10
ATOM     10  C   UNL     1     163.916 156.233 138.560  1.00  0.00     0.055 C 
BRANCH  10  11
ATOM     11  C   UNL     1     163.745 157.399 137.621  1.00  0.00    -0.020 C 
ATOM     12  C   UNL     1     163.064 158.525 137.909  1.00  0.00    -0.055 C 
ATOM     13  C   UNL     1     162.328 158.688 139.219  1.00  0.00     0.044 C 
BRANCH  12  14
ATOM     14  C   UNL     1     163.034 159.596 136.883  1.00  0.00    -0.005 C 
ATOM     15  C   UNL     1     162.297 160.701 136.995  1.00  0.00     0.009 C 
ENDBRANCH  12  14
ENDBRANCH  10  11
ENDBRANCH   2  10
TORSDOF 6
ENDMDL
MODEL 6
REMARK VINA RESULT:    -1.784     14.011     16.615
REMARK INTER + INTRA:          -4.761
REMARK INTER:                  -2.400
REMARK INTRA:                  -2.361
REMARK UNBOUND:                -2.351
REMARK SMILES C=CC(C)=CCC=C(C)CCC=C(C)C
REMARK SMILES IDX 8 1 7 2 9 3 10 4 11 5 12 6 14 7 13 8 15 9 6 10 5 11 3 12
REMARK SMILES IDX 4 13 2 14 1 15
REMARK H PARENT
REMARK Flexibility Score: inf
ROOT
ATOM      1  C   UNL     1     169.224 173.498 138.152  1.00  0.00    -0.077 C 
ATOM      2  C   UNL     1     168.221 174.261 137.653  1.00  0.00    -0.024 C 
ATOM      3  C   UNL     1     169.780 172.395 137.290  1.00  0.00     0.039 C 
ENDROOT
BRANCH   1   4
ATOM      4  C   UNL     1     169.778 173.671 139.553  1.00  0.00     0.034 C 
BRANCH   4   5
ATOM      5  C   UNL     1     169.531 172.414 140.395  1.00  0.00     0.032 C 
BRANCH   5   6
ATOM      6  C   UNL     1     168.427 172.647 141.396  1.00  0.00    -0.028 C 
ATOM      7  C   UNL     1     166.170 172.489 142.353  1.00  0.00     0.039 C 
ATOM      8  C   UNL     1     167.156 172.215 141.247  1.00  0.00    -0.080 C 
ATOM      9  C   UNL     1     166.699 171.486 140.005  1.00  0.00     0.039 C 
ENDBRANCH   5   6
ENDBRANCH   4   5
ENDBRANCH   1   4
BRANCH   2  10
ATOM     10  C   UNL     1     167.554 175.396 138.388  1.00  0.00     0.055 C 
BRANCH  10  11
ATOM     11  C   UNL     1     166.167 175.004 138.829  1.00  0.00    -0.020 C 
ATOM     12  C   UNL     1     165.624 175.311 140.024  1.00  0.00    -0.055 C 
ATOM     13  C   UNL     1     166.415 176.038 141.086  1.00  0.00     0.044 C 
BRANCH  12  14
ATOM     14  C   UNL     1     164.226 174.885 140.277  1.00  0.00    -0.005 C 
ATOM     15  C   UNL     1     163.688 173.782 139.759  1.00  0.00     0.009 C 
ENDBRANCH  12  14
ENDBRANCH  10  11
ENDBRANCH   2  10
TORSDOF 6
ENDMDL
MODEL 7
REMARK VINA RESULT:    -1.774     13.531     15.477
REMARK INTER + INTRA:          -4.748
REMARK INTER:                  -2.341
REMARK INTRA:                  -2.407
REMARK UNBOUND:                -2.351
REMARK SMILES C=CC(C)=CCC=C(C)CCC=C(C)C
REMARK SMILES IDX 8 1 7 2 9 3 10 4 11 5 12 6 14 7 13 8 15 9 6 10 5 11 3 12
REMARK SMILES IDX 4 13 2 14 1 15
REMARK H PARENT
REMARK Flexibility Score: inf
ROOT
ATOM      1  C   UNL     1     166.724 174.811 138.612  1.00  0.00    -0.077 C 
ATOM      2  C   UNL     1     167.948 174.826 138.032  1.00  0.00    -0.024 C 
ATOM      3  C   UNL     1     166.205 176.086 139.223  1.00  0.00     0.039 C 
ENDROOT
BRANCH   1   4
ATOM      4  C   UNL     1     165.873 173.560 138.719  1.00  0.00     0.034 C 
BRANCH   4   5
ATOM      5  C   UNL     1     165.504 173.275 140.180  1.00  0.00     0.032 C 
BRANCH   5   6
ATOM      6  C   UNL     1     166.243 172.064 140.692  1.00  0.00    -0.028 C 
ATOM      7  C   UNL     1     167.971 170.817 141.915  1.00  0.00     0.039 C 
ATOM      8  C   UNL     1     167.366 172.113 141.440  1.00  0.00    -0.080 C 
ATOM      9  C   UNL     1     168.035 173.421 141.794  1.00  0.00     0.039 C 
ENDBRANCH   5   6
ENDBRANCH   4   5
ENDBRANCH   1   4
BRANCH   2  10
ATOM     10  C   UNL     1     168.610 173.636 137.384  1.00  0.00     0.055 C 
BRANCH  10  11
ATOM     11  C   UNL     1     169.637 173.030 138.305  1.00  0.00    -0.020 C 
ATOM     12  C   UNL     1     169.697 171.726 138.639  1.00  0.00    -0.055 C 
ATOM     13  C   UNL     1     168.657 170.741 138.157  1.00  0.00     0.044 C 
BRANCH  12  14
ATOM     14  C   UNL     1     170.804 171.289 139.524  1.00  0.00    -0.005 C 
ATOM     15  C   UNL     1     171.279 172.028 140.527  1.00  0.00     0.009 C 
ENDBRANCH  12  14
ENDBRANCH  10  11
ENDBRANCH   2  10
TORSDOF 6
ENDMDL
MODEL 8
REMARK VINA RESULT:    -1.767     13.428     16.026
REMARK INTER + INTRA:          -4.737
REMARK INTER:                  -2.491
REMARK INTRA:                  -2.246
REMARK UNBOUND:                -2.351
REMARK SMILES C=CC(C)=CCC=C(C)CCC=C(C)C
REMARK SMILES IDX 8 1 7 2 9 3 10 4 11 5 12 6 14 7 13 8 15 9 6 10 5 11 3 12
REMARK SMILES IDX 4 13 2 14 1 15
REMARK H PARENT
REMARK Flexibility Score: inf
ROOT
ATOM      1  C   UNL     1     169.431 170.949 138.474  1.00  0.00    -0.077 C 
ATOM      2  C   UNL     1     168.931 171.801 137.547  1.00  0.00    -0.024 C 
ATOM      3  C   UNL     1     169.082 169.488 138.366  1.00  0.00     0.039 C 
ENDROOT
BRANCH   1   4
ATOM      4  C   UNL     1     170.283 171.405 139.643  1.00  0.00     0.034 C 
BRANCH   4   5
ATOM      5  C   UNL     1     169.601 171.074 140.976  1.00  0.00     0.032 C 
BRANCH   5   6
ATOM      6  C   UNL     1     169.017 172.316 141.602  1.00  0.00    -0.028 C 
ATOM      7  C   UNL     1     167.271 173.921 142.240  1.00  0.00     0.039 C 
ATOM      8  C   UNL     1     167.716 172.670 141.528  1.00  0.00    -0.080 C 
ATOM      9  C   UNL     1     166.710 171.862 140.743  1.00  0.00     0.039 C 
ENDBRANCH   5   6
ENDBRANCH   4   5
ENDBRANCH   1   4
BRANCH   2  10
ATOM     10  C   UNL     1     169.180 173.288 137.519  1.00  0.00     0.055 C 
BRANCH  10  11
ATOM     11  C   UNL     1     167.912 174.046 137.815  1.00  0.00    -0.020 C 
ATOM     12  C   UNL     1     167.827 175.113 138.635  1.00  0.00    -0.055 C 
ATOM     13  C   UNL     1     169.027 175.610 139.408  1.00  0.00     0.044 C 
BRANCH  12  14
ATOM     14  C   UNL     1     166.505 175.771 138.779  1.00  0.00    -0.005 C 
ATOM     15  C   UNL     1     165.480 175.226 139.433  1.00  0.00     0.009 C 
ENDBRANCH  12  14
ENDBRANCH  10  11
ENDBRANCH   2  10
TORSDOF 6
ENDMDL
MODEL 9
REMARK VINA RESULT:    -1.722     13.461     15.838
REMARK INTER + INTRA:          -4.676
REMARK INTER:                  -2.385
REMARK INTRA:                  -2.292
REMARK UNBOUND:                -2.351
REMARK SMILES C=CC(C)=CCC=C(C)CCC=C(C)C
REMARK SMILES IDX 8 1 7 2 9 3 10 4 11 5 12 6 14 7 13 8 15 9 6 10 5 11 3 12
REMARK SMILES IDX 4 13 2 14 1 15
REMARK H PARENT
REMARK Flexibility Score: inf
ROOT
ATOM      1  C   UNL     1     166.682 175.321 140.195  1.00  0.00    -0.077 C 
ATOM      2  C   UNL     1     166.464 174.492 141.244  1.00  0.00    -0.024 C 
ATOM      3  C   UNL     1     165.523 176.125 139.666  1.00  0.00     0.039 C 
ENDROOT
BRANCH   1   4
ATOM      4  C   UNL     1     168.023 175.440 139.497  1.00  0.00     0.034 C 
BRANCH   4   5
ATOM      5  C   UNL     1     167.881 175.176 137.994  1.00  0.00     0.032 C 
BRANCH   5   6
ATOM      6  C   UNL     1     168.573 173.893 137.608  1.00  0.00    -0.028 C 
ATOM      7  C   UNL     1     168.767 171.517 137.012  1.00  0.00     0.039 C 
ATOM      8  C   UNL     1     167.948 172.708 137.441  1.00  0.00    -0.080 C 
ATOM      9  C   UNL     1     166.466 172.542 137.686  1.00  0.00     0.039 C 
ENDBRANCH   5   6
ENDBRANCH   4   5
ENDBRANCH   1   4
BRANCH   2  10
ATOM     10  C   UNL     1     167.514 173.618 141.884  1.00  0.00     0.055 C 
BRANCH  10  11
ATOM     11  C   UNL     1     167.452 172.218 141.331  1.00  0.00    -0.020 C 
ATOM     12  C   UNL     1     168.504 171.542 140.828  1.00  0.00    -0.055 C 
ATOM     13  C   UNL     1     169.867 172.183 140.706  1.00  0.00     0.044 C 
BRANCH  12  14
ATOM     14  C   UNL     1     168.275 170.151 140.366  1.00  0.00    -0.005 C 
ATOM     15  C   UNL     1     167.201 169.434 140.696  1.00  0.00     0.009 C 
ENDBRANCH  12  14
ENDBRANCH  10  11
ENDBRANCH   2  10
TORSDOF 6
ENDMDL
