MODEL 1
REMARK VINA RESULT:     0.750      0.000      0.000
REMARK INTER + INTRA:           0.573
REMARK INTER:                   1.364
REMARK INTRA:                  -0.791
REMARK UNBOUND:                -0.791
REMARK SMILES CCCCCCCCCCCCCCCC(=O)[O-]
REMARK SMILES IDX 9 1 10 2 11 3 12 4 13 5 14 6 15 7 16 8 17 9 18 10 8 11 7 12
REMARK SMILES IDX 6 13 5 14 4 15 3 16 2 17 1 18
REMARK H PARENT
REMARK Flexibility Score: inf
ROOT
ATOM      1  C   UNL     1      54.416 147.755   0.521  1.00  0.00     0.000 C 
ENDROOT
BRANCH   1   2
ATOM      2  C   UNL     1      53.492 147.995  -0.684  1.00  0.00     0.000 C 
BRANCH   2   3
ATOM      3  C   UNL     1      54.251 148.045  -2.023  1.00  0.00     0.000 C 
BRANCH   3   4
ATOM      4  C   UNL     1      53.363 148.054  -3.282  1.00  0.00     0.000 C 
BRANCH   4   5
ATOM      5  C   UNL     1      54.087 147.536  -4.533  1.00  0.00     0.000 C 
BRANCH   5   6
ATOM      6  C   UNL     1      53.451 148.104  -5.811  1.00  0.00     0.006 C 
BRANCH   6   7
ATOM      7  C   UNL     1      51.917 148.108  -5.744  1.00  0.00     0.053 C 
BRANCH   7   8
ATOM      8  C   UNL     1      51.302 147.751  -7.062  1.00  0.00     0.041 C 
ATOM      9  O   UNL     1      52.001 147.755  -8.110  1.00  0.00    -0.550 OA
ATOM     10  O   UNL     1      49.949 147.448  -7.139  1.00  0.00    -0.550 OA
ENDBRANCH   7   8
ENDBRANCH   6   7
ENDBRANCH   5   6
ENDBRANCH   4   5
ENDBRANCH   3   4
ENDBRANCH   2   3
ENDBRANCH   1   2
BRANCH   1  11
ATOM     11  C   UNL     1      53.722 147.004   1.672  1.00  0.00     0.000 C 
BRANCH  11  12
ATOM     12  C   UNL     1      52.416 146.278   1.295  1.00  0.00    -0.000 C 
BRANCH  12  13
ATOM     13  C   UNL     1      51.183 146.850   2.014  1.00  0.00    -0.000 C 
BRANCH  13  14
ATOM     14  C   UNL     1      50.644 148.123   1.340  1.00  0.00    -0.000 C 
BRANCH  14  15
ATOM     15  C   UNL     1      49.118 148.101   1.163  1.00  0.00    -0.000 C 
BRANCH  15  16
ATOM     16  C   UNL     1      48.623 146.683   0.855  1.00  0.00    -0.000 C 
BRANCH  16  17
ATOM     17  C   UNL     1      47.297 146.718   0.087  1.00  0.00    -0.003 C 
ATOM     18  C   UNL     1      47.432 147.513  -1.210  1.00  0.00     0.004 C 
ENDBRANCH  16  17
ENDBRANCH  15  16
ENDBRANCH  14  15
ENDBRANCH  13  14
ENDBRANCH  12  13
ENDBRANCH  11  12
ENDBRANCH   1  11
TORSDOF 14
ENDMDL
