MODEL 1
REMARK VINA RESULT:    -5.108      0.000      0.000
REMARK INTER + INTRA:          -7.701
REMARK INTER:                  -7.796
REMARK INTRA:                   0.095
REMARK UNBOUND:                 0.095
REMARK SMILES CC1=CCC[C@@H](C)C(=O)C[C@@H](C(C)C)C(=O)C1
REMARK SMILES IDX 8 1 9 2 6 3 7 4 5 5 4 6 3 7 2 8 1 9 10 11 11 12 15 13 16 14
REMARK SMILES IDX 17 15 12 17 13 18 14 19
REMARK H PARENT
REMARK Flexibility Score: 70.00
ROOT
ATOM      1  C   UNL     1      -8.057  34.622  22.321  1.00  0.00     0.136 C 
ATOM      2  O   UNL     1      -7.788  35.801  22.136  1.00  0.00    -0.299 OA
ENDROOT
BRANCH   1   3
ATOM      3  C   UNL     1      -7.336  33.558  21.505  1.00  0.00     0.053 C 
ATOM      4  C   UNL     1      -7.102  34.025  20.060  1.00  0.00     0.016 C 
BRANCH   3   5
ATOM      5  C   UNL     1      -8.057  32.187  21.532  1.00  0.00     0.015 C 
BRANCH   5   6
ATOM      6  C   UNL     1      -7.242  31.034  22.166  1.00  0.00     0.028 C 
BRANCH   6   7
ATOM      7  C   UNL     1      -8.123  30.006  22.834  1.00  0.00    -0.028 C 
ATOM      8  C   UNL     1      -8.501  30.031  24.136  1.00  0.00    -0.070 CG0
ATOM      9  C   UNL     1      -9.422  28.940  24.624  1.00  0.00     0.039 C 
ATOM     10  G   UNL     1      -8.011  31.071  25.134  1.00  0.00     0.000 G0
ENDBRANCH   6   7
ENDBRANCH   5   6
ENDBRANCH   3   5
ENDBRANCH   1   3
BRANCH   1  11
ATOM     11  C   UNL     1      -9.039  34.293  23.425  1.00  0.00     0.087 C 
BRANCH  11  12
ATOM     12  C   UNL     1      -8.437  33.709  24.732  1.00  0.00     0.066 C 
BRANCH  12  13
ATOM     13  C   UNL     1      -8.913  32.305  25.120  1.00  0.00     0.140 C 
ATOM     14  O   UNL     1     -10.091  32.166  25.416  1.00  0.00    -0.299 OA
BRANCH  13  15
ATOM     15  C   UNL     1      -8.033  31.071  25.155  1.00  0.00     0.106 CG0
ATOM     16  G   UNL     1      -8.497  30.038  24.138  1.00  0.00     0.000 G0
ENDBRANCH  13  15
ENDBRANCH  12  13
BRANCH  12  17
ATOM     17  C   UNL     1      -8.630  34.730  25.904  1.00  0.00    -0.006 C 
ATOM     18  C   UNL     1      -7.981  36.094  25.610  1.00  0.00     0.008 C 
ATOM     19  C   UNL     1      -8.140  34.194  27.262  1.00  0.00     0.008 C 
ENDBRANCH  12  17
ENDBRANCH  11  12
ENDBRANCH   1  11
TORSDOF 1
ENDMDL
MODEL 2
REMARK VINA RESULT:    -4.983      2.169      4.138
REMARK INTER + INTRA:          -7.510
REMARK INTER:                  -7.413
REMARK INTRA:                  -0.096
REMARK UNBOUND:                 0.095
REMARK SMILES CC1=CCC[C@@H](C)C(=O)C[C@@H](C(C)C)C(=O)C1
REMARK SMILES IDX 8 1 9 2 6 3 7 4 5 5 4 6 3 7 2 8 1 9 10 11 11 12 15 13 16 14
REMARK SMILES IDX 17 15 12 17 13 18 14 19
REMARK H PARENT
REMARK Flexibility Score: 70.00
ROOT
ATOM      1  C   UNL     1      -7.325  30.656  23.538  1.00  0.00     0.136 C 
ATOM      2  O   UNL     1      -6.168  30.501  23.168  1.00  0.00    -0.299 OA
ENDROOT
BRANCH   1   3
ATOM      3  C   UNL     1      -8.457  30.442  22.543  1.00  0.00     0.053 C 
ATOM      4  C   UNL     1      -8.528  28.976  22.085  1.00  0.00     0.016 C 
BRANCH   3   5
ATOM      5  C   UNL     1      -8.377  31.396  21.325  1.00  0.00     0.015 C 
BRANCH   5   6
ATOM      6  C   UNL     1      -9.205  32.697  21.461  1.00  0.00     0.028 C 
BRANCH   6   7
ATOM      7  C   UNL     1      -8.408  33.825  22.070  1.00  0.00    -0.028 C 
ATOM      8  C   UNL     1      -8.591  34.325  23.317  1.00  0.00    -0.070 CG0
ATOM      9  C   UNL     1      -7.672  35.429  23.777  1.00  0.00     0.039 C 
ATOM     10  G   UNL     1      -9.699  33.863  24.254  1.00  0.00     0.000 G0
ENDBRANCH   6   7
ENDBRANCH   5   6
ENDBRANCH   3   5
ENDBRANCH   1   3
BRANCH   1  11
ATOM     11  C   UNL     1      -7.557  30.971  24.999  1.00  0.00     0.087 C 
BRANCH  11  12
ATOM     12  C   UNL     1      -8.964  31.512  25.373  1.00  0.00     0.066 C 
BRANCH  12  13
ATOM     13  C   UNL     1      -9.111  33.037  25.398  1.00  0.00     0.140 C 
ATOM     14  O   UNL     1      -8.736  33.628  26.400  1.00  0.00    -0.299 OA
BRANCH  13  15
ATOM     15  C   UNL     1      -9.680  33.871  24.268  1.00  0.00     0.106 CG0
ATOM     16  G   UNL     1      -8.581  34.331  23.320  1.00  0.00     0.000 G0
ENDBRANCH  13  15
ENDBRANCH  12  13
BRANCH  12  17
ATOM     17  C   UNL     1      -9.440  30.862  26.716  1.00  0.00    -0.006 C 
ATOM     18  C   UNL     1      -8.335  30.847  27.787  1.00  0.00     0.008 C 
ATOM     19  C   UNL     1     -10.017  29.447  26.534  1.00  0.00     0.008 C 
ENDBRANCH  12  17
ENDBRANCH  11  12
ENDBRANCH   1  11
TORSDOF 1
ENDMDL
MODEL 3
REMARK VINA RESULT:    -4.915      2.158      3.454
REMARK INTER + INTRA:          -7.406
REMARK INTER:                  -7.534
REMARK INTRA:                   0.128
REMARK UNBOUND:                 0.095
REMARK SMILES CC1=CCC[C@@H](C)C(=O)C[C@@H](C(C)C)C(=O)C1
REMARK SMILES IDX 8 1 9 2 6 3 7 4 5 5 4 6 3 7 2 8 1 9 10 11 11 12 15 13 16 14
REMARK SMILES IDX 17 15 12 17 13 18 14 19
REMARK H PARENT
REMARK Flexibility Score: 70.00
ROOT
ATOM      1  C   UNL     1      -8.621  31.767  23.166  1.00  0.00     0.136 C 
ATOM      2  O   UNL     1      -8.856  31.498  21.995  1.00  0.00    -0.299 OA
ENDROOT
BRANCH   1   3
ATOM      3  C   UNL     1      -7.817  30.784  24.006  1.00  0.00     0.053 C 
ATOM      4  C   UNL     1      -6.533  30.350  23.282  1.00  0.00     0.016 C 
BRANCH   3   5
ATOM      5  C   UNL     1      -8.646  29.551  24.447  1.00  0.00     0.015 C 
BRANCH   5   6
ATOM      6  C   UNL     1      -9.813  29.863  25.414  1.00  0.00     0.028 C 
BRANCH   6   7
ATOM      7  C   UNL     1      -9.334  30.202  26.805  1.00  0.00    -0.028 C 
ATOM      8  C   UNL     1      -9.387  31.434  27.369  1.00  0.00    -0.070 CG0
ATOM      9  C   UNL     1      -8.900  31.581  28.790  1.00  0.00     0.039 C 
ATOM     10  G   UNL     1      -9.866  32.677  26.632  1.00  0.00     0.000 G0
ENDBRANCH   6   7
ENDBRANCH   5   6
ENDBRANCH   3   5
ENDBRANCH   1   3
BRANCH   1  11
ATOM     11  C   UNL     1      -9.079  33.114  23.681  1.00  0.00     0.087 C 
BRANCH  11  12
ATOM     12  C   UNL     1      -8.202  33.764  24.786  1.00  0.00     0.066 C 
BRANCH  12  13
ATOM     13  C   UNL     1      -8.696  33.583  26.226  1.00  0.00     0.140 C 
ATOM     14  O   UNL     1      -8.112  34.197  27.107  1.00  0.00    -0.299 OA
BRANCH  13  15
ATOM     15  C   UNL     1      -9.860  32.705  26.639  1.00  0.00     0.106 CG0
ATOM     16  G   UNL     1      -9.375  31.463  27.374  1.00  0.00     0.000 G0
ENDBRANCH  13  15
ENDBRANCH  12  13
BRANCH  12  17
ATOM     17  C   UNL     1      -7.953  35.271  24.444  1.00  0.00    -0.006 C 
ATOM     18  C   UNL     1      -9.040  36.195  25.022  1.00  0.00     0.008 C 
ATOM     19  C   UNL     1      -7.787  35.532  22.937  1.00  0.00     0.008 C 
ENDBRANCH  12  17
ENDBRANCH  11  12
ENDBRANCH   1  11
TORSDOF 1
ENDMDL
MODEL 4
REMARK VINA RESULT:    -4.846      1.537      2.353
REMARK INTER + INTRA:          -7.301
REMARK INTER:                  -7.216
REMARK INTRA:                  -0.086
REMARK UNBOUND:                 0.095
REMARK SMILES CC1=CCC[C@@H](C)C(=O)C[C@@H](C(C)C)C(=O)C1
REMARK SMILES IDX 8 1 9 2 6 3 7 4 5 5 4 6 3 7 2 8 1 9 10 11 11 12 15 13 16 14
REMARK SMILES IDX 17 15 12 17 13 18 14 19
REMARK H PARENT
REMARK Flexibility Score: 70.00
ROOT
ATOM      1  C   UNL     1      -8.646  34.436  24.057  1.00  0.00     0.136 C 
ATOM      2  O   UNL     1      -8.451  35.528  24.575  1.00  0.00    -0.299 OA
ENDROOT
BRANCH   1   3
ATOM      3  C   UNL     1      -8.194  34.204  22.623  1.00  0.00     0.053 C 
ATOM      4  C   UNL     1      -7.641  35.492  21.995  1.00  0.00     0.016 C 
BRANCH   3   5
ATOM      5  C   UNL     1      -9.306  33.591  21.734  1.00  0.00     0.015 C 
BRANCH   5   6
ATOM      6  C   UNL     1      -9.098  32.102  21.366  1.00  0.00     0.028 C 
BRANCH   6   7
ATOM      7  C   UNL     1      -7.742  31.588  21.785  1.00  0.00    -0.028 C 
ATOM      8  C   UNL     1      -7.500  30.836  22.887  1.00  0.00    -0.070 CG0
ATOM      9  C   UNL     1      -6.084  30.374  23.128  1.00  0.00     0.039 C 
ATOM     10  G   UNL     1      -8.568  30.474  23.910  1.00  0.00     0.000 G0
ENDBRANCH   6   7
ENDBRANCH   5   6
ENDBRANCH   3   5
ENDBRANCH   1   3
BRANCH   1  11
ATOM     11  C   UNL     1      -9.254  33.352  24.919  1.00  0.00     0.087 C 
BRANCH  11  12
ATOM     12  C   UNL     1      -8.259  32.466  25.718  1.00  0.00     0.066 C 
BRANCH  12  13
ATOM     13  C   UNL     1      -8.185  30.994  25.298  1.00  0.00     0.140 C 
ATOM     14  O   UNL     1      -7.796  30.185  26.128  1.00  0.00    -0.299 OA
BRANCH  13  15
ATOM     15  C   UNL     1      -8.568  30.463  23.931  1.00  0.00     0.106 CG0
ATOM     16  G   UNL     1      -7.509  30.808  22.893  1.00  0.00     0.000 G0
ENDBRANCH  13  15
ENDBRANCH  12  13
BRANCH  12  17
ATOM     17  C   UNL     1      -8.530  32.618  27.252  1.00  0.00    -0.006 C 
ATOM     18  C   UNL     1      -9.926  32.112  27.657  1.00  0.00     0.008 C 
ATOM     19  C   UNL     1      -8.320  34.053  27.767  1.00  0.00     0.008 C 
ENDBRANCH  12  17
ENDBRANCH  11  12
ENDBRANCH   1  11
TORSDOF 1
ENDMDL
MODEL 5
REMARK VINA RESULT:    -4.846      1.991      4.328
REMARK INTER + INTRA:          -7.301
REMARK INTER:                  -7.404
REMARK INTRA:                   0.102
REMARK UNBOUND:                 0.095
REMARK SMILES CC1=CCC[C@@H](C)C(=O)C[C@@H](C(C)C)C(=O)C1
REMARK SMILES IDX 8 1 9 2 6 3 7 4 5 5 4 6 3 7 2 8 1 9 10 11 11 12 15 13 16 14
REMARK SMILES IDX 17 15 12 17 13 18 14 19
REMARK H PARENT
REMARK Flexibility Score: 70.00
ROOT
ATOM      1  C   UNL     1      -8.314  34.120  26.161  1.00  0.00     0.136 C 
ATOM      2  O   UNL     1      -8.062  33.954  27.348  1.00  0.00    -0.299 OA
ENDROOT
BRANCH   1   3
ATOM      3  C   UNL     1      -7.915  35.428  25.493  1.00  0.00     0.053 C 
ATOM      4  C   UNL     1      -9.089  36.418  25.455  1.00  0.00     0.016 C 
BRANCH   3   5
ATOM      5  C   UNL     1      -7.319  35.223  24.077  1.00  0.00     0.015 C 
BRANCH   5   6
ATOM      6  C   UNL     1      -8.348  35.287  22.923  1.00  0.00     0.028 C 
BRANCH   6   7
ATOM      7  C   UNL     1      -7.882  34.544  21.694  1.00  0.00    -0.028 C 
ATOM      8  C   UNL     1      -8.113  33.231  21.443  1.00  0.00    -0.070 CG0
ATOM      9  C   UNL     1      -7.607  32.664  20.140  1.00  0.00     0.039 C 
ATOM     10  G   UNL     1      -8.810  32.297  22.422  1.00  0.00     0.000 G0
ENDBRANCH   6   7
ENDBRANCH   5   6
ENDBRANCH   3   5
ENDBRANCH   1   3
BRANCH   1  11
ATOM     11  C   UNL     1      -8.937  32.964  25.410  1.00  0.00     0.087 C 
BRANCH  11  12
ATOM     12  C   UNL     1      -7.967  31.851  24.927  1.00  0.00     0.066 C 
BRANCH  12  13
ATOM     13  C   UNL     1      -7.879  31.650  23.410  1.00  0.00     0.140 C 
ATOM     14  O   UNL     1      -6.984  30.936  22.983  1.00  0.00    -0.299 OA
BRANCH  13  15
ATOM     15  C   UNL     1      -8.826  32.264  22.399  1.00  0.00     0.106 CG0
ATOM     16  G   UNL     1      -8.092  33.228  21.476  1.00  0.00     0.000 G0
ENDBRANCH  13  15
ENDBRANCH  12  13
BRANCH  12  17
ATOM     17  C   UNL     1      -8.286  30.512  25.672  1.00  0.00    -0.006 C 
ATOM     18  C   UNL     1      -9.695  29.982  25.355  1.00  0.00     0.008 C 
ATOM     19  C   UNL     1      -8.087  30.603  27.196  1.00  0.00     0.008 C 
ENDBRANCH  12  17
ENDBRANCH  11  12
ENDBRANCH   1  11
TORSDOF 1
ENDMDL
MODEL 6
REMARK VINA RESULT:    -4.774      1.488      3.809
REMARK INTER + INTRA:          -7.192
REMARK INTER:                  -7.209
REMARK INTRA:                   0.017
REMARK UNBOUND:                 0.095
REMARK SMILES CC1=CCC[C@@H](C)C(=O)C[C@@H](C(C)C)C(=O)C1
REMARK SMILES IDX 8 1 9 2 6 3 7 4 5 5 4 6 3 7 2 8 1 9 10 11 11 12 15 13 16 14
REMARK SMILES IDX 17 15 12 17 13 18 14 19
REMARK H PARENT
REMARK Flexibility Score: 70.00
ROOT
ATOM      1  C   UNL     1      -9.085  31.964  25.497  1.00  0.00     0.136 C 
ATOM      2  O   UNL     1     -10.122  32.266  26.073  1.00  0.00    -0.299 OA
ENDROOT
BRANCH   1   3
ATOM      3  C   UNL     1      -8.906  30.541  24.988  1.00  0.00     0.053 C 
ATOM      4  C   UNL     1      -9.415  29.513  26.010  1.00  0.00     0.016 C 
BRANCH   3   5
ATOM      5  C   UNL     1      -7.446  30.229  24.573  1.00  0.00     0.015 C 
BRANCH   5   6
ATOM      6  C   UNL     1      -7.231  30.017  23.056  1.00  0.00     0.028 C 
BRANCH   6   7
ATOM      7  C   UNL     1      -8.338  30.623  22.227  1.00  0.00    -0.028 C 
ATOM      8  C   UNL     1      -8.386  31.913  21.814  1.00  0.00    -0.070 CG0
ATOM      9  C   UNL     1      -9.551  32.335  20.954  1.00  0.00     0.039 C 
ATOM     10  G   UNL     1      -7.354  32.961  22.208  1.00  0.00     0.000 G0
ENDBRANCH   6   7
ENDBRANCH   5   6
ENDBRANCH   3   5
ENDBRANCH   1   3
BRANCH   1  11
ATOM     11  C   UNL     1      -8.074  33.063  25.252  1.00  0.00     0.087 C 
BRANCH  11  12
ATOM     12  C   UNL     1      -8.527  34.221  24.320  1.00  0.00     0.066 C 
BRANCH  12  13
ATOM     13  C   UNL     1      -7.995  34.173  22.884  1.00  0.00     0.140 C 
ATOM     14  O   UNL     1      -8.094  35.187  22.208  1.00  0.00    -0.299 OA
BRANCH  13  15
ATOM     15  C   UNL     1      -7.345  32.965  22.241  1.00  0.00     0.106 CG0
ATOM     16  G   UNL     1      -8.390  31.937  21.829  1.00  0.00     0.000 G0
ENDBRANCH  13  15
ENDBRANCH  12  13
BRANCH  12  17
ATOM     17  C   UNL     1      -8.228  35.597  25.004  1.00  0.00    -0.006 C 
ATOM     18  C   UNL     1      -7.868  35.449  26.493  1.00  0.00     0.008 C 
ATOM     19  C   UNL     1      -9.367  36.619  24.836  1.00  0.00     0.008 C 
ENDBRANCH  12  17
ENDBRANCH  11  12
ENDBRANCH   1  11
TORSDOF 1
ENDMDL
MODEL 7
REMARK VINA RESULT:    -4.698      1.811      4.481
REMARK INTER + INTRA:          -7.075
REMARK INTER:                  -7.580
REMARK INTRA:                   0.505
REMARK UNBOUND:                 0.095
REMARK SMILES CC1=CCC[C@@H](C)C(=O)C[C@@H](C(C)C)C(=O)C1
REMARK SMILES IDX 8 1 9 2 6 3 7 4 5 5 4 6 3 7 2 8 1 9 10 11 11 12 15 13 16 14
REMARK SMILES IDX 17 15 12 17 13 18 14 19
REMARK H PARENT
REMARK Flexibility Score: 70.00
ROOT
ATOM      1  C   UNL     1      -8.015  30.402  22.806  1.00  0.00     0.136 C 
ATOM      2  O   UNL     1      -8.628  29.911  21.867  1.00  0.00    -0.299 OA
ENDROOT
BRANCH   1   3
ATOM      3  C   UNL     1      -8.108  29.747  24.176  1.00  0.00     0.053 C 
ATOM      4  C   UNL     1      -9.562  29.407  24.537  1.00  0.00     0.016 C 
BRANCH   3   5
ATOM      5  C   UNL     1      -7.445  30.592  25.294  1.00  0.00     0.015 C 
BRANCH   5   6
ATOM      6  C   UNL     1      -8.436  31.302  26.247  1.00  0.00     0.028 C 
BRANCH   6   7
ATOM      7  C   UNL     1      -8.259  32.801  26.248  1.00  0.00    -0.028 C 
ATOM      8  C   UNL     1      -8.935  33.668  25.453  1.00  0.00    -0.070 CG0
ATOM      9  C   UNL     1      -8.659  35.141  25.621  1.00  0.00     0.039 C 
ATOM     10  G   UNL     1      -9.917  33.228  24.375  1.00  0.00     0.000 G0
ENDBRANCH   6   7
ENDBRANCH   5   6
ENDBRANCH   3   5
ENDBRANCH   1   3
BRANCH   1  11
ATOM     11  C   UNL     1      -7.127  31.593  22.517  1.00  0.00     0.087 C 
BRANCH  11  12
ATOM     12  C   UNL     1      -7.724  32.992  22.834  1.00  0.00     0.066 C 
BRANCH  12  13
ATOM     13  C   UNL     1      -9.243  33.042  23.035  1.00  0.00     0.140 C 
ATOM     14  O   UNL     1      -9.951  32.918  22.047  1.00  0.00    -0.299 OA
BRANCH  13  15
ATOM     15  C   UNL     1      -9.934  33.226  24.371  1.00  0.00     0.106 CG0
ATOM     16  G   UNL     1      -8.943  33.651  25.446  1.00  0.00     0.000 G0
ENDBRANCH  13  15
ENDBRANCH  12  13
BRANCH  12  17
ATOM     17  C   UNL     1      -7.247  34.025  21.759  1.00  0.00    -0.006 C 
ATOM     18  C   UNL     1      -7.853  35.423  21.976  1.00  0.00     0.008 C 
ATOM     19  C   UNL     1      -7.501  33.559  20.314  1.00  0.00     0.008 C 
ENDBRANCH  12  17
ENDBRANCH  11  12
ENDBRANCH   1  11
TORSDOF 1
ENDMDL
MODEL 8
REMARK VINA RESULT:    -4.418      1.440      3.837
REMARK INTER + INTRA:          -6.647
REMARK INTER:                  -7.059
REMARK INTRA:                   0.412
REMARK UNBOUND:                 0.095
REMARK SMILES CC1=CCC[C@@H](C)C(=O)C[C@@H](C(C)C)C(=O)C1
REMARK SMILES IDX 8 1 9 2 6 3 7 4 5 5 4 6 3 7 2 8 1 9 10 11 11 12 15 13 16 14
REMARK SMILES IDX 17 15 12 17 13 18 14 19
REMARK H PARENT
REMARK Flexibility Score: 70.00
ROOT
ATOM      1  C   UNL     1      -8.025  34.813  23.570  1.00  0.00     0.136 C 
ATOM      2  O   UNL     1      -8.186  35.517  22.582  1.00  0.00    -0.299 OA
ENDROOT
BRANCH   1   3
ATOM      3  C   UNL     1      -8.604  35.261  24.904  1.00  0.00     0.053 C 
ATOM      4  C   UNL     1      -7.513  35.835  25.822  1.00  0.00     0.016 C 
BRANCH   3   5
ATOM      5  C   UNL     1      -9.396  34.140  25.624  1.00  0.00     0.015 C 
BRANCH   5   6
ATOM      6  C   UNL     1      -8.625  33.421  26.756  1.00  0.00     0.028 C 
BRANCH   6   7
ATOM      7  C   UNL     1      -9.085  31.996  26.951  1.00  0.00    -0.028 C 
ATOM      8  C   UNL     1      -8.559  30.914  26.324  1.00  0.00    -0.070 CG0
ATOM      9  C   UNL     1      -9.116  29.557  26.674  1.00  0.00     0.039 C 
ATOM     10  G   UNL     1      -7.474  31.005  25.259  1.00  0.00     0.000 G0
ENDBRANCH   6   7
ENDBRANCH   5   6
ENDBRANCH   3   5
ENDBRANCH   1   3
BRANCH   1  11
ATOM     11  C   UNL     1      -7.326  33.485  23.376  1.00  0.00     0.087 C 
BRANCH  11  12
ATOM     12  C   UNL     1      -8.229  32.279  22.995  1.00  0.00     0.066 C 
BRANCH  12  13
ATOM     13  C   UNL     1      -8.068  31.022  23.857  1.00  0.00     0.140 C 
ATOM     14  O   UNL     1      -8.432  29.957  23.381  1.00  0.00    -0.299 OA
BRANCH  13  15
ATOM     15  C   UNL     1      -7.483  31.000  25.255  1.00  0.00     0.106 CG0
ATOM     16  G   UNL     1      -8.580  30.900  26.306  1.00  0.00     0.000 G0
ENDBRANCH  13  15
ENDBRANCH  12  13
BRANCH  12  17
ATOM     17  C   UNL     1      -8.069  31.960  21.471  1.00  0.00    -0.006 C 
ATOM     18  C   UNL     1      -7.364  33.092  20.702  1.00  0.00     0.008 C 
ATOM     19  C   UNL     1      -9.399  31.605  20.782  1.00  0.00     0.008 C 
ENDBRANCH  12  17
ENDBRANCH  11  12
ENDBRANCH   1  11
TORSDOF 1
ENDMDL
MODEL 9
REMARK VINA RESULT:    -4.367      1.777      3.944
REMARK INTER + INTRA:          -6.570
REMARK INTER:                  -7.050
REMARK INTRA:                   0.481
REMARK UNBOUND:                 0.095
REMARK SMILES CC1=CCC[C@@H](C)C(=O)C[C@@H](C(C)C)C(=O)C1
REMARK SMILES IDX 8 1 9 2 6 3 7 4 5 5 4 6 3 7 2 8 1 9 10 11 11 12 15 13 16 14
REMARK SMILES IDX 17 15 12 17 13 18 14 19
REMARK H PARENT
REMARK Flexibility Score: 70.00
ROOT
ATOM      1  C   UNL     1      -9.082  33.972  22.861  1.00  0.00     0.136 C 
ATOM      2  O   UNL     1      -9.071  33.872  21.641  1.00  0.00    -0.299 OA
ENDROOT
BRANCH   1   3
ATOM      3  C   UNL     1      -8.340  35.128  23.518  1.00  0.00     0.053 C 
ATOM      4  C   UNL     1      -6.827  34.863  23.570  1.00  0.00     0.016 C 
BRANCH   3   5
ATOM      5  C   UNL     1      -8.889  35.474  24.925  1.00  0.00     0.015 C 
BRANCH   5   6
ATOM      6  C   UNL     1      -7.933  35.141  26.096  1.00  0.00     0.028 C 
BRANCH   6   7
ATOM      7  C   UNL     1      -8.563  34.216  27.109  1.00  0.00    -0.028 C 
ATOM      8  C   UNL     1      -8.481  32.863  27.086  1.00  0.00    -0.070 CG0
ATOM      9  C   UNL     1      -9.139  32.097  28.207  1.00  0.00     0.039 C 
ATOM     10  G   UNL     1      -7.802  32.080  25.970  1.00  0.00     0.000 G0
ENDBRANCH   6   7
ENDBRANCH   5   6
ENDBRANCH   3   5
ENDBRANCH   1   3
BRANCH   1  11
ATOM     11  C   UNL     1      -9.915  32.976  23.638  1.00  0.00     0.087 C 
BRANCH  11  12
ATOM     12  C   UNL     1      -9.312  31.554  23.806  1.00  0.00     0.066 C 
BRANCH  12  13
ATOM     13  C   UNL     1      -8.762  31.219  25.197  1.00  0.00     0.140 C 
ATOM     14  O   UNL     1      -9.133  30.177  25.717  1.00  0.00    -0.299 OA
BRANCH  13  15
ATOM     15  C   UNL     1      -7.786  32.080  25.973  1.00  0.00     0.106 CG0
ATOM     16  G   UNL     1      -8.497  32.863  27.068  1.00  0.00     0.000 G0
ENDBRANCH  13  15
ENDBRANCH  12  13
BRANCH  12  17
ATOM     17  C   UNL     1      -8.250  31.296  22.685  1.00  0.00    -0.006 C 
ATOM     18  C   UNL     1      -8.647  30.137  21.753  1.00  0.00     0.008 C 
ATOM     19  C   UNL     1      -6.831  31.068  23.235  1.00  0.00     0.008 C 
ENDBRANCH  12  17
ENDBRANCH  11  12
ENDBRANCH   1  11
TORSDOF 1
ENDMDL
