MODEL 1
REMARK VINA RESULT:    -4.985      0.000      0.000
REMARK INTER + INTRA:          -8.029
REMARK INTER:                  -7.316
REMARK INTRA:                  -0.713
REMARK UNBOUND:                -0.713
REMARK SMILES O=C([O-])CCCCCCCC(=O)[O-]
REMARK SMILES IDX 7 1 6 2 5 3 4 4 2 5 1 6 3 7 8 8 9 9 10 10 11 11 12 12 13 13
REMARK H PARENT
REMARK Flexibility Score: inf
ROOT
ATOM      1  C   UNL     1       9.256 -13.586  38.093  1.00  0.00     0.000 C 
ENDROOT
BRANCH   1   2
ATOM      2  C   UNL     1      10.108 -14.864  38.001  1.00  0.00     0.000 C 
BRANCH   2   3
ATOM      3  C   UNL     1      10.774 -15.044  36.626  1.00  0.00     0.006 C 
BRANCH   3   4
ATOM      4  C   UNL     1      11.546 -13.792  36.189  1.00  0.00     0.053 C 
BRANCH   4   5
ATOM      5  C   UNL     1      12.756 -13.561  37.042  1.00  0.00     0.041 C 
ATOM      6  O   UNL     1      13.542 -14.511  37.295  1.00  0.00    -0.550 OA
ATOM      7  O   UNL     1      12.994 -12.305  37.587  1.00  0.00    -0.550 OA
ENDBRANCH   4   5
ENDBRANCH   3   4
ENDBRANCH   2   3
ENDBRANCH   1   2
BRANCH   1   8
ATOM      8  C   UNL     1       7.736 -13.810  37.980  1.00  0.00     0.000 C 
BRANCH   8   9
ATOM      9  C   UNL     1       7.183 -13.467  36.585  1.00  0.00     0.006 C 
BRANCH   9  10
ATOM     10  C   UNL     1       7.916 -12.279  35.949  1.00  0.00     0.053 C 
BRANCH  10  11
ATOM     11  C   UNL     1       8.342 -12.578  34.544  1.00  0.00     0.041 C 
ATOM     12  O   UNL     1       9.359 -12.017  34.057  1.00  0.00    -0.550 OA
ATOM     13  O   UNL     1       7.596 -13.451  33.762  1.00  0.00    -0.550 OA
ENDBRANCH  10  11
ENDBRANCH   9  10
ENDBRANCH   8   9
ENDBRANCH   1   8
TORSDOF 8
ENDMDL
MODEL 2
REMARK VINA RESULT:    -4.896      1.785      4.705
REMARK INTER + INTRA:          -7.899
REMARK INTER:                  -7.114
REMARK INTRA:                  -0.786
REMARK UNBOUND:                -0.713
REMARK SMILES O=C([O-])CCCCCCCC(=O)[O-]
REMARK SMILES IDX 7 1 6 2 5 3 4 4 2 5 1 6 3 7 8 8 9 9 10 10 11 11 12 12 13 13
REMARK H PARENT
REMARK Flexibility Score: inf
ROOT
ATOM      1  C   UNL     1      11.340 -14.992  36.970  1.00  0.00     0.000 C 
ENDROOT
BRANCH   1   2
ATOM      2  C   UNL     1      10.229 -14.798  38.018  1.00  0.00     0.000 C 
BRANCH   2   3
ATOM      3  C   UNL     1       9.049 -13.962  37.495  1.00  0.00     0.006 C 
BRANCH   3   4
ATOM      4  C   UNL     1       9.041 -13.866  35.963  1.00  0.00     0.053 C 
BRANCH   4   5
ATOM      5  C   UNL     1       7.757 -13.286  35.452  1.00  0.00     0.041 C 
ATOM      6  O   UNL     1       7.537 -13.232  34.213  1.00  0.00    -0.550 OA
ATOM      7  O   UNL     1       6.821 -12.775  36.342  1.00  0.00    -0.550 OA
ENDBRANCH   4   5
ENDBRANCH   3   4
ENDBRANCH   2   3
ENDBRANCH   1   2
BRANCH   1   8
ATOM      8  C   UNL     1      12.658 -14.258  37.279  1.00  0.00     0.000 C 
BRANCH   8   9
ATOM      9  C   UNL     1      12.848 -12.986  36.433  1.00  0.00     0.006 C 
BRANCH   9  10
ATOM     10  C   UNL     1      12.858 -11.715  37.295  1.00  0.00     0.053 C 
BRANCH  10  11
ATOM     11  C   UNL     1      11.470 -11.226  37.576  1.00  0.00     0.041 C 
ATOM     12  O   UNL     1      11.010 -11.265  38.747  1.00  0.00    -0.550 OA
ATOM     13  O   UNL     1      10.673 -10.760  36.538  1.00  0.00    -0.550 OA
ENDBRANCH  10  11
ENDBRANCH   9  10
ENDBRANCH   8   9
ENDBRANCH   1   8
TORSDOF 8
ENDMDL
MODEL 3
REMARK VINA RESULT:    -4.886      1.812      2.658
REMARK INTER + INTRA:          -7.885
REMARK INTER:                  -6.959
REMARK INTRA:                  -0.926
REMARK UNBOUND:                -0.713
REMARK SMILES O=C([O-])CCCCCCCC(=O)[O-]
REMARK SMILES IDX 7 1 6 2 5 3 4 4 2 5 1 6 3 7 8 8 9 9 10 10 11 11 12 12 13 13
REMARK H PARENT
REMARK Flexibility Score: inf
ROOT
ATOM      1  C   UNL     1      11.127 -14.718  36.947  1.00  0.00     0.000 C 
ENDROOT
BRANCH   1   2
ATOM      2  C   UNL     1      12.544 -14.260  37.334  1.00  0.00     0.000 C 
BRANCH   2   3
ATOM      3  C   UNL     1      12.844 -12.811  36.912  1.00  0.00     0.006 C 
BRANCH   3   4
ATOM      4  C   UNL     1      12.367 -12.514  35.484  1.00  0.00     0.053 C 
BRANCH   4   5
ATOM      5  C   UNL     1      11.545 -11.262  35.424  1.00  0.00     0.041 C 
ATOM      6  O   UNL     1      11.597 -10.519  34.409  1.00  0.00    -0.550 OA
ATOM      7  O   UNL     1      10.749 -10.900  36.504  1.00  0.00    -0.550 OA
ENDBRANCH   4   5
ENDBRANCH   3   4
ENDBRANCH   2   3
ENDBRANCH   1   2
BRANCH   1   8
ATOM      8  C   UNL     1      10.017 -14.288  37.923  1.00  0.00     0.000 C 
BRANCH   8   9
ATOM      9  C   UNL     1       8.759 -13.764  37.207  1.00  0.00     0.006 C 
BRANCH   9  10
ATOM     10  C   UNL     1       8.860 -13.909  35.682  1.00  0.00     0.053 C 
BRANCH  10  11
ATOM     11  C   UNL     1       8.176 -12.782  34.972  1.00  0.00     0.041 C 
ATOM     12  O   UNL     1       7.192 -12.203  35.504  1.00  0.00    -0.550 OA
ATOM     13  O   UNL     1       8.602 -12.394  33.708  1.00  0.00    -0.550 OA
ENDBRANCH  10  11
ENDBRANCH   9  10
ENDBRANCH   8   9
ENDBRANCH   1   8
TORSDOF 8
ENDMDL
MODEL 4
REMARK VINA RESULT:    -4.877      2.606      4.838
REMARK INTER + INTRA:          -7.870
REMARK INTER:                  -6.937
REMARK INTRA:                  -0.934
REMARK UNBOUND:                -0.713
REMARK SMILES O=C([O-])CCCCCCCC(=O)[O-]
REMARK SMILES IDX 7 1 6 2 5 3 4 4 2 5 1 6 3 7 8 8 9 9 10 10 11 11 12 12 13 13
REMARK H PARENT
REMARK Flexibility Score: inf
ROOT
ATOM      1  C   UNL     1      12.596 -14.182  36.989  1.00  0.00     0.000 C 
ENDROOT
BRANCH   1   2
ATOM      2  C   UNL     1      11.386 -15.122  36.834  1.00  0.00     0.000 C 
BRANCH   2   3
ATOM      3  C   UNL     1      10.043 -14.373  36.816  1.00  0.00     0.006 C 
BRANCH   3   4
ATOM      4  C   UNL     1       9.806 -13.577  38.106  1.00  0.00     0.053 C 
BRANCH   4   5
ATOM      5  C   UNL     1       9.127 -12.269  37.833  1.00  0.00     0.041 C 
ATOM      6  O   UNL     1       9.307 -11.681  36.734  1.00  0.00    -0.550 OA
ATOM      7  O   UNL     1       8.326 -11.684  38.806  1.00  0.00    -0.550 OA
ENDBRANCH   4   5
ENDBRANCH   3   4
ENDBRANCH   2   3
ENDBRANCH   1   2
BRANCH   1   8
ATOM      8  C   UNL     1      12.819 -13.213  35.813  1.00  0.00     0.000 C 
BRANCH   8   9
ATOM      9  C   UNL     1      12.857 -11.738  36.252  1.00  0.00     0.006 C 
BRANCH   9  10
ATOM     10  C   UNL     1      13.000 -11.591  37.773  1.00  0.00     0.053 C 
BRANCH  10  11
ATOM     11  C   UNL     1      12.214 -10.428  38.293  1.00  0.00     0.041 C 
ATOM     12  O   UNL     1      12.079  -9.390  37.593  1.00  0.00    -0.550 OA
ATOM     13  O   UNL     1      11.659 -10.475  39.566  1.00  0.00    -0.550 OA
ENDBRANCH  10  11
ENDBRANCH   9  10
ENDBRANCH   8   9
ENDBRANCH   1   8
TORSDOF 8
ENDMDL
MODEL 5
REMARK VINA RESULT:    -4.853      1.914      4.938
REMARK INTER + INTRA:          -7.836
REMARK INTER:                  -7.278
REMARK INTRA:                  -0.558
REMARK UNBOUND:                -0.713
REMARK SMILES O=C([O-])CCCCCCCC(=O)[O-]
REMARK SMILES IDX 7 1 6 2 5 3 4 4 2 5 1 6 3 7 8 8 9 9 10 10 11 11 12 12 13 13
REMARK H PARENT
REMARK Flexibility Score: inf
ROOT
ATOM      1  C   UNL     1      11.373 -14.983  36.965  1.00  0.00     0.000 C 
ENDROOT
BRANCH   1   2
ATOM      2  C   UNL     1      10.252 -14.761  37.995  1.00  0.00     0.000 C 
BRANCH   2   3
ATOM      3  C   UNL     1       9.294 -13.622  37.605  1.00  0.00     0.006 C 
BRANCH   3   4
ATOM      4  C   UNL     1       9.244 -13.402  36.087  1.00  0.00     0.053 C 
BRANCH   4   5
ATOM      5  C   UNL     1       7.835 -13.349  35.581  1.00  0.00     0.041 C 
ATOM      6  O   UNL     1       7.604 -13.408  34.344  1.00  0.00    -0.550 OA
ATOM      7  O   UNL     1       6.780 -13.200  36.473  1.00  0.00    -0.550 OA
ENDBRANCH   4   5
ENDBRANCH   3   4
ENDBRANCH   2   3
ENDBRANCH   1   2
BRANCH   1   8
ATOM      8  C   UNL     1      12.747 -14.418  37.369  1.00  0.00     0.000 C 
BRANCH   8   9
ATOM      9  C   UNL     1      12.891 -12.916  37.063  1.00  0.00     0.006 C 
BRANCH   9  10
ATOM     10  C   UNL     1      12.862 -12.629  35.555  1.00  0.00     0.053 C 
BRANCH  10  11
ATOM     11  C   UNL     1      13.515 -11.321  35.229  1.00  0.00     0.041 C 
ATOM     12  O   UNL     1      14.113 -11.168  34.131  1.00  0.00    -0.550 OA
ATOM     13  O   UNL     1      13.494 -10.283  36.151  1.00  0.00    -0.550 OA
ENDBRANCH  10  11
ENDBRANCH   9  10
ENDBRANCH   8   9
ENDBRANCH   1   8
TORSDOF 8
ENDMDL
MODEL 6
REMARK VINA RESULT:    -4.836      1.901      2.673
REMARK INTER + INTRA:          -7.810
REMARK INTER:                  -7.248
REMARK INTRA:                  -0.562
REMARK UNBOUND:                -0.713
REMARK SMILES O=C([O-])CCCCCCCC(=O)[O-]
REMARK SMILES IDX 7 1 6 2 5 3 4 4 2 5 1 6 3 7 8 8 9 9 10 10 11 11 12 12 13 13
REMARK H PARENT
REMARK Flexibility Score: inf
ROOT
ATOM      1  C   UNL     1      11.392 -14.880  36.946  1.00  0.00     0.000 C 
ENDROOT
BRANCH   1   2
ATOM      2  C   UNL     1      12.760 -14.317  37.374  1.00  0.00     0.000 C 
BRANCH   2   3
ATOM      3  C   UNL     1      12.873 -12.797  37.172  1.00  0.00     0.006 C 
BRANCH   3   4
ATOM      4  C   UNL     1      12.764 -12.398  35.694  1.00  0.00     0.053 C 
BRANCH   4   5
ATOM      5  C   UNL     1      13.612 -11.204  35.379  1.00  0.00     0.041 C 
ATOM      6  O   UNL     1      14.375 -11.217  34.377  1.00  0.00    -0.550 OA
ATOM      7  O   UNL     1      13.586 -10.092  36.211  1.00  0.00    -0.550 OA
ENDBRANCH   4   5
ENDBRANCH   3   4
ENDBRANCH   2   3
ENDBRANCH   1   2
BRANCH   1   8
ATOM      8  C   UNL     1      10.252 -14.649  37.955  1.00  0.00     0.000 C 
BRANCH   8   9
ATOM      9  C   UNL     1       9.181 -13.673  37.435  1.00  0.00     0.006 C 
BRANCH   9  10
ATOM     10  C   UNL     1       9.179 -13.580  35.903  1.00  0.00     0.053 C 
BRANCH  10  11
ATOM     11  C   UNL     1       7.851 -13.132  35.377  1.00  0.00     0.041 C 
ATOM     12  O   UNL     1       7.625 -13.140  34.138  1.00  0.00    -0.550 OA
ATOM     13  O   UNL     1       6.874 -12.673  36.251  1.00  0.00    -0.550 OA
ENDBRANCH  10  11
ENDBRANCH   9  10
ENDBRANCH   8   9
ENDBRANCH   1   8
TORSDOF 8
ENDMDL
MODEL 7
REMARK VINA RESULT:    -4.825      2.859      4.537
REMARK INTER + INTRA:          -7.795
REMARK INTER:                  -7.199
REMARK INTRA:                  -0.596
REMARK UNBOUND:                -0.713
REMARK SMILES O=C([O-])CCCCCCCC(=O)[O-]
REMARK SMILES IDX 7 1 6 2 5 3 4 4 2 5 1 6 3 7 8 8 9 9 10 10 11 11 12 12 13 13
REMARK H PARENT
REMARK Flexibility Score: inf
ROOT
ATOM      1  C   UNL     1      13.163 -13.041  35.613  1.00  0.00     0.000 C 
ENDROOT
BRANCH   1   2
ATOM      2  C   UNL     1      12.899 -11.532  35.465  1.00  0.00     0.000 C 
BRANCH   2   3
ATOM      3  C   UNL     1      13.602 -10.691  36.544  1.00  0.00     0.006 C 
BRANCH   3   4
ATOM      4  C   UNL     1      12.623  -9.788  37.306  1.00  0.00     0.053 C 
BRANCH   4   5
ATOM      5  C   UNL     1      12.300 -10.341  38.660  1.00  0.00     0.041 C 
ATOM      6  O   UNL     1      13.107 -10.188  39.615  1.00  0.00    -0.550 OA
ATOM      7  O   UNL     1      11.124 -11.053  38.859  1.00  0.00    -0.550 OA
ENDBRANCH   4   5
ENDBRANCH   3   4
ENDBRANCH   2   3
ENDBRANCH   1   2
BRANCH   1   8
ATOM      8  C   UNL     1      12.819 -13.628  36.994  1.00  0.00     0.000 C 
BRANCH   8   9
ATOM      9  C   UNL     1      11.701 -14.685  36.935  1.00  0.00     0.006 C 
BRANCH   9  10
ATOM     10  C   UNL     1      10.308 -14.048  36.834  1.00  0.00     0.053 C 
BRANCH  10  11
ATOM     11  C   UNL     1       9.511 -14.258  38.084  1.00  0.00     0.041 C 
ATOM     12  O   UNL     1       8.703 -13.375  38.476  1.00  0.00    -0.550 OA
ATOM     13  O   UNL     1       9.687 -15.413  38.836  1.00  0.00    -0.550 OA
ENDBRANCH  10  11
ENDBRANCH   9  10
ENDBRANCH   8   9
ENDBRANCH   1   8
TORSDOF 8
ENDMDL
MODEL 8
REMARK VINA RESULT:    -4.824      2.426      3.690
REMARK INTER + INTRA:          -7.794
REMARK INTER:                  -6.881
REMARK INTRA:                  -0.912
REMARK UNBOUND:                -0.713
REMARK SMILES O=C([O-])CCCCCCCC(=O)[O-]
REMARK SMILES IDX 7 1 6 2 5 3 4 4 2 5 1 6 3 7 8 8 9 9 10 10 11 11 12 12 13 13
REMARK H PARENT
REMARK Flexibility Score: inf
ROOT
ATOM      1  C   UNL     1      12.636 -14.165  36.930  1.00  0.00     0.000 C 
ENDROOT
BRANCH   1   2
ATOM      2  C   UNL     1      12.829 -13.181  35.762  1.00  0.00     0.000 C 
BRANCH   2   3
ATOM      3  C   UNL     1      13.041 -11.730  36.229  1.00  0.00     0.006 C 
BRANCH   3   4
ATOM      4  C   UNL     1      12.895 -11.583  37.749  1.00  0.00     0.053 C 
BRANCH   4   5
ATOM      5  C   UNL     1      12.213 -10.301  38.118  1.00  0.00     0.041 C 
ATOM      6  O   UNL     1      12.132  -9.364  37.281  1.00  0.00    -0.550 OA
ATOM      7  O   UNL     1      11.697 -10.130  39.397  1.00  0.00    -0.550 OA
ENDBRANCH   4   5
ENDBRANCH   3   4
ENDBRANCH   2   3
ENDBRANCH   1   2
BRANCH   1   8
ATOM      8  C   UNL     1      11.403 -15.080  36.809  1.00  0.00     0.000 C 
BRANCH   8   9
ATOM      9  C   UNL     1      10.238 -14.637  37.712  1.00  0.00     0.006 C 
BRANCH   9  10
ATOM     10  C   UNL     1       9.161 -13.871  36.931  1.00  0.00     0.053 C 
BRANCH  10  11
ATOM     11  C   UNL     1       9.226 -12.398  37.196  1.00  0.00     0.041 C 
ATOM     12  O   UNL     1       9.507 -11.599  36.265  1.00  0.00    -0.550 OA
ATOM     13  O   UNL     1       9.010 -11.912  38.480  1.00  0.00    -0.550 OA
ENDBRANCH  10  11
ENDBRANCH   9  10
ENDBRANCH   8   9
ENDBRANCH   1   8
TORSDOF 8
ENDMDL
MODEL 9
REMARK VINA RESULT:    -4.809      2.464      5.198
REMARK INTER + INTRA:          -7.771
REMARK INTER:                  -7.049
REMARK INTRA:                  -0.722
REMARK UNBOUND:                -0.713
REMARK SMILES O=C([O-])CCCCCCCC(=O)[O-]
REMARK SMILES IDX 7 1 6 2 5 3 4 4 2 5 1 6 3 7 8 8 9 9 10 10 11 11 12 12 13 13
REMARK H PARENT
REMARK Flexibility Score: inf
ROOT
ATOM      1  C   UNL     1      13.105 -12.966  35.509  1.00  0.00     0.000 C 
ENDROOT
BRANCH   1   2
ATOM      2  C   UNL     1      12.747 -13.570  36.878  1.00  0.00     0.000 C 
BRANCH   2   3
ATOM      3  C   UNL     1      11.551 -14.536  36.814  1.00  0.00     0.006 C 
BRANCH   3   4
ATOM      4  C   UNL     1      10.308 -13.965  37.510  1.00  0.00     0.053 C 
BRANCH   4   5
ATOM      5  C   UNL     1       9.432 -13.216  36.553  1.00  0.00     0.041 C 
ATOM      6  O   UNL     1       9.584 -11.977  36.393  1.00  0.00    -0.550 OA
ATOM      7  O   UNL     1       8.425 -13.882  35.864  1.00  0.00    -0.550 OA
ENDBRANCH   4   5
ENDBRANCH   3   4
ENDBRANCH   2   3
ENDBRANCH   1   2
BRANCH   1   8
ATOM      8  C   UNL     1      12.933 -11.439  35.408  1.00  0.00     0.000 C 
BRANCH   8   9
ATOM      9  C   UNL     1      13.603 -10.683  36.570  1.00  0.00     0.006 C 
BRANCH   9  10
ATOM     10  C   UNL     1      12.611  -9.788  37.325  1.00  0.00     0.053 C 
BRANCH  10  11
ATOM     11  C   UNL     1      12.384 -10.271  38.724  1.00  0.00     0.041 C 
ATOM     12  O   UNL     1      13.289 -10.150  39.592  1.00  0.00    -0.550 OA
ATOM     13  O   UNL     1      11.186 -10.887  39.062  1.00  0.00    -0.550 OA
ENDBRANCH  10  11
ENDBRANCH   9  10
ENDBRANCH   8   9
ENDBRANCH   1   8
TORSDOF 8
ENDMDL
