MODEL 1
REMARK VINA RESULT:   102.857      0.000      0.000
REMARK INTER + INTRA:         105.863
REMARK INTER:                 105.863
REMARK INTRA:                   0.000
REMARK UNBOUND:                 0.000
REMARK SMILES CC1(C)CC[C@@]2(C)CC[C@@]3(C)C(=CC[C@@H]4[C@]5(C)CC[C@H](O)C(C)(C)[C@H]5CC[C@@]43C)[C@H]2C1
REMARK SMILES IDX 1 1 2 2 4 3 5 4 6 5 8 6 9 7 10 8 12 9 13 10 14 11 15 12
REMARK SMILES IDX 28 13 27 14 26 15 25 16 16 17 18 18 19 19 20 20 22 21 23 22
REMARK SMILES IDX 24 23 17 24 29 25 30 26 31 27 11 28 7 29 3 30 21 31
REMARK H PARENT 21 32
REMARK Flexibility Score: inf
ROOT
ATOM      1  C   UNL     1     -28.370  36.125  -3.633  1.00  0.00     0.011 C 
ATOM      2  C   UNL     1     -28.967  34.913  -4.382  1.00  0.00    -0.035 C 
ATOM      3  C   UNL     1     -27.926  33.768  -4.371  1.00  0.00     0.007 C 
ATOM      4  C   UNL     1     -28.464  32.463  -4.976  1.00  0.00     0.008 C 
ATOM      5  C   UNL     1     -29.795  31.954  -4.341  1.00  0.00    -0.026 C 
ATOM      6  C   UNL     1     -29.516  31.282  -2.974  1.00  0.00     0.008 C 
ATOM      7  C   UNL     1     -30.794  30.805  -2.241  1.00  0.00     0.012 C 
ATOM      8  C   UNL     1     -31.895  31.906  -2.011  1.00  0.00    -0.006 C 
ATOM      9  C   UNL     1     -32.054  32.624  -3.376  1.00  0.00    -0.064 C 
ATOM     10  C   UNL     1     -33.189  32.550  -4.084  1.00  0.00    -0.027 C 
ATOM     11  C   UNL     1     -34.382  31.751  -3.725  1.00  0.00     0.032 C 
ATOM     12  C   UNL     1     -34.196  30.687  -2.607  1.00  0.00     0.006 C 
ATOM     13  C   UNL     1     -33.288  31.262  -1.436  1.00  0.00    -0.020 C 
ATOM     14  C   UNL     1     -34.165  32.312  -0.669  1.00  0.00     0.008 C 
ATOM     15  C   UNL     1     -35.528  31.783  -0.169  1.00  0.00     0.005 C 
ATOM     16  C   UNL     1     -36.396  31.199  -1.305  1.00  0.00     0.003 C 
ATOM     17  C   UNL     1     -35.629  30.105  -2.148  1.00  0.00    -0.025 C 
ATOM     18  C   UNL     1     -36.530  29.766  -3.389  1.00  0.00     0.010 C 
ATOM     19  C   UNL     1     -37.977  29.370  -3.030  1.00  0.00     0.033 C 
ATOM     20  C   UNL     1     -38.685  30.450  -2.195  1.00  0.00     0.120 C 
ATOM     21  C   UNL     1     -37.887  30.843  -0.904  1.00  0.00    -0.006 C 
ATOM     22  C   UNL     1     -38.001  29.707   0.148  1.00  0.00     0.014 C 
ATOM     23  C   UNL     1     -38.576  32.085  -0.271  1.00  0.00     0.014 C 
ATOM     24  C   UNL     1     -35.408  28.760  -1.378  1.00  0.00     0.012 C 
ATOM     25  C   UNL     1     -32.889  30.146  -0.409  1.00  0.00     0.012 C 
ATOM     26  C   UNL     1     -30.825  33.113  -4.173  1.00  0.00     0.022 C 
ATOM     27  C   UNL     1     -30.242  34.444  -3.637  1.00  0.00     0.015 C 
ATOM     28  C   UNL     1     -31.340  32.912  -0.953  1.00  0.00     0.017 C 
ATOM     29  C   UNL     1     -30.372  30.888  -5.316  1.00  0.00     0.012 C 
ATOM     30  C   UNL     1     -29.290  35.368  -5.827  1.00  0.00     0.011 C 
ENDROOT
BRANCH  20  31
ATOM     31  O   UNL     1     -38.893  31.575  -3.019  1.00  0.00    -0.393 OA
ATOM     32  H   UNL     1     -38.781  32.383  -2.456  1.00  0.00     0.210 HD
ENDBRANCH  20  31
TORSDOF 1
ENDMDL
