MODEL 1
REMARK VINA RESULT:    -4.628      0.000      0.000
REMARK INTER + INTRA:          -8.030
REMARK INTER:                  -7.063
REMARK INTRA:                  -0.966
REMARK UNBOUND:                -0.966
REMARK SMILES CCCCCCCCCCC(=O)[O-]
REMARK SMILES IDX 7 1 8 2 9 3 10 4 11 5 12 6 13 7 6 8 5 9 4 10 3 11 2 12 1 13
REMARK H PARENT
REMARK Flexibility Score: inf
ROOT
ATOM      1  C   UNL     1      52.913  58.195  91.863  1.00  0.00     0.000 C 
ENDROOT
BRANCH   1   2
ATOM      2  C   UNL     1      51.745  57.280  91.463  1.00  0.00     0.000 C 
BRANCH   2   3
ATOM      3  C   UNL     1      51.246  56.469  92.669  1.00  0.00     0.006 C 
BRANCH   3   4
ATOM      4  C   UNL     1      51.976  55.126  92.808  1.00  0.00     0.053 C 
BRANCH   4   5
ATOM      5  C   UNL     1      52.836  55.085  94.034  1.00  0.00     0.041 C 
ATOM      6  O   UNL     1      53.796  54.273  94.107  1.00  0.00    -0.550 OA
ATOM      7  O   UNL     1      52.555  55.919  95.109  1.00  0.00    -0.550 OA
ENDBRANCH   4   5
ENDBRANCH   3   4
ENDBRANCH   2   3
ENDBRANCH   1   2
BRANCH   1   8
ATOM      8  C   UNL     1      52.570  59.109  93.050  1.00  0.00     0.000 C 
BRANCH   8   9
ATOM      9  C   UNL     1      52.409  60.579  92.639  1.00  0.00    -0.000 C 
BRANCH   9  10
ATOM     10  C   UNL     1      51.245  61.237  93.393  1.00  0.00    -0.000 C 
BRANCH  10  11
ATOM     11  C   UNL     1      49.983  60.358  93.434  1.00  0.00    -0.000 C 
BRANCH  11  12
ATOM     12  C   UNL     1      49.489  60.053  94.863  1.00  0.00    -0.003 C 
ATOM     13  C   UNL     1      49.628  58.574  95.226  1.00  0.00     0.004 C 
ENDBRANCH  11  12
ENDBRANCH  10  11
ENDBRANCH   9  10
ENDBRANCH   8   9
ENDBRANCH   1   8
TORSDOF 9
ENDMDL
MODEL 2
REMARK VINA RESULT:    -4.454      2.781      5.203
REMARK INTER + INTRA:          -7.764
REMARK INTER:                  -6.866
REMARK INTRA:                  -0.898
REMARK UNBOUND:                -0.966
REMARK SMILES CCCCCCCCCCC(=O)[O-]
REMARK SMILES IDX 7 1 8 2 9 3 10 4 11 5 12 6 13 7 6 8 5 9 4 10 3 11 2 12 1 13
REMARK H PARENT
REMARK Flexibility Score: inf
ROOT
ATOM      1  C   UNL     1      52.163  57.027  94.257  1.00  0.00     0.000 C 
ENDROOT
BRANCH   1   2
ATOM      2  C   UNL     1      51.270  57.811  95.230  1.00  0.00     0.000 C 
BRANCH   2   3
ATOM      3  C   UNL     1      49.989  58.295  94.532  1.00  0.00     0.006 C 
BRANCH   3   4
ATOM      4  C   UNL     1      49.688  59.770  94.829  1.00  0.00     0.053 C 
BRANCH   4   5
ATOM      5  C   UNL     1      49.975  60.644  93.647  1.00  0.00     0.041 C 
ATOM      6  O   UNL     1      51.165  60.913  93.331  1.00  0.00    -0.550 OA
ATOM      7  O   UNL     1      48.928  61.190  92.914  1.00  0.00    -0.550 OA
ENDBRANCH   4   5
ENDBRANCH   3   4
ENDBRANCH   2   3
ENDBRANCH   1   2
BRANCH   1   8
ATOM      8  C   UNL     1      53.017  57.944  93.367  1.00  0.00     0.000 C 
BRANCH   8   9
ATOM      9  C   UNL     1      52.594  57.899  91.891  1.00  0.00    -0.000 C 
BRANCH   9  10
ATOM     10  C   UNL     1      51.575  56.778  91.645  1.00  0.00    -0.000 C 
BRANCH  10  11
ATOM     11  C   UNL     1      51.988  55.832  90.504  1.00  0.00    -0.000 C 
BRANCH  11  12
ATOM     12  C   UNL     1      52.373  54.416  90.984  1.00  0.00    -0.003 C 
ATOM     13  C   UNL     1      51.783  54.085  92.355  1.00  0.00     0.004 C 
ENDBRANCH  11  12
ENDBRANCH  10  11
ENDBRANCH   9  10
ENDBRANCH   8   9
ENDBRANCH   1   8
TORSDOF 9
ENDMDL
MODEL 3
REMARK VINA RESULT:    -4.436      2.464      5.298
REMARK INTER + INTRA:          -7.737
REMARK INTER:                  -6.659
REMARK INTRA:                  -1.077
REMARK UNBOUND:                -0.966
REMARK SMILES CCCCCCCCCCC(=O)[O-]
REMARK SMILES IDX 7 1 8 2 9 3 10 4 11 5 12 6 13 7 6 8 5 9 4 10 3 11 2 12 1 13
REMARK H PARENT
REMARK Flexibility Score: inf
ROOT
ATOM      1  C   UNL     1      53.284  57.522  94.257  1.00  0.00     0.000 C 
ENDROOT
BRANCH   1   2
ATOM      2  C   UNL     1      52.639  58.521  93.285  1.00  0.00     0.000 C 
BRANCH   2   3
ATOM      3  C   UNL     1      51.126  58.277  93.169  1.00  0.00     0.006 C 
BRANCH   3   4
ATOM      4  C   UNL     1      50.316  59.572  93.317  1.00  0.00     0.053 C 
BRANCH   4   5
ATOM      5  C   UNL     1      49.774  59.734  94.704  1.00  0.00     0.041 C 
ATOM      6  O   UNL     1      49.453  58.721  95.381  1.00  0.00    -0.550 OA
ATOM      7  O   UNL     1      49.592  61.004  95.236  1.00  0.00    -0.550 OA
ENDBRANCH   4   5
ENDBRANCH   3   4
ENDBRANCH   2   3
ENDBRANCH   1   2
BRANCH   1   8
ATOM      8  C   UNL     1      52.255  56.598  94.926  1.00  0.00     0.000 C 
BRANCH   8   9
ATOM      9  C   UNL     1      52.738  55.143  95.020  1.00  0.00    -0.000 C 
BRANCH   9  10
ATOM     10  C   UNL     1      53.137  54.605  93.639  1.00  0.00    -0.000 C 
BRANCH  10  11
ATOM     11  C   UNL     1      51.932  54.400  92.704  1.00  0.00    -0.000 C 
BRANCH  11  12
ATOM     12  C   UNL     1      52.298  54.447  91.205  1.00  0.00    -0.003 C 
ATOM     13  C   UNL     1      51.985  55.803  90.571  1.00  0.00     0.004 C 
ENDBRANCH  11  12
ENDBRANCH  10  11
ENDBRANCH   9  10
ENDBRANCH   8   9
ENDBRANCH   1   8
TORSDOF 9
ENDMDL
MODEL 4
REMARK VINA RESULT:    -4.422      2.928      5.443
REMARK INTER + INTRA:          -7.715
REMARK INTER:                  -6.757
REMARK INTRA:                  -0.958
REMARK UNBOUND:                -0.966
REMARK SMILES CCCCCCCCCCC(=O)[O-]
REMARK SMILES IDX 7 1 8 2 9 3 10 4 11 5 12 6 13 7 6 8 5 9 4 10 3 11 2 12 1 13
REMARK H PARENT
REMARK Flexibility Score: inf
ROOT
ATOM      1  C   UNL     1      51.523  57.911  92.539  1.00  0.00     0.000 C 
ENDROOT
BRANCH   1   2
ATOM      2  C   UNL     1      50.123  58.129  93.134  1.00  0.00     0.000 C 
BRANCH   2   3
ATOM      3  C   UNL     1      50.215  58.598  94.595  1.00  0.00     0.006 C 
BRANCH   3   4
ATOM      4  C   UNL     1      49.476  59.923  94.826  1.00  0.00     0.053 C 
BRANCH   4   5
ATOM      5  C   UNL     1      49.799  60.932  93.767  1.00  0.00     0.041 C 
ATOM      6  O   UNL     1      48.898  61.344  92.989  1.00  0.00    -0.550 OA
ATOM      7  O   UNL     1      51.101  61.393  93.619  1.00  0.00    -0.550 OA
ENDBRANCH   4   5
ENDBRANCH   3   4
ENDBRANCH   2   3
ENDBRANCH   1   2
BRANCH   1   8
ATOM      8  C   UNL     1      52.647  58.183  93.551  1.00  0.00     0.000 C 
BRANCH   8   9
ATOM      9  C   UNL     1      53.551  56.962  93.775  1.00  0.00    -0.000 C 
BRANCH   9  10
ATOM     10  C   UNL     1      52.762  55.799  94.391  1.00  0.00    -0.000 C 
BRANCH  10  11
ATOM     11  C   UNL     1      52.897  54.492  93.592  1.00  0.00    -0.000 C 
BRANCH  11  12
ATOM     12  C   UNL     1      51.767  54.277  92.563  1.00  0.00    -0.003 C 
ATOM     13  C   UNL     1      52.303  54.029  91.152  1.00  0.00     0.004 C 
ENDBRANCH  11  12
ENDBRANCH  10  11
ENDBRANCH   9  10
ENDBRANCH   8   9
ENDBRANCH   1   8
TORSDOF 9
ENDMDL
MODEL 5
REMARK VINA RESULT:    -4.404      1.095      1.543
REMARK INTER + INTRA:          -7.688
REMARK INTER:                  -6.611
REMARK INTRA:                  -1.077
REMARK UNBOUND:                -0.966
REMARK SMILES CCCCCCCCCCC(=O)[O-]
REMARK SMILES IDX 7 1 8 2 9 3 10 4 11 5 12 6 13 7 6 8 5 9 4 10 3 11 2 12 1 13
REMARK H PARENT
REMARK Flexibility Score: inf
ROOT
ATOM      1  C   UNL     1      52.922  58.379  92.285  1.00  0.00     0.000 C 
ENDROOT
BRANCH   1   2
ATOM      2  C   UNL     1      53.276  58.159  93.764  1.00  0.00     0.000 C 
BRANCH   2   3
ATOM      3  C   UNL     1      52.768  56.794  94.252  1.00  0.00     0.006 C 
BRANCH   3   4
ATOM      4  C   UNL     1      52.012  56.030  93.157  1.00  0.00     0.053 C 
BRANCH   4   5
ATOM      5  C   UNL     1      52.509  54.624  93.015  1.00  0.00     0.041 C 
ATOM      6  O   UNL     1      52.013  53.861  92.143  1.00  0.00    -0.550 OA
ATOM      7  O   UNL     1      53.498  54.146  93.866  1.00  0.00    -0.550 OA
ENDBRANCH   4   5
ENDBRANCH   3   4
ENDBRANCH   2   3
ENDBRANCH   1   2
BRANCH   1   8
ATOM      8  C   UNL     1      52.684  59.859  91.946  1.00  0.00     0.000 C 
BRANCH   8   9
ATOM      9  C   UNL     1      52.597  60.747  93.196  1.00  0.00    -0.000 C 
BRANCH   9  10
ATOM     10  C   UNL     1      51.209  61.392  93.317  1.00  0.00    -0.000 C 
BRANCH  10  11
ATOM     11  C   UNL     1      50.072  60.359  93.404  1.00  0.00    -0.000 C 
BRANCH  11  12
ATOM     12  C   UNL     1      49.723  59.945  94.849  1.00  0.00    -0.003 C 
ATOM     13  C   UNL     1      49.663  58.427  95.022  1.00  0.00     0.004 C 
ENDBRANCH  11  12
ENDBRANCH  10  11
ENDBRANCH   9  10
ENDBRANCH   8   9
ENDBRANCH   1   8
TORSDOF 9
ENDMDL
MODEL 6
REMARK VINA RESULT:    -4.385      1.879      3.065
REMARK INTER + INTRA:          -7.659
REMARK INTER:                  -6.853
REMARK INTRA:                  -0.806
REMARK UNBOUND:                -0.966
REMARK SMILES CCCCCCCCCCC(=O)[O-]
REMARK SMILES IDX 7 1 8 2 9 3 10 4 11 5 12 6 13 7 6 8 5 9 4 10 3 11 2 12 1 13
REMARK H PARENT
REMARK Flexibility Score: inf
ROOT
ATOM      1  C   UNL     1      51.510  57.395  94.999  1.00  0.00     0.000 C 
ENDROOT
BRANCH   1   2
ATOM      2  C   UNL     1      52.644  57.100  94.006  1.00  0.00     0.000 C 
BRANCH   2   3
ATOM      3  C   UNL     1      52.154  56.193  92.866  1.00  0.00     0.006 C 
BRANCH   3   4
ATOM      4  C   UNL     1      52.382  54.706  93.169  1.00  0.00     0.053 C 
BRANCH   4   5
ATOM      5  C   UNL     1      51.875  53.830  92.065  1.00  0.00     0.041 C 
ATOM      6  O   UNL     1      50.997  52.958  92.302  1.00  0.00    -0.550 OA
ATOM      7  O   UNL     1      52.395  53.953  90.783  1.00  0.00    -0.550 OA
ENDBRANCH   4   5
ENDBRANCH   3   4
ENDBRANCH   2   3
ENDBRANCH   1   2
BRANCH   1   8
ATOM      8  C   UNL     1      50.272  58.005  94.322  1.00  0.00     0.000 C 
BRANCH   8   9
ATOM      9  C   UNL     1      49.475  58.923  95.261  1.00  0.00    -0.000 C 
BRANCH   9  10
ATOM     10  C   UNL     1      49.619  60.393  94.845  1.00  0.00    -0.000 C 
BRANCH  10  11
ATOM     11  C   UNL     1      50.136  60.562  93.406  1.00  0.00    -0.000 C 
BRANCH  11  12
ATOM     12  C   UNL     1      51.494  61.291  93.320  1.00  0.00    -0.003 C 
ATOM     13  C   UNL     1      52.539  60.487  92.546  1.00  0.00     0.004 C 
ENDBRANCH  11  12
ENDBRANCH  10  11
ENDBRANCH   9  10
ENDBRANCH   8   9
ENDBRANCH   1   8
TORSDOF 9
ENDMDL
MODEL 7
REMARK VINA RESULT:    -4.346      1.502      2.426
REMARK INTER + INTRA:          -7.599
REMARK INTER:                  -6.864
REMARK INTRA:                  -0.734
REMARK UNBOUND:                -0.966
REMARK SMILES CCCCCCCCCCC(=O)[O-]
REMARK SMILES IDX 7 1 8 2 9 3 10 4 11 5 12 6 13 7 6 8 5 9 4 10 3 11 2 12 1 13
REMARK H PARENT
REMARK Flexibility Score: inf
ROOT
ATOM      1  C   UNL     1      52.562  58.691  92.806  1.00  0.00     0.000 C 
ENDROOT
BRANCH   1   2
ATOM      2  C   UNL     1      52.753  57.832  91.548  1.00  0.00     0.000 C 
BRANCH   2   3
ATOM      3  C   UNL     1      51.637  56.782  91.424  1.00  0.00     0.006 C 
BRANCH   3   4
ATOM      4  C   UNL     1      52.169  55.422  90.954  1.00  0.00     0.053 C 
BRANCH   4   5
ATOM      5  C   UNL     1      52.122  54.398  92.047  1.00  0.00     0.041 C 
ATOM      6  O   UNL     1      52.513  54.693  93.207  1.00  0.00    -0.550 OA
ATOM      7  O   UNL     1      51.676  53.110  91.776  1.00  0.00    -0.550 OA
ENDBRANCH   4   5
ENDBRANCH   3   4
ENDBRANCH   2   3
ENDBRANCH   1   2
BRANCH   1   8
ATOM      8  C   UNL     1      52.792  57.902  94.104  1.00  0.00     0.000 C 
BRANCH   8   9
ATOM      9  C   UNL     1      51.491  57.638  94.876  1.00  0.00    -0.000 C 
BRANCH   9  10
ATOM     10  C   UNL     1      50.311  58.384  94.237  1.00  0.00    -0.000 C 
BRANCH  10  11
ATOM     11  C   UNL     1      49.541  59.259  95.241  1.00  0.00    -0.000 C 
BRANCH  11  12
ATOM     12  C   UNL     1      49.511  60.755  94.860  1.00  0.00    -0.003 C 
ATOM     13  C   UNL     1      49.764  60.983  93.370  1.00  0.00     0.004 C 
ENDBRANCH  11  12
ENDBRANCH  10  11
ENDBRANCH   9  10
ENDBRANCH   8   9
ENDBRANCH   1   8
TORSDOF 9
ENDMDL
MODEL 8
REMARK VINA RESULT:    -4.303      9.711     10.282
REMARK INTER + INTRA:          -7.534
REMARK INTER:                  -6.562
REMARK INTRA:                  -0.971
REMARK UNBOUND:                -0.966
REMARK SMILES CCCCCCCCCCC(=O)[O-]
REMARK SMILES IDX 7 1 8 2 9 3 10 4 11 5 12 6 13 7 6 8 5 9 4 10 3 11 2 12 1 13
REMARK H PARENT
REMARK Flexibility Score: inf
ROOT
ATOM      1  C   UNL     1      50.308  67.425  90.771  1.00  0.00     0.000 C 
ENDROOT
BRANCH   1   2
ATOM      2  C   UNL     1      51.037  68.119  91.931  1.00  0.00     0.000 C 
BRANCH   2   3
ATOM      3  C   UNL     1      51.796  67.097  92.792  1.00  0.00     0.006 C 
BRANCH   3   4
ATOM      4  C   UNL     1      52.347  67.720  94.082  1.00  0.00     0.053 C 
BRANCH   4   5
ATOM      5  C   UNL     1      53.842  67.815  94.059  1.00  0.00     0.041 C 
ATOM      6  O   UNL     1      54.463  67.772  92.963  1.00  0.00    -0.550 OA
ATOM      7  O   UNL     1      54.552  67.916  95.249  1.00  0.00    -0.550 OA
ENDBRANCH   4   5
ENDBRANCH   3   4
ENDBRANCH   2   3
ENDBRANCH   1   2
BRANCH   1   8
ATOM      8  C   UNL     1      49.051  66.668  91.228  1.00  0.00     0.000 C 
BRANCH   8   9
ATOM      9  C   UNL     1      47.969  67.600  91.791  1.00  0.00    -0.000 C 
BRANCH   9  10
ATOM     10  C   UNL     1      47.015  66.838  92.720  1.00  0.00    -0.000 C 
BRANCH  10  11
ATOM     11  C   UNL     1      46.945  67.440  94.134  1.00  0.00    -0.000 C 
BRANCH  11  12
ATOM     12  C   UNL     1      48.258  68.115  94.583  1.00  0.00    -0.003 C 
ATOM     13  C   UNL     1      49.054  67.249  95.561  1.00  0.00     0.004 C 
ENDBRANCH  11  12
ENDBRANCH  10  11
ENDBRANCH   9  10
ENDBRANCH   8   9
ENDBRANCH   1   8
TORSDOF 9
ENDMDL
MODEL 9
REMARK VINA RESULT:    -3.939      9.617     10.443
REMARK INTER + INTRA:          -6.977
REMARK INTER:                  -6.152
REMARK INTRA:                  -0.825
REMARK UNBOUND:                -0.966
REMARK SMILES CCCCCCCCCCC(=O)[O-]
REMARK SMILES IDX 7 1 8 2 9 3 10 4 11 5 12 6 13 7 6 8 5 9 4 10 3 11 2 12 1 13
REMARK H PARENT
REMARK Flexibility Score: inf
ROOT
ATOM      1  C   UNL     1      49.098  67.012  90.850  1.00  0.00     0.000 C 
ENDROOT
BRANCH   1   2
ATOM      2  C   UNL     1      48.300  68.086  91.606  1.00  0.00     0.000 C 
BRANCH   2   3
ATOM      3  C   UNL     1      47.506  67.465  92.766  1.00  0.00     0.006 C 
BRANCH   3   4
ATOM      4  C   UNL     1      47.256  65.964  92.561  1.00  0.00     0.053 C 
BRANCH   4   5
ATOM      5  C   UNL     1      45.868  65.694  92.067  1.00  0.00     0.041 C 
ATOM      6  O   UNL     1      45.095  64.950  92.727  1.00  0.00    -0.550 OA
ATOM      7  O   UNL     1      45.440  66.237  90.862  1.00  0.00    -0.550 OA
ENDBRANCH   4   5
ENDBRANCH   3   4
ENDBRANCH   2   3
ENDBRANCH   1   2
BRANCH   1   8
ATOM      8  C   UNL     1      50.479  67.510  90.398  1.00  0.00     0.000 C 
BRANCH   8   9
ATOM      9  C   UNL     1      51.293  68.125  91.546  1.00  0.00    -0.000 C 
BRANCH   9  10
ATOM     10  C   UNL     1      51.538  67.097  92.659  1.00  0.00    -0.000 C 
BRANCH  10  11
ATOM     11  C   UNL     1      52.529  67.592  93.726  1.00  0.00    -0.000 C 
BRANCH  11  12
ATOM     12  C   UNL     1      51.851  68.044  95.037  1.00  0.00    -0.003 C 
ATOM     13  C   UNL     1      50.353  67.738  95.054  1.00  0.00     0.004 C 
ENDBRANCH  11  12
ENDBRANCH  10  11
ENDBRANCH   9  10
ENDBRANCH   8   9
ENDBRANCH   1   8
TORSDOF 9
ENDMDL
