MODEL 1
REMARK VINA RESULT:    -4.500      0.000      0.000
REMARK INTER + INTRA:          -6.767
REMARK INTER:                  -6.474
REMARK INTRA:                  -0.293
REMARK UNBOUND:                -0.293
REMARK SMILES CCCCCCCCCO
REMARK SMILES IDX 6 1 5 2 4 3 3 4 2 5 1 6 7 7 8 8 9 9 10 10
REMARK H PARENT 10 11
REMARK Flexibility Score: inf
ROOT
ATOM      1  C   UNL     1      -4.672 -20.062 -12.448  1.00  0.00     0.000 C 
ENDROOT
BRANCH   1   2
ATOM      2  C   UNL     1      -5.118 -21.373 -11.789  1.00  0.00     0.000 C 
BRANCH   2   3
ATOM      3  C   UNL     1      -3.941 -22.062 -11.084  1.00  0.00    -0.000 C 
BRANCH   3   4
ATOM      4  C   UNL     1      -2.588 -21.741 -11.740  1.00  0.00    -0.000 C 
BRANCH   4   5
ATOM      5  C   UNL     1      -1.617 -22.930 -11.707  1.00  0.00    -0.003 C 
ATOM      6  C   UNL     1      -2.320 -24.223 -12.107  1.00  0.00     0.004 C 
ENDBRANCH   4   5
ENDBRANCH   3   4
ENDBRANCH   2   3
ENDBRANCH   1   2
BRANCH   1   7
ATOM      7  C   UNL     1      -5.873 -19.291 -13.009  1.00  0.00     0.002 C 
BRANCH   7   8
ATOM      8  C   UNL     1      -6.086 -19.611 -14.494  1.00  0.00     0.028 C 
BRANCH   8   9
ATOM      9  C   UNL     1      -6.890 -18.514 -15.203  1.00  0.00     0.156 C 
BRANCH   9  10
ATOM     10  O   UNL     1      -6.464 -17.241 -14.798  1.00  0.00    -0.396 OA
ATOM     11  H   UNL     1      -6.100 -17.341 -13.880  1.00  0.00     0.210 HD
ENDBRANCH   9  10
ENDBRANCH   8   9
ENDBRANCH   7   8
ENDBRANCH   1   7
TORSDOF 8
ENDMDL
MODEL 2
REMARK VINA RESULT:    -4.495      0.685      1.609
REMARK INTER + INTRA:          -6.759
REMARK INTER:                  -6.484
REMARK INTRA:                  -0.275
REMARK UNBOUND:                -0.293
REMARK SMILES CCCCCCCCCO
REMARK SMILES IDX 6 1 5 2 4 3 3 4 2 5 1 6 7 7 8 8 9 9 10 10
REMARK H PARENT 10 11
REMARK Flexibility Score: inf
ROOT
ATOM      1  C   UNL     1      -5.992 -19.177 -13.051  1.00  0.00     0.000 C 
ENDROOT
BRANCH   1   2
ATOM      2  C   UNL     1      -4.833 -19.968 -12.432  1.00  0.00     0.000 C 
BRANCH   2   3
ATOM      3  C   UNL     1      -5.302 -21.354 -11.964  1.00  0.00    -0.000 C 
BRANCH   3   4
ATOM      4  C   UNL     1      -4.182 -22.161 -11.287  1.00  0.00    -0.000 C 
BRANCH   4   5
ATOM      5  C   UNL     1      -2.781 -21.689 -11.699  1.00  0.00    -0.003 C 
ATOM      6  C   UNL     1      -1.841 -22.873 -11.903  1.00  0.00     0.004 C 
ENDBRANCH   4   5
ENDBRANCH   3   4
ENDBRANCH   2   3
ENDBRANCH   1   2
BRANCH   1   7
ATOM      7  C   UNL     1      -6.155 -19.513 -14.538  1.00  0.00     0.002 C 
BRANCH   7   8
ATOM      8  C   UNL     1      -6.844 -18.365 -15.288  1.00  0.00     0.028 C 
BRANCH   8   9
ATOM      9  C   UNL     1      -7.597 -17.433 -14.331  1.00  0.00     0.156 C 
BRANCH   9  10
ATOM     10  O   UNL     1      -7.143 -16.111 -14.460  1.00  0.00    -0.396 OA
ATOM     11  H   UNL     1      -6.276 -16.154 -14.940  1.00  0.00     0.210 HD
ENDBRANCH   9  10
ENDBRANCH   8   9
ENDBRANCH   7   8
ENDBRANCH   1   7
TORSDOF 8
ENDMDL
MODEL 3
REMARK VINA RESULT:    -4.494      2.861      5.778
REMARK INTER + INTRA:          -6.758
REMARK INTER:                  -6.517
REMARK INTRA:                  -0.241
REMARK UNBOUND:                -0.293
REMARK SMILES CCCCCCCCCO
REMARK SMILES IDX 6 1 5 2 4 3 3 4 2 5 1 6 7 7 8 8 9 9 10 10
REMARK H PARENT 10 11
REMARK Flexibility Score: inf
ROOT
ATOM      1  C   UNL     1      -4.235 -22.118 -11.311  1.00  0.00     0.000 C 
ENDROOT
BRANCH   1   2
ATOM      2  C   UNL     1      -5.369 -21.221 -11.822  1.00  0.00     0.000 C 
BRANCH   2   3
ATOM      3  C   UNL     1      -4.811 -20.028 -12.613  1.00  0.00    -0.000 C 
BRANCH   3   4
ATOM      4  C   UNL     1      -5.915 -19.199 -13.290  1.00  0.00    -0.000 C 
BRANCH   4   5
ATOM      5  C   UNL     1      -6.138 -19.595 -14.756  1.00  0.00    -0.003 C 
ATOM      6  C   UNL     1      -6.916 -18.516 -15.504  1.00  0.00     0.004 C 
ENDBRANCH   4   5
ENDBRANCH   3   4
ENDBRANCH   2   3
ENDBRANCH   1   2
BRANCH   1   7
ATOM      7  C   UNL     1      -2.864 -21.516 -11.643  1.00  0.00     0.002 C 
BRANCH   7   8
ATOM      8  C   UNL     1      -1.844 -22.617 -11.964  1.00  0.00     0.028 C 
BRANCH   8   9
ATOM      9  C   UNL     1      -0.406 -22.148 -11.718  1.00  0.00     0.156 C 
BRANCH   9  10
ATOM     10  O   UNL     1       0.411 -22.434 -12.822  1.00  0.00    -0.396 OA
ATOM     11  H   UNL     1      -0.151 -22.937 -13.467  1.00  0.00     0.210 HD
ENDBRANCH   9  10
ENDBRANCH   8   9
ENDBRANCH   7   8
ENDBRANCH   1   7
TORSDOF 8
ENDMDL
MODEL 4
REMARK VINA RESULT:    -4.439      3.098      5.879
REMARK INTER + INTRA:          -6.678
REMARK INTER:                  -6.428
REMARK INTRA:                  -0.250
REMARK UNBOUND:                -0.293
REMARK SMILES CCCCCCCCCO
REMARK SMILES IDX 6 1 5 2 4 3 3 4 2 5 1 6 7 7 8 8 9 9 10 10
REMARK H PARENT 10 11
REMARK Flexibility Score: inf
ROOT
ATOM      1  C   UNL     1      -3.429 -22.145 -10.920  1.00  0.00     0.000 C 
ENDROOT
BRANCH   1   2
ATOM      2  C   UNL     1      -4.731 -21.582 -11.501  1.00  0.00     0.000 C 
BRANCH   2   3
ATOM      3  C   UNL     1      -4.474 -20.265 -12.249  1.00  0.00    -0.000 C 
BRANCH   3   4
ATOM      4  C   UNL     1      -5.774 -19.552 -12.657  1.00  0.00    -0.000 C 
BRANCH   4   5
ATOM      5  C   UNL     1      -6.003 -19.562 -14.175  1.00  0.00    -0.003 C 
ATOM      6  C   UNL     1      -6.703 -18.286 -14.633  1.00  0.00     0.004 C 
ENDBRANCH   4   5
ENDBRANCH   3   4
ENDBRANCH   2   3
ENDBRANCH   1   2
BRANCH   1   7
ATOM      7  C   UNL     1      -2.239 -21.843 -11.839  1.00  0.00     0.002 C 
BRANCH   7   8
ATOM      8  C   UNL     1      -1.519 -23.135 -12.249  1.00  0.00     0.028 C 
BRANCH   8   9
ATOM      9  C   UNL     1      -2.361 -24.378 -11.936  1.00  0.00     0.156 C 
BRANCH   9  10
ATOM     10  O   UNL     1      -1.874 -25.499 -12.625  1.00  0.00    -0.396 OA
ATOM     11  H   UNL     1      -1.577 -26.148 -11.937  1.00  0.00     0.210 HD
ENDBRANCH   9  10
ENDBRANCH   8   9
ENDBRANCH   7   8
ENDBRANCH   1   7
TORSDOF 8
ENDMDL
MODEL 5
REMARK VINA RESULT:    -4.407      2.983      5.945
REMARK INTER + INTRA:          -6.632
REMARK INTER:                  -6.131
REMARK INTRA:                  -0.501
REMARK UNBOUND:                -0.293
REMARK SMILES CCCCCCCCCO
REMARK SMILES IDX 6 1 5 2 4 3 3 4 2 5 1 6 7 7 8 8 9 9 10 10
REMARK H PARENT 10 11
REMARK Flexibility Score: inf
ROOT
ATOM      1  C   UNL     1      -5.231 -19.491 -13.363  1.00  0.00     0.000 C 
ENDROOT
BRANCH   1   2
ATOM      2  C   UNL     1      -6.344 -19.826 -14.364  1.00  0.00     0.000 C 
BRANCH   2   3
ATOM      3  C   UNL     1      -6.429 -18.761 -15.467  1.00  0.00    -0.000 C 
BRANCH   3   4
ATOM      4  C   UNL     1      -7.672 -17.865 -15.330  1.00  0.00    -0.000 C 
BRANCH   4   5
ATOM      5  C   UNL     1      -7.526 -16.817 -14.217  1.00  0.00    -0.003 C 
ATOM      6  C   UNL     1      -8.573 -17.024 -13.127  1.00  0.00     0.004 C 
ENDBRANCH   4   5
ENDBRANCH   3   4
ENDBRANCH   2   3
ENDBRANCH   1   2
BRANCH   1   7
ATOM      7  C   UNL     1      -5.732 -19.623 -11.919  1.00  0.00     0.002 C 
BRANCH   7   8
ATOM      8  C   UNL     1      -5.298 -20.962 -11.308  1.00  0.00     0.028 C 
BRANCH   8   9
ATOM      9  C   UNL     1      -6.501 -21.789 -10.838  1.00  0.00     0.156 C 
BRANCH   9  10
ATOM     10  O   UNL     1      -7.021 -22.558 -11.890  1.00  0.00    -0.396 OA
ATOM     11  H   UNL     1      -7.918 -22.866 -11.600  1.00  0.00     0.210 HD
ENDBRANCH   9  10
ENDBRANCH   8   9
ENDBRANCH   7   8
ENDBRANCH   1   7
TORSDOF 8
ENDMDL
MODEL 6
REMARK VINA RESULT:    -4.254      4.150      6.948
REMARK INTER + INTRA:          -6.412
REMARK INTER:                  -6.256
REMARK INTRA:                  -0.157
REMARK UNBOUND:                -0.293
REMARK SMILES CCCCCCCCCO
REMARK SMILES IDX 6 1 5 2 4 3 3 4 2 5 1 6 7 7 8 8 9 9 10 10
REMARK H PARENT 10 11
REMARK Flexibility Score: inf
ROOT
ATOM      1  C   UNL     1      -9.806 -17.781 -17.560  1.00  0.00     0.000 C 
ENDROOT
BRANCH   1   2
ATOM      2  C   UNL     1      -8.355 -17.814 -17.065  1.00  0.00     0.000 C 
BRANCH   2   3
ATOM      3  C   UNL     1      -8.299 -17.936 -15.535  1.00  0.00    -0.000 C 
BRANCH   3   4
ATOM      4  C   UNL     1      -6.860 -17.934 -14.993  1.00  0.00    -0.000 C 
BRANCH   4   5
ATOM      5  C   UNL     1      -6.356 -19.342 -14.647  1.00  0.00    -0.003 C 
ATOM      6  C   UNL     1      -5.654 -19.357 -13.293  1.00  0.00     0.004 C 
ENDBRANCH   4   5
ENDBRANCH   3   4
ENDBRANCH   2   3
ENDBRANCH   1   2
BRANCH   1   7
ATOM      7  C   UNL     1      -9.909 -17.071 -18.915  1.00  0.00     0.002 C 
BRANCH   7   8
ATOM      8  C   UNL     1     -10.034 -18.087 -20.059  1.00  0.00     0.028 C 
BRANCH   8   9
ATOM      9  C   UNL     1      -8.907 -17.928 -21.086  1.00  0.00     0.156 C 
BRANCH   9  10
ATOM     10  O   UNL     1      -8.791 -16.592 -21.498  1.00  0.00    -0.396 OA
ATOM     11  H   UNL     1      -9.610 -16.127 -21.189  1.00  0.00     0.210 HD
ENDBRANCH   9  10
ENDBRANCH   8   9
ENDBRANCH   7   8
ENDBRANCH   1   7
TORSDOF 8
ENDMDL
MODEL 7
REMARK VINA RESULT:    -3.915      1.414      1.922
REMARK INTER + INTRA:          -5.925
REMARK INTER:                  -5.518
REMARK INTRA:                  -0.406
REMARK UNBOUND:                -0.293
REMARK SMILES CCCCCCCCCO
REMARK SMILES IDX 6 1 5 2 4 3 3 4 2 5 1 6 7 7 8 8 9 9 10 10
REMARK H PARENT 10 11
REMARK Flexibility Score: inf
ROOT
ATOM      1  C   UNL     1      -4.745 -21.740 -11.485  1.00  0.00     0.000 C 
ENDROOT
BRANCH   1   2
ATOM      2  C   UNL     1      -4.031 -21.702 -10.129  1.00  0.00     0.000 C 
BRANCH   2   3
ATOM      3  C   UNL     1      -2.631 -22.326 -10.227  1.00  0.00    -0.000 C 
BRANCH   3   4
ATOM      4  C   UNL     1      -1.871 -21.878 -11.486  1.00  0.00    -0.000 C 
BRANCH   4   5
ATOM      5  C   UNL     1      -1.325 -23.061 -12.300  1.00  0.00    -0.003 C 
ATOM      6  C   UNL     1      -2.193 -24.302 -12.114  1.00  0.00     0.004 C 
ENDBRANCH   4   5
ENDBRANCH   3   4
ENDBRANCH   2   3
ENDBRANCH   1   2
BRANCH   1   7
ATOM      7  C   UNL     1      -6.023 -20.894 -11.459  1.00  0.00     0.002 C 
BRANCH   7   8
ATOM      8  C   UNL     1      -5.764 -19.490 -12.023  1.00  0.00     0.028 C 
BRANCH   8   9
ATOM      9  C   UNL     1      -5.579 -19.514 -13.545  1.00  0.00     0.156 C 
BRANCH   9  10
ATOM     10  O   UNL     1      -6.663 -20.146 -14.171  1.00  0.00    -0.396 OA
ATOM     11  H   UNL     1      -6.764 -21.033 -13.738  1.00  0.00     0.210 HD
ENDBRANCH   9  10
ENDBRANCH   8   9
ENDBRANCH   7   8
ENDBRANCH   1   7
TORSDOF 8
ENDMDL
MODEL 8
REMARK VINA RESULT:    -3.895      2.747      6.021
REMARK INTER + INTRA:          -5.895
REMARK INTER:                  -5.677
REMARK INTRA:                  -0.218
REMARK UNBOUND:                -0.293
REMARK SMILES CCCCCCCCCO
REMARK SMILES IDX 6 1 5 2 4 3 3 4 2 5 1 6 7 7 8 8 9 9 10 10
REMARK H PARENT 10 11
REMARK Flexibility Score: inf
ROOT
ATOM      1  C   UNL     1      -5.543 -20.458 -11.393  1.00  0.00     0.000 C 
ENDROOT
BRANCH   1   2
ATOM      2  C   UNL     1      -5.377 -20.285 -12.907  1.00  0.00     0.000 C 
BRANCH   2   3
ATOM      3  C   UNL     1      -6.034 -18.982 -13.386  1.00  0.00    -0.000 C 
BRANCH   3   4
ATOM      4  C   UNL     1      -6.461 -19.042 -14.862  1.00  0.00    -0.000 C 
BRANCH   4   5
ATOM      5  C   UNL     1      -7.189 -17.770 -15.320  1.00  0.00    -0.003 C 
ATOM      6  C   UNL     1      -7.409 -16.813 -14.153  1.00  0.00     0.004 C 
ENDBRANCH   4   5
ENDBRANCH   3   4
ENDBRANCH   2   3
ENDBRANCH   1   2
BRANCH   1   7
ATOM      7  C   UNL     1      -4.733 -21.656 -10.883  1.00  0.00     0.002 C 
BRANCH   7   8
ATOM      8  C   UNL     1      -3.388 -21.761 -11.615  1.00  0.00     0.028 C 
BRANCH   8   9
ATOM      9  C   UNL     1      -2.291 -22.332 -10.709  1.00  0.00     0.156 C 
BRANCH   9  10
ATOM     10  O   UNL     1      -1.876 -21.381  -9.764  1.00  0.00    -0.396 OA
ATOM     11  H   UNL     1      -1.589 -21.886  -8.961  1.00  0.00     0.210 HD
ENDBRANCH   9  10
ENDBRANCH   8   9
ENDBRANCH   7   8
ENDBRANCH   1   7
TORSDOF 8
ENDMDL
MODEL 9
REMARK VINA RESULT:    -3.768      3.827      6.418
REMARK INTER + INTRA:          -5.713
REMARK INTER:                  -5.342
REMARK INTRA:                  -0.371
REMARK UNBOUND:                -0.293
REMARK SMILES CCCCCCCCCO
REMARK SMILES IDX 6 1 5 2 4 3 3 4 2 5 1 6 7 7 8 8 9 9 10 10
REMARK H PARENT 10 11
REMARK Flexibility Score: inf
ROOT
ATOM      1  C   UNL     1      -1.631 -22.635 -11.930  1.00  0.00     0.000 C 
ENDROOT
BRANCH   1   2
ATOM      2  C   UNL     1      -3.048 -23.129 -11.617  1.00  0.00     0.000 C 
BRANCH   2   3
ATOM      3  C   UNL     1      -3.823 -22.088 -10.795  1.00  0.00    -0.000 C 
BRANCH   3   4
ATOM      4  C   UNL     1      -5.157 -21.691 -11.448  1.00  0.00    -0.000 C 
BRANCH   4   5
ATOM      5  C   UNL     1      -5.373 -20.171 -11.476  1.00  0.00    -0.003 C 
ATOM      6  C   UNL     1      -5.325 -19.636 -12.904  1.00  0.00     0.004 C 
ENDBRANCH   4   5
ENDBRANCH   3   4
ENDBRANCH   2   3
ENDBRANCH   1   2
BRANCH   1   7
ATOM      7  C   UNL     1      -1.112 -21.710 -10.823  1.00  0.00     0.002 C 
BRANCH   7   8
ATOM      8  C   UNL     1       0.258 -22.176 -10.314  1.00  0.00     0.028 C 
BRANCH   8   9
ATOM      9  C   UNL     1       0.260 -23.671  -9.975  1.00  0.00     0.156 C 
BRANCH   9  10
ATOM     10  O   UNL     1       1.237 -24.352 -10.718  1.00  0.00    -0.396 OA
ATOM     11  H   UNL     1       2.097 -24.224 -10.240  1.00  0.00     0.210 HD
ENDBRANCH   9  10
ENDBRANCH   8   9
ENDBRANCH   7   8
ENDBRANCH   1   7
TORSDOF 8
ENDMDL
