MODEL 1
REMARK VINA RESULT:    -4.870      0.000      0.000
REMARK INTER + INTRA:          -5.517
REMARK INTER:                  -5.297
REMARK INTRA:                  -0.221
REMARK UNBOUND:                -0.221
REMARK SMILES O=C([O-])c1ccccc1O
REMARK SMILES IDX 4 1 9 2 5 3 8 4 6 5 7 6 2 7 1 8 3 9 10 10
REMARK H PARENT 10 11
REMARK Flexibility Score: inf
ROOT
ATOM      1  C   UNL     1       4.806   1.158  22.853  1.00  0.00     0.039 A 
ATOM      2  C   UNL     1       4.192   1.178  24.128  1.00  0.00     0.124 A 
ATOM      3  C   UNL     1       5.573   0.034  22.486  1.00  0.00     0.014 A 
ATOM      4  C   UNL     1       4.355   0.090  24.999  1.00  0.00     0.047 A 
ATOM      5  C   UNL     1       5.727  -1.042  23.364  1.00  0.00     0.001 A 
ATOM      6  C   UNL     1       5.119  -1.015  24.618  1.00  0.00     0.004 A 
ENDROOT
BRANCH   1   7
ATOM      7  C   UNL     1       4.659   2.287  21.899  1.00  0.00     0.075 C 
ATOM      8  O   UNL     1       5.544   2.503  21.027  1.00  0.00    -0.545 OA
ATOM      9  O   UNL     1       3.553   3.127  21.944  1.00  0.00    -0.545 OA
ENDBRANCH   1   7
BRANCH   2  10
ATOM     10  O   UNL     1       3.424   2.268  24.534  1.00  0.00    -0.507 OA
ATOM     11  H   UNL     1       2.963   2.873  23.865  1.00  0.00     0.293 HD
ENDBRANCH   2  10
TORSDOF 2
ENDMDL
MODEL 2
REMARK VINA RESULT:    -4.743      8.016      8.502
REMARK INTER + INTRA:          -5.380
REMARK INTER:                  -5.204
REMARK INTRA:                  -0.176
REMARK UNBOUND:                -0.221
REMARK SMILES O=C([O-])c1ccccc1O
REMARK SMILES IDX 4 1 9 2 5 3 8 4 6 5 7 6 2 7 1 8 3 9 10 10
REMARK H PARENT 10 11
REMARK Flexibility Score: inf
ROOT
ATOM      1  C   UNL     1       2.956  -3.004  16.319  1.00  0.00     0.039 A 
ATOM      2  C   UNL     1       3.185  -4.155  17.109  1.00  0.00     0.124 A 
ATOM      3  C   UNL     1       1.779  -2.259  16.531  1.00  0.00     0.014 A 
ATOM      4  C   UNL     1       2.248  -4.534  18.082  1.00  0.00     0.047 A 
ATOM      5  C   UNL     1       0.853  -2.648  17.503  1.00  0.00     0.001 A 
ATOM      6  C   UNL     1       1.087  -3.783  18.277  1.00  0.00     0.004 A 
ENDROOT
BRANCH   1   7
ATOM      7  C   UNL     1       3.922  -2.566  15.278  1.00  0.00     0.075 C 
ATOM      8  O   UNL     1       5.015  -2.032  15.608  1.00  0.00    -0.545 OA
ATOM      9  O   UNL     1       3.646  -2.732  13.927  1.00  0.00    -0.545 OA
ENDBRANCH   1   7
BRANCH   2  10
ATOM     10  O   UNL     1       4.336  -4.923  16.935  1.00  0.00    -0.507 OA
ATOM     11  H   UNL     1       4.793  -5.003  16.034  1.00  0.00     0.293 HD
ENDBRANCH   2  10
TORSDOF 2
ENDMDL
MODEL 3
REMARK VINA RESULT:    -4.683      2.342      3.503
REMARK INTER + INTRA:          -5.314
REMARK INTER:                  -5.064
REMARK INTRA:                  -0.250
REMARK UNBOUND:                -0.221
REMARK SMILES O=C([O-])c1ccccc1O
REMARK SMILES IDX 4 1 9 2 5 3 8 4 6 5 7 6 2 7 1 8 3 9 10 10
REMARK H PARENT 10 11
REMARK Flexibility Score: inf
ROOT
ATOM      1  C   UNL     1       4.128   0.363  23.656  1.00  0.00     0.039 A 
ATOM      2  C   UNL     1       3.827   1.596  24.281  1.00  0.00     0.124 A 
ATOM      3  C   UNL     1       3.508   0.056  22.428  1.00  0.00     0.014 A 
ATOM      4  C   UNL     1       2.926   2.485  23.677  1.00  0.00     0.047 A 
ATOM      5  C   UNL     1       2.612   0.951  21.837  1.00  0.00     0.001 A 
ATOM      6  C   UNL     1       2.322   2.164  22.461  1.00  0.00     0.004 A 
ENDROOT
BRANCH   1   7
ATOM      7  C   UNL     1       5.076  -0.609  24.259  1.00  0.00     0.075 C 
ATOM      8  O   UNL     1       5.884  -1.246  23.531  1.00  0.00    -0.545 OA
ATOM      9  O   UNL     1       5.095  -0.838  25.629  1.00  0.00    -0.545 OA
ENDBRANCH   1   7
BRANCH   2  10
ATOM     10  O   UNL     1       4.417   1.942  25.496  1.00  0.00    -0.507 OA
ATOM     11  H   UNL     1       4.156   1.488  26.364  1.00  0.00     0.293 HD
ENDBRANCH   2  10
TORSDOF 2
ENDMDL
MODEL 4
REMARK VINA RESULT:    -4.654      1.839      3.606
REMARK INTER + INTRA:          -5.283
REMARK INTER:                  -5.031
REMARK INTRA:                  -0.252
REMARK UNBOUND:                -0.221
REMARK SMILES O=C([O-])c1ccccc1O
REMARK SMILES IDX 4 1 9 2 5 3 8 4 6 5 7 6 2 7 1 8 3 9 10 10
REMARK H PARENT 10 11
REMARK Flexibility Score: inf
ROOT
ATOM      1  C   UNL     1       4.647   1.845  22.717  1.00  0.00     0.039 A 
ATOM      2  C   UNL     1       3.855   2.935  22.285  1.00  0.00     0.124 A 
ATOM      3  C   UNL     1       5.764   1.470  21.945  1.00  0.00     0.014 A 
ATOM      4  C   UNL     1       4.190   3.619  21.107  1.00  0.00     0.047 A 
ATOM      5  C   UNL     1       6.086   2.160  20.773  1.00  0.00     0.001 A 
ATOM      6  C   UNL     1       5.300   3.232  20.355  1.00  0.00     0.004 A 
ENDROOT
BRANCH   1   7
ATOM      7  C   UNL     1       4.330   1.092  23.959  1.00  0.00     0.075 C 
ATOM      8  O   UNL     1       4.242  -0.165  23.937  1.00  0.00    -0.545 OA
ATOM      9  O   UNL     1       4.123   1.751  25.164  1.00  0.00    -0.545 OA
ENDBRANCH   1   7
BRANCH   2  10
ATOM     10  O   UNL     1       2.740   3.342  23.017  1.00  0.00    -0.507 OA
ATOM     11  H   UNL     1       1.899   3.679  22.564  1.00  0.00     0.293 HD
ENDBRANCH   2  10
TORSDOF 2
ENDMDL
MODEL 5
REMARK VINA RESULT:    -4.653      7.891      8.328
REMARK INTER + INTRA:          -5.282
REMARK INTER:                  -5.072
REMARK INTRA:                  -0.210
REMARK UNBOUND:                -0.221
REMARK SMILES O=C([O-])c1ccccc1O
REMARK SMILES IDX 4 1 9 2 5 3 8 4 6 5 7 6 2 7 1 8 3 9 10 10
REMARK H PARENT 10 11
REMARK Flexibility Score: inf
ROOT
ATOM      1  C   UNL     1       2.869  -2.539  15.781  1.00  0.00     0.039 A 
ATOM      2  C   UNL     1       1.727  -2.306  16.583  1.00  0.00     0.124 A 
ATOM      3  C   UNL     1       3.698  -3.638  16.084  1.00  0.00     0.014 A 
ATOM      4  C   UNL     1       1.439  -3.163  17.656  1.00  0.00     0.047 A 
ATOM      5  C   UNL     1       3.400  -4.483  17.156  1.00  0.00     0.001 A 
ATOM      6  C   UNL     1       2.272  -4.246  17.941  1.00  0.00     0.004 A 
ENDROOT
BRANCH   1   7
ATOM      7  C   UNL     1       3.211  -1.659  14.635  1.00  0.00     0.075 C 
ATOM      8  O   UNL     1       3.946  -2.083  13.703  1.00  0.00    -0.545 OA
ATOM      9  O   UNL     1       2.734  -0.356  14.562  1.00  0.00    -0.545 OA
ENDBRANCH   1   7
BRANCH   2  10
ATOM     10  O   UNL     1       0.877  -1.232  16.321  1.00  0.00    -0.507 OA
ATOM     11  H   UNL     1       0.926  -0.714  15.451  1.00  0.00     0.293 HD
ENDBRANCH   2  10
TORSDOF 2
ENDMDL
MODEL 6
REMARK VINA RESULT:    -4.629      7.951      8.952
REMARK INTER + INTRA:          -5.256
REMARK INTER:                  -5.060
REMARK INTRA:                  -0.195
REMARK UNBOUND:                -0.221
REMARK SMILES O=C([O-])c1ccccc1O
REMARK SMILES IDX 4 1 9 2 5 3 8 4 6 5 7 6 2 7 1 8 3 9 10 10
REMARK H PARENT 10 11
REMARK Flexibility Score: inf
ROOT
ATOM      1  C   UNL     1       2.321  -3.736  17.265  1.00  0.00     0.039 A 
ATOM      2  C   UNL     1       3.490  -4.075  16.543  1.00  0.00     0.124 A 
ATOM      3  C   UNL     1       1.629  -2.557  16.920  1.00  0.00     0.014 A 
ATOM      4  C   UNL     1       3.937  -3.243  15.506  1.00  0.00     0.047 A 
ATOM      5  C   UNL     1       2.087  -1.737  15.886  1.00  0.00     0.001 A 
ATOM      6  C   UNL     1       3.239  -2.079  15.179  1.00  0.00     0.004 A 
ENDROOT
BRANCH   1   7
ATOM      7  C   UNL     1       1.810  -4.588  18.369  1.00  0.00     0.075 C 
ATOM      8  O   UNL     1       2.096  -5.815  18.411  1.00  0.00    -0.545 OA
ATOM      9  O   UNL     1       1.009  -4.058  19.373  1.00  0.00    -0.545 OA
ENDBRANCH   1   7
BRANCH   2  10
ATOM     10  O   UNL     1       4.206  -5.232  16.847  1.00  0.00    -0.507 OA
ATOM     11  H   UNL     1       5.207  -5.212  17.006  1.00  0.00     0.293 HD
ENDBRANCH   2  10
TORSDOF 2
ENDMDL
MODEL 7
REMARK VINA RESULT:    -4.540      7.860      8.306
REMARK INTER + INTRA:          -5.159
REMARK INTER:                  -4.911
REMARK INTRA:                  -0.248
REMARK UNBOUND:                -0.221
REMARK SMILES O=C([O-])c1ccccc1O
REMARK SMILES IDX 4 1 9 2 5 3 8 4 6 5 7 6 2 7 1 8 3 9 10 10
REMARK H PARENT 10 11
REMARK Flexibility Score: inf
ROOT
ATOM      1  C   UNL     1       2.311  -3.453  17.175  1.00  0.00     0.039 A 
ATOM      2  C   UNL     1       1.422  -2.404  16.843  1.00  0.00     0.124 A 
ATOM      3  C   UNL     1       1.998  -4.287  18.267  1.00  0.00     0.014 A 
ATOM      4  C   UNL     1       0.254  -2.211  17.597  1.00  0.00     0.047 A 
ATOM      5  C   UNL     1       0.833  -4.083  19.010  1.00  0.00     0.001 A 
ATOM      6  C   UNL     1      -0.038  -3.047  18.676  1.00  0.00     0.004 A 
ENDROOT
BRANCH   1   7
ATOM      7  C   UNL     1       3.557  -3.695  16.403  1.00  0.00     0.075 C 
ATOM      8  O   UNL     1       3.948  -4.871  16.176  1.00  0.00    -0.545 OA
ATOM      9  O   UNL     1       4.317  -2.638  15.918  1.00  0.00    -0.545 OA
ENDBRANCH   1   7
BRANCH   2  10
ATOM     10  O   UNL     1       1.689  -1.554  15.770  1.00  0.00    -0.507 OA
ATOM     11  H   UNL     1       1.284  -1.709  14.854  1.00  0.00     0.293 HD
ENDBRANCH   2  10
TORSDOF 2
ENDMDL
MODEL 8
REMARK VINA RESULT:    -4.531      3.639      5.801
REMARK INTER + INTRA:          -5.149
REMARK INTER:                  -4.897
REMARK INTRA:                  -0.251
REMARK UNBOUND:                -0.221
REMARK SMILES O=C([O-])c1ccccc1O
REMARK SMILES IDX 4 1 9 2 5 3 8 4 6 5 7 6 2 7 1 8 3 9 10 10
REMARK H PARENT 10 11
REMARK Flexibility Score: inf
ROOT
ATOM      1  C   UNL     1       6.171   3.042  20.131  1.00  0.00     0.039 A 
ATOM      2  C   UNL     1       7.038   4.040  19.625  1.00  0.00     0.124 A 
ATOM      3  C   UNL     1       4.780   3.223  20.002  1.00  0.00     0.014 A 
ATOM      4  C   UNL     1       6.505   5.182  19.008  1.00  0.00     0.047 A 
ATOM      5  C   UNL     1       4.263   4.366  19.386  1.00  0.00     0.001 A 
ATOM      6  C   UNL     1       5.123   5.343  18.890  1.00  0.00     0.004 A 
ENDROOT
BRANCH   1   7
ATOM      7  C   UNL     1       6.692   1.817  20.790  1.00  0.00     0.075 C 
ATOM      8  O   UNL     1       6.128   1.359  21.821  1.00  0.00    -0.545 OA
ATOM      9  O   UNL     1       7.805   1.151  20.292  1.00  0.00    -0.545 OA
ENDBRANCH   1   7
BRANCH   2  10
ATOM     10  O   UNL     1       8.422   3.904  19.729  1.00  0.00    -0.507 OA
ATOM     11  H   UNL     1       8.847   3.299  20.422  1.00  0.00     0.293 HD
ENDBRANCH   2  10
TORSDOF 2
ENDMDL
MODEL 9
REMARK VINA RESULT:    -4.498      7.472      8.227
REMARK INTER + INTRA:          -5.113
REMARK INTER:                  -4.885
REMARK INTRA:                  -0.228
REMARK UNBOUND:                -0.221
REMARK SMILES O=C([O-])c1ccccc1O
REMARK SMILES IDX 4 1 9 2 5 3 8 4 6 5 7 6 2 7 1 8 3 9 10 10
REMARK H PARENT 10 11
REMARK Flexibility Score: inf
ROOT
ATOM      1  C   UNL     1       1.423  -2.971  17.631  1.00  0.00     0.039 A 
ATOM      2  C   UNL     1       1.761  -2.212  16.485  1.00  0.00     0.124 A 
ATOM      3  C   UNL     1       2.217  -4.086  17.965  1.00  0.00     0.014 A 
ATOM      4  C   UNL     1       2.870  -2.578  15.707  1.00  0.00     0.047 A 
ATOM      5  C   UNL     1       3.318  -4.439  17.180  1.00  0.00     0.001 A 
ATOM      6  C   UNL     1       3.644  -3.686  16.053  1.00  0.00     0.004 A 
ENDROOT
BRANCH   1   7
ATOM      7  C   UNL     1       0.259  -2.620  18.484  1.00  0.00     0.075 C 
ATOM      8  O   UNL     1      -0.349  -3.514  19.132  1.00  0.00    -0.545 OA
ATOM      9  O   UNL     1      -0.185  -1.308  18.589  1.00  0.00    -0.545 OA
ENDBRANCH   1   7
BRANCH   2  10
ATOM     10  O   UNL     1       1.005  -1.100  16.117  1.00  0.00    -0.507 OA
ATOM     11  H   UNL     1       0.349  -0.666  16.756  1.00  0.00     0.293 HD
ENDBRANCH   2  10
TORSDOF 2
ENDMDL
