MODEL 1
REMARK VINA RESULT:    -3.428      0.000      0.000
REMARK INTER + INTRA:          -4.169
REMARK INTER:                  -4.630
REMARK INTRA:                   0.461
REMARK UNBOUND:                 0.461
REMARK SMILES C=C1C(=O)O[C@H]2[C@H]3O[C@@]3(C)CCC=C(C)CC[C@@H]12
REMARK SMILES IDX 6 1 18 2 2 3 1 4 3 5 4 6 5 7 17 8 16 9 14 10 15 11 13 12
REMARK SMILES IDX 7 14 9 15 8 16 10 17 11 18 12 19
REMARK H PARENT
REMARK Flexibility Score: 70.00
ROOT
ATOM      1  C   UNL     1    -116.192  11.389  21.627  1.00  0.00     0.216 C 
ATOM      2  C   UNL     1    -116.448  12.121  22.982  1.00  0.00     0.070 C 
ATOM      3  C   UNL     1    -115.240  11.680  23.765  1.00  0.00     0.037 C 
ATOM      4  C   UNL     1    -114.770  12.248  24.875  1.00  0.00     0.021 C 
ATOM      5  C   UNL     1    -114.718  10.489  23.118  1.00  0.00     0.334 C 
ATOM      6  O   UNL     1    -113.808   9.745  23.569  1.00  0.00    -0.247 OA
ATOM      7  O   UNL     1    -115.395  10.248  21.937  1.00  0.00    -0.455 OA
ENDROOT
BRANCH   2   8
ATOM      8  C   UNL     1    -117.776  11.753  23.709  1.00  0.00     0.017 C 
BRANCH   8   9
ATOM      9  C   UNL     1    -118.571  12.966  24.256  1.00  0.00     0.031 C 
BRANCH   9  10
ATOM     10  C   UNL     1    -118.185  14.332  23.713  1.00  0.00    -0.077 C 
ATOM     11  C   UNL     1    -117.372  15.246  24.599  1.00  0.00     0.039 C 
ATOM     12  C   UNL     1    -118.681  14.866  22.568  1.00  0.00    -0.028 CG0
ATOM     13  G   UNL     1    -119.244  14.115  21.386  1.00  0.00     0.000 G0
ENDBRANCH   9  10
ENDBRANCH   8   9
ENDBRANCH   2   8
BRANCH   1  14
ATOM     14  C   UNL     1    -117.346  11.168  20.618  1.00  0.00     0.192 C 
ATOM     15  C   UNL     1    -118.357  12.146  20.107  1.00  0.00     0.096 C 
ATOM     16  O   UNL     1    -118.570  11.423  21.289  1.00  0.00    -0.362 OA
ATOM     17  C   UNL     1    -119.302  11.661  19.001  1.00  0.00     0.045 C 
BRANCH  15  18
ATOM     18  C   UNL     1    -118.209  13.659  20.323  1.00  0.00     0.042 C 
BRANCH  18  19
ATOM     19  C   UNL     1    -119.231  14.133  21.379  1.00  0.00     0.030 CG0
ATOM     20  G   UNL     1    -118.684  14.873  22.576  1.00  0.00     0.000 G0
ENDBRANCH  18  19
ENDBRANCH  15  18
ENDBRANCH   1  14
TORSDOF 0
ENDMDL
MODEL 2
REMARK VINA RESULT:    -3.201      2.405      4.143
REMARK INTER + INTRA:          -3.864
REMARK INTER:                  -4.312
REMARK INTRA:                   0.449
REMARK UNBOUND:                 0.461
REMARK SMILES C=C1C(=O)O[C@H]2[C@H]3O[C@@]3(C)CCC=C(C)CC[C@@H]12
REMARK SMILES IDX 6 1 18 2 2 3 1 4 3 5 4 6 5 7 17 8 16 9 14 10 15 11 13 12
REMARK SMILES IDX 7 14 9 15 8 16 10 17 11 18 12 19
REMARK H PARENT
REMARK Flexibility Score: 70.00
ROOT
ATOM      1  C   UNL     1    -116.219  11.246  24.868  1.00  0.00     0.216 C 
ATOM      2  C   UNL     1    -115.519   9.867  24.654  1.00  0.00     0.070 C 
ATOM      3  C   UNL     1    -114.113  10.206  25.072  1.00  0.00     0.037 C 
ATOM      4  C   UNL     1    -113.156   9.337  25.395  1.00  0.00     0.021 C 
ATOM      5  C   UNL     1    -113.979  11.651  25.003  1.00  0.00     0.334 C 
ATOM      6  O   UNL     1    -112.906  12.297  25.129  1.00  0.00    -0.247 OA
ATOM      7  O   UNL     1    -115.202  12.234  24.730  1.00  0.00    -0.455 OA
ENDROOT
BRANCH   2   8
ATOM      8  C   UNL     1    -115.571   9.301  23.203  1.00  0.00     0.017 C 
BRANCH   8   9
ATOM      9  C   UNL     1    -114.794  10.137  22.155  1.00  0.00     0.031 C 
BRANCH   9  10
ATOM     10  C   UNL     1    -115.175   9.927  20.698  1.00  0.00    -0.077 C 
ATOM     11  C   UNL     1    -114.428   8.875  19.912  1.00  0.00     0.039 C 
ATOM     12  C   UNL     1    -116.001  10.747  20.001  1.00  0.00    -0.028 CG0
ATOM     13  G   UNL     1    -117.072  11.649  20.564  1.00  0.00     0.000 G0
ENDBRANCH   9  10
ENDBRANCH   8   9
ENDBRANCH   2   8
BRANCH   1  14
ATOM     14  C   UNL     1    -117.576  11.557  24.189  1.00  0.00     0.192 C 
ATOM     15  C   UNL     1    -117.848  12.215  22.873  1.00  0.00     0.096 C 
ATOM     16  O   UNL     1    -117.683  12.965  24.046  1.00  0.00    -0.362 OA
ATOM     17  C   UNL     1    -119.307  12.264  22.402  1.00  0.00     0.045 C 
BRANCH  15  18
ATOM     18  C   UNL     1    -116.743  12.442  21.831  1.00  0.00     0.042 C 
BRANCH  18  19
ATOM     19  C   UNL     1    -117.077  11.659  20.543  1.00  0.00     0.030 CG0
ATOM     20  G   UNL     1    -116.003  10.750  19.997  1.00  0.00     0.000 G0
ENDBRANCH  18  19
ENDBRANCH  15  18
ENDBRANCH   1  14
TORSDOF 0
ENDMDL
MODEL 3
REMARK VINA RESULT:    -3.073     20.439     21.861
REMARK INTER + INTRA:          -3.690
REMARK INTER:                  -4.152
REMARK INTRA:                   0.462
REMARK UNBOUND:                 0.461
REMARK SMILES C=C1C(=O)O[C@H]2[C@H]3O[C@@]3(C)CCC=C(C)CC[C@@H]12
REMARK SMILES IDX 6 1 18 2 2 3 1 4 3 5 4 6 5 7 17 8 16 9 14 10 15 11 13 12
REMARK SMILES IDX 7 14 9 15 8 16 10 17 11 18 12 19
REMARK H PARENT
REMARK Flexibility Score: 70.00
ROOT
ATOM      1  C   UNL     1    -103.641  24.012  33.102  1.00  0.00     0.216 C 
ATOM      2  C   UNL     1    -103.702  22.993  34.284  1.00  0.00     0.070 C 
ATOM      3  C   UNL     1    -105.149  23.122  34.682  1.00  0.00     0.037 C 
ATOM      4  C   UNL     1    -105.840  22.260  35.426  1.00  0.00     0.021 C 
ATOM      5  C   UNL     1    -105.631  24.386  34.154  1.00  0.00     0.334 C 
ATOM      6  O   UNL     1    -106.744  24.914  34.411  1.00  0.00    -0.247 OA
ATOM      7  O   UNL     1    -104.670  24.967  33.349  1.00  0.00    -0.455 OA
ENDROOT
BRANCH   2   8
ATOM      8  C   UNL     1    -102.744  23.285  35.478  1.00  0.00     0.017 C 
BRANCH   8   9
ATOM      9  C   UNL     1    -101.857  22.087  35.902  1.00  0.00     0.031 C 
BRANCH   9  10
ATOM     10  C   UNL     1    -101.909  20.855  35.013  1.00  0.00    -0.077 C 
ATOM     11  C   UNL     1    -102.824  19.723  35.417  1.00  0.00     0.039 C 
ATOM     12  C   UNL     1    -101.049  20.617  33.990  1.00  0.00    -0.028 CG0
ATOM     13  G   UNL     1    -100.269  21.641  33.203  1.00  0.00     0.000 G0
ENDBRANCH   9  10
ENDBRANCH   8   9
ENDBRANCH   2   8
BRANCH   1  14
ATOM     14  C   UNL     1    -102.283  24.574  32.613  1.00  0.00     0.192 C 
ATOM     15  C   UNL     1    -101.034  23.840  32.238  1.00  0.00     0.096 C 
ATOM     16  O   UNL     1    -101.292  24.216  33.563  1.00  0.00    -0.362 OA
ATOM     17  C   UNL     1     -99.883  24.668  31.656  1.00  0.00     0.045 C 
BRANCH  15  18
ATOM     18  C   UNL     1    -101.018  22.320  32.016  1.00  0.00     0.042 C 
BRANCH  18  19
ATOM     19  C   UNL     1    -100.271  21.635  33.181  1.00  0.00     0.030 CG0
ATOM     20  G   UNL     1    -101.038  20.607  33.975  1.00  0.00     0.000 G0
ENDBRANCH  18  19
ENDBRANCH  15  18
ENDBRANCH   1  14
TORSDOF 0
ENDMDL
MODEL 4
REMARK VINA RESULT:    -3.067      3.077      5.650
REMARK INTER + INTRA:          -3.682
REMARK INTER:                  -4.282
REMARK INTRA:                   0.600
REMARK UNBOUND:                 0.461
REMARK SMILES C=C1C(=O)O[C@H]2[C@H]3O[C@@]3(C)CCC=C(C)CC[C@@H]12
REMARK SMILES IDX 6 1 18 2 2 3 1 4 3 5 4 6 5 7 17 8 16 9 14 10 15 11 13 12
REMARK SMILES IDX 7 14 9 15 8 16 10 17 11 18 12 19
REMARK H PARENT
REMARK Flexibility Score: 70.00
ROOT
ATOM      1  C   UNL     1    -116.528  11.974  24.495  1.00  0.00     0.216 C 
ATOM      2  C   UNL     1    -117.258  12.524  23.229  1.00  0.00     0.070 C 
ATOM      3  C   UNL     1    -118.626  11.927  23.421  1.00  0.00     0.037 C 
ATOM      4  C   UNL     1    -119.747  12.316  22.814  1.00  0.00     0.021 C 
ATOM      5  C   UNL     1    -118.486  10.815  24.344  1.00  0.00     0.334 C 
ATOM      6  O   UNL     1    -119.381   9.976  24.627  1.00  0.00    -0.247 OA
ATOM      7  O   UNL     1    -117.200  10.768  24.848  1.00  0.00    -0.455 OA
ENDROOT
BRANCH   2   8
ATOM      8  C   UNL     1    -116.634  12.118  21.859  1.00  0.00     0.017 C 
BRANCH   8   9
ATOM      9  C   UNL     1    -116.575  10.590  21.605  1.00  0.00     0.031 C 
BRANCH   9  10
ATOM     10  C   UNL     1    -115.580  10.113  20.560  1.00  0.00    -0.077 C 
ATOM     11  C   UNL     1    -115.975  10.209  19.105  1.00  0.00     0.039 C 
ATOM     12  C   UNL     1    -114.444   9.428  20.845  1.00  0.00    -0.028 CG0
ATOM     13  G   UNL     1    -113.675   9.446  22.144  1.00  0.00     0.000 G0
ENDBRANCH   9  10
ENDBRANCH   8   9
ENDBRANCH   2   8
BRANCH   1  14
ATOM     14  C   UNL     1    -114.981  11.945  24.564  1.00  0.00     0.192 C 
ATOM     15  C   UNL     1    -114.038  10.833  24.224  1.00  0.00     0.096 C 
ATOM     16  O   UNL     1    -114.603  10.949  25.502  1.00  0.00    -0.362 OA
ATOM     17  C   UNL     1    -112.538  11.150  24.266  1.00  0.00     0.045 C 
BRANCH  15  18
ATOM     18  C   UNL     1    -114.494   9.585  23.455  1.00  0.00     0.042 C 
BRANCH  18  19
ATOM     19  C   UNL     1    -113.675   9.451  22.153  1.00  0.00     0.030 CG0
ATOM     20  G   UNL     1    -114.449   9.417  20.858  1.00  0.00     0.000 G0
ENDBRANCH  18  19
ENDBRANCH  15  18
ENDBRANCH   1  14
TORSDOF 0
ENDMDL
MODEL 5
REMARK VINA RESULT:    -3.049     18.564     19.769
REMARK INTER + INTRA:          -3.658
REMARK INTER:                  -3.972
REMARK INTRA:                   0.314
REMARK UNBOUND:                 0.461
REMARK SMILES C=C1C(=O)O[C@H]2[C@H]3O[C@@]3(C)CCC=C(C)CC[C@@H]12
REMARK SMILES IDX 6 1 18 2 2 3 1 4 3 5 4 6 5 7 17 8 16 9 14 10 15 11 13 12
REMARK SMILES IDX 7 14 9 15 8 16 10 17 11 18 12 19
REMARK H PARENT
REMARK Flexibility Score: 70.00
ROOT
ATOM      1  C   UNL     1    -102.819  27.181  18.811  1.00  0.00     0.216 C 
ATOM      2  C   UNL     1    -103.988  27.377  17.794  1.00  0.00     0.070 C 
ATOM      3  C   UNL     1    -105.081  27.840  18.720  1.00  0.00     0.037 C 
ATOM      4  C   UNL     1    -106.207  28.457  18.363  1.00  0.00     0.021 C 
ATOM      5  C   UNL     1    -104.707  27.439  20.065  1.00  0.00     0.334 C 
ATOM      6  O   UNL     1    -105.440  27.513  21.086  1.00  0.00    -0.247 OA
ATOM      7  O   UNL     1    -103.429  26.913  20.071  1.00  0.00    -0.455 OA
ENDROOT
BRANCH   2   8
ATOM      8  C   UNL     1    -104.406  26.107  16.993  1.00  0.00     0.017 C 
BRANCH   8   9
ATOM      9  C   UNL     1    -105.183  25.049  17.819  1.00  0.00     0.031 C 
BRANCH   9  10
ATOM     10  C   UNL     1    -105.198  23.633  17.267  1.00  0.00    -0.077 C 
ATOM     11  C   UNL     1    -106.449  23.155  16.567  1.00  0.00     0.039 C 
ATOM     12  C   UNL     1    -104.245  22.703  17.528  1.00  0.00    -0.028 CG0
ATOM     13  G   UNL     1    -102.810  22.959  17.922  1.00  0.00     0.000 G0
ENDBRANCH   9  10
ENDBRANCH   8   9
ENDBRANCH   2   8
BRANCH   1  14
ATOM     14  C   UNL     1    -101.589  26.315  18.444  1.00  0.00     0.192 C 
ATOM     15  C   UNL     1    -101.360  24.852  18.665  1.00  0.00     0.096 C 
ATOM     16  O   UNL     1    -101.040  25.800  19.647  1.00  0.00    -0.362 OA
ATOM     17  C   UNL     1    -100.086  24.244  18.066  1.00  0.00     0.045 C 
BRANCH  15  18
ATOM     18  C   UNL     1    -102.497  23.902  19.068  1.00  0.00     0.042 C 
BRANCH  18  19
ATOM     19  C   UNL     1    -102.791  22.926  17.908  1.00  0.00     0.030 CG0
ATOM     20  G   UNL     1    -104.240  22.723  17.535  1.00  0.00     0.000 G0
ENDBRANCH  18  19
ENDBRANCH  15  18
ENDBRANCH   1  14
TORSDOF 0
ENDMDL
MODEL 6
REMARK VINA RESULT:    -2.988     20.971     22.225
REMARK INTER + INTRA:          -3.575
REMARK INTER:                  -4.171
REMARK INTRA:                   0.596
REMARK UNBOUND:                 0.461
REMARK SMILES C=C1C(=O)O[C@H]2[C@H]3O[C@@]3(C)CCC=C(C)CC[C@@H]12
REMARK SMILES IDX 6 1 18 2 2 3 1 4 3 5 4 6 5 7 17 8 16 9 14 10 15 11 13 12
REMARK SMILES IDX 7 14 9 15 8 16 10 17 11 18 12 19
REMARK H PARENT
REMARK Flexibility Score: 70.00
ROOT
ATOM      1  C   UNL     1    -101.788  24.599  32.471  1.00  0.00     0.216 C 
ATOM      2  C   UNL     1    -103.294  24.760  32.852  1.00  0.00     0.070 C 
ATOM      3  C   UNL     1    -103.211  25.919  33.809  1.00  0.00     0.037 C 
ATOM      4  C   UNL     1    -104.224  26.690  34.202  1.00  0.00     0.021 C 
ATOM      5  C   UNL     1    -101.836  26.002  34.268  1.00  0.00     0.334 C 
ATOM      6  O   UNL     1    -101.411  26.745  35.192  1.00  0.00    -0.247 OA
ATOM      7  O   UNL     1    -101.043  25.108  33.573  1.00  0.00    -0.455 OA
ENDROOT
BRANCH   2   8
ATOM      8  C   UNL     1    -103.963  23.514  33.506  1.00  0.00     0.017 C 
BRANCH   8   9
ATOM      9  C   UNL     1    -103.289  23.032  34.816  1.00  0.00     0.031 C 
BRANCH   9  10
ATOM     10  C   UNL     1    -103.542  21.589  35.220  1.00  0.00    -0.077 C 
ATOM     11  C   UNL     1    -104.856  21.256  35.886  1.00  0.00     0.039 C 
ATOM     12  C   UNL     1    -102.596  20.615  35.202  1.00  0.00    -0.028 CG0
ATOM     13  G   UNL     1    -101.350  20.576  34.351  1.00  0.00     0.000 G0
ENDBRANCH   9  10
ENDBRANCH   8   9
ENDBRANCH   2   8
BRANCH   1  14
ATOM     14  C   UNL     1    -101.270  23.283  31.840  1.00  0.00     0.192 C 
ATOM     15  C   UNL     1    -100.639  22.098  32.502  1.00  0.00     0.096 C 
ATOM     16  O   UNL     1     -99.875  23.197  32.086  1.00  0.00    -0.362 OA
ATOM     17  C   UNL     1    -100.349  20.875  31.623  1.00  0.00     0.045 C 
BRANCH  15  18
ATOM     18  C   UNL     1    -100.670  21.905  34.025  1.00  0.00     0.042 C 
BRANCH  18  19
ATOM     19  C   UNL     1    -101.337  20.554  34.362  1.00  0.00     0.030 CG0
ATOM     20  G   UNL     1    -102.590  20.601  35.202  1.00  0.00     0.000 G0
ENDBRANCH  18  19
ENDBRANCH  15  18
ENDBRANCH   1  14
TORSDOF 0
ENDMDL
MODEL 7
REMARK VINA RESULT:    -2.910     15.080     16.688
REMARK INTER + INTRA:          -3.469
REMARK INTER:                  -3.965
REMARK INTRA:                   0.495
REMARK UNBOUND:                 0.461
REMARK SMILES C=C1C(=O)O[C@H]2[C@H]3O[C@@]3(C)CCC=C(C)CC[C@@H]12
REMARK SMILES IDX 6 1 18 2 2 3 1 4 3 5 4 6 5 7 17 8 16 9 14 10 15 11 13 12
REMARK SMILES IDX 7 14 9 15 8 16 10 17 11 18 12 19
REMARK H PARENT
REMARK Flexibility Score: 70.00
ROOT
ATOM      1  C   UNL     1    -110.890  26.527  18.626  1.00  0.00     0.216 C 
ATOM      2  C   UNL     1    -111.452  26.432  20.080  1.00  0.00     0.070 C 
ATOM      3  C   UNL     1    -112.682  25.595  19.844  1.00  0.00     0.037 C 
ATOM      4  C   UNL     1    -113.375  24.936  20.771  1.00  0.00     0.021 C 
ATOM      5  C   UNL     1    -113.003  25.689  18.431  1.00  0.00     0.334 C 
ATOM      6  O   UNL     1    -114.049  25.252  17.883  1.00  0.00    -0.247 OA
ATOM      7  O   UNL     1    -112.010  26.375  17.757  1.00  0.00    -0.455 OA
ENDROOT
BRANCH   2   8
ATOM      8  C   UNL     1    -111.798  27.791  20.760  1.00  0.00     0.017 C 
BRANCH   8   9
ATOM      9  C   UNL     1    -111.365  27.898  22.245  1.00  0.00     0.031 C 
BRANCH   9  10
ATOM     10  C   UNL     1    -110.289  26.930  22.711  1.00  0.00    -0.077 C 
ATOM     11  C   UNL     1    -110.695  25.805  23.634  1.00  0.00     0.039 C 
ATOM     12  C   UNL     1    -108.959  27.116  22.515  1.00  0.00    -0.028 CG0
ATOM     13  G   UNL     1    -108.308  27.940  21.431  1.00  0.00     0.000 G0
ENDBRANCH   9  10
ENDBRANCH   8   9
ENDBRANCH   2   8
BRANCH   1  14
ATOM     14  C   UNL     1    -109.868  27.626  18.244  1.00  0.00     0.192 C 
ATOM     15  C   UNL     1    -108.627  28.056  18.961  1.00  0.00     0.096 C 
ATOM     16  O   UNL     1    -109.879  28.609  19.267  1.00  0.00    -0.362 OA
ATOM     17  C   UNL     1    -107.736  29.090  18.262  1.00  0.00     0.045 C 
BRANCH  15  18
ATOM     18  C   UNL     1    -108.018  27.229  20.103  1.00  0.00     0.042 C 
BRANCH  18  19
ATOM     19  C   UNL     1    -108.292  27.929  21.452  1.00  0.00     0.030 CG0
ATOM     20  G   UNL     1    -108.961  27.107  22.526  1.00  0.00     0.000 G0
ENDBRANCH  18  19
ENDBRANCH  15  18
ENDBRANCH   1  14
TORSDOF 0
ENDMDL
MODEL 8
REMARK VINA RESULT:    -2.876     18.060     19.136
REMARK INTER + INTRA:          -3.424
REMARK INTER:                  -3.913
REMARK INTRA:                   0.489
REMARK UNBOUND:                 0.461
REMARK SMILES C=C1C(=O)O[C@H]2[C@H]3O[C@@]3(C)CCC=C(C)CC[C@@H]12
REMARK SMILES IDX 6 1 18 2 2 3 1 4 3 5 4 6 5 7 17 8 16 9 14 10 15 11 13 12
REMARK SMILES IDX 7 14 9 15 8 16 10 17 11 18 12 19
REMARK H PARENT
REMARK Flexibility Score: 70.00
ROOT
ATOM      1  C   UNL     1    -105.385  23.992  17.336  1.00  0.00     0.216 C 
ATOM      2  C   UNL     1    -105.062  25.389  17.955  1.00  0.00     0.070 C 
ATOM      3  C   UNL     1    -106.404  26.060  17.833  1.00  0.00     0.037 C 
ATOM      4  C   UNL     1    -106.802  27.151  18.486  1.00  0.00     0.021 C 
ATOM      5  C   UNL     1    -107.161  25.331  16.830  1.00  0.00     0.334 C 
ATOM      6  O   UNL     1    -108.267  25.683  16.342  1.00  0.00    -0.247 OA
ATOM      7  O   UNL     1    -106.473  24.198  16.439  1.00  0.00    -0.455 OA
ENDROOT
BRANCH   2   8
ATOM      8  C   UNL     1    -103.940  26.202  17.240  1.00  0.00     0.017 C 
BRANCH   8   9
ATOM      9  C   UNL     1    -102.939  26.900  18.196  1.00  0.00     0.031 C 
BRANCH   9  10
ATOM     10  C   UNL     1    -102.882  26.375  19.622  1.00  0.00    -0.077 C 
ATOM     11  C   UNL     1    -103.494  27.218  20.716  1.00  0.00     0.039 C 
ATOM     12  C   UNL     1    -102.151  25.299  20.009  1.00  0.00    -0.028 CG0
ATOM     13  G   UNL     1    -101.705  24.146  19.144  1.00  0.00     0.000 G0
ENDBRANCH   9  10
ENDBRANCH   8   9
ENDBRANCH   2   8
BRANCH   1  14
ATOM     14  C   UNL     1    -104.247  23.067  16.837  1.00  0.00     0.192 C 
ATOM     15  C   UNL     1    -102.967  22.690  17.515  1.00  0.00     0.096 C 
ATOM     16  O   UNL     1    -103.066  23.845  16.727  1.00  0.00    -0.362 OA
ATOM     17  C   UNL     1    -102.092  21.637  16.822  1.00  0.00     0.045 C 
BRANCH  15  18
ATOM     18  C   UNL     1    -102.719  22.973  19.003  1.00  0.00     0.042 C 
BRANCH  18  19
ATOM     19  C   UNL     1    -101.712  24.135  19.148  1.00  0.00     0.030 CG0
ATOM     20  G   UNL     1    -102.135  25.304  20.004  1.00  0.00     0.000 G0
ENDBRANCH  18  19
ENDBRANCH  15  18
ENDBRANCH   1  14
TORSDOF 0
ENDMDL
MODEL 9
REMARK VINA RESULT:    -2.773     20.969     22.570
REMARK INTER + INTRA:          -3.285
REMARK INTER:                  -3.673
REMARK INTRA:                   0.388
REMARK UNBOUND:                 0.461
REMARK SMILES C=C1C(=O)O[C@H]2[C@H]3O[C@@]3(C)CCC=C(C)CC[C@@H]12
REMARK SMILES IDX 6 1 18 2 2 3 1 4 3 5 4 6 5 7 17 8 16 9 14 10 15 11 13 12
REMARK SMILES IDX 7 14 9 15 8 16 10 17 11 18 12 19
REMARK H PARENT
REMARK Flexibility Score: 70.00
ROOT
ATOM      1  C   UNL     1    -100.182  24.161  33.014  1.00  0.00     0.216 C 
ATOM      2  C   UNL     1    -101.132  24.886  32.009  1.00  0.00     0.070 C 
ATOM      3  C   UNL     1    -100.897  26.322  32.398  1.00  0.00     0.037 C 
ATOM      4  C   UNL     1    -101.201  27.395  31.669  1.00  0.00     0.021 C 
ATOM      5  C   UNL     1    -100.331  26.319  33.735  1.00  0.00     0.334 C 
ATOM      6  O   UNL     1    -100.144  27.333  34.457  1.00  0.00    -0.247 OA
ATOM      7  O   UNL     1    -100.059  25.026  34.139  1.00  0.00    -0.455 OA
ENDROOT
BRANCH   2   8
ATOM      8  C   UNL     1    -102.639  24.499  32.104  1.00  0.00     0.017 C 
BRANCH   8   9
ATOM      9  C   UNL     1    -103.413  25.196  33.252  1.00  0.00     0.031 C 
BRANCH   9  10
ATOM     10  C   UNL     1    -104.699  24.527  33.709  1.00  0.00    -0.077 C 
ATOM     11  C   UNL     1    -106.002  25.257  33.484  1.00  0.00     0.039 C 
ATOM     12  C   UNL     1    -104.744  23.410  34.480  1.00  0.00    -0.028 CG0
ATOM     13  G   UNL     1    -103.679  22.348  34.602  1.00  0.00     0.000 G0
ENDBRANCH   9  10
ENDBRANCH   8   9
ENDBRANCH   2   8
BRANCH   1  14
ATOM     14  C   UNL     1    -100.359  22.653  33.321  1.00  0.00     0.192 C 
ATOM     15  C   UNL     1    -101.213  21.991  34.357  1.00  0.00     0.096 C 
ATOM     16  O   UNL     1     -99.910  22.420  34.646  1.00  0.00    -0.362 OA
ATOM     17  C   UNL     1    -101.285  20.460  34.332  1.00  0.00     0.045 C 
BRANCH  15  18
ATOM     18  C   UNL     1    -102.301  22.756  35.125  1.00  0.00     0.042 C 
BRANCH  18  19
ATOM     19  C   UNL     1    -103.694  22.327  34.614  1.00  0.00     0.030 CG0
ATOM     20  G   UNL     1    -104.742  23.406  34.497  1.00  0.00     0.000 G0
ENDBRANCH  18  19
ENDBRANCH  15  18
ENDBRANCH   1  14
TORSDOF 0
ENDMDL
