MODEL 1
REMARK VINA RESULT:    -6.144      0.000      0.000
REMARK INTER + INTRA:          -6.968
REMARK INTER:                  -6.862
REMARK INTRA:                  -0.105
REMARK UNBOUND:                -0.105
REMARK SMILES COc1cc2ccc(=O)oc2cc1OC
REMARK SMILES IDX 3 1 13 2 12 3 11 4 5 5 4 6 6 7 7 8 8 9 9 10 10 11 2 12 1 13
REMARK SMILES IDX 14 14 15 15
REMARK H PARENT
REMARK Flexibility Score: inf
ROOT
ATOM      1  C   UNL     1       4.266  47.084   9.213  1.00  0.00     0.161 A 
ATOM      2  C   UNL     1       2.905  46.988   8.874  1.00  0.00     0.164 A 
ATOM      3  C   UNL     1       2.103  45.998   9.477  1.00  0.00     0.098 A 
ATOM      4  C   UNL     1       2.650  45.115  10.410  1.00  0.00     0.142 A 
ATOM      5  C   UNL     1       4.014  45.212  10.751  1.00  0.00     0.022 A 
ATOM      6  C   UNL     1       4.818  46.192  10.154  1.00  0.00     0.062 A 
ATOM      7  C   UNL     1       4.533  44.313  11.688  1.00  0.00     0.019 A 
ATOM      8  C   UNL     1       3.695  43.354  12.254  1.00  0.00     0.094 A 
ATOM      9  C   UNL     1       2.351  43.318  11.868  1.00  0.00     0.336 A 
ATOM     10  O   UNL     1       1.576  42.460  12.367  1.00  0.00    -0.246 OA
ATOM     11  O   UNL     1       1.883  44.185  10.974  1.00  0.00    -0.423 OA
ENDROOT
BRANCH   1  12
ATOM     12  O   UNL     1       5.036  48.081   8.592  1.00  0.00    -0.493 OA
ATOM     13  C   UNL     1       6.266  48.585   9.101  1.00  0.00     0.278 C 
ENDBRANCH   1  12
BRANCH   2  14
ATOM     14  O   UNL     1       2.388  47.892   7.932  1.00  0.00    -0.493 OA
ATOM     15  C   UNL     1       1.062  48.410   7.953  1.00  0.00     0.278 C 
ENDBRANCH   2  14
TORSDOF 2
ENDMDL
MODEL 2
REMARK VINA RESULT:    -6.023      1.425      2.988
REMARK INTER + INTRA:          -6.833
REMARK INTER:                  -6.714
REMARK INTRA:                  -0.119
REMARK UNBOUND:                -0.105
REMARK SMILES COc1cc2ccc(=O)oc2cc1OC
REMARK SMILES IDX 3 1 13 2 12 3 11 4 5 5 4 6 6 7 7 8 8 9 9 10 10 11 2 12 1 13
REMARK SMILES IDX 14 14 15 15
REMARK H PARENT
REMARK Flexibility Score: inf
ROOT
ATOM      1  C   UNL     1       2.423  46.495   9.639  1.00  0.00     0.161 A 
ATOM      2  C   UNL     1       3.818  46.366   9.529  1.00  0.00     0.164 A 
ATOM      3  C   UNL     1       4.452  45.204  10.013  1.00  0.00     0.098 A 
ATOM      4  C   UNL     1       3.704  44.181  10.599  1.00  0.00     0.142 A 
ATOM      5  C   UNL     1       2.305  44.310  10.708  1.00  0.00     0.022 A 
ATOM      6  C   UNL     1       1.669  45.463  10.231  1.00  0.00     0.062 A 
ATOM      7  C   UNL     1       1.583  43.268  11.300  1.00  0.00     0.019 A 
ATOM      8  C   UNL     1       2.261  42.141  11.761  1.00  0.00     0.094 A 
ATOM      9  C   UNL     1       3.651  42.082  11.618  1.00  0.00     0.336 A 
ATOM     10  O   UNL     1       4.283  41.073  12.027  1.00  0.00    -0.246 OA
ATOM     11  O   UNL     1       4.313  43.087  11.051  1.00  0.00    -0.423 OA
ENDROOT
BRANCH   1  12
ATOM     12  O   UNL     1       1.824  47.667   9.148  1.00  0.00    -0.493 OA
ATOM     13  C   UNL     1       0.979  47.723   8.004  1.00  0.00     0.278 C 
ENDBRANCH   1  12
BRANCH   2  14
ATOM     14  O   UNL     1       4.539  47.413   8.935  1.00  0.00    -0.493 OA
ATOM     15  C   UNL     1       5.936  47.633   9.108  1.00  0.00     0.278 C 
ENDBRANCH   2  14
TORSDOF 2
ENDMDL
MODEL 3
REMARK VINA RESULT:    -5.729      1.687      5.304
REMARK INTER + INTRA:          -6.504
REMARK INTER:                  -6.365
REMARK INTRA:                  -0.138
REMARK UNBOUND:                -0.105
REMARK SMILES COc1cc2ccc(=O)oc2cc1OC
REMARK SMILES IDX 3 1 13 2 12 3 11 4 5 5 4 6 6 7 7 8 8 9 9 10 10 11 2 12 1 13
REMARK SMILES IDX 14 14 15 15
REMARK H PARENT
REMARK Flexibility Score: inf
ROOT
ATOM      1  C   UNL     1       1.730  45.237  10.242  1.00  0.00     0.161 A 
ATOM      2  C   UNL     1       2.702  44.628  11.054  1.00  0.00     0.164 A 
ATOM      3  C   UNL     1       4.042  45.057  10.981  1.00  0.00     0.098 A 
ATOM      4  C   UNL     1       4.410  46.084  10.109  1.00  0.00     0.142 A 
ATOM      5  C   UNL     1       3.435  46.696   9.296  1.00  0.00     0.022 A 
ATOM      6  C   UNL     1       2.102  46.273   9.362  1.00  0.00     0.062 A 
ATOM      7  C   UNL     1       3.835  47.721   8.433  1.00  0.00     0.019 A 
ATOM      8  C   UNL     1       5.175  48.107   8.401  1.00  0.00     0.094 A 
ATOM      9  C   UNL     1       6.086  47.455   9.238  1.00  0.00     0.336 A 
ATOM     10  O   UNL     1       7.300  47.787   9.225  1.00  0.00    -0.246 OA
ATOM     11  O   UNL     1       5.679  46.482  10.049  1.00  0.00    -0.423 OA
ENDROOT
BRANCH   1  12
ATOM     12  O   UNL     1       0.404  44.784  10.339  1.00  0.00    -0.493 OA
ATOM     13  C   UNL     1      -0.648  45.497  10.980  1.00  0.00     0.278 C 
ENDBRANCH   1  12
BRANCH   2  14
ATOM     14  O   UNL     1       2.297  43.599  11.918  1.00  0.00    -0.493 OA
ATOM     15  C   UNL     1       2.538  42.213  11.694  1.00  0.00     0.278 C 
ENDBRANCH   2  14
TORSDOF 2
ENDMDL
MODEL 4
REMARK VINA RESULT:    -5.701      2.229      4.039
REMARK INTER + INTRA:          -6.473
REMARK INTER:                  -6.374
REMARK INTRA:                  -0.099
REMARK UNBOUND:                -0.105
REMARK SMILES COc1cc2ccc(=O)oc2cc1OC
REMARK SMILES IDX 3 1 13 2 12 3 11 4 5 5 4 6 6 7 7 8 8 9 9 10 10 11 2 12 1 13
REMARK SMILES IDX 14 14 15 15
REMARK H PARENT
REMARK Flexibility Score: inf
ROOT
ATOM      1  C   UNL     1       2.179  44.627  10.565  1.00  0.00     0.161 A 
ATOM      2  C   UNL     1       3.509  44.421  10.161  1.00  0.00     0.164 A 
ATOM      3  C   UNL     1       4.187  43.250  10.557  1.00  0.00     0.098 A 
ATOM      4  C   UNL     1       3.545  42.294  11.346  1.00  0.00     0.142 A 
ATOM      5  C   UNL     1       2.211  42.499  11.750  1.00  0.00     0.022 A 
ATOM      6  C   UNL     1       1.532  43.662  11.362  1.00  0.00     0.062 A 
ATOM      7  C   UNL     1       1.595  41.523  12.541  1.00  0.00     0.019 A 
ATOM      8  C   UNL     1       2.312  40.384  12.903  1.00  0.00     0.094 A 
ATOM      9  C   UNL     1       3.633  40.247  12.464  1.00  0.00     0.336 A 
ATOM     10  O   UNL     1       4.298  39.226  12.779  1.00  0.00    -0.246 OA
ATOM     11  O   UNL     1       4.194  41.191  11.713  1.00  0.00    -0.423 OA
ENDROOT
BRANCH   1  12
ATOM     12  O   UNL     1       1.535  45.805  10.154  1.00  0.00    -0.493 OA
ATOM     13  C   UNL     1       0.167  45.884   9.765  1.00  0.00     0.278 C 
ENDBRANCH   1  12
BRANCH   2  14
ATOM     14  O   UNL     1       4.124  45.403   9.368  1.00  0.00    -0.493 OA
ATOM     15  C   UNL     1       4.901  46.482   9.877  1.00  0.00     0.278 C 
ENDBRANCH   2  14
TORSDOF 2
ENDMDL
MODEL 5
REMARK VINA RESULT:    -5.641      1.678      5.041
REMARK INTER + INTRA:          -6.406
REMARK INTER:                  -6.286
REMARK INTRA:                  -0.120
REMARK UNBOUND:                -0.105
REMARK SMILES COc1cc2ccc(=O)oc2cc1OC
REMARK SMILES IDX 3 1 13 2 12 3 11 4 5 5 4 6 6 7 7 8 8 9 9 10 10 11 2 12 1 13
REMARK SMILES IDX 14 14 15 15
REMARK H PARENT
REMARK Flexibility Score: inf
ROOT
ATOM      1  C   UNL     1       1.464  46.323   8.774  1.00  0.00     0.161 A 
ATOM      2  C   UNL     1       2.016  45.406   9.685  1.00  0.00     0.164 A 
ATOM      3  C   UNL     1       3.377  45.502  10.036  1.00  0.00     0.098 A 
ATOM      4  C   UNL     1       4.181  46.502   9.485  1.00  0.00     0.142 A 
ATOM      5  C   UNL     1       3.628  47.423   8.573  1.00  0.00     0.022 A 
ATOM      6  C   UNL     1       2.275  47.332   8.219  1.00  0.00     0.062 A 
ATOM      7  C   UNL     1       4.459  48.414   8.039  1.00  0.00     0.019 A 
ATOM      8  C   UNL     1       5.798  48.463   8.421  1.00  0.00     0.094 A 
ATOM      9  C   UNL     1       6.277  47.517   9.332  1.00  0.00     0.336 A 
ATOM     10  O   UNL     1       7.484  47.543   9.690  1.00  0.00    -0.246 OA
ATOM     11  O   UNL     1       5.466  46.584   9.824  1.00  0.00    -0.423 OA
ENDROOT
BRANCH   1  12
ATOM     12  O   UNL     1       0.104  46.198   8.446  1.00  0.00    -0.493 OA
ATOM     13  C   UNL     1      -0.384  45.700   7.205  1.00  0.00     0.278 C 
ENDBRANCH   1  12
BRANCH   2  14
ATOM     14  O   UNL     1       1.179  44.413  10.218  1.00  0.00    -0.493 OA
ATOM     15  C   UNL     1       1.458  43.670  11.401  1.00  0.00     0.278 C 
ENDBRANCH   2  14
TORSDOF 2
ENDMDL
MODEL 6
REMARK VINA RESULT:    -5.506      1.582      1.927
REMARK INTER + INTRA:          -6.255
REMARK INTER:                  -6.134
REMARK INTRA:                  -0.121
REMARK UNBOUND:                -0.105
REMARK SMILES COc1cc2ccc(=O)oc2cc1OC
REMARK SMILES IDX 3 1 13 2 12 3 11 4 5 5 4 6 6 7 7 8 8 9 9 10 10 11 2 12 1 13
REMARK SMILES IDX 14 14 15 15
REMARK H PARENT
REMARK Flexibility Score: inf
ROOT
ATOM      1  C   UNL     1       2.471  46.487   9.091  1.00  0.00     0.161 A 
ATOM      2  C   UNL     1       1.271  45.774   8.923  1.00  0.00     0.164 A 
ATOM      3  C   UNL     1       1.117  44.512   9.531  1.00  0.00     0.098 A 
ATOM      4  C   UNL     1       2.146  43.967  10.301  1.00  0.00     0.142 A 
ATOM      5  C   UNL     1       3.349  44.682  10.471  1.00  0.00     0.022 A 
ATOM      6  C   UNL     1       3.510  45.935   9.867  1.00  0.00     0.062 A 
ATOM      7  C   UNL     1       4.361  44.108  11.247  1.00  0.00     0.019 A 
ATOM      8  C   UNL     1       4.155  42.857  11.826  1.00  0.00     0.094 A 
ATOM      9  C   UNL     1       2.935  42.207  11.615  1.00  0.00     0.336 A 
ATOM     10  O   UNL     1       2.728  41.076  12.129  1.00  0.00    -0.246 OA
ATOM     11  O   UNL     1       1.989  42.774  10.872  1.00  0.00    -0.423 OA
ENDROOT
BRANCH   1  12
ATOM     12  O   UNL     1       2.592  47.741   8.470  1.00  0.00    -0.493 OA
ATOM     13  C   UNL     1       3.665  48.117   7.613  1.00  0.00     0.278 C 
ENDBRANCH   1  12
BRANCH   2  14
ATOM     14  O   UNL     1       0.258  46.353   8.143  1.00  0.00    -0.493 OA
ATOM     15  C   UNL     1      -0.434  45.685   7.092  1.00  0.00     0.278 C 
ENDBRANCH   2  14
TORSDOF 2
ENDMDL
MODEL 7
REMARK VINA RESULT:    -5.479      2.373      6.651
REMARK INTER + INTRA:          -6.225
REMARK INTER:                  -6.109
REMARK INTRA:                  -0.116
REMARK UNBOUND:                -0.105
REMARK SMILES COc1cc2ccc(=O)oc2cc1OC
REMARK SMILES IDX 3 1 13 2 12 3 11 4 5 5 4 6 6 7 7 8 8 9 9 10 10 11 2 12 1 13
REMARK SMILES IDX 14 14 15 15
REMARK H PARENT
REMARK Flexibility Score: inf
ROOT
ATOM      1  C   UNL     1       1.877  41.328  12.576  1.00  0.00     0.161 A 
ATOM      2  C   UNL     1       3.168  40.930  12.191  1.00  0.00     0.164 A 
ATOM      3  C   UNL     1       3.951  41.781  11.385  1.00  0.00     0.098 A 
ATOM      4  C   UNL     1       3.451  43.016  10.967  1.00  0.00     0.142 A 
ATOM      5  C   UNL     1       2.156  43.416  11.354  1.00  0.00     0.022 A 
ATOM      6  C   UNL     1       1.373  42.574  12.154  1.00  0.00     0.062 A 
ATOM      7  C   UNL     1       1.684  44.659  10.919  1.00  0.00     0.019 A 
ATOM      8  C   UNL     1       2.500  45.461  10.123  1.00  0.00     0.094 A 
ATOM      9  C   UNL     1       3.775  45.000   9.780  1.00  0.00     0.336 A 
ATOM     10  O   UNL     1       4.528  45.708   9.062  1.00  0.00    -0.246 OA
ATOM     11  O   UNL     1       4.199  43.813  10.206  1.00  0.00    -0.423 OA
ENDROOT
BRANCH   1  12
ATOM     12  O   UNL     1       1.124  40.455  13.379  1.00  0.00    -0.493 OA
ATOM     13  C   UNL     1       0.222  40.871  14.398  1.00  0.00     0.278 C 
ENDBRANCH   1  12
BRANCH   2  14
ATOM     14  O   UNL     1       3.639  39.682  12.629  1.00  0.00    -0.493 OA
ATOM     15  C   UNL     1       4.846  39.483  13.357  1.00  0.00     0.278 C 
ENDBRANCH   2  14
TORSDOF 2
ENDMDL
MODEL 8
REMARK VINA RESULT:    -5.468      1.819      3.312
REMARK INTER + INTRA:          -6.213
REMARK INTER:                  -6.102
REMARK INTRA:                  -0.110
REMARK UNBOUND:                -0.105
REMARK SMILES COc1cc2ccc(=O)oc2cc1OC
REMARK SMILES IDX 3 1 13 2 12 3 11 4 5 5 4 6 6 7 7 8 8 9 9 10 10 11 2 12 1 13
REMARK SMILES IDX 14 14 15 15
REMARK H PARENT
REMARK Flexibility Score: inf
ROOT
ATOM      1  C   UNL     1       1.019  46.448   8.562  1.00  0.00     0.161 A 
ATOM      2  C   UNL     1       2.274  47.079   8.521  1.00  0.00     0.164 A 
ATOM      3  C   UNL     1       3.304  46.642   9.378  1.00  0.00     0.098 A 
ATOM      4  C   UNL     1       3.086  45.587  10.267  1.00  0.00     0.142 A 
ATOM      5  C   UNL     1       1.828  44.954  10.307  1.00  0.00     0.022 A 
ATOM      6  C   UNL     1       0.800  45.383   9.459  1.00  0.00     0.062 A 
ATOM      7  C   UNL     1       1.641  43.900  11.208  1.00  0.00     0.019 A 
ATOM      8  C   UNL     1       2.694  43.509  12.033  1.00  0.00     0.094 A 
ATOM      9  C   UNL     1       3.916  44.183  11.937  1.00  0.00     0.336 A 
ATOM     10  O   UNL     1       4.880  43.846  12.672  1.00  0.00    -0.246 OA
ATOM     11  O   UNL     1       4.067  45.183  11.072  1.00  0.00    -0.423 OA
ENDROOT
BRANCH   1  12
ATOM     12  O   UNL     1       0.015  46.909   7.694  1.00  0.00    -0.493 OA
ATOM     13  C   UNL     1      -0.789  46.070   6.872  1.00  0.00     0.278 C 
ENDBRANCH   1  12
BRANCH   2  14
ATOM     14  O   UNL     1       2.459  48.136   7.616  1.00  0.00    -0.493 OA
ATOM     15  C   UNL     1       3.726  48.664   7.237  1.00  0.00     0.278 C 
ENDBRANCH   2  14
TORSDOF 2
ENDMDL
MODEL 9
REMARK VINA RESULT:    -5.393      1.830      2.686
REMARK INTER + INTRA:          -6.129
REMARK INTER:                  -6.036
REMARK INTRA:                  -0.093
REMARK UNBOUND:                -0.105
REMARK SMILES COc1cc2ccc(=O)oc2cc1OC
REMARK SMILES IDX 3 1 13 2 12 3 11 4 5 5 4 6 6 7 7 8 8 9 9 10 10 11 2 12 1 13
REMARK SMILES IDX 14 14 15 15
REMARK H PARENT
REMARK Flexibility Score: inf
ROOT
ATOM      1  C   UNL     1       3.592  44.596   9.996  1.00  0.00     0.161 A 
ATOM      2  C   UNL     1       2.286  44.963  10.362  1.00  0.00     0.164 A 
ATOM      3  C   UNL     1       1.522  44.105  11.179  1.00  0.00     0.098 A 
ATOM      4  C   UNL     1       2.054  42.894  11.626  1.00  0.00     0.142 A 
ATOM      5  C   UNL     1       3.364  42.526  11.260  1.00  0.00     0.022 A 
ATOM      6  C   UNL     1       4.129  43.373  10.447  1.00  0.00     0.062 A 
ATOM      7  C   UNL     1       3.869  41.307  11.724  1.00  0.00     0.019 A 
ATOM      8  C   UNL     1       3.070  40.497  12.529  1.00  0.00     0.094 A 
ATOM      9  C   UNL     1       1.779  40.928  12.853  1.00  0.00     0.336 A 
ATOM     10  O   UNL     1       1.041  40.212  13.579  1.00  0.00    -0.246 OA
ATOM     11  O   UNL     1       1.323  42.092  12.398  1.00  0.00    -0.423 OA
ENDROOT
BRANCH   1  12
ATOM     12  O   UNL     1       4.325  45.473   9.180  1.00  0.00    -0.493 OA
ATOM     13  C   UNL     1       5.128  46.545   9.665  1.00  0.00     0.278 C 
ENDBRANCH   1  12
BRANCH   2  14
ATOM     14  O   UNL     1       1.783  46.187   9.894  1.00  0.00    -0.493 OA
ATOM     15  C   UNL     1       0.911  46.328   8.777  1.00  0.00     0.278 C 
ENDBRANCH   2  14
TORSDOF 2
ENDMDL
