MODEL 1
REMARK VINA RESULT:    -3.850      0.000      0.000
REMARK INTER + INTRA:          -4.239
REMARK INTER:                  -4.075
REMARK INTRA:                  -0.164
REMARK UNBOUND:                -0.164
REMARK SMILES CC(C)[C@@H]1CC[C@H](C)CC1=O
REMARK SMILES IDX 8 1 7 2 6 3 5 4 4 5 10 6 11 7 9 8 2 9 1 10 3 11
REMARK H PARENT
REMARK Flexibility Score: inf
ROOT
ATOM      1  C   UNL     1      -1.568   4.864  -7.122  1.00  0.00     0.008 C 
ATOM      2  C   UNL     1      -1.697   3.334  -7.065  1.00  0.00    -0.007 C 
ATOM      3  C   UNL     1      -0.425   2.629  -7.591  1.00  0.00     0.004 C 
ATOM      4  C   UNL     1       0.773   2.744  -6.626  1.00  0.00     0.012 C 
ATOM      5  C   UNL     1       0.428   2.227  -5.210  1.00  0.00     0.058 C 
ATOM      6  C   UNL     1      -0.839   2.934  -4.761  1.00  0.00     0.136 C 
ATOM      7  O   UNL     1      -0.870   3.633  -3.758  1.00  0.00    -0.299 OA
ATOM      8  C   UNL     1      -2.048   2.848  -5.646  1.00  0.00     0.079 C 
ENDROOT
BRANCH   5   9
ATOM      9  C   UNL     1       1.606   2.383  -4.191  1.00  0.00    -0.007 C 
ATOM     10  C   UNL     1       1.919   1.040  -3.504  1.00  0.00     0.008 C 
ATOM     11  C   UNL     1       2.895   2.908  -4.848  1.00  0.00     0.008 C 
ENDBRANCH   5   9
TORSDOF 1
ENDMDL
MODEL 2
REMARK VINA RESULT:    -3.573      2.103      4.322
REMARK INTER + INTRA:          -3.946
REMARK INTER:                  -3.769
REMARK INTRA:                  -0.176
REMARK UNBOUND:                -0.164
REMARK SMILES CC(C)[C@@H]1CC[C@H](C)CC1=O
REMARK SMILES IDX 8 1 7 2 6 3 5 4 4 5 10 6 11 7 9 8 2 9 1 10 3 11
REMARK H PARENT
REMARK Flexibility Score: inf
ROOT
ATOM      1  C   UNL     1       0.902   2.837  -6.431  1.00  0.00     0.008 C 
ATOM      2  C   UNL     1       0.633   2.866  -4.919  1.00  0.00    -0.007 C 
ATOM      3  C   UNL     1       0.517   4.312  -4.382  1.00  0.00     0.004 C 
ATOM      4  C   UNL     1      -0.789   5.013  -4.810  1.00  0.00     0.012 C 
ATOM      5  C   UNL     1      -2.041   4.197  -4.411  1.00  0.00     0.058 C 
ATOM      6  C   UNL     1      -1.856   2.786  -4.941  1.00  0.00     0.136 C 
ATOM      7  O   UNL     1      -2.638   2.286  -5.737  1.00  0.00    -0.299 OA
ATOM      8  C   UNL     1      -0.613   2.041  -4.550  1.00  0.00     0.079 C 
ENDROOT
BRANCH   5   9
ATOM      9  C   UNL     1      -3.382   4.854  -4.881  1.00  0.00    -0.007 C 
ATOM     10  C   UNL     1      -4.017   5.679  -3.745  1.00  0.00     0.008 C 
ATOM     11  C   UNL     1      -3.199   5.768  -6.106  1.00  0.00     0.008 C 
ENDBRANCH   5   9
TORSDOF 1
ENDMDL
MODEL 3
REMARK VINA RESULT:    -3.419      1.283      1.687
REMARK INTER + INTRA:          -3.782
REMARK INTER:                  -3.620
REMARK INTRA:                  -0.162
REMARK UNBOUND:                -0.164
REMARK SMILES CC(C)[C@@H]1CC[C@H](C)CC1=O
REMARK SMILES IDX 8 1 7 2 6 3 5 4 4 5 10 6 11 7 9 8 2 9 1 10 3 11
REMARK H PARENT
REMARK Flexibility Score: inf
ROOT
ATOM      1  C   UNL     1      -2.662   4.922  -6.839  1.00  0.00     0.008 C 
ATOM      2  C   UNL     1      -3.029   3.989  -5.674  1.00  0.00    -0.007 C 
ATOM      3  C   UNL     1      -2.560   2.538  -5.929  1.00  0.00     0.004 C 
ATOM      4  C   UNL     1      -1.031   2.367  -5.820  1.00  0.00     0.012 C 
ATOM      5  C   UNL     1      -0.488   2.869  -4.460  1.00  0.00     0.058 C 
ATOM      6  C   UNL     1      -1.002   4.283  -4.256  1.00  0.00     0.136 C 
ATOM      7  O   UNL     1      -0.245   5.234  -4.122  1.00  0.00    -0.299 OA
ATOM      8  C   UNL     1      -2.482   4.516  -4.334  1.00  0.00     0.079 C 
ENDROOT
BRANCH   5   9
ATOM      9  C   UNL     1       1.068   2.762  -4.340  1.00  0.00    -0.007 C 
ATOM     10  C   UNL     1       1.480   1.417  -3.712  1.00  0.00     0.008 C 
ATOM     11  C   UNL     1       1.781   2.907  -5.697  1.00  0.00     0.008 C 
ENDBRANCH   5   9
TORSDOF 1
ENDMDL
MODEL 4
REMARK VINA RESULT:    -3.351     13.104     14.786
REMARK INTER + INTRA:          -3.711
REMARK INTER:                  -3.551
REMARK INTRA:                  -0.160
REMARK UNBOUND:                -0.164
REMARK SMILES CC(C)[C@@H]1CC[C@H](C)CC1=O
REMARK SMILES IDX 8 1 7 2 6 3 5 4 4 5 10 6 11 7 9 8 2 9 1 10 3 11
REMARK H PARENT
REMARK Flexibility Score: inf
ROOT
ATOM      1  C   UNL     1       0.589   3.269   8.711  1.00  0.00     0.008 C 
ATOM      2  C   UNL     1       0.130   1.802   8.723  1.00  0.00    -0.007 C 
ATOM      3  C   UNL     1      -0.722   1.474   9.971  1.00  0.00     0.004 C 
ATOM      4  C   UNL     1      -2.130   2.103   9.926  1.00  0.00     0.012 C 
ATOM      5  C   UNL     1      -2.898   1.708   8.642  1.00  0.00     0.058 C 
ATOM      6  C   UNL     1      -2.004   2.028   7.457  1.00  0.00     0.136 C 
ATOM      7  O   UNL     1      -2.342   2.815   6.584  1.00  0.00    -0.299 OA
ATOM      8  C   UNL     1      -0.625   1.436   7.431  1.00  0.00     0.079 C 
ENDROOT
BRANCH   5   9
ATOM      9  C   UNL     1      -4.310   2.375   8.537  1.00  0.00    -0.007 C 
ATOM     10  C   UNL     1      -5.372   1.347   8.103  1.00  0.00     0.008 C 
ATOM     11  C   UNL     1      -4.763   3.017   9.861  1.00  0.00     0.008 C 
ENDBRANCH   5   9
TORSDOF 1
ENDMDL
MODEL 5
REMARK VINA RESULT:    -3.343      1.836      4.367
REMARK INTER + INTRA:          -3.702
REMARK INTER:                  -3.565
REMARK INTRA:                  -0.138
REMARK UNBOUND:                -0.164
REMARK SMILES CC(C)[C@@H]1CC[C@H](C)CC1=O
REMARK SMILES IDX 8 1 7 2 6 3 5 4 4 5 10 6 11 7 9 8 2 9 1 10 3 11
REMARK H PARENT
REMARK Flexibility Score: inf
ROOT
ATOM      1  C   UNL     1       2.036   3.626  -4.864  1.00  0.00     0.008 C 
ATOM      2  C   UNL     1       1.112   2.460  -5.248  1.00  0.00    -0.007 C 
ATOM      3  C   UNL     1       0.010   2.226  -4.189  1.00  0.00     0.004 C 
ATOM      4  C   UNL     1      -1.074   3.323  -4.191  1.00  0.00     0.012 C 
ATOM      5  C   UNL     1      -1.713   3.503  -5.589  1.00  0.00     0.058 C 
ATOM      6  C   UNL     1      -0.584   3.702  -6.585  1.00  0.00     0.136 C 
ATOM      7  O   UNL     1      -0.489   4.715  -7.263  1.00  0.00    -0.299 OA
ATOM      8  C   UNL     1       0.497   2.662  -6.645  1.00  0.00     0.079 C 
ENDROOT
BRANCH   5   9
ATOM      9  C   UNL     1      -2.778   4.648  -5.639  1.00  0.00    -0.007 C 
ATOM     10  C   UNL     1      -3.895   4.315  -6.646  1.00  0.00     0.008 C 
ATOM     11  C   UNL     1      -3.422   4.921  -4.267  1.00  0.00     0.008 C 
ENDBRANCH   5   9
TORSDOF 1
ENDMDL
MODEL 6
REMARK VINA RESULT:    -3.254      1.305      4.152
REMARK INTER + INTRA:          -3.608
REMARK INTER:                  -3.466
REMARK INTRA:                  -0.142
REMARK UNBOUND:                -0.164
REMARK SMILES CC(C)[C@@H]1CC[C@H](C)CC1=O
REMARK SMILES IDX 8 1 7 2 6 3 5 4 4 5 10 6 11 7 9 8 2 9 1 10 3 11
REMARK H PARENT
REMARK Flexibility Score: inf
ROOT
ATOM      1  C   UNL     1       1.164   1.952  -4.089  1.00  0.00     0.008 C 
ATOM      2  C   UNL     1       1.263   3.237  -4.925  1.00  0.00    -0.007 C 
ATOM      3  C   UNL     1       1.040   2.964  -6.431  1.00  0.00     0.004 C 
ATOM      4  C   UNL     1      -0.427   2.638  -6.776  1.00  0.00     0.012 C 
ATOM      5  C   UNL     1      -1.396   3.743  -6.289  1.00  0.00     0.058 C 
ATOM      6  C   UNL     1      -1.112   3.983  -4.817  1.00  0.00     0.136 C 
ATOM      7  O   UNL     1      -1.966   3.823  -3.957  1.00  0.00    -0.299 OA
ATOM      8  C   UNL     1       0.295   4.320  -4.414  1.00  0.00     0.079 C 
ENDROOT
BRANCH   5   9
ATOM      9  C   UNL     1      -2.899   3.416  -6.574  1.00  0.00    -0.007 C 
ATOM     10  C   UNL     1      -3.694   4.701  -6.873  1.00  0.00     0.008 C 
ATOM     11  C   UNL     1      -3.083   2.443  -7.753  1.00  0.00     0.008 C 
ENDBRANCH   5   9
TORSDOF 1
ENDMDL
MODEL 7
REMARK VINA RESULT:    -3.147      9.278     11.749
REMARK INTER + INTRA:          -3.495
REMARK INTER:                  -3.330
REMARK INTRA:                  -0.164
REMARK UNBOUND:                -0.164
REMARK SMILES CC(C)[C@@H]1CC[C@H](C)CC1=O
REMARK SMILES IDX 8 1 7 2 6 3 5 4 4 5 10 6 11 7 9 8 2 9 1 10 3 11
REMARK H PARENT
REMARK Flexibility Score: inf
ROOT
ATOM      1  C   UNL     1       4.080  -8.959   0.142  1.00  0.00     0.008 C 
ATOM      2  C   UNL     1       3.709  -8.222  -1.155  1.00  0.00    -0.007 C 
ATOM      3  C   UNL     1       2.223  -8.430  -1.530  1.00  0.00     0.004 C 
ATOM      4  C   UNL     1       1.253  -7.666  -0.606  1.00  0.00     0.012 C 
ATOM      5  C   UNL     1       1.579  -6.154  -0.546  1.00  0.00     0.058 C 
ATOM      6  C   UNL     1       3.051  -6.017  -0.201  1.00  0.00     0.136 C 
ATOM      7  O   UNL     1       3.429  -5.430   0.803  1.00  0.00    -0.299 OA
ATOM      8  C   UNL     1       4.051  -6.723  -1.070  1.00  0.00     0.079 C 
ENDROOT
BRANCH   5   9
ATOM      9  C   UNL     1       0.647  -5.360   0.428  1.00  0.00    -0.007 C 
ATOM     10  C   UNL     1      -0.041  -4.191  -0.302  1.00  0.00     0.008 C 
ATOM     11  C   UNL     1      -0.439  -6.244   1.066  1.00  0.00     0.008 C 
ENDBRANCH   5   9
TORSDOF 1
ENDMDL
MODEL 8
REMARK VINA RESULT:    -3.104      2.055      4.294
REMARK INTER + INTRA:          -3.449
REMARK INTER:                  -3.289
REMARK INTRA:                  -0.160
REMARK UNBOUND:                -0.164
REMARK SMILES CC(C)[C@@H]1CC[C@H](C)CC1=O
REMARK SMILES IDX 8 1 7 2 6 3 5 4 4 5 10 6 11 7 9 8 2 9 1 10 3 11
REMARK H PARENT
REMARK Flexibility Score: inf
ROOT
ATOM      1  C   UNL     1       1.220   1.876  -4.102  1.00  0.00     0.008 C 
ATOM      2  C   UNL     1       1.127   2.609  -5.449  1.00  0.00    -0.007 C 
ATOM      3  C   UNL     1      -0.281   2.487  -6.076  1.00  0.00     0.004 C 
ATOM      4  C   UNL     1      -1.346   3.326  -5.341  1.00  0.00     0.012 C 
ATOM      5  C   UNL     1      -0.940   4.815  -5.239  1.00  0.00     0.058 C 
ATOM      6  C   UNL     1       0.456   4.869  -4.643  1.00  0.00     0.136 C 
ATOM      7  O   UNL     1       0.690   5.451  -3.593  1.00  0.00    -0.299 OA
ATOM      8  C   UNL     1       1.544   4.086  -5.319  1.00  0.00     0.079 C 
ENDROOT
BRANCH   5   9
ATOM      9  C   UNL     1      -1.973   5.685  -4.449  1.00  0.00    -0.007 C 
ATOM     10  C   UNL     1      -2.263   7.004  -5.191  1.00  0.00     0.008 C 
ATOM     11  C   UNL     1      -3.307   4.954  -4.212  1.00  0.00     0.008 C 
ENDBRANCH   5   9
TORSDOF 1
ENDMDL
MODEL 9
REMARK VINA RESULT:    -3.022      1.738      3.630
REMARK INTER + INTRA:          -3.363
REMARK INTER:                  -3.184
REMARK INTRA:                  -0.178
REMARK UNBOUND:                -0.164
REMARK SMILES CC(C)[C@@H]1CC[C@H](C)CC1=O
REMARK SMILES IDX 8 1 7 2 6 3 5 4 4 5 10 6 11 7 9 8 2 9 1 10 3 11
REMARK H PARENT
REMARK Flexibility Score: inf
ROOT
ATOM      1  C   UNL     1      -0.646   4.686  -4.233  1.00  0.00     0.008 C 
ATOM      2  C   UNL     1      -0.939   3.199  -4.487  1.00  0.00    -0.007 C 
ATOM      3  C   UNL     1      -1.900   2.997  -5.682  1.00  0.00     0.004 C 
ATOM      4  C   UNL     1      -1.241   3.286  -7.045  1.00  0.00     0.012 C 
ATOM      5  C   UNL     1       0.046   2.452  -7.254  1.00  0.00     0.058 C 
ATOM      6  C   UNL     1       0.935   2.670  -6.042  1.00  0.00     0.136 C 
ATOM      7  O   UNL     1       2.057   3.144  -6.139  1.00  0.00    -0.299 OA
ATOM      8  C   UNL     1       0.359   2.392  -4.684  1.00  0.00     0.079 C 
ENDROOT
BRANCH   5   9
ATOM      9  C   UNL     1       0.772   2.763  -8.605  1.00  0.00    -0.007 C 
ATOM     10  C   UNL     1       0.443   1.693  -9.664  1.00  0.00     0.008 C 
ATOM     11  C   UNL     1       0.401   4.145  -9.175  1.00  0.00     0.008 C 
ENDBRANCH   5   9
TORSDOF 1
ENDMDL
