MODEL 1
REMARK VINA RESULT:    -4.728      0.000      0.000
REMARK INTER + INTRA:          -7.512
REMARK INTER:                  -7.215
REMARK INTRA:                  -0.297
REMARK UNBOUND:                -0.297
REMARK SMILES CCCCCCCCCCC(=O)[O-]
REMARK SMILES IDX 7 1 8 2 9 3 10 4 11 5 12 6 13 7 6 8 5 9 4 10 3 11 2 12 1 13
REMARK H PARENT
REMARK Flexibility Score: inf
ROOT
ATOM      1  C   UNL     1       4.753 -37.403  19.881  1.00  0.00     0.000 C 
ENDROOT
BRANCH   1   2
ATOM      2  C   UNL     1       5.580 -36.139  20.193  1.00  0.00     0.000 C 
BRANCH   2   3
ATOM      3  C   UNL     1       5.304 -35.498  21.568  1.00  0.00     0.006 C 
BRANCH   3   4
ATOM      4  C   UNL     1       6.078 -36.135  22.732  1.00  0.00     0.053 C 
BRANCH   4   5
ATOM      5  C   UNL     1       5.890 -35.377  24.010  1.00  0.00     0.041 C 
ATOM      6  O   UNL     1       5.993 -34.122  24.024  1.00  0.00    -0.550 OA
ATOM      7  O   UNL     1       5.568 -36.056  25.178  1.00  0.00    -0.550 OA
ENDBRANCH   4   5
ENDBRANCH   3   4
ENDBRANCH   2   3
ENDBRANCH   1   2
BRANCH   1   8
ATOM      8  C   UNL     1       3.317 -37.139  19.398  1.00  0.00     0.000 C 
BRANCH   8   9
ATOM      9  C   UNL     1       3.108 -37.504  17.920  1.00  0.00    -0.000 C 
BRANCH   9  10
ATOM     10  C   UNL     1       3.311 -36.277  17.019  1.00  0.00    -0.000 C 
BRANCH  10  11
ATOM     11  C   UNL     1       2.256 -36.170  15.903  1.00  0.00    -0.000 C 
BRANCH  11  12
ATOM     12  C   UNL     1       2.784 -36.456  14.486  1.00  0.00    -0.003 C 
ATOM     13  C   UNL     1       3.893 -37.507  14.463  1.00  0.00     0.004 C 
ENDBRANCH  11  12
ENDBRANCH  10  11
ENDBRANCH   9  10
ENDBRANCH   8   9
ENDBRANCH   1   8
TORSDOF 9
ENDMDL
MODEL 2
REMARK VINA RESULT:    -4.594      0.765      1.350
REMARK INTER + INTRA:          -7.308
REMARK INTER:                  -6.946
REMARK INTRA:                  -0.362
REMARK UNBOUND:                -0.297
REMARK SMILES CCCCCCCCCCC(=O)[O-]
REMARK SMILES IDX 7 1 8 2 9 3 10 4 11 5 12 6 13 7 6 8 5 9 4 10 3 11 2 12 1 13
REMARK H PARENT
REMARK Flexibility Score: inf
ROOT
ATOM      1  C   UNL     1       3.396 -37.135  19.488  1.00  0.00     0.000 C 
ENDROOT
BRANCH   1   2
ATOM      2  C   UNL     1       4.916 -37.299  19.691  1.00  0.00     0.000 C 
BRANCH   2   3
ATOM      3  C   UNL     1       5.410 -37.094  21.137  1.00  0.00     0.006 C 
BRANCH   3   4
ATOM      4  C   UNL     1       5.868 -35.663  21.454  1.00  0.00     0.053 C 
BRANCH   4   5
ATOM      5  C   UNL     1       6.035 -35.442  22.926  1.00  0.00     0.041 C 
ATOM      6  O   UNL     1       6.063 -34.272  23.393  1.00  0.00    -0.550 OA
ATOM      7  O   UNL     1       6.125 -36.529  23.785  1.00  0.00    -0.550 OA
ENDBRANCH   4   5
ENDBRANCH   3   4
ENDBRANCH   2   3
ENDBRANCH   1   2
BRANCH   1   8
ATOM      8  C   UNL     1       2.888 -37.466  18.073  1.00  0.00     0.000 C 
BRANCH   8   9
ATOM      9  C   UNL     1       3.252 -36.389  17.041  1.00  0.00    -0.000 C 
BRANCH   9  10
ATOM     10  C   UNL     1       2.095 -36.158  16.058  1.00  0.00    -0.000 C 
BRANCH  10  11
ATOM     11  C   UNL     1       2.397 -36.680  14.642  1.00  0.00    -0.000 C 
BRANCH  11  12
ATOM     12  C   UNL     1       3.887 -36.934  14.351  1.00  0.00    -0.003 C 
ATOM     13  C   UNL     1       4.221 -38.417  14.195  1.00  0.00     0.004 C 
ENDBRANCH  11  12
ENDBRANCH  10  11
ENDBRANCH   9  10
ENDBRANCH   8   9
ENDBRANCH   1   8
TORSDOF 9
ENDMDL
MODEL 3
REMARK VINA RESULT:    -4.484      4.314      7.579
REMARK INTER + INTRA:          -7.140
REMARK INTER:                  -6.795
REMARK INTRA:                  -0.345
REMARK UNBOUND:                -0.297
REMARK SMILES CCCCCCCCCCC(=O)[O-]
REMARK SMILES IDX 7 1 8 2 9 3 10 4 11 5 12 6 13 7 6 8 5 9 4 10 3 11 2 12 1 13
REMARK H PARENT
REMARK Flexibility Score: inf
ROOT
ATOM      1  C   UNL     1       3.772 -37.395  19.208  1.00  0.00     0.000 C 
ENDROOT
BRANCH   1   2
ATOM      2  C   UNL     1       2.312 -37.532  18.727  1.00  0.00     0.000 C 
BRANCH   2   3
ATOM      3  C   UNL     1       2.065 -37.130  17.259  1.00  0.00     0.006 C 
BRANCH   3   4
ATOM      4  C   UNL     1       3.330 -36.714  16.494  1.00  0.00     0.053 C 
BRANCH   4   5
ATOM      5  C   UNL     1       3.180 -36.911  15.017  1.00  0.00     0.041 C 
ATOM      6  O   UNL     1       2.219 -36.379  14.400  1.00  0.00    -0.550 OA
ATOM      7  O   UNL     1       4.122 -37.654  14.317  1.00  0.00    -0.550 OA
ENDBRANCH   4   5
ENDBRANCH   3   4
ENDBRANCH   2   3
ENDBRANCH   1   2
BRANCH   1   8
ATOM      8  C   UNL     1       4.014 -36.282  20.243  1.00  0.00     0.000 C 
BRANCH   8   9
ATOM      9  C   UNL     1       5.504 -35.965  20.440  1.00  0.00    -0.000 C 
BRANCH   9  10
ATOM     10  C   UNL     1       5.902 -36.100  21.917  1.00  0.00    -0.000 C 
BRANCH  10  11
ATOM     11  C   UNL     1       5.836 -34.764  22.681  1.00  0.00    -0.000 C 
BRANCH  11  12
ATOM     12  C   UNL     1       6.123 -34.869  24.189  1.00  0.00    -0.003 C 
ATOM     13  C   UNL     1       6.117 -36.309  24.700  1.00  0.00     0.004 C 
ENDBRANCH  11  12
ENDBRANCH  10  11
ENDBRANCH   9  10
ENDBRANCH   8   9
ENDBRANCH   1   8
TORSDOF 9
ENDMDL
MODEL 4
REMARK VINA RESULT:    -4.451      4.336      7.545
REMARK INTER + INTRA:          -7.090
REMARK INTER:                  -6.682
REMARK INTRA:                  -0.408
REMARK UNBOUND:                -0.297
REMARK SMILES CCCCCCCCCCC(=O)[O-]
REMARK SMILES IDX 7 1 8 2 9 3 10 4 11 5 12 6 13 7 6 8 5 9 4 10 3 11 2 12 1 13
REMARK H PARENT
REMARK Flexibility Score: inf
ROOT
ATOM      1  C   UNL     1       2.846 -37.174  19.759  1.00  0.00     0.000 C 
ENDROOT
BRANCH   1   2
ATOM      2  C   UNL     1       2.155 -37.592  18.445  1.00  0.00     0.000 C 
BRANCH   2   3
ATOM      3  C   UNL     1       2.559 -36.773  17.203  1.00  0.00     0.006 C 
BRANCH   3   4
ATOM      4  C   UNL     1       3.382 -37.555  16.168  1.00  0.00     0.053 C 
BRANCH   4   5
ATOM      5  C   UNL     1       3.192 -37.019  14.782  1.00  0.00     0.041 C 
ATOM      6  O   UNL     1       4.021 -37.297  13.875  1.00  0.00    -0.550 OA
ATOM      7  O   UNL     1       2.080 -36.242  14.485  1.00  0.00    -0.550 OA
ENDBRANCH   4   5
ENDBRANCH   3   4
ENDBRANCH   2   3
ENDBRANCH   1   2
BRANCH   1   8
ATOM      8  C   UNL     1       4.379 -37.308  19.760  1.00  0.00     0.000 C 
BRANCH   8   9
ATOM      9  C   UNL     1       5.095 -35.963  19.952  1.00  0.00    -0.000 C 
BRANCH   9  10
ATOM     10  C   UNL     1       4.891 -35.431  21.378  1.00  0.00    -0.000 C 
BRANCH  10  11
ATOM     11  C   UNL     1       6.048 -35.794  22.326  1.00  0.00    -0.000 C 
BRANCH  11  12
ATOM     12  C   UNL     1       5.970 -35.142  23.718  1.00  0.00    -0.003 C 
ATOM     13  C   UNL     1       5.805 -36.160  24.846  1.00  0.00     0.004 C 
ENDBRANCH  11  12
ENDBRANCH  10  11
ENDBRANCH   9  10
ENDBRANCH   8   9
ENDBRANCH   1   8
TORSDOF 9
ENDMDL
MODEL 5
REMARK VINA RESULT:    -3.977      3.993      7.618
REMARK INTER + INTRA:          -6.366
REMARK INTER:                  -6.009
REMARK INTRA:                  -0.357
REMARK UNBOUND:                -0.297
REMARK SMILES CCCCCCCCCCC(=O)[O-]
REMARK SMILES IDX 7 1 8 2 9 3 10 4 11 5 12 6 13 7 6 8 5 9 4 10 3 11 2 12 1 13
REMARK H PARENT
REMARK Flexibility Score: inf
ROOT
ATOM      1  C   UNL     1       5.135 -35.462  19.501  1.00  0.00     0.000 C 
ENDROOT
BRANCH   1   2
ATOM      2  C   UNL     1       4.096 -36.577  19.736  1.00  0.00     0.000 C 
BRANCH   2   3
ATOM      3  C   UNL     1       3.505 -37.203  18.457  1.00  0.00     0.006 C 
BRANCH   3   4
ATOM      4  C   UNL     1       3.448 -36.251  17.253  1.00  0.00     0.053 C 
BRANCH   4   5
ATOM      5  C   UNL     1       2.901 -36.925  16.032  1.00  0.00     0.041 C 
ATOM      6  O   UNL     1       3.448 -37.967  15.584  1.00  0.00    -0.550 OA
ATOM      7  O   UNL     1       1.766 -36.421  15.410  1.00  0.00    -0.550 OA
ENDBRANCH   4   5
ENDBRANCH   3   4
ENDBRANCH   2   3
ENDBRANCH   1   2
BRANCH   1   8
ATOM      8  C   UNL     1       6.125 -35.239  20.657  1.00  0.00     0.000 C 
BRANCH   8   9
ATOM      9  C   UNL     1       5.540 -35.620  22.025  1.00  0.00    -0.000 C 
BRANCH   9  10
ATOM     10  C   UNL     1       6.108 -34.722  23.134  1.00  0.00    -0.000 C 
BRANCH  10  11
ATOM     11  C   UNL     1       5.937 -35.323  24.541  1.00  0.00    -0.000 C 
BRANCH  11  12
ATOM     12  C   UNL     1       5.450 -36.782  24.564  1.00  0.00    -0.003 C 
ATOM     13  C   UNL     1       4.937 -37.219  25.936  1.00  0.00     0.004 C 
ENDBRANCH  11  12
ENDBRANCH  10  11
ENDBRANCH   9  10
ENDBRANCH   8   9
ENDBRANCH   1   8
TORSDOF 9
ENDMDL
MODEL 6
REMARK VINA RESULT:    -3.239      3.328      7.001
REMARK INTER + INTRA:          -5.240
REMARK INTER:                  -4.985
REMARK INTRA:                  -0.256
REMARK UNBOUND:                -0.297
REMARK SMILES CCCCCCCCCCC(=O)[O-]
REMARK SMILES IDX 7 1 8 2 9 3 10 4 11 5 12 6 13 7 6 8 5 9 4 10 3 11 2 12 1 13
REMARK H PARENT
REMARK Flexibility Score: inf
ROOT
ATOM      1  C   UNL     1       4.990 -37.507  19.709  1.00  0.00     0.000 C 
ENDROOT
BRANCH   1   2
ATOM      2  C   UNL     1       4.231 -36.591  18.726  1.00  0.00     0.000 C 
BRANCH   2   3
ATOM      3  C   UNL     1       3.392 -37.325  17.661  1.00  0.00     0.006 C 
BRANCH   3   4
ATOM      4  C   UNL     1       1.918 -36.897  17.610  1.00  0.00     0.053 C 
BRANCH   4   5
ATOM      5  C   UNL     1       1.109 -37.546  18.692  1.00  0.00     0.041 C 
ATOM      6  O   UNL     1       0.007 -38.091  18.420  1.00  0.00    -0.550 OA
ATOM      7  O   UNL     1       1.591 -37.577  19.994  1.00  0.00    -0.550 OA
ENDBRANCH   4   5
ENDBRANCH   3   4
ENDBRANCH   2   3
ENDBRANCH   1   2
BRANCH   1   8
ATOM      8  C   UNL     1       5.502 -36.812  20.983  1.00  0.00     0.000 C 
BRANCH   8   9
ATOM      9  C   UNL     1       4.745 -35.515  21.301  1.00  0.00    -0.000 C 
BRANCH   9  10
ATOM     10  C   UNL     1       5.210 -34.923  22.640  1.00  0.00    -0.000 C 
BRANCH  10  11
ATOM     11  C   UNL     1       6.114 -35.880  23.438  1.00  0.00    -0.000 C 
BRANCH  11  12
ATOM     12  C   UNL     1       6.032 -35.722  24.967  1.00  0.00    -0.003 C 
ATOM     13  C   UNL     1       5.310 -36.883  25.650  1.00  0.00     0.004 C 
ENDBRANCH  11  12
ENDBRANCH  10  11
ENDBRANCH   9  10
ENDBRANCH   8   9
ENDBRANCH   1   8
TORSDOF 9
ENDMDL
MODEL 7
REMARK VINA RESULT:    -3.160      4.242      6.192
REMARK INTER + INTRA:          -5.121
REMARK INTER:                  -4.407
REMARK INTRA:                  -0.714
REMARK UNBOUND:                -0.297
REMARK SMILES CCCCCCCCCCC(=O)[O-]
REMARK SMILES IDX 7 1 8 2 9 3 10 4 11 5 12 6 13 7 6 8 5 9 4 10 3 11 2 12 1 13
REMARK H PARENT
REMARK Flexibility Score: inf
ROOT
ATOM      1  C   UNL     1       5.654 -34.845  19.192  1.00  0.00     0.000 C 
ENDROOT
BRANCH   1   2
ATOM      2  C   UNL     1       4.663 -34.565  18.044  1.00  0.00     0.000 C 
BRANCH   2   3
ATOM      3  C   UNL     1       4.288 -35.792  17.189  1.00  0.00     0.006 C 
BRANCH   3   4
ATOM      4  C   UNL     1       3.032 -35.603  16.324  1.00  0.00     0.053 C 
BRANCH   4   5
ATOM      5  C   UNL     1       2.933 -36.640  15.248  1.00  0.00     0.041 C 
ATOM      6  O   UNL     1       2.297 -36.396  14.189  1.00  0.00    -0.550 OA
ATOM      7  O   UNL     1       3.573 -37.863  15.401  1.00  0.00    -0.550 OA
ENDBRANCH   4   5
ENDBRANCH   3   4
ENDBRANCH   2   3
ENDBRANCH   1   2
BRANCH   1   8
ATOM      8  C   UNL     1       5.027 -35.453  20.459  1.00  0.00     0.000 C 
BRANCH   8   9
ATOM      9  C   UNL     1       5.403 -36.929  20.662  1.00  0.00    -0.000 C 
BRANCH   9  10
ATOM     10  C   UNL     1       4.366 -37.853  20.007  1.00  0.00    -0.000 C 
BRANCH  10  11
ATOM     11  C   UNL     1       2.960 -37.228  19.942  1.00  0.00    -0.000 C 
BRANCH  11  12
ATOM     12  C   UNL     1       2.000 -37.903  18.946  1.00  0.00    -0.003 C 
ATOM     13  C   UNL     1       0.543 -37.488  19.147  1.00  0.00     0.004 C 
ENDBRANCH  11  12
ENDBRANCH  10  11
ENDBRANCH   9  10
ENDBRANCH   8   9
ENDBRANCH   1   8
TORSDOF 9
ENDMDL
MODEL 8
REMARK VINA RESULT:    -3.137      4.490      7.067
REMARK INTER + INTRA:          -5.085
REMARK INTER:                  -4.655
REMARK INTRA:                  -0.430
REMARK UNBOUND:                -0.297
REMARK SMILES CCCCCCCCCCC(=O)[O-]
REMARK SMILES IDX 7 1 8 2 9 3 10 4 11 5 12 6 13 7 6 8 5 9 4 10 3 11 2 12 1 13
REMARK H PARENT
REMARK Flexibility Score: inf
ROOT
ATOM      1  C   UNL     1       2.559 -37.257  19.626  1.00  0.00     0.000 C 
ENDROOT
BRANCH   1   2
ATOM      2  C   UNL     1       3.433 -37.318  18.356  1.00  0.00     0.000 C 
BRANCH   2   3
ATOM      3  C   UNL     1       2.666 -37.177  17.026  1.00  0.00     0.006 C 
BRANCH   3   4
ATOM      4  C   UNL     1       3.309 -36.208  16.023  1.00  0.00     0.053 C 
BRANCH   4   5
ATOM      5  C   UNL     1       3.290 -36.753  14.627  1.00  0.00     0.041 C 
ATOM      6  O   UNL     1       2.291 -36.559  13.885  1.00  0.00    -0.550 OA
ATOM      7  O   UNL     1       4.389 -37.445  14.137  1.00  0.00    -0.550 OA
ENDBRANCH   4   5
ENDBRANCH   3   4
ENDBRANCH   2   3
ENDBRANCH   1   2
BRANCH   1   8
ATOM      8  C   UNL     1       3.150 -36.435  20.784  1.00  0.00     0.000 C 
BRANCH   8   9
ATOM      9  C   UNL     1       4.352 -35.579  20.356  1.00  0.00    -0.000 C 
BRANCH   9  10
ATOM     10  C   UNL     1       5.666 -36.353  20.532  1.00  0.00    -0.000 C 
BRANCH  10  11
ATOM     11  C   UNL     1       5.608 -37.385  21.674  1.00  0.00    -0.000 C 
BRANCH  11  12
ATOM     12  C   UNL     1       5.734 -38.851  21.226  1.00  0.00    -0.003 C 
ATOM     13  C   UNL     1       5.458 -39.846  22.353  1.00  0.00     0.004 C 
ENDBRANCH  11  12
ENDBRANCH  10  11
ENDBRANCH   9  10
ENDBRANCH   8   9
ENDBRANCH   1   8
TORSDOF 9
ENDMDL
MODEL 9
REMARK VINA RESULT:    -2.975      1.355      2.581
REMARK INTER + INTRA:          -4.838
REMARK INTER:                  -4.320
REMARK INTRA:                  -0.518
REMARK UNBOUND:                -0.297
REMARK SMILES CCCCCCCCCCC(=O)[O-]
REMARK SMILES IDX 7 1 8 2 9 3 10 4 11 5 12 6 13 7 6 8 5 9 4 10 3 11 2 12 1 13
REMARK H PARENT
REMARK Flexibility Score: inf
ROOT
ATOM      1  C   UNL     1       4.345 -37.100  19.380  1.00  0.00     0.000 C 
ENDROOT
BRANCH   1   2
ATOM      2  C   UNL     1       5.344 -37.241  20.546  1.00  0.00     0.000 C 
BRANCH   2   3
ATOM      3  C   UNL     1       5.860 -35.911  21.131  1.00  0.00     0.006 C 
BRANCH   3   4
ATOM      4  C   UNL     1       4.978 -35.322  22.241  1.00  0.00     0.053 C 
BRANCH   4   5
ATOM      5  C   UNL     1       5.723 -35.185  23.534  1.00  0.00     0.041 C 
ATOM      6  O   UNL     1       6.125 -36.210  24.146  1.00  0.00    -0.550 OA
ATOM      7  O   UNL     1       6.003 -33.924  24.044  1.00  0.00    -0.550 OA
ENDBRANCH   4   5
ENDBRANCH   3   4
ENDBRANCH   2   3
ENDBRANCH   1   2
BRANCH   1   8
ATOM      8  C   UNL     1       4.691 -36.006  18.354  1.00  0.00     0.000 C 
BRANCH   8   9
ATOM      9  C   UNL     1       3.572 -35.774  17.328  1.00  0.00    -0.000 C 
BRANCH   9  10
ATOM     10  C   UNL     1       2.933 -37.105  16.904  1.00  0.00    -0.000 C 
BRANCH  10  11
ATOM     11  C   UNL     1       1.444 -37.204  17.281  1.00  0.00    -0.000 C 
BRANCH  11  12
ATOM     12  C   UNL     1       1.145 -38.093  18.502  1.00  0.00    -0.003 C 
ATOM     13  C   UNL     1       0.854 -37.290  19.769  1.00  0.00     0.004 C 
ENDBRANCH  11  12
ENDBRANCH  10  11
ENDBRANCH   9  10
ENDBRANCH   8   9
ENDBRANCH   1   8
TORSDOF 9
ENDMDL
