MODEL 1
REMARK VINA RESULT:    -7.984      0.000      0.000
REMARK INTER + INTRA:         -13.463
REMARK INTER:                 -11.952
REMARK INTRA:                  -1.511
REMARK UNBOUND:                -1.511
REMARK SMILES C=C(CC[C@@H](C(=O)[O-])[C@H]1[C@H](O)C[C@@]2(C)C3=C(CC[C@@]12C)[C@]1(C)CC[C@@H](OC(C)=O)C(C)(C)[C@H]1CC3)C(C)C
REMARK SMILES IDX 4 1 5 2 6 3 7 4 8 5 9 6 10 7 19 8 12 9 13 10 18 11 20 12
REMARK SMILES IDX 14 13 15 14 17 15 16 16 35 17 21 18 34 19 33 20 23 21 22 22
REMARK SMILES IDX 30 23 24 24 25 25 31 26 32 27 11 28 26 30 27 31 29 32 28 33
REMARK SMILES IDX 3 34 2 35 1 36 36 37 37 38 38 39
REMARK H PARENT 11 29
REMARK Flexibility Score: inf
ROOT
ATOM      1  C   UNL     1      19.518 -37.915  25.959  1.00  0.00     0.014 C 
ENDROOT
BRANCH   1   2
ATOM      2  C   UNL     1      20.609 -36.834  25.734  1.00  0.00     0.042 C 
BRANCH   2   3
ATOM      3  C   UNL     1      21.961 -37.429  26.041  1.00  0.00     0.045 C 
ATOM      4  O   UNL     1      22.463 -37.314  27.191  1.00  0.00    -0.550 OA
ATOM      5  O   UNL     1      22.678 -38.079  25.045  1.00  0.00    -0.550 OA
ENDBRANCH   2   3
BRANCH   2   6
ATOM      6  C   UNL     1      20.556 -36.266  24.273  1.00  0.00     0.033 C 
ATOM      7  C   UNL     1      19.662 -37.120  23.343  1.00  0.00     0.119 C 
ATOM      8  C   UNL     1      20.043 -34.795  24.082  1.00  0.00    -0.017 C 
ATOM      9  C   UNL     1      18.956 -36.161  22.378  1.00  0.00     0.043 C 
ATOM     10  C   UNL     1      19.572 -34.766  22.586  1.00  0.00    -0.003 C 
ATOM     11  C   UNL     1      18.825 -34.512  24.996  1.00  0.00     0.012 C 
ATOM     12  C   UNL     1      21.158 -33.750  24.372  1.00  0.00     0.013 C 
ATOM     13  C   UNL     1      20.782 -34.610  21.613  1.00  0.00     0.017 C 
ATOM     14  C   UNL     1      18.520 -33.677  22.260  1.00  0.00    -0.064 C 
ATOM     15  C   UNL     1      18.190 -33.158  24.705  1.00  0.00     0.032 C 
ATOM     16  C   UNL     1      17.929 -32.906  23.231  1.00  0.00    -0.064 C 
ATOM     17  C   UNL     1      18.137 -33.510  20.775  1.00  0.00     0.032 C 
ATOM     18  C   UNL     1      17.021 -31.735  22.795  1.00  0.00    -0.008 C 
ATOM     19  C   UNL     1      16.839 -32.726  20.455  1.00  0.00     0.009 C 
ATOM     20  C   UNL     1      16.052 -32.354  21.725  1.00  0.00     0.009 C 
ATOM     21  C   UNL     1      16.189 -31.076  23.949  1.00  0.00     0.015 C 
ATOM     22  C   UNL     1      17.965 -30.627  22.243  1.00  0.00     0.016 C 
ATOM     23  C   UNL     1      14.676 -31.606  21.528  1.00  0.00     0.005 C 
ATOM     24  C   UNL     1      14.832 -31.748  24.149  1.00  0.00     0.047 C 
ATOM     25  C   UNL     1      13.913 -31.550  22.919  1.00  0.00     0.182 C 
ATOM     26  C   UNL     1      13.794 -32.403  20.531  1.00  0.00     0.015 C 
ATOM     27  C   UNL     1      14.859 -30.186  20.930  1.00  0.00     0.015 C 
BRANCH   7  28
ATOM     28  O   UNL     1      20.450 -38.039  22.628  1.00  0.00    -0.393 OA
ATOM     29  H   UNL     1      20.723 -38.742  23.274  1.00  0.00     0.210 HD
ENDBRANCH   7  28
BRANCH  25  30
ATOM     30  O   UNL     1      13.204 -30.315  23.083  1.00  0.00    -0.462 OA
BRANCH  30  31
ATOM     31  C   UNL     1      11.834 -30.155  22.845  1.00  0.00     0.302 C 
ATOM     32  O   UNL     1      11.223 -30.903  22.035  1.00  0.00    -0.253 OA
ATOM     33  C   UNL     1      11.099 -29.059  23.538  1.00  0.00     0.139 C 
ENDBRANCH  30  31
ENDBRANCH  25  30
ENDBRANCH   2   6
ENDBRANCH   1   2
BRANCH   1  34
ATOM     34  C   UNL     1      18.926 -37.952  27.383  1.00  0.00     0.031 C 
BRANCH  34  35
ATOM     35  C   UNL     1      17.434 -38.240  27.393  1.00  0.00    -0.075 C 
ATOM     36  C   UNL     1      16.637 -37.609  26.515  1.00  0.00     0.008 C 
BRANCH  35  37
ATOM     37  C   UNL     1      16.807 -39.112  28.477  1.00  0.00     0.008 C 
ATOM     38  C   UNL     1      15.277 -39.088  28.381  1.00  0.00     0.012 C 
ATOM     39  C   UNL     1      17.274 -38.706  29.879  1.00  0.00     0.012 C 
ENDBRANCH  35  37
ENDBRANCH  34  35
ENDBRANCH   1  34
TORSDOF 9
ENDMDL
MODEL 2
REMARK VINA RESULT:    -7.911      3.080      4.915
REMARK INTER + INTRA:         -13.354
REMARK INTER:                 -10.839
REMARK INTRA:                  -2.515
REMARK UNBOUND:                -1.511
REMARK SMILES C=C(CC[C@@H](C(=O)[O-])[C@H]1[C@H](O)C[C@@]2(C)C3=C(CC[C@@]12C)[C@]1(C)CC[C@@H](OC(C)=O)C(C)(C)[C@H]1CC3)C(C)C
REMARK SMILES IDX 4 1 5 2 6 3 7 4 8 5 9 6 10 7 19 8 12 9 13 10 18 11 20 12
REMARK SMILES IDX 14 13 15 14 17 15 16 16 35 17 21 18 34 19 33 20 23 21 22 22
REMARK SMILES IDX 30 23 24 24 25 25 31 26 32 27 11 28 26 30 27 31 29 32 28 33
REMARK SMILES IDX 3 34 2 35 1 36 36 37 37 38 38 39
REMARK H PARENT 11 29
REMARK Flexibility Score: inf
ROOT
ATOM      1  C   UNL     1      23.574 -31.624  26.439  1.00  0.00     0.014 C 
ENDROOT
BRANCH   1   2
ATOM      2  C   UNL     1      23.738 -31.926  24.925  1.00  0.00     0.042 C 
BRANCH   2   3
ATOM      3  C   UNL     1      25.189 -32.228  24.639  1.00  0.00     0.045 C 
ATOM      4  O   UNL     1      25.749 -31.755  23.615  1.00  0.00    -0.550 OA
ATOM      5  O   UNL     1      25.907 -33.060  25.487  1.00  0.00    -0.550 OA
ENDBRANCH   2   3
BRANCH   2   6
ATOM      6  C   UNL     1      22.811 -33.110  24.477  1.00  0.00     0.033 C 
ATOM      7  C   UNL     1      22.080 -33.768  25.671  1.00  0.00     0.119 C 
ATOM      8  C   UNL     1      21.678 -32.793  23.438  1.00  0.00    -0.017 C 
ATOM      9  C   UNL     1      20.684 -34.175  25.186  1.00  0.00     0.043 C 
ATOM     10  C   UNL     1      20.645 -33.951  23.664  1.00  0.00    -0.003 C 
ATOM     11  C   UNL     1      20.994 -31.442  23.761  1.00  0.00     0.012 C 
ATOM     12  C   UNL     1      22.221 -32.760  21.981  1.00  0.00     0.013 C 
ATOM     13  C   UNL     1      21.104 -35.267  22.961  1.00  0.00     0.017 C 
ATOM     14  C   UNL     1      19.198 -33.624  23.222  1.00  0.00    -0.064 C 
ATOM     15  C   UNL     1      19.773 -31.192  22.886  1.00  0.00     0.032 C 
ATOM     16  C   UNL     1      18.817 -32.368  22.814  1.00  0.00    -0.064 C 
ATOM     17  C   UNL     1      18.178 -34.778  23.284  1.00  0.00     0.032 C 
ATOM     18  C   UNL     1      17.398 -32.178  22.233  1.00  0.00    -0.008 C 
ATOM     19  C   UNL     1      16.673 -34.410  23.227  1.00  0.00     0.009 C 
ATOM     20  C   UNL     1      16.444 -32.888  23.259  1.00  0.00     0.009 C 
ATOM     21  C   UNL     1      16.956 -30.687  22.037  1.00  0.00     0.015 C 
ATOM     22  C   UNL     1      17.413 -32.824  20.816  1.00  0.00     0.016 C 
ATOM     23  C   UNL     1      14.948 -32.383  23.270  1.00  0.00     0.005 C 
ATOM     24  C   UNL     1      16.272 -30.112  23.276  1.00  0.00     0.047 C 
ATOM     25  C   UNL     1      14.928 -30.824  23.565  1.00  0.00     0.182 C 
ATOM     26  C   UNL     1      14.171 -33.095  24.409  1.00  0.00     0.015 C 
ATOM     27  C   UNL     1      14.207 -32.714  21.947  1.00  0.00     0.015 C 
BRANCH   7  28
ATOM     28  O   UNL     1      22.793 -34.898  26.109  1.00  0.00    -0.393 OA
ATOM     29  H   UNL     1      23.681 -34.574  26.412  1.00  0.00     0.210 HD
ENDBRANCH   7  28
BRANCH  25  30
ATOM     30  O   UNL     1      13.899 -30.158  22.821  1.00  0.00    -0.462 OA
BRANCH  30  31
ATOM     31  C   UNL     1      12.696 -29.704  23.373  1.00  0.00     0.302 C 
ATOM     32  O   UNL     1      11.599 -29.879  22.777  1.00  0.00    -0.253 OA
ATOM     33  C   UNL     1      12.723 -28.971  24.671  1.00  0.00     0.139 C 
ENDBRANCH  30  31
ENDBRANCH  25  30
ENDBRANCH   2   6
ENDBRANCH   1   2
BRANCH   1  34
ATOM     34  C   UNL     1      22.763 -30.351  26.761  1.00  0.00     0.031 C 
BRANCH  34  35
ATOM     35  C   UNL     1      21.548 -30.632  27.630  1.00  0.00    -0.075 C 
ATOM     36  C   UNL     1      21.658 -31.493  28.655  1.00  0.00     0.008 C 
BRANCH  35  37
ATOM     37  C   UNL     1      20.175 -30.074  27.268  1.00  0.00     0.008 C 
ATOM     38  C   UNL     1      19.570 -29.304  28.447  1.00  0.00     0.012 C 
ATOM     39  C   UNL     1      19.221 -31.172  26.784  1.00  0.00     0.012 C 
ENDBRANCH  35  37
ENDBRANCH  34  35
ENDBRANCH   1  34
TORSDOF 9
ENDMDL
MODEL 3
REMARK VINA RESULT:    -7.601      5.111      7.562
REMARK INTER + INTRA:         -12.889
REMARK INTER:                 -10.566
REMARK INTRA:                  -2.323
REMARK UNBOUND:                -1.511
REMARK SMILES C=C(CC[C@@H](C(=O)[O-])[C@H]1[C@H](O)C[C@@]2(C)C3=C(CC[C@@]12C)[C@]1(C)CC[C@@H](OC(C)=O)C(C)(C)[C@H]1CC3)C(C)C
REMARK SMILES IDX 4 1 5 2 6 3 7 4 8 5 9 6 10 7 19 8 12 9 13 10 18 11 20 12
REMARK SMILES IDX 14 13 15 14 17 15 16 16 35 17 21 18 34 19 33 20 23 21 22 22
REMARK SMILES IDX 30 23 24 24 25 25 31 26 32 27 11 28 26 30 27 31 29 32 28 33
REMARK SMILES IDX 3 34 2 35 1 36 36 37 37 38 38 39
REMARK H PARENT 11 29
REMARK Flexibility Score: inf
ROOT
ATOM      1  C   UNL     1      19.112 -33.197  26.139  1.00  0.00     0.014 C 
ENDROOT
BRANCH   1   2
ATOM      2  C   UNL     1      19.520 -33.927  24.830  1.00  0.00     0.042 C 
BRANCH   2   3
ATOM      3  C   UNL     1      18.998 -35.342  24.874  1.00  0.00     0.045 C 
ATOM      4  O   UNL     1      18.002 -35.676  24.179  1.00  0.00    -0.550 OA
ATOM      5  O   UNL     1      19.594 -36.279  25.708  1.00  0.00    -0.550 OA
ENDBRANCH   2   3
BRANCH   2   6
ATOM      6  C   UNL     1      18.991 -33.164  23.565  1.00  0.00     0.033 C 
ATOM      7  C   UNL     1      17.809 -32.223  23.897  1.00  0.00     0.119 C 
ATOM      8  C   UNL     1      20.011 -32.265  22.780  1.00  0.00    -0.017 C 
ATOM      9  C   UNL     1      17.950 -30.980  23.013  1.00  0.00     0.043 C 
ATOM     10  C   UNL     1      19.088 -31.255  22.013  1.00  0.00    -0.003 C 
ATOM     11  C   UNL     1      20.916 -31.474  23.755  1.00  0.00     0.012 C 
ATOM     12  C   UNL     1      20.899 -33.103  21.816  1.00  0.00     0.013 C 
ATOM     13  C   UNL     1      18.473 -31.906  20.734  1.00  0.00     0.017 C 
ATOM     14  C   UNL     1      19.772 -29.923  21.621  1.00  0.00    -0.064 C 
ATOM     15  C   UNL     1      21.791 -30.458  23.033  1.00  0.00     0.032 C 
ATOM     16  C   UNL     1      21.034 -29.586  22.048  1.00  0.00    -0.064 C 
ATOM     17  C   UNL     1      18.953 -28.960  20.737  1.00  0.00     0.032 C 
ATOM     18  C   UNL     1      21.697 -28.317  21.469  1.00  0.00    -0.008 C 
ATOM     19  C   UNL     1      19.431 -27.488  20.647  1.00  0.00     0.009 C 
ATOM     20  C   UNL     1      20.604 -27.196  21.601  1.00  0.00     0.009 C 
ATOM     21  C   UNL     1      23.012 -27.867  22.193  1.00  0.00     0.015 C 
ATOM     22  C   UNL     1      22.094 -28.658  20.002  1.00  0.00     0.016 C 
ATOM     23  C   UNL     1      21.143 -25.713  21.650  1.00  0.00     0.005 C 
ATOM     24  C   UNL     1      22.743 -26.913  23.355  1.00  0.00     0.047 C 
ATOM     25  C   UNL     1      22.156 -25.569  22.863  1.00  0.00     0.182 C 
ATOM     26  C   UNL     1      19.958 -24.742  21.898  1.00  0.00     0.015 C 
ATOM     27  C   UNL     1      21.802 -25.283  20.312  1.00  0.00     0.015 C 
BRANCH   7  28
ATOM     28  O   UNL     1      16.590 -32.872  23.635  1.00  0.00    -0.393 OA
ATOM     29  H   UNL     1      15.938 -32.164  23.390  1.00  0.00     0.210 HD
ENDBRANCH   7  28
BRANCH  25  30
ATOM     30  O   UNL     1      23.246 -24.695  22.539  1.00  0.00    -0.462 OA
BRANCH  30  31
ATOM     31  C   UNL     1      23.354 -23.373  22.986  1.00  0.00     0.302 C 
ATOM     32  O   UNL     1      22.647 -22.948  23.940  1.00  0.00    -0.253 OA
ATOM     33  C   UNL     1      24.297 -22.447  22.296  1.00  0.00     0.139 C 
ENDBRANCH  30  31
ENDBRANCH  25  30
ENDBRANCH   2   6
ENDBRANCH   1   2
BRANCH   1  34
ATOM     34  C   UNL     1      20.287 -32.596  26.938  1.00  0.00     0.031 C 
BRANCH  34  35
ATOM     35  C   UNL     1      20.082 -31.128  27.272  1.00  0.00    -0.075 C 
ATOM     36  C   UNL     1      18.939 -30.525  26.907  1.00  0.00     0.008 C 
BRANCH  35  37
ATOM     37  C   UNL     1      21.208 -30.293  27.874  1.00  0.00     0.008 C 
ATOM     38  C   UNL     1      22.024 -29.603  26.775  1.00  0.00     0.012 C 
ATOM     39  C   UNL     1      22.114 -31.127  28.786  1.00  0.00     0.012 C 
ENDBRANCH  35  37
ENDBRANCH  34  35
ENDBRANCH   1  34
TORSDOF 9
ENDMDL
MODEL 4
REMARK VINA RESULT:    -7.288      3.459      8.833
REMARK INTER + INTRA:         -12.421
REMARK INTER:                 -10.456
REMARK INTRA:                  -1.964
REMARK UNBOUND:                -1.511
REMARK SMILES C=C(CC[C@@H](C(=O)[O-])[C@H]1[C@H](O)C[C@@]2(C)C3=C(CC[C@@]12C)[C@]1(C)CC[C@@H](OC(C)=O)C(C)(C)[C@H]1CC3)C(C)C
REMARK SMILES IDX 4 1 5 2 6 3 7 4 8 5 9 6 10 7 19 8 12 9 13 10 18 11 20 12
REMARK SMILES IDX 14 13 15 14 17 15 16 16 35 17 21 18 34 19 33 20 23 21 22 22
REMARK SMILES IDX 30 23 24 24 25 25 31 26 32 27 11 28 26 30 27 31 29 32 28 33
REMARK SMILES IDX 3 34 2 35 1 36 36 37 37 38 38 39
REMARK H PARENT 11 29
REMARK Flexibility Score: inf
ROOT
ATOM      1  C   UNL     1      15.364 -34.718  21.483  1.00  0.00     0.014 C 
ENDROOT
BRANCH   1   2
ATOM      2  C   UNL     1      15.463 -33.170  21.421  1.00  0.00     0.042 C 
BRANCH   2   3
ATOM      3  C   UNL     1      14.078 -32.594  21.254  1.00  0.00     0.045 C 
ATOM      4  O   UNL     1      13.508 -32.619  20.132  1.00  0.00    -0.550 OA
ATOM      5  O   UNL     1      13.436 -32.001  22.334  1.00  0.00    -0.550 OA
ENDBRANCH   2   3
BRANCH   2   6
ATOM      6  C   UNL     1      16.169 -32.593  22.698  1.00  0.00     0.033 C 
ATOM      7  C   UNL     1      16.076 -33.555  23.906  1.00  0.00     0.119 C 
ATOM      8  C   UNL     1      17.693 -32.235  22.587  1.00  0.00    -0.017 C 
ATOM      9  C   UNL     1      17.389 -33.438  24.687  1.00  0.00     0.043 C 
ATOM     10  C   UNL     1      18.184 -32.269  24.076  1.00  0.00    -0.003 C 
ATOM     11  C   UNL     1      18.458 -33.315  21.783  1.00  0.00     0.012 C 
ATOM     12  C   UNL     1      17.915 -30.845  21.923  1.00  0.00     0.013 C 
ATOM     13  C   UNL     1      17.795 -30.961  24.832  1.00  0.00     0.017 C 
ATOM     14  C   UNL     1      19.701 -32.521  24.253  1.00  0.00    -0.064 C 
ATOM     15  C   UNL     1      19.965 -33.095  21.812  1.00  0.00     0.032 C 
ATOM     16  C   UNL     1      20.523 -32.847  23.201  1.00  0.00    -0.064 C 
ATOM     17  C   UNL     1      20.257 -32.417  25.688  1.00  0.00     0.032 C 
ATOM     18  C   UNL     1      22.047 -32.913  23.446  1.00  0.00    -0.008 C 
ATOM     19  C   UNL     1      21.654 -33.028  25.961  1.00  0.00     0.009 C 
ATOM     20  C   UNL     1      22.209 -33.786  24.741  1.00  0.00     0.009 C 
ATOM     21  C   UNL     1      22.880 -33.537  22.274  1.00  0.00     0.015 C 
ATOM     22  C   UNL     1      22.533 -31.441  23.598  1.00  0.00     0.016 C 
ATOM     23  C   UNL     1      23.602 -34.511  24.913  1.00  0.00     0.005 C 
ATOM     24  C   UNL     1      23.029 -35.052  22.405  1.00  0.00     0.047 C 
ATOM     25  C   UNL     1      23.864 -35.435  23.650  1.00  0.00     0.182 C 
ATOM     26  C   UNL     1      23.559 -35.418  26.171  1.00  0.00     0.015 C 
ATOM     27  C   UNL     1      24.764 -33.505  25.125  1.00  0.00     0.015 C 
BRANCH   7  28
ATOM     28  O   UNL     1      14.989 -33.199  24.723  1.00  0.00    -0.393 OA
ATOM     29  H   UNL     1      15.338 -33.137  25.650  1.00  0.00     0.210 HD
ENDBRANCH   7  28
BRANCH  25  30
ATOM     30  O   UNL     1      25.249 -35.440  23.278  1.00  0.00    -0.462 OA
BRANCH  30  31
ATOM     31  C   UNL     1      25.863 -36.460  22.543  1.00  0.00     0.302 C 
ATOM     32  O   UNL     1      25.811 -37.660  22.926  1.00  0.00    -0.253 OA
ATOM     33  C   UNL     1      26.621 -36.111  21.308  1.00  0.00     0.139 C 
ENDBRANCH  30  31
ENDBRANCH  25  30
ENDBRANCH   2   6
ENDBRANCH   1   2
BRANCH   1  34
ATOM     34  C   UNL     1      15.439 -35.427  20.115  1.00  0.00     0.031 C 
BRANCH  34  35
ATOM     35  C   UNL     1      16.850 -35.867  19.757  1.00  0.00    -0.075 C 
ATOM     36  C   UNL     1      17.609 -35.074  18.983  1.00  0.00     0.008 C 
BRANCH  35  37
ATOM     37  C   UNL     1      17.361 -37.254  20.133  1.00  0.00     0.008 C 
ATOM     38  C   UNL     1      18.364 -37.172  21.289  1.00  0.00     0.012 C 
ATOM     39  C   UNL     1      17.970 -37.984  18.931  1.00  0.00     0.012 C 
ENDBRANCH  35  37
ENDBRANCH  34  35
ENDBRANCH   1  34
TORSDOF 9
ENDMDL
MODEL 5
REMARK VINA RESULT:    -7.262      2.762      9.081
REMARK INTER + INTRA:         -12.381
REMARK INTER:                  -9.852
REMARK INTRA:                  -2.529
REMARK UNBOUND:                -1.511
REMARK SMILES C=C(CC[C@@H](C(=O)[O-])[C@H]1[C@H](O)C[C@@]2(C)C3=C(CC[C@@]12C)[C@]1(C)CC[C@@H](OC(C)=O)C(C)(C)[C@H]1CC3)C(C)C
REMARK SMILES IDX 4 1 5 2 6 3 7 4 8 5 9 6 10 7 19 8 12 9 13 10 18 11 20 12
REMARK SMILES IDX 14 13 15 14 17 15 16 16 35 17 21 18 34 19 33 20 23 21 22 22
REMARK SMILES IDX 30 23 24 24 25 25 31 26 32 27 11 28 26 30 27 31 29 32 28 33
REMARK SMILES IDX 3 34 2 35 1 36 36 37 37 38 38 39
REMARK H PARENT 11 29
REMARK Flexibility Score: inf
ROOT
ATOM      1  C   UNL     1      16.010 -32.621  21.147  1.00  0.00     0.014 C 
ENDROOT
BRANCH   1   2
ATOM      2  C   UNL     1      16.081 -31.964  22.553  1.00  0.00     0.042 C 
BRANCH   2   3
ATOM      3  C   UNL     1      14.757 -31.305  22.854  1.00  0.00     0.045 C 
ATOM      4  O   UNL     1      14.526 -30.130  22.462  1.00  0.00    -0.550 OA
ATOM      5  O   UNL     1      13.798 -31.978  23.598  1.00  0.00    -0.550 OA
ENDBRANCH   2   3
BRANCH   2   6
ATOM      6  C   UNL     1      16.456 -33.016  23.654  1.00  0.00     0.033 C 
ATOM      7  C   UNL     1      16.240 -34.471  23.175  1.00  0.00     0.119 C 
ATOM      8  C   UNL     1      17.923 -32.993  24.212  1.00  0.00    -0.017 C 
ATOM      9  C   UNL     1      17.355 -35.326  23.787  1.00  0.00     0.043 C 
ATOM     10  C   UNL     1      18.116 -34.439  24.788  1.00  0.00    -0.003 C 
ATOM     11  C   UNL     1      18.946 -32.767  23.072  1.00  0.00     0.012 C 
ATOM     12  C   UNL     1      18.112 -31.894  25.298  1.00  0.00     0.013 C 
ATOM     13  C   UNL     1      17.444 -34.587  26.189  1.00  0.00     0.017 C 
ATOM     14  C   UNL     1      19.589 -34.906  24.884  1.00  0.00    -0.064 C 
ATOM     15  C   UNL     1      20.384 -32.921  23.549  1.00  0.00     0.032 C 
ATOM     16  C   UNL     1      20.631 -34.178  24.361  1.00  0.00    -0.064 C 
ATOM     17  C   UNL     1      19.840 -36.259  25.580  1.00  0.00     0.032 C 
ATOM     18  C   UNL     1      22.075 -34.640  24.653  1.00  0.00    -0.008 C 
ATOM     19  C   UNL     1      21.218 -36.934  25.359  1.00  0.00     0.009 C 
ATOM     20  C   UNL     1      22.080 -36.177  24.332  1.00  0.00     0.009 C 
ATOM     21  C   UNL     1      23.185 -33.916  23.816  1.00  0.00     0.015 C 
ATOM     22  C   UNL     1      22.354 -34.295  26.147  1.00  0.00     0.016 C 
ATOM     23  C   UNL     1      23.485 -36.800  23.970  1.00  0.00     0.005 C 
ATOM     24  C   UNL     1      23.475 -34.625  22.493  1.00  0.00     0.047 C 
ATOM     25  C   UNL     1      24.090 -36.026  22.723  1.00  0.00     0.182 C 
ATOM     26  C   UNL     1      23.302 -38.287  23.568  1.00  0.00     0.015 C 
ATOM     27  C   UNL     1      24.464 -36.779  25.174  1.00  0.00     0.015 C 
BRANCH   7  28
ATOM     28  O   UNL     1      14.982 -34.935  23.598  1.00  0.00    -0.393 OA
ATOM     29  H   UNL     1      14.315 -34.570  22.959  1.00  0.00     0.210 HD
ENDBRANCH   7  28
BRANCH  25  30
ATOM     30  O   UNL     1      25.512 -35.880  22.832  1.00  0.00    -0.462 OA
BRANCH  30  31
ATOM     31  C   UNL     1      26.440 -36.665  22.139  1.00  0.00     0.302 C 
ATOM     32  O   UNL     1      27.003 -37.649  22.692  1.00  0.00    -0.253 OA
ATOM     33  C   UNL     1      26.791 -36.307  20.735  1.00  0.00     0.139 C 
ENDBRANCH  30  31
ENDBRANCH  25  30
ENDBRANCH   2   6
ENDBRANCH   1   2
BRANCH   1  34
ATOM     34  C   UNL     1      17.348 -32.653  20.380  1.00  0.00     0.031 C 
BRANCH  34  35
ATOM     35  C   UNL     1      17.653 -34.018  19.786  1.00  0.00    -0.075 C 
ATOM     36  C   UNL     1      16.638 -34.798  19.376  1.00  0.00     0.008 C 
BRANCH  35  37
ATOM     37  C   UNL     1      19.071 -34.579  19.788  1.00  0.00     0.008 C 
ATOM     38  C   UNL     1      19.225 -35.672  20.853  1.00  0.00     0.012 C 
ATOM     39  C   UNL     1      20.121 -33.479  19.978  1.00  0.00     0.012 C 
ENDBRANCH  35  37
ENDBRANCH  34  35
ENDBRANCH   1  34
TORSDOF 9
ENDMDL
MODEL 6
REMARK VINA RESULT:    -7.209      9.788     13.317
REMARK INTER + INTRA:         -12.302
REMARK INTER:                 -11.183
REMARK INTRA:                  -1.119
REMARK UNBOUND:                -1.511
REMARK SMILES C=C(CC[C@@H](C(=O)[O-])[C@H]1[C@H](O)C[C@@]2(C)C3=C(CC[C@@]12C)[C@]1(C)CC[C@@H](OC(C)=O)C(C)(C)[C@H]1CC3)C(C)C
REMARK SMILES IDX 4 1 5 2 6 3 7 4 8 5 9 6 10 7 19 8 12 9 13 10 18 11 20 12
REMARK SMILES IDX 14 13 15 14 17 15 16 16 35 17 21 18 34 19 33 20 23 21 22 22
REMARK SMILES IDX 30 23 24 24 25 25 31 26 32 27 11 28 26 30 27 31 29 32 28 33
REMARK SMILES IDX 3 34 2 35 1 36 36 37 37 38 38 39
REMARK H PARENT 11 29
REMARK Flexibility Score: inf
ROOT
ATOM      1  C   UNL     1      22.644 -26.564  22.318  1.00  0.00     0.014 C 
ENDROOT
BRANCH   1   2
ATOM      2  C   UNL     1      22.751 -25.153  21.679  1.00  0.00     0.042 C 
BRANCH   2   3
ATOM      3  C   UNL     1      22.437 -25.254  20.207  1.00  0.00     0.045 C 
ATOM      4  O   UNL     1      21.285 -25.588  19.821  1.00  0.00    -0.550 OA
ATOM      5  O   UNL     1      23.429 -25.012  19.265  1.00  0.00    -0.550 OA
ENDBRANCH   2   3
BRANCH   2   6
ATOM      6  C   UNL     1      21.799 -24.131  22.394  1.00  0.00     0.033 C 
ATOM      7  C   UNL     1      20.548 -24.814  22.995  1.00  0.00     0.119 C 
ATOM      8  C   UNL     1      22.396 -23.282  23.572  1.00  0.00    -0.017 C 
ATOM      9  C   UNL     1      20.214 -24.091  24.304  1.00  0.00     0.043 C 
ATOM     10  C   UNL     1      21.128 -22.856  24.391  1.00  0.00    -0.003 C 
ATOM     11  C   UNL     1      23.306 -24.152  24.474  1.00  0.00     0.012 C 
ATOM     12  C   UNL     1      23.203 -22.058  23.052  1.00  0.00     0.013 C 
ATOM     13  C   UNL     1      20.396 -21.653  23.720  1.00  0.00     0.017 C 
ATOM     14  C   UNL     1      21.402 -22.514  25.876  1.00  0.00    -0.064 C 
ATOM     15  C   UNL     1      23.754 -23.409  25.726  1.00  0.00     0.032 C 
ATOM     16  C   UNL     1      22.625 -22.719  26.468  1.00  0.00    -0.064 C 
ATOM     17  C   UNL     1      20.217 -21.947  26.685  1.00  0.00     0.032 C 
ATOM     18  C   UNL     1      22.850 -22.192  27.902  1.00  0.00    -0.008 C 
ATOM     19  C   UNL     1      20.334 -21.958  28.230  1.00  0.00     0.009 C 
ATOM     20  C   UNL     1      21.600 -22.687  28.715  1.00  0.00     0.009 C 
ATOM     21  C   UNL     1      24.166 -22.689  28.593  1.00  0.00     0.015 C 
ATOM     22  C   UNL     1      22.970 -20.643  27.788  1.00  0.00     0.016 C 
ATOM     23  C   UNL     1      21.803 -22.822  30.275  1.00  0.00     0.005 C 
ATOM     24  C   UNL     1      23.967 -23.998  29.356  1.00  0.00     0.047 C 
ATOM     25  C   UNL     1      23.009 -23.814  30.557  1.00  0.00     0.182 C 
ATOM     26  C   UNL     1      20.525 -23.428  30.911  1.00  0.00     0.015 C 
ATOM     27  C   UNL     1      22.035 -21.447  30.958  1.00  0.00     0.015 C 
BRANCH   7  28
ATOM     28  O   UNL     1      19.470 -24.720  22.097  1.00  0.00    -0.393 OA
ATOM     29  H   UNL     1      19.863 -24.624  21.190  1.00  0.00     0.210 HD
ENDBRANCH   7  28
BRANCH  25  30
ATOM     30  O   UNL     1      23.782 -23.397  31.690  1.00  0.00    -0.462 OA
BRANCH  30  31
ATOM     31  C   UNL     1      24.127 -24.232  32.759  1.00  0.00     0.302 C 
ATOM     32  O   UNL     1      24.928 -25.193  32.602  1.00  0.00    -0.253 OA
ATOM     33  C   UNL     1      23.506 -23.998  34.094  1.00  0.00     0.139 C 
ENDBRANCH  30  31
ENDBRANCH  25  30
ENDBRANCH   2   6
ENDBRANCH   1   2
BRANCH   1  34
ATOM     34  C   UNL     1      22.621 -27.731  21.309  1.00  0.00     0.031 C 
BRANCH  34  35
ATOM     35  C   UNL     1      21.726 -28.876  21.754  1.00  0.00    -0.075 C 
ATOM     36  C   UNL     1      22.077 -29.605  22.827  1.00  0.00     0.008 C 
BRANCH  35  37
ATOM     37  C   UNL     1      20.525 -29.307  20.919  1.00  0.00     0.008 C 
ATOM     38  C   UNL     1      19.401 -28.267  21.002  1.00  0.00     0.012 C 
ATOM     39  C   UNL     1      20.016 -30.695  21.322  1.00  0.00     0.012 C 
ENDBRANCH  35  37
ENDBRANCH  34  35
ENDBRANCH   1  34
TORSDOF 9
ENDMDL
MODEL 7
REMARK VINA RESULT:    -7.202      6.322     10.070
REMARK INTER + INTRA:         -12.292
REMARK INTER:                 -10.600
REMARK INTRA:                  -1.692
REMARK UNBOUND:                -1.511
REMARK SMILES C=C(CC[C@@H](C(=O)[O-])[C@H]1[C@H](O)C[C@@]2(C)C3=C(CC[C@@]12C)[C@]1(C)CC[C@@H](OC(C)=O)C(C)(C)[C@H]1CC3)C(C)C
REMARK SMILES IDX 4 1 5 2 6 3 7 4 8 5 9 6 10 7 19 8 12 9 13 10 18 11 20 12
REMARK SMILES IDX 14 13 15 14 17 15 16 16 35 17 21 18 34 19 33 20 23 21 22 22
REMARK SMILES IDX 30 23 24 24 25 25 31 26 32 27 11 28 26 30 27 31 29 32 28 33
REMARK SMILES IDX 3 34 2 35 1 36 36 37 37 38 38 39
REMARK H PARENT 11 29
REMARK Flexibility Score: inf
ROOT
ATOM      1  C   UNL     1      22.037 -23.510  22.729  1.00  0.00     0.014 C 
ENDROOT
BRANCH   1   2
ATOM      2  C   UNL     1      22.548 -24.501  21.648  1.00  0.00     0.042 C 
BRANCH   2   3
ATOM      3  C   UNL     1      23.652 -23.841  20.858  1.00  0.00     0.045 C 
ATOM      4  O   UNL     1      24.382 -22.964  21.392  1.00  0.00    -0.550 OA
ATOM      5  O   UNL     1      23.848 -24.173  19.524  1.00  0.00    -0.550 OA
ENDBRANCH   2   3
BRANCH   2   6
ATOM      6  C   UNL     1      23.036 -25.845  22.293  1.00  0.00     0.033 C 
ATOM      7  C   UNL     1      22.677 -25.941  23.795  1.00  0.00     0.119 C 
ATOM      8  C   UNL     1      22.508 -27.185  21.669  1.00  0.00    -0.017 C 
ATOM      9  C   UNL     1      22.334 -27.404  24.093  1.00  0.00     0.043 C 
ATOM     10  C   UNL     1      22.680 -28.221  22.834  1.00  0.00    -0.003 C 
ATOM     11  C   UNL     1      21.004 -27.075  21.315  1.00  0.00     0.012 C 
ATOM     12  C   UNL     1      23.309 -27.587  20.398  1.00  0.00     0.013 C 
ATOM     13  C   UNL     1      24.159 -28.704  22.951  1.00  0.00     0.017 C 
ATOM     14  C   UNL     1      21.752 -29.457  22.744  1.00  0.00    -0.064 C 
ATOM     15  C   UNL     1      20.417 -28.411  20.879  1.00  0.00     0.032 C 
ATOM     16  C   UNL     1      20.750 -29.562  21.809  1.00  0.00    -0.064 C 
ATOM     17  C   UNL     1      21.986 -30.574  23.781  1.00  0.00     0.032 C 
ATOM     18  C   UNL     1      19.989 -30.901  21.688  1.00  0.00    -0.008 C 
ATOM     19  C   UNL     1      20.860 -31.623  23.971  1.00  0.00     0.009 C 
ATOM     20  C   UNL     1      19.598 -31.277  23.162  1.00  0.00     0.009 C 
ATOM     21  C   UNL     1      18.705 -30.855  20.790  1.00  0.00     0.015 C 
ATOM     22  C   UNL     1      20.968 -31.904  21.007  1.00  0.00     0.016 C 
ATOM     23  C   UNL     1      18.353 -32.236  23.320  1.00  0.00     0.005 C 
ATOM     24  C   UNL     1      17.452 -30.483  21.581  1.00  0.00     0.047 C 
ATOM     25  C   UNL     1      17.093 -31.570  22.621  1.00  0.00     0.182 C 
ATOM     26  C   UNL     1      18.027 -32.414  24.826  1.00  0.00     0.015 C 
ATOM     27  C   UNL     1      18.629 -33.653  22.750  1.00  0.00     0.015 C 
BRANCH   7  28
ATOM     28  O   UNL     1      23.769 -25.526  24.578  1.00  0.00    -0.393 OA
ATOM     29  H   UNL     1      24.589 -25.800  24.090  1.00  0.00     0.210 HD
ENDBRANCH   7  28
BRANCH  25  30
ATOM     30  O   UNL     1      16.266 -32.550  21.980  1.00  0.00    -0.462 OA
BRANCH  30  31
ATOM     31  C   UNL     1      14.942 -32.823  22.343  1.00  0.00     0.302 C 
ATOM     32  O   UNL     1      13.993 -32.625  21.537  1.00  0.00    -0.253 OA
ATOM     33  C   UNL     1      14.653 -33.321  23.718  1.00  0.00     0.139 C 
ENDBRANCH  30  31
ENDBRANCH  25  30
ENDBRANCH   2   6
ENDBRANCH   1   2
BRANCH   1  34
ATOM     34  C   UNL     1      20.502 -23.440  22.869  1.00  0.00     0.031 C 
BRANCH  34  35
ATOM     35  C   UNL     1      20.051 -23.263  24.310  1.00  0.00    -0.075 C 
ATOM     36  C   UNL     1      18.737 -23.244  24.588  1.00  0.00     0.008 C 
BRANCH  35  37
ATOM     37  C   UNL     1      21.053 -22.955  25.417  1.00  0.00     0.008 C 
ATOM     38  C   UNL     1      20.948 -23.982  26.550  1.00  0.00     0.012 C 
ATOM     39  C   UNL     1      20.892 -21.529  25.955  1.00  0.00     0.012 C 
ENDBRANCH  35  37
ENDBRANCH  34  35
ENDBRANCH   1  34
TORSDOF 9
ENDMDL
MODEL 8
REMARK VINA RESULT:    -7.197      3.700      7.015
REMARK INTER + INTRA:         -12.285
REMARK INTER:                 -10.048
REMARK INTRA:                  -2.236
REMARK UNBOUND:                -1.511
REMARK SMILES C=C(CC[C@@H](C(=O)[O-])[C@H]1[C@H](O)C[C@@]2(C)C3=C(CC[C@@]12C)[C@]1(C)CC[C@@H](OC(C)=O)C(C)(C)[C@H]1CC3)C(C)C
REMARK SMILES IDX 4 1 5 2 6 3 7 4 8 5 9 6 10 7 19 8 12 9 13 10 18 11 20 12
REMARK SMILES IDX 14 13 15 14 17 15 16 16 35 17 21 18 34 19 33 20 23 21 22 22
REMARK SMILES IDX 30 23 24 24 25 25 31 26 32 27 11 28 26 30 27 31 29 32 28 33
REMARK SMILES IDX 3 34 2 35 1 36 36 37 37 38 38 39
REMARK H PARENT 11 29
REMARK Flexibility Score: inf
ROOT
ATOM      1  C   UNL     1      25.077 -30.248  24.122  1.00  0.00     0.014 C 
ENDROOT
BRANCH   1   2
ATOM      2  C   UNL     1      25.286 -31.626  23.438  1.00  0.00     0.042 C 
BRANCH   2   3
ATOM      3  C   UNL     1      26.752 -31.979  23.479  1.00  0.00     0.045 C 
ATOM      4  O   UNL     1      27.118 -33.183  23.530  1.00  0.00    -0.550 OA
ATOM      5  O   UNL     1      27.710 -30.973  23.496  1.00  0.00    -0.550 OA
ENDBRANCH   2   3
BRANCH   2   6
ATOM      6  C   UNL     1      24.414 -32.738  24.121  1.00  0.00     0.033 C 
ATOM      7  C   UNL     1      23.716 -32.232  25.405  1.00  0.00     0.119 C 
ATOM      8  C   UNL     1      23.265 -33.386  23.269  1.00  0.00    -0.017 C 
ATOM      9  C   UNL     1      22.340 -32.903  25.474  1.00  0.00     0.043 C 
ATOM     10  C   UNL     1      22.287 -33.957  24.354  1.00  0.00    -0.003 C 
ATOM     11  C   UNL     1      22.519 -32.312  22.439  1.00  0.00     0.012 C 
ATOM     12  C   UNL     1      23.804 -34.492  22.317  1.00  0.00     0.013 C 
ATOM     13  C   UNL     1      22.806 -35.312  24.929  1.00  0.00     0.017 C 
ATOM     14  C   UNL     1      20.826 -34.139  23.877  1.00  0.00    -0.064 C 
ATOM     15  C   UNL     1      21.287 -32.876  21.745  1.00  0.00     0.032 C 
ATOM     16  C   UNL     1      20.386 -33.689  22.656  1.00  0.00    -0.064 C 
ATOM     17  C   UNL     1      19.861 -34.836  24.858  1.00  0.00     0.032 C 
ATOM     18  C   UNL     1      18.959 -34.065  22.199  1.00  0.00    -0.008 C 
ATOM     19  C   UNL     1      18.341 -34.692  24.590  1.00  0.00     0.009 C 
ATOM     20  C   UNL     1      18.041 -33.728  23.428  1.00  0.00     0.009 C 
ATOM     21  C   UNL     1      18.448 -33.304  20.928  1.00  0.00     0.015 C 
ATOM     22  C   UNL     1      19.001 -35.575  21.823  1.00  0.00     0.016 C 
ATOM     23  C   UNL     1      16.523 -33.447  23.096  1.00  0.00     0.005 C 
ATOM     24  C   UNL     1      17.740 -31.995  21.274  1.00  0.00     0.047 C 
ATOM     25  C   UNL     1      16.432 -32.248  22.061  1.00  0.00     0.182 C 
ATOM     26  C   UNL     1      15.782 -33.019  24.391  1.00  0.00     0.015 C 
ATOM     27  C   UNL     1      15.796 -34.709  22.561  1.00  0.00     0.015 C 
BRANCH   7  28
ATOM     28  O   UNL     1      24.482 -32.571  26.535  1.00  0.00    -0.393 OA
ATOM     29  H   UNL     1      24.813 -31.719  26.920  1.00  0.00     0.210 HD
ENDBRANCH   7  28
BRANCH  25  30
ATOM     30  O   UNL     1      15.371 -32.446  21.117  1.00  0.00    -0.462 OA
BRANCH  30  31
ATOM     31  C   UNL     1      14.111 -31.844  21.210  1.00  0.00     0.302 C 
ATOM     32  O   UNL     1      13.172 -32.177  20.437  1.00  0.00    -0.253 OA
ATOM     33  C   UNL     1      13.892 -30.768  22.219  1.00  0.00     0.139 C 
ENDBRANCH  30  31
ENDBRANCH  25  30
ENDBRANCH   2   6
ENDBRANCH   1   2
BRANCH   1  34
ATOM     34  C   UNL     1      24.745 -29.090  23.158  1.00  0.00     0.031 C 
BRANCH  34  35
ATOM     35  C   UNL     1      23.324 -28.576  23.323  1.00  0.00    -0.075 C 
ATOM     36  C   UNL     1      22.652 -28.855  24.453  1.00  0.00     0.008 C 
BRANCH  35  37
ATOM     37  C   UNL     1      22.599 -27.885  22.174  1.00  0.00     0.008 C 
ATOM     38  C   UNL     1      21.580 -28.829  21.524  1.00  0.00     0.012 C 
ATOM     39  C   UNL     1      23.576 -27.333  21.130  1.00  0.00     0.012 C 
ENDBRANCH  35  37
ENDBRANCH  34  35
ENDBRANCH   1  34
TORSDOF 9
ENDMDL
MODEL 9
REMARK VINA RESULT:    -7.115      3.216      8.573
REMARK INTER + INTRA:         -12.161
REMARK INTER:                 -10.513
REMARK INTRA:                  -1.648
REMARK UNBOUND:                -1.511
REMARK SMILES C=C(CC[C@@H](C(=O)[O-])[C@H]1[C@H](O)C[C@@]2(C)C3=C(CC[C@@]12C)[C@]1(C)CC[C@@H](OC(C)=O)C(C)(C)[C@H]1CC3)C(C)C
REMARK SMILES IDX 4 1 5 2 6 3 7 4 8 5 9 6 10 7 19 8 12 9 13 10 18 11 20 12
REMARK SMILES IDX 14 13 15 14 17 15 16 16 35 17 21 18 34 19 33 20 23 21 22 22
REMARK SMILES IDX 30 23 24 24 25 25 31 26 32 27 11 28 26 30 27 31 29 32 28 33
REMARK SMILES IDX 3 34 2 35 1 36 36 37 37 38 38 39
REMARK H PARENT 11 29
REMARK Flexibility Score: inf
ROOT
ATOM      1  C   UNL     1      16.271 -31.680  21.108  1.00  0.00     0.014 C 
ENDROOT
BRANCH   1   2
ATOM      2  C   UNL     1      15.813 -33.121  21.456  1.00  0.00     0.042 C 
BRANCH   2   3
ATOM      3  C   UNL     1      14.636 -33.487  20.585  1.00  0.00     0.045 C 
ATOM      4  O   UNL     1      14.703 -34.473  19.804  1.00  0.00    -0.550 OA
ATOM      5  O   UNL     1      13.481 -32.717  20.615  1.00  0.00    -0.550 OA
ENDBRANCH   2   3
BRANCH   2   6
ATOM      6  C   UNL     1      16.987 -34.148  21.287  1.00  0.00     0.033 C 
ATOM      7  C   UNL     1      17.945 -33.762  20.136  1.00  0.00     0.119 C 
ATOM      8  C   UNL     1      17.923 -34.392  22.523  1.00  0.00    -0.017 C 
ATOM      9  C   UNL     1      19.362 -34.153  20.568  1.00  0.00     0.043 C 
ATOM     10  C   UNL     1      19.238 -34.952  21.878  1.00  0.00    -0.003 C 
ATOM     11  C   UNL     1      18.247 -33.060  23.243  1.00  0.00     0.012 C 
ATOM     12  C   UNL     1      17.293 -35.387  23.540  1.00  0.00     0.013 C 
ATOM     13  C   UNL     1      19.096 -36.464  21.520  1.00  0.00     0.017 C 
ATOM     14  C   UNL     1      20.514 -34.755  22.732  1.00  0.00    -0.064 C 
ATOM     15  C   UNL     1      19.297 -33.234  24.333  1.00  0.00     0.032 C 
ATOM     16  C   UNL     1      20.522 -34.010  23.887  1.00  0.00    -0.064 C 
ATOM     17  C   UNL     1      21.805 -35.418  22.210  1.00  0.00     0.032 C 
ATOM     18  C   UNL     1      21.797 -34.010  24.758  1.00  0.00    -0.008 C 
ATOM     19  C   UNL     1      23.151 -34.935  22.807  1.00  0.00     0.009 C 
ATOM     20  C   UNL     1      22.972 -33.734  23.752  1.00  0.00     0.009 C 
ATOM     21  C   UNL     1      21.816 -32.943  25.906  1.00  0.00     0.015 C 
ATOM     22  C   UNL     1      21.858 -35.404  25.450  1.00  0.00     0.016 C 
ATOM     23  C   UNL     1      24.280 -33.106  24.378  1.00  0.00     0.005 C 
ATOM     24  C   UNL     1      22.406 -31.608  25.455  1.00  0.00     0.047 C 
ATOM     25  C   UNL     1      23.907 -31.742  25.099  1.00  0.00     0.182 C 
ATOM     26  C   UNL     1      25.292 -32.788  23.245  1.00  0.00     0.015 C 
ATOM     27  C   UNL     1      24.990 -34.082  25.353  1.00  0.00     0.015 C 
BRANCH   7  28
ATOM     28  O   UNL     1      17.586 -34.446  18.961  1.00  0.00    -0.393 OA
ATOM     29  H   UNL     1      18.069 -35.314  18.980  1.00  0.00     0.210 HD
ENDBRANCH   7  28
BRANCH  25  30
ATOM     30  O   UNL     1      24.671 -31.552  26.296  1.00  0.00    -0.462 OA
BRANCH  30  31
ATOM     31  C   UNL     1      25.675 -30.589  26.445  1.00  0.00     0.302 C 
ATOM     32  O   UNL     1      25.393 -29.394  26.735  1.00  0.00    -0.253 OA
ATOM     33  C   UNL     1      27.096 -30.979  26.220  1.00  0.00     0.139 C 
ENDBRANCH  30  31
ENDBRANCH  25  30
ENDBRANCH   2   6
ENDBRANCH   1   2
BRANCH   1  34
ATOM     34  C   UNL     1      15.354 -30.561  21.645  1.00  0.00     0.031 C 
BRANCH  34  35
ATOM     35  C   UNL     1      15.313 -30.512  23.164  1.00  0.00    -0.075 C 
ATOM     36  C   UNL     1      16.456 -30.326  23.846  1.00  0.00     0.008 C 
BRANCH  35  37
ATOM     37  C   UNL     1      14.030 -30.821  23.927  1.00  0.00     0.008 C 
ATOM     38  C   UNL     1      13.968 -32.304  24.314  1.00  0.00     0.012 C 
ATOM     39  C   UNL     1      12.782 -30.409  23.138  1.00  0.00     0.012 C 
ENDBRANCH  35  37
ENDBRANCH  34  35
ENDBRANCH   1  34
TORSDOF 9
ENDMDL
