MODEL 1
REMARK VINA RESULT:    -3.717      0.000      0.000
REMARK INTER + INTRA:          -3.826
REMARK INTER:                  -3.826
REMARK INTRA:                   0.000
REMARK UNBOUND:                 0.000
REMARK SMILES Oc1ccc2[nH]ccc2c1
REMARK SMILES IDX 3 1 4 2 5 3 9 4 8 5 7 6 6 7 10 8 2 9 1 11
REMARK H PARENT 6 10 1 12
REMARK Flexibility Score: inf
ROOT
ATOM      1  C   UNL     1     162.548 158.836 147.804  1.00  0.00     0.048 A 
ATOM      2  C   UNL     1     163.111 158.397 146.590  1.00  0.00     0.030 A 
ATOM      3  C   UNL     1     162.550 158.868 145.405  1.00  0.00     0.046 A 
ATOM      4  C   UNL     1     161.485 159.729 145.405  1.00  0.00     0.003 A 
ATOM      5  C   UNL     1     161.175 159.999 144.089  1.00  0.00     0.028 A 
ATOM      6  C   UNL     1     162.092 159.266 143.342  1.00  0.00     0.083 A 
ATOM      7  N   UNL     1     162.930 158.577 144.150  1.00  0.00    -0.361 N 
ATOM      8  C   UNL     1     160.905 160.184 146.586  1.00  0.00     0.056 A 
ATOM      9  C   UNL     1     161.448 159.726 147.806  1.00  0.00     0.116 A 
ATOM     10  H   UNL     1     163.710 157.950 143.854  1.00  0.00     0.166 HD
ENDROOT
BRANCH   9  11
ATOM     11  O   UNL     1     160.910 160.146 149.020  1.00  0.00    -0.508 OA
ATOM     12  H   UNL     1     161.317 160.912 149.542  1.00  0.00     0.293 HD
ENDBRANCH   9  11
TORSDOF 1
ENDMDL
MODEL 2
REMARK VINA RESULT:    -3.709     15.737     16.249
REMARK INTER + INTRA:          -3.818
REMARK INTER:                  -3.818
REMARK INTRA:                   0.000
REMARK UNBOUND:                 0.000
REMARK SMILES Oc1ccc2[nH]ccc2c1
REMARK SMILES IDX 3 1 4 2 5 3 9 4 8 5 7 6 6 7 10 8 2 9 1 11
REMARK H PARENT 6 10 1 12
REMARK Flexibility Score: inf
ROOT
ATOM      1  C   UNL     1     146.442 162.539 147.769  1.00  0.00     0.048 A 
ATOM      2  C   UNL     1     146.891 163.102 146.559  1.00  0.00     0.030 A 
ATOM      3  C   UNL     1     146.436 162.535 145.370  1.00  0.00     0.046 A 
ATOM      4  C   UNL     1     145.582 161.465 145.363  1.00  0.00     0.003 A 
ATOM      5  C   UNL     1     145.328 161.150 144.045  1.00  0.00     0.028 A 
ATOM      6  C   UNL     1     146.063 162.070 143.304  1.00  0.00     0.083 A 
ATOM      7  N   UNL     1     146.738 162.914 144.117  1.00  0.00    -0.361 N 
ATOM      8  C   UNL     1     145.119 160.884 146.541  1.00  0.00     0.056 A 
ATOM      9  C   UNL     1     145.559 161.434 147.764  1.00  0.00     0.116 A 
ATOM     10  H   UNL     1     147.363 163.698 143.826  1.00  0.00     0.166 HD
ENDROOT
BRANCH   9  11
ATOM     11  O   UNL     1     145.130 160.895 148.975  1.00  0.00    -0.508 OA
ATOM     12  H   UNL     1     145.790 160.602 149.685  1.00  0.00     0.293 HD
ENDBRANCH   9  11
TORSDOF 1
ENDMDL
MODEL 3
REMARK VINA RESULT:    -3.215     15.983     16.483
REMARK INTER + INTRA:          -3.309
REMARK INTER:                  -3.309
REMARK INTRA:                   0.000
REMARK UNBOUND:                 0.000
REMARK SMILES Oc1ccc2[nH]ccc2c1
REMARK SMILES IDX 3 1 4 2 5 3 9 4 8 5 7 6 6 7 10 8 2 9 1 11
REMARK H PARENT 6 10 1 12
REMARK Flexibility Score: inf
ROOT
ATOM      1  C   UNL     1     146.223 160.591 144.556  1.00  0.00     0.048 A 
ATOM      2  C   UNL     1     145.809 160.059 145.792  1.00  0.00     0.030 A 
ATOM      3  C   UNL     1     145.709 160.931 146.874  1.00  0.00     0.046 A 
ATOM      4  C   UNL     1     146.002 162.263 146.755  1.00  0.00     0.003 A 
ATOM      5  C   UNL     1     145.806 162.840 147.991  1.00  0.00     0.028 A 
ATOM      6  C   UNL     1     145.393 161.798 148.817  1.00  0.00     0.083 A 
ATOM      7  N   UNL     1     145.335 160.634 148.129  1.00  0.00    -0.361 N 
ATOM      8  C   UNL     1     146.415 162.822 145.548  1.00  0.00     0.056 A 
ATOM      9  C   UNL     1     146.526 161.967 144.430  1.00  0.00     0.116 A 
ATOM     10  H   UNL     1     145.057 159.700 148.503  1.00  0.00     0.166 HD
ENDROOT
BRANCH   9  11
ATOM     11  O   UNL     1     146.935 162.468 143.196  1.00  0.00    -0.508 OA
ATOM     12  H   UNL     1     147.866 162.843 143.060  1.00  0.00     0.293 HD
ENDBRANCH   9  11
TORSDOF 1
ENDMDL
MODEL 4
REMARK VINA RESULT:    -3.184     12.998     13.896
REMARK INTER + INTRA:          -3.277
REMARK INTER:                  -3.277
REMARK INTRA:                   0.000
REMARK UNBOUND:                 0.000
REMARK SMILES Oc1ccc2[nH]ccc2c1
REMARK SMILES IDX 3 1 4 2 5 3 9 4 8 5 7 6 6 7 10 8 2 9 1 11
REMARK H PARENT 6 10 1 12
REMARK Flexibility Score: inf
ROOT
ATOM      1  C   UNL     1     147.126 161.821 143.915  1.00  0.00     0.048 A 
ATOM      2  C   UNL     1     148.367 162.445 143.682  1.00  0.00     0.030 A 
ATOM      3  C   UNL     1     149.369 161.692 143.074  1.00  0.00     0.046 A 
ATOM      4  C   UNL     1     149.170 160.387 142.711  1.00  0.00     0.003 A 
ATOM      5  C   UNL     1     150.341 159.934 142.144  1.00  0.00     0.028 A 
ATOM      6  C   UNL     1     151.212 161.018 142.194  1.00  0.00     0.083 A 
ATOM      7  N   UNL     1     150.614 162.090 142.763  1.00  0.00    -0.361 N 
ATOM      8  C   UNL     1     147.956 159.740 142.928  1.00  0.00     0.056 A 
ATOM      9  C   UNL     1     146.918 160.473 143.541  1.00  0.00     0.116 A 
ATOM     10  H   UNL     1     151.037 163.030 142.926  1.00  0.00     0.166 HD
ENDROOT
BRANCH   9  11
ATOM     11  O   UNL     1     145.682 159.879 143.784  1.00  0.00    -0.508 OA
ATOM     12  H   UNL     1     145.275 159.220 143.131  1.00  0.00     0.293 HD
ENDBRANCH   9  11
TORSDOF 1
ENDMDL
MODEL 5
REMARK VINA RESULT:    -3.178      3.834      4.642
REMARK INTER + INTRA:          -3.271
REMARK INTER:                  -3.271
REMARK INTRA:                   0.000
REMARK UNBOUND:                 0.000
REMARK SMILES Oc1ccc2[nH]ccc2c1
REMARK SMILES IDX 3 1 4 2 5 3 9 4 8 5 7 6 6 7 10 8 2 9 1 11
REMARK H PARENT 6 10 1 12
REMARK Flexibility Score: inf
ROOT
ATOM      1  C   UNL     1     161.836 158.139 143.903  1.00  0.00     0.048 A 
ATOM      2  C   UNL     1     162.448 156.893 143.671  1.00  0.00     0.030 A 
ATOM      3  C   UNL     1     161.682 155.892 143.077  1.00  0.00     0.046 A 
ATOM      4  C   UNL     1     160.375 156.099 142.726  1.00  0.00     0.003 A 
ATOM      5  C   UNL     1     159.908 154.928 142.170  1.00  0.00     0.028 A 
ATOM      6  C   UNL     1     160.986 154.049 142.216  1.00  0.00     0.083 A 
ATOM      7  N   UNL     1     162.067 154.643 142.770  1.00  0.00    -0.361 N 
ATOM      8  C   UNL     1     159.739 157.319 142.941  1.00  0.00     0.056 A 
ATOM      9  C   UNL     1     160.486 158.356 143.541  1.00  0.00     0.116 A 
ATOM     10  H   UNL     1     163.006 154.213 142.926  1.00  0.00     0.166 HD
ENDROOT
BRANCH   9  11
ATOM     11  O   UNL     1     159.904 159.598 143.781  1.00  0.00    -0.508 OA
ATOM     12  H   UNL     1     159.252 159.737 144.544  1.00  0.00     0.293 HD
ENDBRANCH   9  11
TORSDOF 1
ENDMDL
MODEL 6
REMARK VINA RESULT:    -3.067     15.950     16.397
REMARK INTER + INTRA:          -3.157
REMARK INTER:                  -3.157
REMARK INTRA:                   0.000
REMARK UNBOUND:                 0.000
REMARK SMILES Oc1ccc2[nH]ccc2c1
REMARK SMILES IDX 3 1 4 2 5 3 9 4 8 5 7 6 6 7 10 8 2 9 1 11
REMARK H PARENT 6 10 1 12
REMARK Flexibility Score: inf
ROOT
ATOM      1  C   UNL     1     154.819 145.839 142.163  1.00  0.00     0.048 A 
ATOM      2  C   UNL     1     156.135 146.248 142.452  1.00  0.00     0.030 A 
ATOM      3  C   UNL     1     157.017 145.295 142.957  1.00  0.00     0.046 A 
ATOM      4  C   UNL     1     156.631 143.998 143.170  1.00  0.00     0.003 A 
ATOM      5  C   UNL     1     157.723 143.321 143.667  1.00  0.00     0.028 A 
ATOM      6  C   UNL     1     158.740 144.268 143.731  1.00  0.00     0.083 A 
ATOM      7  N   UNL     1     158.304 145.472 143.296  1.00  0.00    -0.361 N 
ATOM      8  C   UNL     1     155.338 143.560 142.894  1.00  0.00     0.056 A 
ATOM      9  C   UNL     1     154.418 144.500 142.382  1.00  0.00     0.116 A 
ATOM     10  H   UNL     1     158.858 146.355 143.238  1.00  0.00     0.166 HD
ENDROOT
BRANCH   9  11
ATOM     11  O   UNL     1     153.111 144.121 142.088  1.00  0.00    -0.508 OA
ATOM     12  H   UNL     1     152.478 143.801 142.811  1.00  0.00     0.293 HD
ENDBRANCH   9  11
TORSDOF 1
ENDMDL
MODEL 7
REMARK VINA RESULT:    -3.066     12.757     13.697
REMARK INTER + INTRA:          -3.155
REMARK INTER:                  -3.155
REMARK INTRA:                   0.000
REMARK UNBOUND:                 0.000
REMARK SMILES Oc1ccc2[nH]ccc2c1
REMARK SMILES IDX 3 1 4 2 5 3 9 4 8 5 7 6 6 7 10 8 2 9 1 11
REMARK H PARENT 6 10 1 12
REMARK Flexibility Score: inf
ROOT
ATOM      1  C   UNL     1     150.449 159.437 142.135  1.00  0.00     0.048 A 
ATOM      2  C   UNL     1     149.130 159.022 142.402  1.00  0.00     0.030 A 
ATOM      3  C   UNL     1     148.241 159.967 142.910  1.00  0.00     0.046 A 
ATOM      4  C   UNL     1     148.624 161.260 143.148  1.00  0.00     0.003 A 
ATOM      5  C   UNL     1     147.526 161.929 143.643  1.00  0.00     0.028 A 
ATOM      6  C   UNL     1     146.508 160.980 143.680  1.00  0.00     0.083 A 
ATOM      7  N   UNL     1     146.951 159.783 143.231  1.00  0.00    -0.361 N 
ATOM      8  C   UNL     1     149.920 161.703 142.895  1.00  0.00     0.056 A 
ATOM      9  C   UNL     1     150.846 160.772 142.379  1.00  0.00     0.116 A 
ATOM     10  H   UNL     1     146.398 158.901 143.153  1.00  0.00     0.166 HD
ENDROOT
BRANCH   9  11
ATOM     11  O   UNL     1     152.157 161.157 142.107  1.00  0.00    -0.508 OA
ATOM     12  H   UNL     1     152.752 161.550 142.826  1.00  0.00     0.293 HD
ENDBRANCH   9  11
TORSDOF 1
ENDMDL
MODEL 8
REMARK VINA RESULT:    -3.063      4.687      5.831
REMARK INTER + INTRA:          -3.153
REMARK INTER:                  -3.153
REMARK INTRA:                   0.000
REMARK UNBOUND:                 0.000
REMARK SMILES Oc1ccc2[nH]ccc2c1
REMARK SMILES IDX 3 1 4 2 5 3 9 4 8 5 7 6 6 7 10 8 2 9 1 11
REMARK H PARENT 6 10 1 12
REMARK Flexibility Score: inf
ROOT
ATOM      1  C   UNL     1     159.434 154.829 142.117  1.00  0.00     0.048 A 
ATOM      2  C   UNL     1     159.023 156.150 142.383  1.00  0.00     0.030 A 
ATOM      3  C   UNL     1     159.969 157.034 142.898  1.00  0.00     0.046 A 
ATOM      4  C   UNL     1     161.259 156.645 143.144  1.00  0.00     0.003 A 
ATOM      5  C   UNL     1     161.930 157.740 143.644  1.00  0.00     0.028 A 
ATOM      6  C   UNL     1     160.986 158.762 143.676  1.00  0.00     0.083 A 
ATOM      7  N   UNL     1     159.789 158.325 143.219  1.00  0.00    -0.361 N 
ATOM      8  C   UNL     1     161.698 155.348 142.892  1.00  0.00     0.056 A 
ATOM      9  C   UNL     1     160.766 154.426 142.370  1.00  0.00     0.116 A 
ATOM     10  H   UNL     1     158.910 158.882 143.137  1.00  0.00     0.166 HD
ENDROOT
BRANCH   9  11
ATOM     11  O   UNL     1     161.146 153.114 142.098  1.00  0.00    -0.508 OA
ATOM     12  H   UNL     1     160.544 152.486 141.581  1.00  0.00     0.293 HD
ENDBRANCH   9  11
TORSDOF 1
ENDMDL
MODEL 9
REMARK VINA RESULT:    -3.058     20.106     20.546
REMARK INTER + INTRA:          -3.147
REMARK INTER:                  -3.147
REMARK INTRA:                   0.000
REMARK UNBOUND:                 0.000
REMARK SMILES Oc1ccc2[nH]ccc2c1
REMARK SMILES IDX 3 1 4 2 5 3 9 4 8 5 7 6 6 7 10 8 2 9 1 11
REMARK H PARENT 6 10 1 12
REMARK Flexibility Score: inf
ROOT
ATOM      1  C   UNL     1     145.856 150.423 142.131  1.00  0.00     0.048 A 
ATOM      2  C   UNL     1     146.265 149.101 142.394  1.00  0.00     0.030 A 
ATOM      3  C   UNL     1     145.317 148.217 142.905  1.00  0.00     0.046 A 
ATOM      4  C   UNL     1     144.026 148.606 143.148  1.00  0.00     0.003 A 
ATOM      5  C   UNL     1     143.353 147.510 143.644  1.00  0.00     0.028 A 
ATOM      6  C   UNL     1     144.297 146.488 143.675  1.00  0.00     0.083 A 
ATOM      7  N   UNL     1     145.495 146.924 143.223  1.00  0.00    -0.361 N 
ATOM      8  C   UNL     1     143.589 149.904 142.899  1.00  0.00     0.056 A 
ATOM      9  C   UNL     1     144.524 150.827 142.381  1.00  0.00     0.116 A 
ATOM     10  H   UNL     1     146.374 146.367 143.141  1.00  0.00     0.166 HD
ENDROOT
BRANCH   9  11
ATOM     11  O   UNL     1     144.145 152.140 142.112  1.00  0.00    -0.508 OA
ATOM     12  H   UNL     1     143.994 152.462 141.164  1.00  0.00     0.293 HD
ENDBRANCH   9  11
TORSDOF 1
ENDMDL
