MODEL 1
REMARK VINA RESULT:     1.248      0.000      0.000
REMARK INTER + INTRA:           1.094
REMARK INTER:                   1.540
REMARK INTRA:                  -0.445
REMARK UNBOUND:                -0.445
REMARK SMILES CC(C)=CCC[C@H](C)c1ccc(C)cc1
REMARK SMILES IDX 6 1 7 2 8 3 9 4 13 5 12 6 11 7 14 8 10 9 15 10 5 11 4 12
REMARK SMILES IDX 2 13 1 14 3 15
REMARK H PARENT
REMARK Flexibility Score: inf
ROOT
ATOM      1  C   UNL     1       2.930  21.923  19.941  1.00  0.00     0.012 C 
ENDROOT
BRANCH   1   2
ATOM      2  C   UNL     1       3.720  23.228  20.191  1.00  0.00     0.016 C 
ATOM      3  C   UNL     1       4.641  23.586  19.014  1.00  0.00     0.013 C 
BRANCH   2   4
ATOM      4  C   UNL     1       4.526  23.121  21.473  1.00  0.00    -0.045 A 
ATOM      5  C   UNL     1       6.825  22.855  25.121  1.00  0.00     0.044 C 
ATOM      6  C   UNL     1       6.003  22.933  23.869  1.00  0.00    -0.051 A 
ATOM      7  C   UNL     1       6.075  21.910  22.913  1.00  0.00     0.004 A 
ATOM      8  C   UNL     1       5.211  24.060  23.613  1.00  0.00     0.004 A 
ATOM      9  C   UNL     1       5.338  21.998  21.728  1.00  0.00     0.004 A 
ATOM     10  C   UNL     1       4.473  24.152  22.429  1.00  0.00     0.004 A 
ENDBRANCH   2   4
ENDBRANCH   1   2
BRANCH   1  11
ATOM     11  C   UNL     1       1.605  21.877  20.717  1.00  0.00     0.028 C 
BRANCH  11  12
ATOM     12  C   UNL     1       1.857  21.887  22.204  1.00  0.00    -0.028 C 
ATOM     13  C   UNL     1       0.887  21.916  23.144  1.00  0.00    -0.080 C 
ATOM     14  C   UNL     1      -0.577  21.998  22.782  1.00  0.00     0.039 C 
ATOM     15  C   UNL     1       1.293  21.883  24.595  1.00  0.00     0.039 C 
ENDBRANCH  11  12
ENDBRANCH   1  11
TORSDOF 4
ENDMDL
MODEL 2
REMARK VINA RESULT:     2.201      1.419      3.781
REMARK INTER + INTRA:           2.271
REMARK INTER:                   1.748
REMARK INTRA:                   0.523
REMARK UNBOUND:                -0.445
REMARK SMILES CC(C)=CCC[C@H](C)c1ccc(C)cc1
REMARK SMILES IDX 6 1 7 2 8 3 9 4 13 5 12 6 11 7 14 8 10 9 15 10 5 11 4 12
REMARK SMILES IDX 2 13 1 14 3 15
REMARK H PARENT
REMARK Flexibility Score: inf
ROOT
ATOM      1  C   UNL     1       2.308  22.355  21.151  1.00  0.00     0.012 C 
ENDROOT
BRANCH   1   2
ATOM      2  C   UNL     1       2.447  21.875  22.613  1.00  0.00     0.016 C 
ATOM      3  C   UNL     1       1.189  22.170  23.445  1.00  0.00     0.013 C 
BRANCH   2   4
ATOM      4  C   UNL     1       3.665  22.505  23.264  1.00  0.00    -0.045 A 
ATOM      5  C   UNL     1       7.118  24.334  25.107  1.00  0.00     0.044 C 
ATOM      6  C   UNL     1       5.914  23.683  24.493  1.00  0.00    -0.051 A 
ATOM      7  C   UNL     1       6.050  22.493  23.765  1.00  0.00     0.004 A 
ATOM      8  C   UNL     1       4.656  24.296  24.584  1.00  0.00     0.004 A 
ATOM      9  C   UNL     1       4.934  21.904  23.162  1.00  0.00     0.004 A 
ATOM     10  C   UNL     1       3.540  23.710  23.980  1.00  0.00     0.004 A 
ENDBRANCH   2   4
ENDBRANCH   1   2
BRANCH   1  11
ATOM     11  C   UNL     1       3.665  22.649  20.493  1.00  0.00     0.028 C 
BRANCH  11  12
ATOM     12  C   UNL     1       4.199  23.985  20.947  1.00  0.00    -0.028 C 
ATOM     13  C   UNL     1       5.498  24.351  20.886  1.00  0.00    -0.080 C 
ATOM     14  C   UNL     1       6.573  23.409  20.399  1.00  0.00     0.039 C 
ATOM     15  C   UNL     1       5.875  25.737  21.341  1.00  0.00     0.039 C 
ENDBRANCH  11  12
ENDBRANCH   1  11
TORSDOF 4
ENDMDL
MODEL 3
REMARK VINA RESULT:     3.667     19.844     22.478
REMARK INTER + INTRA:           4.079
REMARK INTER:                   5.066
REMARK INTRA:                  -0.987
REMARK UNBOUND:                -0.445
REMARK SMILES CC(C)=CCC[C@H](C)c1ccc(C)cc1
REMARK SMILES IDX 6 1 7 2 8 3 9 4 13 5 12 6 11 7 14 8 10 9 15 10 5 11 4 12
REMARK SMILES IDX 2 13 1 14 3 15
REMARK H PARENT
REMARK Flexibility Score: inf
ROOT
ATOM      1  C   UNL     1       1.855  42.121   8.612  1.00  0.00     0.012 C 
ENDROOT
BRANCH   1   2
ATOM      2  C   UNL     1       0.627  41.737   7.755  1.00  0.00     0.016 C 
ATOM      3  C   UNL     1      -0.698  42.125   8.429  1.00  0.00     0.013 C 
BRANCH   2   4
ATOM      4  C   UNL     1       0.643  40.252   7.443  1.00  0.00    -0.045 A 
ATOM      5  C   UNL     1       0.656  36.018   6.581  1.00  0.00     0.044 C 
ATOM      6  C   UNL     1       0.649  37.494   6.850  1.00  0.00    -0.051 A 
ATOM      7  C   UNL     1       1.855  38.206   6.914  1.00  0.00     0.004 A 
ATOM      8  C   UNL     1      -0.558  38.160   7.108  1.00  0.00     0.004 A 
ATOM      9  C   UNL     1       1.853  39.574   7.201  1.00  0.00     0.004 A 
ATOM     10  C   UNL     1      -0.563  39.528   7.396  1.00  0.00     0.004 A 
ENDBRANCH   2   4
ENDBRANCH   1   2
BRANCH   1  11
ATOM     11  C   UNL     1       1.589  41.989  10.119  1.00  0.00     0.028 C 
BRANCH  11  12
ATOM     12  C   UNL     1       1.606  40.540  10.538  1.00  0.00    -0.028 C 
ATOM     13  C   UNL     1       0.539  39.873  11.030  1.00  0.00    -0.080 C 
ATOM     14  C   UNL     1      -0.791  40.550  11.263  1.00  0.00     0.039 C 
ATOM     15  C   UNL     1       0.699  38.413  11.369  1.00  0.00     0.039 C 
ENDBRANCH  11  12
ENDBRANCH   1  11
TORSDOF 4
ENDMDL
