MODEL 1
REMARK VINA RESULT:    -0.178      0.000      0.000
REMARK INTER + INTRA:           0.169
REMARK INTER:                  -0.236
REMARK INTRA:                   0.405
REMARK UNBOUND:                 0.405
REMARK SMILES CC[C@H](C=C[C@@H](C)[C@H]1CC[C@@H]2[C@H]3CC=C4C[C@@H](O)CC[C@]4(C)[C@H]3CC[C@@]21C)C(C)C
REMARK SMILES IDX 6 1 7 2 5 3 4 4 3 5 2 6 1 7 28 8 29 9 30 10 8 11 9 12 26 13
REMARK SMILES IDX 10 14 11 15 25 16 27 17 12 18 24 19 23 20 13 21 21 22 14 23
REMARK SMILES IDX 15 24 20 25 22 26 16 27 19 28 17 29 18 30
REMARK H PARENT 18 31
REMARK Flexibility Score: inf
ROOT
ATOM      1  C   UNL     1      69.437  40.340  21.879  1.00  0.00     0.012 C 
ATOM      2  C   UNL     1      69.943  38.873  21.889  1.00  0.00     0.012 C 
ENDROOT
BRANCH   1   3
ATOM      3  C   UNL     1      68.362  40.487  20.818  1.00  0.00    -0.028 C 
ATOM      4  C   UNL     1      67.994  41.713  20.407  1.00  0.00    -0.027 C 
BRANCH   4   5
ATOM      5  C   UNL     1      67.168  41.937  19.148  1.00  0.00     0.014 C 
BRANCH   5   6
ATOM      6  C   UNL     1      68.058  42.108  17.891  1.00  0.00     0.004 C 
ATOM      7  C   UNL     1      69.559  42.079  18.176  1.00  0.00     0.004 C 
ENDBRANCH   5   6
BRANCH   5   8
ATOM      8  C   UNL     1      66.069  40.827  18.987  1.00  0.00    -0.011 C 
ATOM      9  C   UNL     1      66.458  39.764  17.941  1.00  0.00     0.008 C 
ATOM     10  C   UNL     1      64.705  41.431  18.587  1.00  0.00     0.008 C 
ENDBRANCH   5   8
ENDBRANCH   4   5
ENDBRANCH   1   3
BRANCH   1  11
ATOM     11  C   UNL     1      70.627  41.356  21.738  1.00  0.00     0.002 C 
ATOM     12  C   UNL     1      71.284  41.736  23.074  1.00  0.00     0.005 C 
ATOM     13  C   UNL     1      71.857  40.896  20.836  1.00  0.00    -0.026 C 
ATOM     14  C   UNL     1      72.465  40.823  23.208  1.00  0.00     0.005 C 
ATOM     15  C   UNL     1      73.065  40.723  21.809  1.00  0.00    -0.001 C 
ATOM     16  C   UNL     1      72.140  41.998  19.779  1.00  0.00     0.007 C 
ATOM     17  C   UNL     1      71.668  39.549  20.083  1.00  0.00     0.012 C 
ATOM     18  C   UNL     1      74.241  41.744  21.604  1.00  0.00     0.000 C 
ATOM     19  C   UNL     1      73.500  41.817  19.101  1.00  0.00     0.005 C 
ATOM     20  C   UNL     1      74.667  41.951  20.106  1.00  0.00     0.003 C 
ATOM     21  C   UNL     1      75.437  41.414  22.542  1.00  0.00     0.031 C 
ATOM     22  C   UNL     1      75.977  41.176  19.684  1.00  0.00    -0.008 C 
ATOM     23  C   UNL     1      76.785  41.743  21.978  1.00  0.00    -0.027 C 
ATOM     24  C   UNL     1      77.080  41.615  20.664  1.00  0.00    -0.065 C 
ATOM     25  C   UNL     1      76.348  41.554  18.216  1.00  0.00     0.014 C 
ATOM     26  C   UNL     1      75.809  39.635  19.759  1.00  0.00     0.016 C 
ATOM     27  C   UNL     1      78.532  41.746  20.243  1.00  0.00     0.063 C 
ATOM     28  C   UNL     1      77.813  41.263  17.875  1.00  0.00     0.033 C 
ATOM     29  C   UNL     1      78.714  42.125  18.765  1.00  0.00     0.118 C 
BRANCH  29  30
ATOM     30  O   UNL     1      80.059  42.007  18.359  1.00  0.00    -0.393 OA
ATOM     31  H   UNL     1      80.145  41.133  17.888  1.00  0.00     0.210 HD
ENDBRANCH  29  30
ENDBRANCH   1  11
TORSDOF 6
ENDMDL
