MODEL 1
REMARK VINA RESULT:    -3.689      0.000      0.000
REMARK INTER + INTRA:          -8.083
REMARK INTER:                  -6.277
REMARK INTRA:                  -1.806
REMARK UNBOUND:                -1.806
REMARK SMILES CCCCCCCCCCCCCC(=O)[O-]
REMARK SMILES IDX 8 1 9 2 10 3 11 4 12 5 13 6 14 7 15 8 16 9 7 10 6 11 5 12
REMARK SMILES IDX 4 13 3 14 2 15 1 16
REMARK H PARENT
REMARK Flexibility Score: inf
ROOT
ATOM      1  C   UNL     1      77.493 -73.381  -3.699  1.00  0.00     0.000 C 
ENDROOT
BRANCH   1   2
ATOM      2  C   UNL     1      76.889 -74.784  -3.864  1.00  0.00     0.000 C 
BRANCH   2   3
ATOM      3  C   UNL     1      77.770 -75.889  -3.253  1.00  0.00     0.000 C 
BRANCH   3   4
ATOM      4  C   UNL     1      78.301 -75.595  -1.835  1.00  0.00     0.000 C 
BRANCH   4   5
ATOM      5  C   UNL     1      77.766 -76.525  -0.732  1.00  0.00     0.006 C 
BRANCH   5   6
ATOM      6  C   UNL     1      77.458 -77.938  -1.243  1.00  0.00     0.053 C 
BRANCH   6   7
ATOM      7  C   UNL     1      78.645 -78.830  -1.055  1.00  0.00     0.041 C 
ATOM      8  O   UNL     1      79.558 -78.860  -1.921  1.00  0.00    -0.550 OA
ATOM      9  O   UNL     1      78.766 -79.592   0.100  1.00  0.00    -0.550 OA
ENDBRANCH   6   7
ENDBRANCH   5   6
ENDBRANCH   4   5
ENDBRANCH   3   4
ENDBRANCH   2   3
ENDBRANCH   1   2
BRANCH   1  10
ATOM     10  C   UNL     1      76.410 -72.301  -3.805  1.00  0.00     0.000 C 
BRANCH  10  11
ATOM     11  C   UNL     1      75.069 -72.811  -3.257  1.00  0.00    -0.000 C 
BRANCH  11  12
ATOM     12  C   UNL     1      74.449 -71.856  -2.224  1.00  0.00    -0.000 C 
BRANCH  12  13
ATOM     13  C   UNL     1      74.338 -72.485  -0.827  1.00  0.00    -0.000 C 
BRANCH  13  14
ATOM     14  C   UNL     1      75.099 -73.815  -0.763  1.00  0.00    -0.000 C 
BRANCH  14  15
ATOM     15  C   UNL     1      74.153 -74.974  -0.426  1.00  0.00    -0.003 C 
ATOM     16  C   UNL     1      74.215 -76.064  -1.492  1.00  0.00     0.004 C 
ENDBRANCH  14  15
ENDBRANCH  13  14
ENDBRANCH  12  13
ENDBRANCH  11  12
ENDBRANCH  10  11
ENDBRANCH   1  10
TORSDOF 12
ENDMDL
MODEL 2
REMARK VINA RESULT:    -3.658      4.007      5.809
REMARK INTER + INTRA:          -8.030
REMARK INTER:                  -6.386
REMARK INTRA:                  -1.645
REMARK UNBOUND:                -1.806
REMARK SMILES CCCCCCCCCCCCCC(=O)[O-]
REMARK SMILES IDX 8 1 9 2 10 3 11 4 12 5 13 6 14 7 15 8 16 9 7 10 6 11 5 12
REMARK SMILES IDX 4 13 3 14 2 15 1 16
REMARK H PARENT
REMARK Flexibility Score: inf
ROOT
ATOM      1  C   UNL     1      77.552 -73.467  -3.378  1.00  0.00     0.000 C 
ENDROOT
BRANCH   1   2
ATOM      2  C   UNL     1      76.408 -72.546  -3.826  1.00  0.00     0.000 C 
BRANCH   2   3
ATOM      3  C   UNL     1      75.070 -73.290  -3.988  1.00  0.00     0.000 C 
BRANCH   3   4
ATOM      4  C   UNL     1      73.949 -72.838  -3.029  1.00  0.00     0.000 C 
BRANCH   4   5
ATOM      5  C   UNL     1      74.354 -71.750  -2.019  1.00  0.00     0.006 C 
BRANCH   5   6
ATOM      6  C   UNL     1      73.907 -72.070  -0.588  1.00  0.00     0.053 C 
BRANCH   6   7
ATOM      7  C   UNL     1      73.332 -70.851   0.064  1.00  0.00     0.041 C 
ATOM      8  O   UNL     1      74.035 -69.817   0.204  1.00  0.00    -0.550 OA
ATOM      9  O   UNL     1      72.004 -70.842   0.471  1.00  0.00    -0.550 OA
ENDBRANCH   6   7
ENDBRANCH   5   6
ENDBRANCH   4   5
ENDBRANCH   3   4
ENDBRANCH   2   3
ENDBRANCH   1   2
BRANCH   1  10
ATOM     10  C   UNL     1      77.504 -74.806  -4.124  1.00  0.00     0.000 C 
BRANCH  10  11
ATOM     11  C   UNL     1      77.615 -75.986  -3.146  1.00  0.00    -0.000 C 
BRANCH  11  12
ATOM     12  C   UNL     1      78.193 -75.573  -1.784  1.00  0.00    -0.000 C 
BRANCH  12  13
ATOM     13  C   UNL     1      77.239 -75.875  -0.619  1.00  0.00    -0.000 C 
BRANCH  13  14
ATOM     14  C   UNL     1      75.983 -75.000  -0.697  1.00  0.00    -0.000 C 
BRANCH  14  15
ATOM     15  C   UNL     1      74.722 -75.818  -0.394  1.00  0.00    -0.003 C 
ATOM     16  C   UNL     1      74.481 -76.877  -1.467  1.00  0.00     0.004 C 
ENDBRANCH  14  15
ENDBRANCH  13  14
ENDBRANCH  12  13
ENDBRANCH  11  12
ENDBRANCH  10  11
ENDBRANCH   1  10
TORSDOF 12
ENDMDL
MODEL 3
REMARK VINA RESULT:    -3.551      1.076      2.226
REMARK INTER + INTRA:          -7.848
REMARK INTER:                  -5.722
REMARK INTRA:                  -2.127
REMARK UNBOUND:                -1.806
REMARK SMILES CCCCCCCCCCCCCC(=O)[O-]
REMARK SMILES IDX 8 1 9 2 10 3 11 4 12 5 13 6 14 7 15 8 16 9 7 10 6 11 5 12
REMARK SMILES IDX 4 13 3 14 2 15 1 16
REMARK H PARENT
REMARK Flexibility Score: inf
ROOT
ATOM      1  C   UNL     1      75.025 -72.899  -3.610  1.00  0.00     0.000 C 
ENDROOT
BRANCH   1   2
ATOM      2  C   UNL     1      76.498 -72.468  -3.684  1.00  0.00     0.000 C 
BRANCH   2   3
ATOM      3  C   UNL     1      77.470 -73.661  -3.689  1.00  0.00     0.000 C 
BRANCH   3   4
ATOM      4  C   UNL     1      77.669 -74.350  -2.323  1.00  0.00     0.000 C 
BRANCH   4   5
ATOM      5  C   UNL     1      78.330 -75.739  -2.384  1.00  0.00     0.006 C 
BRANCH   5   6
ATOM      6  C   UNL     1      78.247 -76.495  -1.053  1.00  0.00     0.053 C 
BRANCH   6   7
ATOM      7  C   UNL     1      78.087 -77.964  -1.297  1.00  0.00     0.041 C 
ATOM      8  O   UNL     1      77.628 -78.377  -2.394  1.00  0.00    -0.550 OA
ATOM      9  O   UNL     1      78.493 -78.876  -0.332  1.00  0.00    -0.550 OA
ENDBRANCH   6   7
ENDBRANCH   5   6
ENDBRANCH   4   5
ENDBRANCH   3   4
ENDBRANCH   2   3
ENDBRANCH   1   2
BRANCH   1  10
ATOM     10  C   UNL     1      74.292 -72.160  -2.483  1.00  0.00     0.000 C 
BRANCH  10  11
ATOM     11  C   UNL     1      74.535 -72.842  -1.128  1.00  0.00    -0.000 C 
BRANCH  11  12
ATOM     12  C   UNL     1      73.797 -74.184  -1.000  1.00  0.00    -0.000 C 
BRANCH  12  13
ATOM     13  C   UNL     1      74.685 -75.297  -0.425  1.00  0.00    -0.000 C 
BRANCH  13  14
ATOM     14  C   UNL     1      74.628 -76.552  -1.304  1.00  0.00    -0.000 C 
BRANCH  14  15
ATOM     15  C   UNL     1      74.015 -76.238  -2.673  1.00  0.00    -0.003 C 
ATOM     16  C   UNL     1      74.959 -76.639  -3.804  1.00  0.00     0.004 C 
ENDBRANCH  14  15
ENDBRANCH  13  14
ENDBRANCH  12  13
ENDBRANCH  11  12
ENDBRANCH  10  11
ENDBRANCH   1  10
TORSDOF 12
ENDMDL
MODEL 4
REMARK VINA RESULT:    -3.526      3.854      5.624
REMARK INTER + INTRA:          -7.806
REMARK INTER:                  -5.867
REMARK INTRA:                  -1.938
REMARK UNBOUND:                -1.806
REMARK SMILES CCCCCCCCCCCCCC(=O)[O-]
REMARK SMILES IDX 8 1 9 2 10 3 11 4 12 5 13 6 14 7 15 8 16 9 7 10 6 11 5 12
REMARK SMILES IDX 4 13 3 14 2 15 1 16
REMARK H PARENT
REMARK Flexibility Score: inf
ROOT
ATOM      1  C   UNL     1      77.857 -74.274  -2.218  1.00  0.00     0.000 C 
ENDROOT
BRANCH   1   2
ATOM      2  C   UNL     1      77.354 -74.590  -3.635  1.00  0.00     0.000 C 
BRANCH   2   3
ATOM      3  C   UNL     1      76.038 -73.869  -3.977  1.00  0.00     0.000 C 
BRANCH   3   4
ATOM      4  C   UNL     1      75.630 -72.750  -2.997  1.00  0.00     0.000 C 
BRANCH   4   5
ATOM      5  C   UNL     1      74.287 -72.968  -2.279  1.00  0.00     0.006 C 
BRANCH   5   6
ATOM      6  C   UNL     1      74.354 -72.652  -0.781  1.00  0.00     0.053 C 
BRANCH   6   7
ATOM      7  C   UNL     1      73.495 -71.469  -0.459  1.00  0.00     0.041 C 
ATOM      8  O   UNL     1      72.257 -71.506  -0.681  1.00  0.00    -0.550 OA
ATOM      9  O   UNL     1      74.055 -70.344   0.133  1.00  0.00    -0.550 OA
ENDBRANCH   6   7
ENDBRANCH   5   6
ENDBRANCH   4   5
ENDBRANCH   3   4
ENDBRANCH   2   3
ENDBRANCH   1   2
BRANCH   1  10
ATOM     10  C   UNL     1      78.653 -75.453  -1.643  1.00  0.00     0.000 C 
BRANCH  10  11
ATOM     11  C   UNL     1      77.721 -76.470  -0.969  1.00  0.00    -0.000 C 
BRANCH  11  12
ATOM     12  C   UNL     1      76.490 -75.811  -0.328  1.00  0.00    -0.000 C 
BRANCH  12  13
ATOM     13  C   UNL     1      75.172 -76.475  -0.756  1.00  0.00    -0.000 C 
BRANCH  13  14
ATOM     14  C   UNL     1      75.418 -77.537  -1.834  1.00  0.00    -0.000 C 
BRANCH  14  15
ATOM     15  C   UNL     1      74.205 -77.672  -2.761  1.00  0.00    -0.003 C 
ATOM     16  C   UNL     1      73.458 -76.347  -2.887  1.00  0.00     0.004 C 
ENDBRANCH  14  15
ENDBRANCH  13  14
ENDBRANCH  12  13
ENDBRANCH  11  12
ENDBRANCH  10  11
ENDBRANCH   1  10
TORSDOF 12
ENDMDL
MODEL 5
REMARK VINA RESULT:    -3.433      1.954      4.115
REMARK INTER + INTRA:          -7.648
REMARK INTER:                  -5.558
REMARK INTRA:                  -2.090
REMARK UNBOUND:                -1.806
REMARK SMILES CCCCCCCCCCCCCC(=O)[O-]
REMARK SMILES IDX 8 1 9 2 10 3 11 4 12 5 13 6 14 7 15 8 16 9 7 10 6 11 5 12
REMARK SMILES IDX 4 13 3 14 2 15 1 16
REMARK H PARENT
REMARK Flexibility Score: inf
ROOT
ATOM      1  C   UNL     1      74.319 -72.486  -3.369  1.00  0.00     0.000 C 
ENDROOT
BRANCH   1   2
ATOM      2  C   UNL     1      73.582 -72.870  -2.077  1.00  0.00     0.000 C 
BRANCH   2   3
ATOM      3  C   UNL     1      74.529 -73.386  -0.979  1.00  0.00     0.000 C 
BRANCH   3   4
ATOM      4  C   UNL     1      74.142 -74.749  -0.368  1.00  0.00     0.000 C 
BRANCH   4   5
ATOM      5  C   UNL     1      74.825 -75.969  -1.012  1.00  0.00     0.006 C 
BRANCH   5   6
ATOM      6  C   UNL     1      74.039 -76.531  -2.202  1.00  0.00     0.053 C 
BRANCH   6   7
ATOM      7  C   UNL     1      74.630 -77.831  -2.651  1.00  0.00     0.041 C 
ATOM      8  O   UNL     1      74.316 -78.903  -2.071  1.00  0.00    -0.550 OA
ATOM      9  O   UNL     1      75.489 -77.863  -3.742  1.00  0.00    -0.550 OA
ENDBRANCH   6   7
ENDBRANCH   5   6
ENDBRANCH   4   5
ENDBRANCH   3   4
ENDBRANCH   2   3
ENDBRANCH   1   2
BRANCH   1  10
ATOM     10  C   UNL     1      75.806 -72.854  -3.282  1.00  0.00     0.000 C 
BRANCH  10  11
ATOM     11  C   UNL     1      76.114 -74.102  -4.123  1.00  0.00    -0.000 C 
BRANCH  11  12
ATOM     12  C   UNL     1      77.353 -74.862  -3.623  1.00  0.00    -0.000 C 
BRANCH  12  13
ATOM     13  C   UNL     1      77.855 -74.349  -2.265  1.00  0.00    -0.000 C 
BRANCH  13  14
ATOM     14  C   UNL     1      78.652 -75.433  -1.530  1.00  0.00    -0.000 C 
BRANCH  14  15
ATOM     15  C   UNL     1      78.436 -76.807  -2.174  1.00  0.00    -0.003 C 
ATOM     16  C   UNL     1      78.087 -77.860  -1.125  1.00  0.00     0.004 C 
ENDBRANCH  14  15
ENDBRANCH  13  14
ENDBRANCH  12  13
ENDBRANCH  11  12
ENDBRANCH  10  11
ENDBRANCH   1  10
TORSDOF 12
ENDMDL
MODEL 6
REMARK VINA RESULT:    -3.413      4.001      6.104
REMARK INTER + INTRA:          -7.613
REMARK INTER:                  -5.976
REMARK INTRA:                  -1.637
REMARK UNBOUND:                -1.806
REMARK SMILES CCCCCCCCCCCCCC(=O)[O-]
REMARK SMILES IDX 8 1 9 2 10 3 11 4 12 5 13 6 14 7 15 8 16 9 7 10 6 11 5 12
REMARK SMILES IDX 4 13 3 14 2 15 1 16
REMARK H PARENT
REMARK Flexibility Score: inf
ROOT
ATOM      1  C   UNL     1      75.169 -75.717  -3.283  1.00  0.00     0.000 C 
ENDROOT
BRANCH   1   2
ATOM      2  C   UNL     1      74.052 -75.059  -2.461  1.00  0.00     0.000 C 
BRANCH   2   3
ATOM      3  C   UNL     1      74.460 -74.798  -0.999  1.00  0.00     0.000 C 
BRANCH   3   4
ATOM      4  C   UNL     1      74.887 -73.349  -0.687  1.00  0.00     0.000 C 
BRANCH   4   5
ATOM      5  C   UNL     1      74.190 -72.268  -1.531  1.00  0.00     0.006 C 
BRANCH   5   6
ATOM      6  C   UNL     1      72.874 -71.784  -0.910  1.00  0.00     0.053 C 
BRANCH   6   7
ATOM      7  C   UNL     1      73.145 -70.792   0.178  1.00  0.00     0.041 C 
ATOM      8  O   UNL     1      74.095 -69.974   0.066  1.00  0.00    -0.550 OA
ATOM      9  O   UNL     1      72.316 -70.738   1.291  1.00  0.00    -0.550 OA
ENDBRANCH   6   7
ENDBRANCH   5   6
ENDBRANCH   4   5
ENDBRANCH   3   4
ENDBRANCH   2   3
ENDBRANCH   1   2
BRANCH   1  10
ATOM     10  C   UNL     1      75.981 -74.665  -4.050  1.00  0.00     0.000 C 
BRANCH  10  11
ATOM     11  C   UNL     1      77.482 -74.811  -3.761  1.00  0.00    -0.000 C 
BRANCH  11  12
ATOM     12  C   UNL     1      77.882 -74.233  -2.394  1.00  0.00    -0.000 C 
BRANCH  12  13
ATOM     13  C   UNL     1      78.631 -75.248  -1.518  1.00  0.00    -0.000 C 
BRANCH  13  14
ATOM     14  C   UNL     1      78.589 -76.647  -2.142  1.00  0.00    -0.000 C 
BRANCH  14  15
ATOM     15  C   UNL     1      77.996 -77.669  -1.163  1.00  0.00    -0.003 C 
ATOM     16  C   UNL     1      76.979 -78.571  -1.857  1.00  0.00     0.004 C 
ENDBRANCH  14  15
ENDBRANCH  13  14
ENDBRANCH  12  13
ENDBRANCH  11  12
ENDBRANCH  10  11
ENDBRANCH   1  10
TORSDOF 12
ENDMDL
MODEL 7
REMARK VINA RESULT:    -3.377      3.854      6.193
REMARK INTER + INTRA:          -7.551
REMARK INTER:                  -5.711
REMARK INTRA:                  -1.840
REMARK UNBOUND:                -1.806
REMARK SMILES CCCCCCCCCCCCCC(=O)[O-]
REMARK SMILES IDX 8 1 9 2 10 3 11 4 12 5 13 6 14 7 15 8 16 9 7 10 6 11 5 12
REMARK SMILES IDX 4 13 3 14 2 15 1 16
REMARK H PARENT
REMARK Flexibility Score: inf
ROOT
ATOM      1  C   UNL     1      76.671 -76.069  -0.354  1.00  0.00     0.000 C 
ENDROOT
BRANCH   1   2
ATOM      2  C   UNL     1      75.268 -76.544  -0.760  1.00  0.00     0.000 C 
BRANCH   2   3
ATOM      3  C   UNL     1      74.398 -75.412  -1.337  1.00  0.00     0.000 C 
BRANCH   3   4
ATOM      4  C   UNL     1      74.658 -74.015  -0.737  1.00  0.00     0.000 C 
BRANCH   4   5
ATOM      5  C   UNL     1      73.691 -72.914  -1.206  1.00  0.00     0.006 C 
BRANCH   5   6
ATOM      6  C   UNL     1      72.999 -73.255  -2.531  1.00  0.00     0.053 C 
BRANCH   6   7
ATOM      7  C   UNL     1      71.515 -73.304  -2.347  1.00  0.00     0.041 C 
ATOM      8  O   UNL     1      71.023 -73.421  -1.194  1.00  0.00    -0.550 OA
ATOM      9  O   UNL     1      70.674 -73.171  -3.445  1.00  0.00    -0.550 OA
ENDBRANCH   6   7
ENDBRANCH   5   6
ENDBRANCH   4   5
ENDBRANCH   3   4
ENDBRANCH   2   3
ENDBRANCH   1   2
BRANCH   1  10
ATOM     10  C   UNL     1      77.754 -76.960  -0.977  1.00  0.00     0.000 C 
BRANCH  10  11
ATOM     11  C   UNL     1      78.608 -76.169  -1.978  1.00  0.00    -0.000 C 
BRANCH  11  12
ATOM     12  C   UNL     1      77.933 -74.865  -2.432  1.00  0.00    -0.000 C 
BRANCH  12  13
ATOM     13  C   UNL     1      77.437 -74.929  -3.884  1.00  0.00    -0.000 C 
BRANCH  13  14
ATOM     14  C   UNL     1      76.313 -73.914  -4.125  1.00  0.00    -0.000 C 
BRANCH  14  15
ATOM     15  C   UNL     1      76.672 -72.545  -3.533  1.00  0.00    -0.003 C 
ATOM     16  C   UNL     1      75.774 -71.448  -4.099  1.00  0.00     0.004 C 
ENDBRANCH  14  15
ENDBRANCH  13  14
ENDBRANCH  12  13
ENDBRANCH  11  12
ENDBRANCH  10  11
ENDBRANCH   1  10
TORSDOF 12
ENDMDL
MODEL 8
REMARK VINA RESULT:    -3.363      3.206      5.760
REMARK INTER + INTRA:          -7.527
REMARK INTER:                  -5.809
REMARK INTRA:                  -1.718
REMARK UNBOUND:                -1.806
REMARK SMILES CCCCCCCCCCCCCC(=O)[O-]
REMARK SMILES IDX 8 1 9 2 10 3 11 4 12 5 13 6 14 7 15 8 16 9 7 10 6 11 5 12
REMARK SMILES IDX 4 13 3 14 2 15 1 16
REMARK H PARENT
REMARK Flexibility Score: inf
ROOT
ATOM      1  C   UNL     1      78.563 -75.461  -1.541  1.00  0.00     0.000 C 
ENDROOT
BRANCH   1   2
ATOM      2  C   UNL     1      77.879 -74.317  -2.305  1.00  0.00     0.000 C 
BRANCH   2   3
ATOM      3  C   UNL     1      77.206 -74.786  -3.607  1.00  0.00     0.000 C 
BRANCH   3   4
ATOM      4  C   UNL     1      76.073 -73.875  -4.124  1.00  0.00     0.000 C 
BRANCH   4   5
ATOM      5  C   UNL     1      74.822 -73.820  -3.229  1.00  0.00     0.006 C 
BRANCH   5   6
ATOM      6  C   UNL     1      74.604 -72.441  -2.596  1.00  0.00     0.053 C 
BRANCH   6   7
ATOM      7  C   UNL     1      74.496 -72.561  -1.108  1.00  0.00     0.041 C 
ATOM      8  O   UNL     1      73.812 -71.731  -0.454  1.00  0.00    -0.550 OA
ATOM      9  O   UNL     1      75.110 -73.619  -0.450  1.00  0.00    -0.550 OA
ENDBRANCH   6   7
ENDBRANCH   5   6
ENDBRANCH   4   5
ENDBRANCH   3   4
ENDBRANCH   2   3
ENDBRANCH   1   2
BRANCH   1  10
ATOM     10  C   UNL     1      77.541 -76.269  -0.731  1.00  0.00     0.000 C 
BRANCH  10  11
ATOM     11  C   UNL     1      77.878 -77.768  -0.760  1.00  0.00    -0.000 C 
BRANCH  11  12
ATOM     12  C   UNL     1      78.857 -78.134  -1.886  1.00  0.00    -0.000 C 
BRANCH  12  13
ATOM     13  C   UNL     1      78.183 -78.906  -3.030  1.00  0.00    -0.000 C 
BRANCH  13  14
ATOM     14  C   UNL     1      76.682 -79.076  -2.767  1.00  0.00    -0.000 C 
BRANCH  14  15
ATOM     15  C   UNL     1      75.854 -78.209  -3.722  1.00  0.00    -0.003 C 
ATOM     16  C   UNL     1      74.709 -77.517  -2.987  1.00  0.00     0.004 C 
ENDBRANCH  14  15
ENDBRANCH  13  14
ENDBRANCH  12  13
ENDBRANCH  11  12
ENDBRANCH  10  11
ENDBRANCH   1  10
TORSDOF 12
ENDMDL
MODEL 9
REMARK VINA RESULT:    -1.123      4.220      5.861
REMARK INTER + INTRA:          -3.716
REMARK INTER:                  -1.620
REMARK INTRA:                  -2.096
REMARK UNBOUND:                -1.806
REMARK SMILES CCCCCCCCCCCCCC(=O)[O-]
REMARK SMILES IDX 8 1 9 2 10 3 11 4 12 5 13 6 14 7 15 8 16 9 7 10 6 11 5 12
REMARK SMILES IDX 4 13 3 14 2 15 1 16
REMARK H PARENT
REMARK Flexibility Score: inf
ROOT
ATOM      1  C   UNL     1      76.562 -73.618  -3.811  1.00  0.00     0.000 C 
ENDROOT
BRANCH   1   2
ATOM      2  C   UNL     1      76.324 -72.124  -4.076  1.00  0.00     0.000 C 
BRANCH   2   3
ATOM      3  C   UNL     1      75.062 -71.586  -3.377  1.00  0.00     0.000 C 
BRANCH   3   4
ATOM      4  C   UNL     1      73.891 -72.585  -3.281  1.00  0.00     0.000 C 
BRANCH   4   5
ATOM      5  C   UNL     1      73.228 -72.681  -1.895  1.00  0.00     0.006 C 
BRANCH   5   6
ATOM      6  C   UNL     1      74.102 -72.102  -0.776  1.00  0.00     0.053 C 
BRANCH   6   7
ATOM      7  C   UNL     1      73.401 -70.964  -0.103  1.00  0.00     0.041 C 
ATOM      8  O   UNL     1      74.030 -69.912   0.182  1.00  0.00    -0.550 OA
ATOM      9  O   UNL     1      72.040 -71.047   0.164  1.00  0.00    -0.550 OA
ENDBRANCH   6   7
ENDBRANCH   5   6
ENDBRANCH   4   5
ENDBRANCH   3   4
ENDBRANCH   2   3
ENDBRANCH   1   2
BRANCH   1  10
ATOM     10  C   UNL     1      77.428 -73.823  -2.561  1.00  0.00     0.000 C 
BRANCH  10  11
ATOM     11  C   UNL     1      76.688 -74.665  -1.512  1.00  0.00    -0.000 C 
BRANCH  11  12
ATOM     12  C   UNL     1      75.741 -75.699  -2.142  1.00  0.00    -0.000 C 
BRANCH  12  13
ATOM     13  C   UNL     1      74.540 -76.028  -1.242  1.00  0.00    -0.000 C 
BRANCH  13  14
ATOM     14  C   UNL     1      73.412 -76.680  -2.051  1.00  0.00    -0.000 C 
BRANCH  14  15
ATOM     15  C   UNL     1      73.531 -76.333  -3.540  1.00  0.00    -0.003 C 
ATOM     16  C   UNL     1      72.175 -75.945  -4.125  1.00  0.00     0.004 C 
ENDBRANCH  14  15
ENDBRANCH  13  14
ENDBRANCH  12  13
ENDBRANCH  11  12
ENDBRANCH  10  11
ENDBRANCH   1  10
TORSDOF 12
ENDMDL
