MODEL 1
REMARK VINA RESULT:    -4.879      0.000      0.000
REMARK INTER + INTRA:          -8.699
REMARK INTER:                  -7.446
REMARK INTRA:                  -1.253
REMARK UNBOUND:                -1.253
REMARK SMILES CC(=O)CCC=C(C)CCC=C(C)CCC=C(C)C
REMARK SMILES IDX 10 1 11 2 12 3 13 4 14 5 15 6 16 7 18 8 17 9 19 10 9 11 7 12
REMARK SMILES IDX 6 13 8 14 5 15 4 16 2 17 3 18 1 19
REMARK H PARENT
REMARK Flexibility Score: inf
ROOT
ATOM      1  C   UNL     1      13.671  51.727  33.199  1.00  0.00     0.032 C 
ENDROOT
BRANCH   1   2
ATOM      2  C   UNL     1      13.262  50.388  33.757  1.00  0.00    -0.028 C 
ATOM      3  C   UNL     1      13.319  49.224  33.071  1.00  0.00    -0.077 C 
ATOM      4  C   UNL     1      13.852  49.154  31.659  1.00  0.00     0.039 C 
BRANCH   3   5
ATOM      5  C   UNL     1      12.867  47.948  33.750  1.00  0.00     0.034 C 
BRANCH   5   6
ATOM      6  C   UNL     1      12.442  46.882  32.731  1.00  0.00     0.032 C 
BRANCH   6   7
ATOM      7  C   UNL     1      10.962  46.591  32.835  1.00  0.00    -0.028 C 
ATOM      8  C   UNL     1      10.363  47.956  30.819  1.00  0.00     0.039 C 
ATOM      9  C   UNL     1      10.018  47.087  32.003  1.00  0.00    -0.080 C 
ATOM     10  C   UNL     1       8.565  46.767  32.243  1.00  0.00     0.039 C 
ENDBRANCH   6   7
ENDBRANCH   5   6
ENDBRANCH   3   5
ENDBRANCH   1   2
BRANCH   1  11
ATOM     11  C   UNL     1      14.074  52.687  34.323  1.00  0.00     0.034 C 
BRANCH  11  12
ATOM     12  C   UNL     1      15.355  52.228  34.986  1.00  0.00    -0.077 C 
ATOM     13  C   UNL     1      16.512  52.289  34.288  1.00  0.00    -0.028 C 
ATOM     14  C   UNL     1      15.302  51.693  36.398  1.00  0.00     0.039 C 
BRANCH  13  15
ATOM     15  C   UNL     1      17.866  51.920  34.843  1.00  0.00     0.035 C 
BRANCH  15  16
ATOM     16  C   UNL     1      18.567  53.121  35.493  1.00  0.00     0.079 C 
BRANCH  16  17
ATOM     17  C   UNL     1      19.001  54.138  34.466  1.00  0.00     0.130 C 
ATOM     18  O   UNL     1      18.457  55.232  34.434  1.00  0.00    -0.300 OA
ATOM     19  C   UNL     1      20.099  53.840  33.490  1.00  0.00     0.087 C 
ENDBRANCH  16  17
ENDBRANCH  15  16
ENDBRANCH  13  15
ENDBRANCH  11  12
ENDBRANCH   1  11
TORSDOF 9
ENDMDL
MODEL 2
REMARK VINA RESULT:    -4.784      3.216      7.475
REMARK INTER + INTRA:          -8.554
REMARK INTER:                  -6.689
REMARK INTRA:                  -1.865
REMARK UNBOUND:                -1.253
REMARK SMILES CC(=O)CCC=C(C)CCC=C(C)CCC=C(C)C
REMARK SMILES IDX 10 1 11 2 12 3 13 4 14 5 15 6 16 7 18 8 17 9 19 10 9 11 7 12
REMARK SMILES IDX 6 13 8 14 5 15 4 16 2 17 3 18 1 19
REMARK H PARENT
REMARK Flexibility Score: inf
ROOT
ATOM      1  C   UNL     1      14.259  52.596  32.155  1.00  0.00     0.032 C 
ENDROOT
BRANCH   1   2
ATOM      2  C   UNL     1      15.368  53.266  32.925  1.00  0.00    -0.028 C 
ATOM      3  C   UNL     1      16.637  52.804  32.996  1.00  0.00    -0.077 C 
ATOM      4  C   UNL     1      17.078  51.563  32.255  1.00  0.00     0.039 C 
BRANCH   3   5
ATOM      5  C   UNL     1      17.654  53.571  33.815  1.00  0.00     0.034 C 
BRANCH   5   6
ATOM      6  C   UNL     1      17.167  53.805  35.251  1.00  0.00     0.032 C 
BRANCH   6   7
ATOM      7  C   UNL     1      16.580  52.541  35.838  1.00  0.00    -0.028 C 
ATOM      8  C   UNL     1      14.483  53.663  36.633  1.00  0.00     0.039 C 
ATOM      9  C   UNL     1      15.393  52.469  36.483  1.00  0.00    -0.080 C 
ATOM     10  C   UNL     1      14.940  51.159  37.072  1.00  0.00     0.039 C 
ENDBRANCH   6   7
ENDBRANCH   5   6
ENDBRANCH   3   5
ENDBRANCH   1   2
BRANCH   1  11
ATOM     11  C   UNL     1      13.288  51.885  33.105  1.00  0.00     0.034 C 
BRANCH  11  12
ATOM     12  C   UNL     1      13.416  50.383  32.977  1.00  0.00    -0.077 C 
ATOM     13  C   UNL     1      13.085  49.605  34.033  1.00  0.00    -0.028 C 
ATOM     14  C   UNL     1      13.933  49.796  31.684  1.00  0.00     0.039 C 
BRANCH  13  15
ATOM     15  C   UNL     1      13.109  48.096  34.024  1.00  0.00     0.035 C 
BRANCH  15  16
ATOM     16  C   UNL     1      11.739  47.501  33.672  1.00  0.00     0.079 C 
BRANCH  16  17
ATOM     17  C   UNL     1      11.842  46.472  32.573  1.00  0.00     0.130 C 
ATOM     18  O   UNL     1      10.823  46.045  32.050  1.00  0.00    -0.300 OA
ATOM     19  C   UNL     1      13.172  45.970  32.098  1.00  0.00     0.087 C 
ENDBRANCH  16  17
ENDBRANCH  15  16
ENDBRANCH  13  15
ENDBRANCH  11  12
ENDBRANCH   1  11
TORSDOF 9
ENDMDL
MODEL 3
REMARK VINA RESULT:    -4.754      3.058      8.335
REMARK INTER + INTRA:          -8.509
REMARK INTER:                  -6.996
REMARK INTRA:                  -1.512
REMARK UNBOUND:                -1.253
REMARK SMILES CC(=O)CCC=C(C)CCC=C(C)CCC=C(C)C
REMARK SMILES IDX 10 1 11 2 12 3 13 4 14 5 15 6 16 7 18 8 17 9 19 10 9 11 7 12
REMARK SMILES IDX 6 13 8 14 5 15 4 16 2 17 3 18 1 19
REMARK H PARENT
REMARK Flexibility Score: inf
ROOT
ATOM      1  C   UNL     1      13.878  52.116  33.919  1.00  0.00     0.032 C 
ENDROOT
BRANCH   1   2
ATOM      2  C   UNL     1      15.380  52.051  34.012  1.00  0.00    -0.028 C 
ATOM      3  C   UNL     1      16.072  51.959  35.170  1.00  0.00    -0.077 C 
ATOM      4  C   UNL     1      15.378  51.868  36.509  1.00  0.00     0.039 C 
BRANCH   3   5
ATOM      5  C   UNL     1      17.585  51.912  35.121  1.00  0.00     0.034 C 
BRANCH   5   6
ATOM      6  C   UNL     1      18.140  52.704  33.930  1.00  0.00     0.032 C 
BRANCH   6   7
ATOM      7  C   UNL     1      18.596  54.080  34.360  1.00  0.00    -0.028 C 
ATOM      8  C   UNL     1      16.759  55.273  33.141  1.00  0.00     0.039 C 
ATOM      9  C   UNL     1      18.003  55.239  33.991  1.00  0.00    -0.080 C 
ATOM     10  C   UNL     1      18.586  56.554  34.442  1.00  0.00     0.039 C 
ENDBRANCH   6   7
ENDBRANCH   5   6
ENDBRANCH   3   5
ENDBRANCH   1   2
BRANCH   1  11
ATOM     11  C   UNL     1      13.385  51.511  32.600  1.00  0.00     0.034 C 
BRANCH  11  12
ATOM     12  C   UNL     1      13.449  49.999  32.647  1.00  0.00    -0.077 C 
ATOM     13  C   UNL     1      12.992  49.359  33.747  1.00  0.00    -0.028 C 
ATOM     14  C   UNL     1      14.043  49.252  31.476  1.00  0.00     0.039 C 
BRANCH  13  15
ATOM     15  C   UNL     1      12.942  47.858  33.903  1.00  0.00     0.035 C 
BRANCH  15  16
ATOM     16  C   UNL     1      11.501  47.328  33.907  1.00  0.00     0.079 C 
BRANCH  16  17
ATOM     17  C   UNL     1      11.174  46.590  32.632  1.00  0.00     0.130 C 
ATOM     18  O   UNL     1      10.023  46.579  32.221  1.00  0.00    -0.300 OA
ATOM     19  C   UNL     1      12.235  45.877  31.850  1.00  0.00     0.087 C 
ENDBRANCH  16  17
ENDBRANCH  15  16
ENDBRANCH  13  15
ENDBRANCH  11  12
ENDBRANCH   1  11
TORSDOF 9
ENDMDL
MODEL 4
REMARK VINA RESULT:    -4.659      2.923      8.326
REMARK INTER + INTRA:          -8.363
REMARK INTER:                  -7.041
REMARK INTRA:                  -1.322
REMARK UNBOUND:                -1.253
REMARK SMILES CC(=O)CCC=C(C)CCC=C(C)CCC=C(C)C
REMARK SMILES IDX 10 1 11 2 12 3 13 4 14 5 15 6 16 7 18 8 17 9 19 10 9 11 7 12
REMARK SMILES IDX 6 13 8 14 5 15 4 16 2 17 3 18 1 19
REMARK H PARENT
REMARK Flexibility Score: inf
ROOT
ATOM      1  C   UNL     1      13.369  51.117  33.616  1.00  0.00     0.032 C 
ENDROOT
BRANCH   1   2
ATOM      2  C   UNL     1      14.418  51.591  34.588  1.00  0.00    -0.028 C 
ATOM      3  C   UNL     1      14.741  52.888  34.792  1.00  0.00    -0.077 C 
ATOM      4  C   UNL     1      14.030  54.011  34.074  1.00  0.00     0.039 C 
BRANCH   3   5
ATOM      5  C   UNL     1      15.825  53.227  35.794  1.00  0.00     0.034 C 
BRANCH   5   6
ATOM      6  C   UNL     1      17.019  52.270  35.685  1.00  0.00     0.032 C 
BRANCH   6   7
ATOM      7  C   UNL     1      18.187  52.937  34.993  1.00  0.00    -0.028 C 
ATOM      8  C   UNL     1      17.706  51.887  32.768  1.00  0.00     0.039 C 
ATOM      9  C   UNL     1      18.521  52.753  33.695  1.00  0.00    -0.080 C 
ATOM     10  C   UNL     1      19.742  53.434  33.133  1.00  0.00     0.039 C 
ENDBRANCH   6   7
ENDBRANCH   5   6
ENDBRANCH   3   5
ENDBRANCH   1   2
BRANCH   1  11
ATOM     11  C   UNL     1      14.013  50.387  32.432  1.00  0.00     0.034 C 
BRANCH  11  12
ATOM     12  C   UNL     1      13.633  48.922  32.435  1.00  0.00    -0.077 C 
ATOM     13  C   UNL     1      12.811  48.460  33.404  1.00  0.00    -0.028 C 
ATOM     14  C   UNL     1      14.203  48.012  31.370  1.00  0.00     0.039 C 
BRANCH  13  15
ATOM     15  C   UNL     1      12.307  47.040  33.493  1.00  0.00     0.035 C 
BRANCH  15  16
ATOM     16  C   UNL     1      11.034  46.829  32.661  1.00  0.00     0.079 C 
BRANCH  16  17
ATOM     17  C   UNL     1       9.787  47.006  33.492  1.00  0.00     0.130 C 
ATOM     18  O   UNL     1       9.882  47.118  34.705  1.00  0.00    -0.300 OA
ATOM     19  C   UNL     1       8.430  47.062  32.858  1.00  0.00     0.087 C 
ENDBRANCH  16  17
ENDBRANCH  15  16
ENDBRANCH  13  15
ENDBRANCH  11  12
ENDBRANCH   1  11
TORSDOF 9
ENDMDL
MODEL 5
REMARK VINA RESULT:    -4.627      4.765      7.200
REMARK INTER + INTRA:          -8.314
REMARK INTER:                  -5.853
REMARK INTRA:                  -2.461
REMARK UNBOUND:                -1.253
REMARK SMILES CC(=O)CCC=C(C)CCC=C(C)CCC=C(C)C
REMARK SMILES IDX 10 1 11 2 12 3 13 4 14 5 15 6 16 7 18 8 17 9 19 10 9 11 7 12
REMARK SMILES IDX 6 13 8 14 5 15 4 16 2 17 3 18 1 19
REMARK H PARENT
REMARK Flexibility Score: inf
ROOT
ATOM      1  C   UNL     1      13.329  54.157  35.331  1.00  0.00     0.032 C 
ENDROOT
BRANCH   1   2
ATOM      2  C   UNL     1      13.545  55.384  34.482  1.00  0.00    -0.028 C 
ATOM      3  C   UNL     1      14.021  55.364  33.217  1.00  0.00    -0.077 C 
ATOM      4  C   UNL     1      14.349  54.071  32.507  1.00  0.00     0.039 C 
BRANCH   3   5
ATOM      5  C   UNL     1      14.200  56.674  32.478  1.00  0.00     0.034 C 
BRANCH   5   6
ATOM      6  C   UNL     1      15.162  57.615  33.214  1.00  0.00     0.032 C 
BRANCH   6   7
ATOM      7  C   UNL     1      16.564  57.048  33.237  1.00  0.00    -0.028 C 
ATOM      8  C   UNL     1      16.657  56.885  35.737  1.00  0.00     0.039 C 
ATOM      9  C   UNL     1      17.254  56.742  34.359  1.00  0.00    -0.080 C 
ATOM     10  C   UNL     1      18.668  56.233  34.253  1.00  0.00     0.039 C 
ENDBRANCH   6   7
ENDBRANCH   5   6
ENDBRANCH   3   5
ENDBRANCH   1   2
BRANCH   1  11
ATOM     11  C   UNL     1      14.423  54.033  36.398  1.00  0.00     0.034 C 
BRANCH  11  12
ATOM     12  C   UNL     1      15.409  52.945  36.031  1.00  0.00    -0.077 C 
ATOM     13  C   UNL     1      16.499  53.269  35.299  1.00  0.00    -0.028 C 
ATOM     14  C   UNL     1      15.134  51.525  36.470  1.00  0.00     0.039 C 
BRANCH  13  15
ATOM     15  C   UNL     1      17.589  52.298  34.914  1.00  0.00     0.035 C 
BRANCH  15  16
ATOM     16  C   UNL     1      17.485  51.871  33.443  1.00  0.00     0.079 C 
BRANCH  16  17
ATOM     17  C   UNL     1      18.840  51.815  32.780  1.00  0.00     0.130 C 
ATOM     18  O   UNL     1      19.201  50.784  32.234  1.00  0.00    -0.300 OA
ATOM     19  C   UNL     1      19.750  53.007  32.766  1.00  0.00     0.087 C 
ENDBRANCH  16  17
ENDBRANCH  15  16
ENDBRANCH  13  15
ENDBRANCH  11  12
ENDBRANCH   1  11
TORSDOF 9
ENDMDL
MODEL 6
REMARK VINA RESULT:    -4.621     13.993     15.809
REMARK INTER + INTRA:          -8.305
REMARK INTER:                  -5.912
REMARK INTRA:                  -2.393
REMARK UNBOUND:                -1.253
REMARK SMILES CC(=O)CCC=C(C)CCC=C(C)CCC=C(C)C
REMARK SMILES IDX 10 1 11 2 12 3 13 4 14 5 15 6 16 7 18 8 17 9 19 10 9 11 7 12
REMARK SMILES IDX 6 13 8 14 5 15 4 16 2 17 3 18 1 19
REMARK H PARENT
REMARK Flexibility Score: inf
ROOT
ATOM      1  C   UNL     1      12.191  58.865  21.784  1.00  0.00     0.032 C 
ENDROOT
BRANCH   1   2
ATOM      2  C   UNL     1      11.797  59.244  23.188  1.00  0.00    -0.028 C 
ATOM      3  C   UNL     1      12.655  59.311  24.232  1.00  0.00    -0.077 C 
ATOM      4  C   UNL     1      14.133  59.044  24.069  1.00  0.00     0.039 C 
BRANCH   3   5
ATOM      5  C   UNL     1      12.123  59.697  25.597  1.00  0.00     0.034 C 
BRANCH   5   6
ATOM      6  C   UNL     1      12.553  61.115  25.994  1.00  0.00     0.032 C 
BRANCH   6   7
ATOM      7  C   UNL     1      11.815  62.154  25.179  1.00  0.00    -0.028 C 
ATOM      8  C   UNL     1      13.820  62.768  23.805  1.00  0.00     0.039 C 
ATOM      9  C   UNL     1      12.377  62.919  24.215  1.00  0.00    -0.080 C 
ATOM     10  C   UNL     1      11.548  63.960  23.509  1.00  0.00     0.039 C 
ENDBRANCH   6   7
ENDBRANCH   5   6
ENDBRANCH   3   5
ENDBRANCH   1   2
BRANCH   1  11
ATOM     11  C   UNL     1      11.828  59.978  20.795  1.00  0.00     0.034 C 
BRANCH  11  12
ATOM     12  C   UNL     1      12.983  60.942  20.626  1.00  0.00    -0.077 C 
ATOM     13  C   UNL     1      14.242  60.500  20.842  1.00  0.00    -0.028 C 
ATOM     14  C   UNL     1      12.694  62.376  20.246  1.00  0.00     0.039 C 
BRANCH  13  15
ATOM     15  C   UNL     1      15.486  61.334  20.653  1.00  0.00     0.035 C 
BRANCH  15  16
ATOM     16  C   UNL     1      16.742  60.467  20.495  1.00  0.00     0.079 C 
BRANCH  16  17
ATOM     17  C   UNL     1      17.609  60.509  21.730  1.00  0.00     0.130 C 
ATOM     18  O   UNL     1      18.750  60.075  21.680  1.00  0.00    -0.300 OA
ATOM     19  C   UNL     1      17.103  61.086  23.018  1.00  0.00     0.087 C 
ENDBRANCH  16  17
ENDBRANCH  15  16
ENDBRANCH  13  15
ENDBRANCH  11  12
ENDBRANCH   1  11
TORSDOF 9
ENDMDL
MODEL 7
REMARK VINA RESULT:    -4.611      2.904      8.046
REMARK INTER + INTRA:          -8.289
REMARK INTER:                  -6.150
REMARK INTRA:                  -2.139
REMARK UNBOUND:                -1.253
REMARK SMILES CC(=O)CCC=C(C)CCC=C(C)CCC=C(C)C
REMARK SMILES IDX 10 1 11 2 12 3 13 4 14 5 15 6 16 7 18 8 17 9 19 10 9 11 7 12
REMARK SMILES IDX 6 13 8 14 5 15 4 16 2 17 3 18 1 19
REMARK H PARENT
REMARK Flexibility Score: inf
ROOT
ATOM      1  C   UNL     1      17.000  52.228  35.751  1.00  0.00     0.032 C 
ENDROOT
BRANCH   1   2
ATOM      2  C   UNL     1      18.061  53.156  35.216  1.00  0.00    -0.028 C 
ATOM      3  C   UNL     1      18.347  53.314  33.904  1.00  0.00    -0.077 C 
ATOM      4  C   UNL     1      17.581  52.586  32.825  1.00  0.00     0.039 C 
BRANCH   3   5
ATOM      5  C   UNL     1      19.448  54.274  33.503  1.00  0.00     0.034 C 
BRANCH   5   6
ATOM      6  C   UNL     1      19.142  55.710  33.951  1.00  0.00     0.032 C 
BRANCH   6   7
ATOM      7  C   UNL     1      17.853  56.207  33.336  1.00  0.00    -0.028 C 
ATOM      8  C   UNL     1      16.739  56.616  35.544  1.00  0.00     0.039 C 
ATOM      9  C   UNL     1      16.761  56.590  34.036  1.00  0.00    -0.080 C 
ATOM     10  C   UNL     1      15.515  57.017  33.305  1.00  0.00     0.039 C 
ENDBRANCH   6   7
ENDBRANCH   5   6
ENDBRANCH   3   5
ENDBRANCH   1   2
BRANCH   1  11
ATOM     11  C   UNL     1      15.732  53.005  36.122  1.00  0.00     0.034 C 
BRANCH  11  12
ATOM     12  C   UNL     1      14.642  52.771  35.099  1.00  0.00    -0.077 C 
ATOM     13  C   UNL     1      14.462  51.525  34.606  1.00  0.00    -0.028 C 
ATOM     14  C   UNL     1      13.801  53.940  34.640  1.00  0.00     0.039 C 
BRANCH  13  15
ATOM     15  C   UNL     1      13.378  51.139  33.628  1.00  0.00     0.035 C 
BRANCH  15  16
ATOM     16  C   UNL     1      13.857  50.076  32.630  1.00  0.00     0.079 C 
BRANCH  16  17
ATOM     17  C   UNL     1      12.929  48.887  32.592  1.00  0.00     0.130 C 
ATOM     18  O   UNL     1      12.262  48.674  31.590  1.00  0.00    -0.300 OA
ATOM     19  C   UNL     1      12.816  47.950  33.757  1.00  0.00     0.087 C 
ENDBRANCH  16  17
ENDBRANCH  15  16
ENDBRANCH  13  15
ENDBRANCH  11  12
ENDBRANCH   1  11
TORSDOF 9
ENDMDL
MODEL 8
REMARK VINA RESULT:    -4.593     13.803     15.585
REMARK INTER + INTRA:          -8.263
REMARK INTER:                  -5.914
REMARK INTRA:                  -2.349
REMARK UNBOUND:                -1.253
REMARK SMILES CC(=O)CCC=C(C)CCC=C(C)CCC=C(C)C
REMARK SMILES IDX 10 1 11 2 12 3 13 4 14 5 15 6 16 7 18 8 17 9 19 10 9 11 7 12
REMARK SMILES IDX 6 13 8 14 5 15 4 16 2 17 3 18 1 19
REMARK H PARENT
REMARK Flexibility Score: inf
ROOT
ATOM      1  C   UNL     1      15.507  61.321  20.233  1.00  0.00     0.032 C 
ENDROOT
BRANCH   1   2
ATOM      2  C   UNL     1      14.302  60.454  20.492  1.00  0.00    -0.028 C 
ATOM      3  C   UNL     1      13.023  60.894  20.468  1.00  0.00    -0.077 C 
ATOM      4  C   UNL     1      12.677  62.324  20.128  1.00  0.00     0.039 C 
BRANCH   3   5
ATOM      5  C   UNL     1      11.904  59.916  20.758  1.00  0.00     0.034 C 
BRANCH   5   6
ATOM      6  C   UNL     1      11.521  59.914  22.243  1.00  0.00     0.032 C 
BRANCH   6   7
ATOM      7  C   UNL     1      12.548  59.171  23.068  1.00  0.00    -0.028 C 
ATOM      8  C   UNL     1      13.419  61.239  24.185  1.00  0.00     0.039 C 
ATOM      9  C   UNL     1      13.422  59.755  23.920  1.00  0.00    -0.080 C 
ATOM     10  C   UNL     1      14.437  58.910  24.646  1.00  0.00     0.039 C 
ENDBRANCH   6   7
ENDBRANCH   5   6
ENDBRANCH   3   5
ENDBRANCH   1   2
BRANCH   1  11
ATOM     11  C   UNL     1      15.983  61.994  21.526  1.00  0.00     0.034 C 
BRANCH  11  12
ATOM     12  C   UNL     1      16.921  61.084  22.289  1.00  0.00    -0.077 C 
ATOM     13  C   UNL     1      17.535  60.075  21.631  1.00  0.00    -0.028 C 
ATOM     14  C   UNL     1      17.125  61.314  23.769  1.00  0.00     0.039 C 
BRANCH  13  15
ATOM     15  C   UNL     1      18.536  59.132  22.253  1.00  0.00     0.035 C 
BRANCH  15  16
ATOM     16  C   UNL     1      17.884  57.820  22.709  1.00  0.00     0.079 C 
BRANCH  16  17
ATOM     17  C   UNL     1      17.124  57.154  21.588  1.00  0.00     0.130 C 
ATOM     18  O   UNL     1      17.740  56.600  20.690  1.00  0.00    -0.300 OA
ATOM     19  C   UNL     1      15.625  57.147  21.559  1.00  0.00     0.087 C 
ENDBRANCH  16  17
ENDBRANCH  15  16
ENDBRANCH  13  15
ENDBRANCH  11  12
ENDBRANCH   1  11
TORSDOF 9
ENDMDL
MODEL 9
REMARK VINA RESULT:    -4.512     13.556     15.688
REMARK INTER + INTRA:          -8.139
REMARK INTER:                  -5.185
REMARK INTRA:                  -2.954
REMARK UNBOUND:                -1.253
REMARK SMILES CC(=O)CCC=C(C)CCC=C(C)CCC=C(C)C
REMARK SMILES IDX 10 1 11 2 12 3 13 4 14 5 15 6 16 7 18 8 17 9 19 10 9 11 7 12
REMARK SMILES IDX 6 13 8 14 5 15 4 16 2 17 3 18 1 19
REMARK H PARENT
REMARK Flexibility Score: inf
ROOT
ATOM      1  C   UNL     1      12.245  62.021  23.583  1.00  0.00     0.032 C 
ENDROOT
BRANCH   1   2
ATOM      2  C   UNL     1      13.090  61.998  22.335  1.00  0.00    -0.028 C 
ATOM      3  C   UNL     1      12.943  61.105  21.330  1.00  0.00    -0.077 C 
ATOM      4  C   UNL     1      11.863  60.049  21.350  1.00  0.00     0.039 C 
BRANCH   3   5
ATOM      5  C   UNL     1      13.869  61.187  20.134  1.00  0.00     0.034 C 
BRANCH   5   6
ATOM      6  C   UNL     1      15.202  61.857  20.492  1.00  0.00     0.032 C 
BRANCH   6   7
ATOM      7  C   UNL     1      16.258  60.825  20.818  1.00  0.00    -0.028 C 
ATOM      8  C   UNL     1      16.889  61.887  22.999  1.00  0.00     0.039 C 
ATOM      9  C   UNL     1      17.039  60.842  21.922  1.00  0.00    -0.080 C 
ATOM     10  C   UNL     1      18.096  59.784  22.108  1.00  0.00     0.039 C 
ENDBRANCH   6   7
ENDBRANCH   5   6
ENDBRANCH   3   5
ENDBRANCH   1   2
BRANCH   1  11
ATOM     11  C   UNL     1      13.056  61.562  24.800  1.00  0.00     0.034 C 
BRANCH  11  12
ATOM     12  C   UNL     1      13.255  60.062  24.777  1.00  0.00    -0.077 C 
ATOM     13  C   UNL     1      14.490  59.570  24.531  1.00  0.00    -0.028 C 
ATOM     14  C   UNL     1      12.065  59.159  25.004  1.00  0.00     0.039 C 
BRANCH  13  15
ATOM     15  C   UNL     1      14.842  58.102  24.536  1.00  0.00     0.035 C 
BRANCH  15  16
ATOM     16  C   UNL     1      15.419  57.644  23.189  1.00  0.00     0.079 C 
BRANCH  16  17
ATOM     17  C   UNL     1      14.331  57.299  22.203  1.00  0.00     0.130 C 
ATOM     18  O   UNL     1      13.268  56.853  22.609  1.00  0.00    -0.300 OA
ATOM     19  C   UNL     1      14.521  57.504  20.730  1.00  0.00     0.087 C 
ENDBRANCH  16  17
ENDBRANCH  15  16
ENDBRANCH  13  15
ENDBRANCH  11  12
ENDBRANCH   1  11
TORSDOF 9
ENDMDL
