MODEL 1
REMARK VINA RESULT:    -2.224      0.000      0.000
REMARK INTER + INTRA:          -2.935
REMARK INTER:                  -2.744
REMARK INTRA:                  -0.190
REMARK UNBOUND:                -0.190
REMARK SMILES C=CC[C@H](C)C(=O)CC
REMARK SMILES IDX 4 1 5 2 6 3 7 4 8 5 9 6 3 7 2 8 1 9
REMARK H PARENT
REMARK Flexibility Score: inf
ROOT
ATOM      1  C   UNL     1     122.538  87.910  56.236  1.00  0.00     0.057 C 
ATOM      2  C   UNL     1     121.621  88.884  55.487  1.00  0.00     0.016 C 
ENDROOT
BRANCH   1   3
ATOM      3  C   UNL     1     123.091  86.860  55.291  1.00  0.00     0.135 C 
ATOM      4  O   UNL     1     122.311  86.148  54.675  1.00  0.00    -0.299 OA
BRANCH   3   5
ATOM      5  C   UNL     1     124.575  86.646  55.107  1.00  0.00     0.072 C 
ATOM      6  C   UNL     1     125.052  85.410  55.864  1.00  0.00     0.012 C 
ENDBRANCH   3   5
ENDBRANCH   1   3
BRANCH   1   7
ATOM      7  C   UNL     1     121.804  87.278  57.438  1.00  0.00     0.038 C 
BRANCH   7   8
ATOM      8  C   UNL     1     120.587  88.067  57.844  1.00  0.00    -0.034 C 
ATOM      9  C   UNL     1     119.737  87.622  58.773  1.00  0.00     0.004 C 
ENDBRANCH   7   8
ENDBRANCH   1   7
TORSDOF 4
ENDMDL
MODEL 2
REMARK VINA RESULT:    -2.132     12.982     15.117
REMARK INTER + INTRA:          -2.821
REMARK INTER:                  -2.654
REMARK INTRA:                  -0.167
REMARK UNBOUND:                -0.190
REMARK SMILES C=CC[C@H](C)C(=O)CC
REMARK SMILES IDX 4 1 5 2 6 3 7 4 8 5 9 6 3 7 2 8 1 9
REMARK H PARENT
REMARK Flexibility Score: inf
ROOT
ATOM      1  C   UNL     1     107.866  86.499  58.408  1.00  0.00     0.057 C 
ATOM      2  C   UNL     1     109.166  86.114  59.124  1.00  0.00     0.016 C 
ENDROOT
BRANCH   1   3
ATOM      3  C   UNL     1     107.164  85.266  57.870  1.00  0.00     0.135 C 
ATOM      4  O   UNL     1     106.949  85.184  56.670  1.00  0.00    -0.299 OA
BRANCH   3   5
ATOM      5  C   UNL     1     106.698  84.149  58.773  1.00  0.00     0.072 C 
ATOM      6  C   UNL     1     105.186  83.961  58.682  1.00  0.00     0.012 C 
ENDBRANCH   3   5
ENDBRANCH   1   3
BRANCH   1   7
ATOM      7  C   UNL     1     108.136  87.540  57.300  1.00  0.00     0.038 C 
BRANCH   7   8
ATOM      8  C   UNL     1     109.481  88.201  57.453  1.00  0.00    -0.034 C 
ATOM      9  C   UNL     1     110.062  88.858  56.445  1.00  0.00     0.004 C 
ENDBRANCH   7   8
ENDBRANCH   1   7
TORSDOF 4
ENDMDL
MODEL 3
REMARK VINA RESULT:    -2.113     12.121     14.272
REMARK INTER + INTRA:          -2.797
REMARK INTER:                  -2.389
REMARK INTRA:                  -0.408
REMARK UNBOUND:                -0.190
REMARK SMILES C=CC[C@H](C)C(=O)CC
REMARK SMILES IDX 4 1 5 2 6 3 7 4 8 5 9 6 3 7 2 8 1 9
REMARK H PARENT
REMARK Flexibility Score: inf
ROOT
ATOM      1  C   UNL     1     108.182  87.496  57.400  1.00  0.00     0.057 C 
ATOM      2  C   UNL     1     107.906  86.380  58.415  1.00  0.00     0.016 C 
ENDROOT
BRANCH   1   3
ATOM      3  C   UNL     1     107.820  87.047  55.996  1.00  0.00     0.135 C 
ATOM      4  O   UNL     1     108.380  86.068  55.526  1.00  0.00    -0.299 OA
BRANCH   3   5
ATOM      5  C   UNL     1     106.810  87.785  55.151  1.00  0.00     0.072 C 
ATOM      6  C   UNL     1     107.435  88.276  53.848  1.00  0.00     0.012 C 
ENDBRANCH   3   5
ENDBRANCH   1   3
BRANCH   1   7
ATOM      7  C   UNL     1     109.646  87.977  57.494  1.00  0.00     0.038 C 
BRANCH   7   8
ATOM      8  C   UNL     1     109.937  89.110  56.546  1.00  0.00    -0.034 C 
ATOM      9  C   UNL     1     110.896  89.024  55.620  1.00  0.00     0.004 C 
ENDBRANCH   7   8
ENDBRANCH   1   7
TORSDOF 4
ENDMDL
MODEL 4
REMARK VINA RESULT:    -2.074      2.247      3.271
REMARK INTER + INTRA:          -2.750
REMARK INTER:                  -2.290
REMARK INTRA:                  -0.460
REMARK UNBOUND:                -0.190
REMARK SMILES C=CC[C@H](C)C(=O)CC
REMARK SMILES IDX 4 1 5 2 6 3 7 4 8 5 9 6 3 7 2 8 1 9
REMARK H PARENT
REMARK Flexibility Score: inf
ROOT
ATOM      1  C   UNL     1     122.117  85.519  57.078  1.00  0.00     0.057 C 
ATOM      2  C   UNL     1     120.896  84.605  57.238  1.00  0.00     0.016 C 
ENDROOT
BRANCH   1   3
ATOM      3  C   UNL     1     123.279  85.012  57.912  1.00  0.00     0.135 C 
ATOM      4  O   UNL     1     123.252  85.171  59.123  1.00  0.00    -0.299 OA
BRANCH   3   5
ATOM      5  C   UNL     1     124.481  84.341  57.291  1.00  0.00     0.072 C 
ATOM      6  C   UNL     1     125.038  85.167  56.135  1.00  0.00     0.012 C 
ENDBRANCH   3   5
ENDBRANCH   1   3
BRANCH   1   7
ATOM      7  C   UNL     1     121.758  86.982  57.417  1.00  0.00     0.038 C 
BRANCH   7   8
ATOM      8  C   UNL     1     122.432  87.963  56.494  1.00  0.00    -0.034 C 
ATOM      9  C   UNL     1     122.430  87.798  55.168  1.00  0.00     0.004 C 
ENDBRANCH   7   8
ENDBRANCH   1   7
TORSDOF 4
ENDMDL
MODEL 5
REMARK VINA RESULT:    -2.068      8.944     11.575
REMARK INTER + INTRA:          -2.742
REMARK INTER:                  -2.536
REMARK INTRA:                  -0.206
REMARK UNBOUND:                -0.190
REMARK SMILES C=CC[C@H](C)C(=O)CC
REMARK SMILES IDX 4 1 5 2 6 3 7 4 8 5 9 6 3 7 2 8 1 9
REMARK H PARENT
REMARK Flexibility Score: inf
ROOT
ATOM      1  C   UNL     1     111.922  87.636  57.223  1.00  0.00     0.057 C 
ATOM      2  C   UNL     1     111.990  88.986  56.499  1.00  0.00     0.016 C 
ENDROOT
BRANCH   1   3
ATOM      3  C   UNL     1     110.627  87.509  58.002  1.00  0.00     0.135 C 
ATOM      4  O   UNL     1     110.622  86.866  59.042  1.00  0.00    -0.299 OA
BRANCH   3   5
ATOM      5  C   UNL     1     109.336  88.129  57.522  1.00  0.00     0.072 C 
ATOM      6  C   UNL     1     108.151  87.203  57.777  1.00  0.00     0.012 C 
ENDBRANCH   3   5
ENDBRANCH   1   3
BRANCH   1   7
ATOM      7  C   UNL     1     113.161  87.431  58.122  1.00  0.00     0.038 C 
BRANCH   7   8
ATOM      8  C   UNL     1     113.756  88.736  58.580  1.00  0.00    -0.034 C 
ATOM      9  C   UNL     1     115.065  88.870  58.814  1.00  0.00     0.004 C 
ENDBRANCH   7   8
ENDBRANCH   1   7
TORSDOF 4
ENDMDL
MODEL 6
REMARK VINA RESULT:    -2.064      2.276      4.781
REMARK INTER + INTRA:          -2.737
REMARK INTER:                  -2.226
REMARK INTRA:                  -0.511
REMARK UNBOUND:                -0.190
REMARK SMILES C=CC[C@H](C)C(=O)CC
REMARK SMILES IDX 4 1 5 2 6 3 7 4 8 5 9 6 3 7 2 8 1 9
REMARK H PARENT
REMARK Flexibility Score: inf
ROOT
ATOM      1  C   UNL     1     123.827  83.996  57.131  1.00  0.00     0.057 C 
ATOM      2  C   UNL     1     123.021  83.429  55.956  1.00  0.00     0.016 C 
ENDROOT
BRANCH   1   3
ATOM      3  C   UNL     1     122.977  84.943  57.957  1.00  0.00     0.135 C 
ATOM      4  O   UNL     1     123.279  85.144  59.124  1.00  0.00    -0.299 OA
BRANCH   3   5
ATOM      5  C   UNL     1     121.753  85.625  57.393  1.00  0.00     0.072 C 
ATOM      6  C   UNL     1     121.995  87.118  57.196  1.00  0.00     0.012 C 
ENDBRANCH   3   5
ENDBRANCH   1   3
BRANCH   1   7
ATOM      7  C   UNL     1     125.125  84.668  56.634  1.00  0.00     0.038 C 
BRANCH   7   8
ATOM      8  C   UNL     1     124.966  85.274  55.264  1.00  0.00    -0.034 C 
ATOM      9  C   UNL     1     125.051  86.593  55.064  1.00  0.00     0.004 C 
ENDBRANCH   7   8
ENDBRANCH   1   7
TORSDOF 4
ENDMDL
MODEL 7
REMARK VINA RESULT:    -2.049      2.788      5.043
REMARK INTER + INTRA:          -2.718
REMARK INTER:                  -2.326
REMARK INTRA:                  -0.392
REMARK UNBOUND:                -0.190
REMARK SMILES C=CC[C@H](C)C(=O)CC
REMARK SMILES IDX 4 1 5 2 6 3 7 4 8 5 9 6 3 7 2 8 1 9
REMARK H PARENT
REMARK Flexibility Score: inf
ROOT
ATOM      1  C   UNL     1     119.734  87.669  58.734  1.00  0.00     0.057 C 
ATOM      2  C   UNL     1     120.450  86.359  59.083  1.00  0.00     0.016 C 
ENDROOT
BRANCH   1   3
ATOM      3  C   UNL     1     118.308  87.400  58.292  1.00  0.00     0.135 C 
ATOM      4  O   UNL     1     117.486  87.048  59.125  1.00  0.00    -0.299 OA
BRANCH   3   5
ATOM      5  C   UNL     1     117.876  87.527  56.850  1.00  0.00     0.072 C 
ATOM      6  C   UNL     1     118.027  86.201  56.111  1.00  0.00     0.012 C 
ENDBRANCH   3   5
ENDBRANCH   1   3
BRANCH   1   7
ATOM      7  C   UNL     1     120.527  88.466  57.676  1.00  0.00     0.038 C 
BRANCH   7   8
ATOM      8  C   UNL     1     121.795  87.764  57.266  1.00  0.00    -0.034 C 
ATOM      9  C   UNL     1     122.358  87.968  56.071  1.00  0.00     0.004 C 
ENDBRANCH   7   8
ENDBRANCH   1   7
TORSDOF 4
ENDMDL
MODEL 8
REMARK VINA RESULT:    -2.035      2.198      3.731
REMARK INTER + INTRA:          -2.701
REMARK INTER:                  -2.299
REMARK INTRA:                  -0.402
REMARK UNBOUND:                -0.190
REMARK SMILES C=CC[C@H](C)C(=O)CC
REMARK SMILES IDX 4 1 5 2 6 3 7 4 8 5 9 6 3 7 2 8 1 9
REMARK H PARENT
REMARK Flexibility Score: inf
ROOT
ATOM      1  C   UNL     1     120.827  87.559  57.256  1.00  0.00     0.057 C 
ATOM      2  C   UNL     1     119.918  88.746  57.597  1.00  0.00     0.016 C 
ENDROOT
BRANCH   1   3
ATOM      3  C   UNL     1     120.889  86.581  58.415  1.00  0.00     0.135 C 
ATOM      4  O   UNL     1     119.904  86.442  59.125  1.00  0.00    -0.299 OA
BRANCH   3   5
ATOM      5  C   UNL     1     122.136  85.793  58.736  1.00  0.00     0.072 C 
ATOM      6  C   UNL     1     122.162  84.468  57.982  1.00  0.00     0.012 C 
ENDBRANCH   3   5
ENDBRANCH   1   3
BRANCH   1   7
ATOM      7  C   UNL     1     122.230  88.043  56.833  1.00  0.00     0.038 C 
BRANCH   7   8
ATOM      8  C   UNL     1     122.634  87.512  55.483  1.00  0.00    -0.034 C 
ATOM      9  C   UNL     1     123.737  86.776  55.317  1.00  0.00     0.004 C 
ENDBRANCH   7   8
ENDBRANCH   1   7
TORSDOF 4
ENDMDL
