MODEL 1
REMARK VINA RESULT:    -3.253      0.000      0.000
REMARK INTER + INTRA:         -11.210
REMARK INTER:                  -7.437
REMARK INTRA:                  -3.773
REMARK UNBOUND:                -3.773
REMARK SMILES CCCCCCCCCCCCCCCCCCCCCCCC(=O)[O-]
REMARK SMILES IDX 13 1 14 2 15 3 16 4 17 5 18 6 19 7 20 8 21 9 22 10 23 11
REMARK SMILES IDX 24 12 25 13 26 14 12 15 11 16 10 17 9 18 8 19 7 20 6 21 5 22
REMARK SMILES IDX 4 23 3 24 2 25 1 26
REMARK H PARENT
REMARK Flexibility Score: inf
ROOT
ATOM      1  C   UNL     1      58.987  29.061  49.127  1.00  0.00     0.000 C 
ENDROOT
BRANCH   1   2
ATOM      2  C   UNL     1      59.597  27.662  49.328  1.00  0.00     0.000 C 
BRANCH   2   3
ATOM      3  C   UNL     1      61.133  27.672  49.281  1.00  0.00     0.000 C 
BRANCH   3   4
ATOM      4  C   UNL     1      61.768  27.226  50.610  1.00  0.00     0.000 C 
BRANCH   4   5
ATOM      5  C   UNL     1      60.731  27.027  51.731  1.00  0.00     0.000 C 
BRANCH   5   6
ATOM      6  C   UNL     1      61.049  25.892  52.725  1.00  0.00     0.000 C 
BRANCH   6   7
ATOM      7  C   UNL     1      60.461  24.516  52.356  1.00  0.00     0.000 C 
BRANCH   7   8
ATOM      8  C   UNL     1      61.422  23.582  51.595  1.00  0.00     0.000 C 
BRANCH   8   9
ATOM      9  C   UNL     1      61.310  23.641  50.057  1.00  0.00     0.000 C 
BRANCH   9  10
ATOM     10  C   UNL     1      60.790  22.353  49.394  1.00  0.00     0.006 C 
BRANCH  10  11
ATOM     11  C   UNL     1      61.681  21.136  49.676  1.00  0.00     0.053 C 
BRANCH  11  12
ATOM     12  C   UNL     1      60.848  19.937  50.004  1.00  0.00     0.041 C 
ATOM     13  O   UNL     1      61.308  19.028  50.745  1.00  0.00    -0.550 OA
ATOM     14  O   UNL     1      59.559  19.824  49.498  1.00  0.00    -0.550 OA
ENDBRANCH  11  12
ENDBRANCH  10  11
ENDBRANCH   9  10
ENDBRANCH   8   9
ENDBRANCH   7   8
ENDBRANCH   6   7
ENDBRANCH   5   6
ENDBRANCH   4   5
ENDBRANCH   3   4
ENDBRANCH   2   3
ENDBRANCH   1   2
BRANCH   1  15
ATOM     15  C   UNL     1      57.788  29.326  50.053  1.00  0.00     0.000 C 
BRANCH  15  16
ATOM     16  C   UNL     1      58.216  29.647  51.496  1.00  0.00     0.000 C 
BRANCH  16  17
ATOM     17  C   UNL     1      57.279  29.017  52.539  1.00  0.00     0.000 C 
BRANCH  17  18
ATOM     18  C   UNL     1      57.684  27.579  52.901  1.00  0.00    -0.000 C 
BRANCH  18  19
ATOM     19  C   UNL     1      56.470  26.765  53.368  1.00  0.00    -0.000 C 
BRANCH  19  20
ATOM     20  C   UNL     1      56.150  25.640  52.377  1.00  0.00    -0.000 C 
BRANCH  20  21
ATOM     21  C   UNL     1      57.068  25.707  51.148  1.00  0.00    -0.000 C 
BRANCH  21  22
ATOM     22  C   UNL     1      56.319  26.116  49.869  1.00  0.00    -0.000 C 
BRANCH  22  23
ATOM     23  C   UNL     1      54.873  25.588  49.833  1.00  0.00    -0.000 C 
BRANCH  23  24
ATOM     24  C   UNL     1      53.836  26.731  49.856  1.00  0.00    -0.000 C 
BRANCH  24  25
ATOM     25  C   UNL     1      54.456  28.115  50.113  1.00  0.00    -0.003 C 
ATOM     26  C   UNL     1      53.832  28.834  51.308  1.00  0.00     0.004 C 
ENDBRANCH  24  25
ENDBRANCH  23  24
ENDBRANCH  22  23
ENDBRANCH  21  22
ENDBRANCH  20  21
ENDBRANCH  19  20
ENDBRANCH  18  19
ENDBRANCH  17  18
ENDBRANCH  16  17
ENDBRANCH  15  16
ENDBRANCH   1  15
TORSDOF 22
ENDMDL
MODEL 2
REMARK VINA RESULT:    -3.227      9.859     12.013
REMARK INTER + INTRA:         -11.151
REMARK INTER:                  -6.665
REMARK INTRA:                  -4.486
REMARK UNBOUND:                -3.773
REMARK SMILES CCCCCCCCCCCCCCCCCCCCCCCC(=O)[O-]
REMARK SMILES IDX 13 1 14 2 15 3 16 4 17 5 18 6 19 7 20 8 21 9 22 10 23 11
REMARK SMILES IDX 24 12 25 13 26 14 12 15 11 16 10 17 9 18 8 19 7 20 6 21 5 22
REMARK SMILES IDX 4 23 3 24 2 25 1 26
REMARK H PARENT
REMARK Flexibility Score: inf
ROOT
ATOM      1  C   UNL     1      61.221  35.526  60.854  1.00  0.00     0.000 C 
ENDROOT
BRANCH   1   2
ATOM      2  C   UNL     1      62.527  36.288  61.139  1.00  0.00     0.000 C 
BRANCH   2   3
ATOM      3  C   UNL     1      63.772  35.550  60.619  1.00  0.00     0.000 C 
BRANCH   3   4
ATOM      4  C   UNL     1      64.295  34.499  61.614  1.00  0.00     0.000 C 
BRANCH   4   5
ATOM      5  C   UNL     1      64.464  33.107  60.980  1.00  0.00     0.000 C 
BRANCH   5   6
ATOM      6  C   UNL     1      64.497  33.086  59.438  1.00  0.00     0.000 C 
BRANCH   6   7
ATOM      7  C   UNL     1      64.456  31.684  58.803  1.00  0.00     0.000 C 
BRANCH   7   8
ATOM      8  C   UNL     1      63.292  31.449  57.820  1.00  0.00     0.000 C 
BRANCH   8   9
ATOM      9  C   UNL     1      62.966  29.968  57.536  1.00  0.00     0.000 C 
BRANCH   9  10
ATOM     10  C   UNL     1      61.723  29.733  56.659  1.00  0.00     0.006 C 
BRANCH  10  11
ATOM     11  C   UNL     1      60.479  29.356  57.476  1.00  0.00     0.053 C 
BRANCH  11  12
ATOM     12  C   UNL     1      59.525  30.507  57.546  1.00  0.00     0.041 C 
ATOM     13  O   UNL     1      59.580  31.430  56.691  1.00  0.00    -0.550 OA
ATOM     14  O   UNL     1      58.569  30.559  58.553  1.00  0.00    -0.550 OA
ENDBRANCH  11  12
ENDBRANCH  10  11
ENDBRANCH   9  10
ENDBRANCH   8   9
ENDBRANCH   7   8
ENDBRANCH   6   7
ENDBRANCH   5   6
ENDBRANCH   4   5
ENDBRANCH   3   4
ENDBRANCH   2   3
ENDBRANCH   1   2
BRANCH   1  15
ATOM     15  C   UNL     1      61.171  34.942  59.433  1.00  0.00     0.000 C 
BRANCH  15  16
ATOM     16  C   UNL     1      60.840  33.438  59.424  1.00  0.00     0.000 C 
BRANCH  16  17
ATOM     17  C   UNL     1      60.982  32.799  60.815  1.00  0.00     0.000 C 
BRANCH  17  18
ATOM     18  C   UNL     1      61.186  31.277  60.745  1.00  0.00    -0.000 C 
BRANCH  18  19
ATOM     19  C   UNL     1      61.627  30.717  62.103  1.00  0.00    -0.000 C 
BRANCH  19  20
ATOM     20  C   UNL     1      62.955  29.961  61.980  1.00  0.00    -0.000 C 
BRANCH  20  21
ATOM     21  C   UNL     1      62.915  28.957  60.819  1.00  0.00    -0.000 C 
BRANCH  21  22
ATOM     22  C   UNL     1      62.882  27.497  61.298  1.00  0.00    -0.000 C 
BRANCH  22  23
ATOM     23  C   UNL     1      61.503  27.077  61.836  1.00  0.00    -0.000 C 
BRANCH  23  24
ATOM     24  C   UNL     1      60.401  27.183  60.759  1.00  0.00    -0.000 C 
BRANCH  24  25
ATOM     25  C   UNL     1      59.250  28.124  61.153  1.00  0.00    -0.003 C 
ATOM     26  C   UNL     1      58.006  27.375  61.629  1.00  0.00     0.004 C 
ENDBRANCH  24  25
ENDBRANCH  23  24
ENDBRANCH  22  23
ENDBRANCH  21  22
ENDBRANCH  20  21
ENDBRANCH  19  20
ENDBRANCH  18  19
ENDBRANCH  17  18
ENDBRANCH  16  17
ENDBRANCH  15  16
ENDBRANCH   1  15
TORSDOF 22
ENDMDL
MODEL 3
REMARK VINA RESULT:    -3.221      9.960     12.238
REMARK INTER + INTRA:         -11.137
REMARK INTER:                  -6.517
REMARK INTRA:                  -4.620
REMARK UNBOUND:                -3.773
REMARK SMILES CCCCCCCCCCCCCCCCCCCCCCCC(=O)[O-]
REMARK SMILES IDX 13 1 14 2 15 3 16 4 17 5 18 6 19 7 20 8 21 9 22 10 23 11
REMARK SMILES IDX 24 12 25 13 26 14 12 15 11 16 10 17 9 18 8 19 7 20 6 21 5 22
REMARK SMILES IDX 4 23 3 24 2 25 1 26
REMARK H PARENT
REMARK Flexibility Score: inf
ROOT
ATOM      1  C   UNL     1      60.916  34.491  59.488  1.00  0.00     0.000 C 
ENDROOT
BRANCH   1   2
ATOM      2  C   UNL     1      61.725  35.596  58.786  1.00  0.00     0.000 C 
BRANCH   2   3
ATOM      3  C   UNL     1      62.808  36.206  59.691  1.00  0.00     0.000 C 
BRANCH   3   4
ATOM      4  C   UNL     1      62.694  35.732  61.150  1.00  0.00     0.000 C 
BRANCH   4   5
ATOM      5  C   UNL     1      63.939  34.963  61.629  1.00  0.00     0.000 C 
BRANCH   5   6
ATOM      6  C   UNL     1      64.495  33.927  60.631  1.00  0.00     0.000 C 
BRANCH   6   7
ATOM      7  C   UNL     1      64.377  32.458  61.081  1.00  0.00     0.000 C 
BRANCH   7   8
ATOM      8  C   UNL     1      64.512  31.419  59.950  1.00  0.00     0.000 C 
BRANCH   8   9
ATOM      9  C   UNL     1      64.490  32.002  58.522  1.00  0.00     0.000 C 
BRANCH   9  10
ATOM     10  C   UNL     1      65.540  31.413  57.564  1.00  0.00     0.006 C 
BRANCH  10  11
ATOM     11  C   UNL     1      66.970  31.510  58.113  1.00  0.00     0.053 C 
BRANCH  11  12
ATOM     12  C   UNL     1      67.583  30.150  58.234  1.00  0.00     0.041 C 
ATOM     13  O   UNL     1      68.834  30.020  58.298  1.00  0.00    -0.550 OA
ATOM     14  O   UNL     1      66.772  29.022  58.282  1.00  0.00    -0.550 OA
ENDBRANCH  11  12
ENDBRANCH  10  11
ENDBRANCH   9  10
ENDBRANCH   8   9
ENDBRANCH   7   8
ENDBRANCH   6   7
ENDBRANCH   5   6
ENDBRANCH   4   5
ENDBRANCH   3   4
ENDBRANCH   2   3
ENDBRANCH   1   2
BRANCH   1  15
ATOM     15  C   UNL     1      60.927  33.163  58.715  1.00  0.00     0.000 C 
BRANCH  15  16
ATOM     16  C   UNL     1      60.796  31.940  59.641  1.00  0.00     0.000 C 
BRANCH  16  17
ATOM     17  C   UNL     1      61.010  32.299  61.120  1.00  0.00     0.000 C 
BRANCH  17  18
ATOM     18  C   UNL     1      60.759  31.108  62.058  1.00  0.00    -0.000 C 
BRANCH  18  19
ATOM     19  C   UNL     1      61.101  29.782  61.368  1.00  0.00    -0.000 C 
BRANCH  19  20
ATOM     20  C   UNL     1      62.393  29.183  61.938  1.00  0.00    -0.000 C 
BRANCH  20  21
ATOM     21  C   UNL     1      62.718  27.837  61.275  1.00  0.00    -0.000 C 
BRANCH  21  22
ATOM     22  C   UNL     1      63.694  27.977  60.096  1.00  0.00    -0.000 C 
BRANCH  22  23
ATOM     23  C   UNL     1      63.094  27.487  58.766  1.00  0.00    -0.000 C 
BRANCH  23  24
ATOM     24  C   UNL     1      63.316  28.498  57.621  1.00  0.00    -0.000 C 
BRANCH  24  25
ATOM     25  C   UNL     1      62.075  29.352  57.310  1.00  0.00    -0.003 C 
ATOM     26  C   UNL     1      60.779  28.729  57.825  1.00  0.00     0.004 C 
ENDBRANCH  24  25
ENDBRANCH  23  24
ENDBRANCH  22  23
ENDBRANCH  21  22
ENDBRANCH  20  21
ENDBRANCH  19  20
ENDBRANCH  18  19
ENDBRANCH  17  18
ENDBRANCH  16  17
ENDBRANCH  15  16
ENDBRANCH   1  15
TORSDOF 22
ENDMDL
MODEL 4
REMARK VINA RESULT:    -3.213     10.664     12.981
REMARK INTER + INTRA:         -11.119
REMARK INTER:                  -7.756
REMARK INTRA:                  -3.363
REMARK UNBOUND:                -3.773
REMARK SMILES CCCCCCCCCCCCCCCCCCCCCCCC(=O)[O-]
REMARK SMILES IDX 13 1 14 2 15 3 16 4 17 5 18 6 19 7 20 8 21 9 22 10 23 11
REMARK SMILES IDX 24 12 25 13 26 14 12 15 11 16 10 17 9 18 8 19 7 20 6 21 5 22
REMARK SMILES IDX 4 23 3 24 2 25 1 26
REMARK H PARENT
REMARK Flexibility Score: inf
ROOT
ATOM      1  C   UNL     1      61.634  29.103  61.443  1.00  0.00     0.000 C 
ENDROOT
BRANCH   1   2
ATOM      2  C   UNL     1      62.935  28.283  61.510  1.00  0.00     0.000 C 
BRANCH   2   3
ATOM      3  C   UNL     1      63.081  27.301  60.336  1.00  0.00     0.000 C 
BRANCH   3   4
ATOM      4  C   UNL     1      62.430  25.937  60.622  1.00  0.00     0.000 C 
BRANCH   4   5
ATOM      5  C   UNL     1      62.866  25.337  61.971  1.00  0.00     0.000 C 
BRANCH   5   6
ATOM      6  C   UNL     1      61.713  24.888  62.893  1.00  0.00     0.000 C 
BRANCH   6   7
ATOM      7  C   UNL     1      60.595  25.928  63.095  1.00  0.00     0.000 C 
BRANCH   7   8
ATOM      8  C   UNL     1      59.224  25.530  62.513  1.00  0.00     0.000 C 
BRANCH   8   9
ATOM      9  C   UNL     1      58.769  26.355  61.291  1.00  0.00     0.000 C 
BRANCH   9  10
ATOM     10  C   UNL     1      58.227  27.757  61.619  1.00  0.00     0.006 C 
BRANCH  10  11
ATOM     11  C   UNL     1      56.786  27.968  61.134  1.00  0.00     0.053 C 
BRANCH  11  12
ATOM     12  C   UNL     1      55.817  27.284  62.046  1.00  0.00     0.041 C 
ATOM     13  O   UNL     1      55.609  27.732  63.205  1.00  0.00    -0.550 OA
ATOM     14  O   UNL     1      55.134  26.153  61.614  1.00  0.00    -0.550 OA
ENDBRANCH  11  12
ENDBRANCH  10  11
ENDBRANCH   9  10
ENDBRANCH   8   9
ENDBRANCH   7   8
ENDBRANCH   6   7
ENDBRANCH   5   6
ENDBRANCH   4   5
ENDBRANCH   3   4
ENDBRANCH   2   3
ENDBRANCH   1   2
BRANCH   1  15
ATOM     15  C   UNL     1      61.745  30.455  62.165  1.00  0.00     0.000 C 
BRANCH  15  16
ATOM     16  C   UNL     1      60.805  31.520  61.573  1.00  0.00     0.000 C 
BRANCH  16  17
ATOM     17  C   UNL     1      60.798  31.505  60.035  1.00  0.00     0.000 C 
BRANCH  17  18
ATOM     18  C   UNL     1      60.785  32.919  59.433  1.00  0.00    -0.000 C 
BRANCH  18  19
ATOM     19  C   UNL     1      61.107  33.975  60.497  1.00  0.00    -0.000 C 
BRANCH  19  20
ATOM     20  C   UNL     1      62.237  34.899  60.030  1.00  0.00    -0.000 C 
BRANCH  20  21
ATOM     21  C   UNL     1      63.096  35.365  61.214  1.00  0.00    -0.000 C 
BRANCH  21  22
ATOM     22  C   UNL     1      64.251  34.400  61.526  1.00  0.00    -0.000 C 
BRANCH  22  23
ATOM     23  C   UNL     1      64.600  33.487  60.337  1.00  0.00    -0.000 C 
BRANCH  23  24
ATOM     24  C   UNL     1      64.542  31.991  60.715  1.00  0.00    -0.000 C 
BRANCH  24  25
ATOM     25  C   UNL     1      64.398  31.058  59.501  1.00  0.00    -0.003 C 
ATOM     26  C   UNL     1      65.464  31.301  58.435  1.00  0.00     0.004 C 
ENDBRANCH  24  25
ENDBRANCH  23  24
ENDBRANCH  22  23
ENDBRANCH  21  22
ENDBRANCH  20  21
ENDBRANCH  19  20
ENDBRANCH  18  19
ENDBRANCH  17  18
ENDBRANCH  16  17
ENDBRANCH  15  16
ENDBRANCH   1  15
TORSDOF 22
ENDMDL
MODEL 5
REMARK VINA RESULT:    -3.203     12.309     14.545
REMARK INTER + INTRA:         -11.095
REMARK INTER:                  -8.098
REMARK INTRA:                  -2.997
REMARK UNBOUND:                -3.773
REMARK SMILES CCCCCCCCCCCCCCCCCCCCCCCC(=O)[O-]
REMARK SMILES IDX 13 1 14 2 15 3 16 4 17 5 18 6 19 7 20 8 21 9 22 10 23 11
REMARK SMILES IDX 24 12 25 13 26 14 12 15 11 16 10 17 9 18 8 19 7 20 6 21 5 22
REMARK SMILES IDX 4 23 3 24 2 25 1 26
REMARK H PARENT
REMARK Flexibility Score: inf
ROOT
ATOM      1  C   UNL     1      62.822  35.067  61.269  1.00  0.00     0.000 C 
ENDROOT
BRANCH   1   2
ATOM      2  C   UNL     1      64.294  34.705  61.005  1.00  0.00     0.000 C 
BRANCH   2   3
ATOM      3  C   UNL     1      64.450  33.481  60.088  1.00  0.00     0.000 C 
BRANCH   3   4
ATOM      4  C   UNL     1      64.595  33.868  58.606  1.00  0.00     0.000 C 
BRANCH   4   5
ATOM      5  C   UNL     1      65.052  35.324  58.409  1.00  0.00     0.000 C 
BRANCH   5   6
ATOM      6  C   UNL     1      66.432  35.494  57.742  1.00  0.00     0.000 C 
BRANCH   6   7
ATOM      7  C   UNL     1      67.516  36.128  58.635  1.00  0.00     0.000 C 
BRANCH   7   8
ATOM      8  C   UNL     1      68.755  36.650  57.882  1.00  0.00     0.000 C 
BRANCH   8   9
ATOM      9  C   UNL     1      70.067  35.894  58.180  1.00  0.00     0.000 C 
BRANCH   9  10
ATOM     10  C   UNL     1      69.921  34.367  58.311  1.00  0.00     0.006 C 
BRANCH  10  11
ATOM     11  C   UNL     1      71.264  33.654  58.516  1.00  0.00     0.053 C 
BRANCH  11  12
ATOM     12  C   UNL     1      71.421  33.224  59.941  1.00  0.00     0.041 C 
ATOM     13  O   UNL     1      71.861  32.075  60.213  1.00  0.00    -0.550 OA
ATOM     14  O   UNL     1      71.088  34.093  60.972  1.00  0.00    -0.550 OA
ENDBRANCH  11  12
ENDBRANCH  10  11
ENDBRANCH   9  10
ENDBRANCH   8   9
ENDBRANCH   7   8
ENDBRANCH   6   7
ENDBRANCH   5   6
ENDBRANCH   4   5
ENDBRANCH   3   4
ENDBRANCH   2   3
ENDBRANCH   1   2
BRANCH   1  15
ATOM     15  C   UNL     1      62.580  36.585  61.303  1.00  0.00     0.000 C 
BRANCH  15  16
ATOM     16  C   UNL     1      61.137  36.961  60.922  1.00  0.00     0.000 C 
BRANCH  16  17
ATOM     17  C   UNL     1      60.442  35.861  60.102  1.00  0.00     0.000 C 
BRANCH  17  18
ATOM     18  C   UNL     1      60.592  36.073  58.587  1.00  0.00    -0.000 C 
BRANCH  18  19
ATOM     19  C   UNL     1      61.096  34.798  57.899  1.00  0.00    -0.000 C 
BRANCH  19  20
ATOM     20  C   UNL     1      60.270  33.579  58.328  1.00  0.00    -0.000 C 
BRANCH  20  21
ATOM     21  C   UNL     1      61.179  32.421  58.764  1.00  0.00    -0.000 C 
BRANCH  21  22
ATOM     22  C   UNL     1      60.541  31.544  59.854  1.00  0.00    -0.000 C 
BRANCH  22  23
ATOM     23  C   UNL     1      61.018  31.914  61.270  1.00  0.00    -0.000 C 
BRANCH  23  24
ATOM     24  C   UNL     1      61.556  30.689  62.040  1.00  0.00    -0.000 C 
BRANCH  24  25
ATOM     25  C   UNL     1      63.025  30.363  61.722  1.00  0.00    -0.003 C 
ATOM     26  C   UNL     1      63.201  29.000  61.055  1.00  0.00     0.004 C 
ENDBRANCH  24  25
ENDBRANCH  23  24
ENDBRANCH  22  23
ENDBRANCH  21  22
ENDBRANCH  20  21
ENDBRANCH  19  20
ENDBRANCH  18  19
ENDBRANCH  17  18
ENDBRANCH  16  17
ENDBRANCH  15  16
ENDBRANCH   1  15
TORSDOF 22
ENDMDL
MODEL 6
REMARK VINA RESULT:    -3.198      3.430      7.655
REMARK INTER + INTRA:         -11.083
REMARK INTER:                  -8.183
REMARK INTRA:                  -2.899
REMARK UNBOUND:                -3.773
REMARK SMILES CCCCCCCCCCCCCCCCCCCCCCCC(=O)[O-]
REMARK SMILES IDX 13 1 14 2 15 3 16 4 17 5 18 6 19 7 20 8 21 9 22 10 23 11
REMARK SMILES IDX 24 12 25 13 26 14 12 15 11 16 10 17 9 18 8 19 7 20 6 21 5 22
REMARK SMILES IDX 4 23 3 24 2 25 1 26
REMARK H PARENT
REMARK Flexibility Score: inf
ROOT
ATOM      1  C   UNL     1      60.535  22.177  49.629  1.00  0.00     0.000 C 
ENDROOT
BRANCH   1   2
ATOM      2  C   UNL     1      60.951  23.614  49.991  1.00  0.00     0.000 C 
BRANCH   2   3
ATOM      3  C   UNL     1      59.755  24.502  50.370  1.00  0.00     0.000 C 
BRANCH   3   4
ATOM      4  C   UNL     1      59.686  25.791  49.532  1.00  0.00     0.000 C 
BRANCH   4   5
ATOM      5  C   UNL     1      60.341  26.995  50.232  1.00  0.00     0.000 C 
BRANCH   5   6
ATOM      6  C   UNL     1      60.412  28.285  49.390  1.00  0.00     0.000 C 
BRANCH   6   7
ATOM      7  C   UNL     1      59.074  29.027  49.216  1.00  0.00     0.000 C 
BRANCH   7   8
ATOM      8  C   UNL     1      58.160  29.018  50.457  1.00  0.00     0.000 C 
BRANCH   8   9
ATOM      9  C   UNL     1      56.741  28.460  50.220  1.00  0.00     0.000 C 
BRANCH   9  10
ATOM     10  C   UNL     1      56.392  27.203  51.037  1.00  0.00     0.006 C 
BRANCH  10  11
ATOM     11  C   UNL     1      56.012  26.005  50.157  1.00  0.00     0.053 C 
BRANCH  11  12
ATOM     12  C   UNL     1      54.526  25.902  50.018  1.00  0.00     0.041 C 
ATOM     13  O   UNL     1      53.769  26.482  50.841  1.00  0.00    -0.550 OA
ATOM     14  O   UNL     1      53.973  25.170  48.974  1.00  0.00    -0.550 OA
ENDBRANCH  11  12
ENDBRANCH  10  11
ENDBRANCH   9  10
ENDBRANCH   8   9
ENDBRANCH   7   8
ENDBRANCH   6   7
ENDBRANCH   5   6
ENDBRANCH   4   5
ENDBRANCH   3   4
ENDBRANCH   2   3
ENDBRANCH   1   2
BRANCH   1  15
ATOM     15  C   UNL     1      61.601  21.136  50.008  1.00  0.00     0.000 C 
BRANCH  15  16
ATOM     16  C   UNL     1      60.995  19.756  50.318  1.00  0.00     0.000 C 
BRANCH  16  17
ATOM     17  C   UNL     1      59.622  19.556  49.654  1.00  0.00     0.000 C 
BRANCH  17  18
ATOM     18  C   UNL     1      59.229  18.074  49.550  1.00  0.00    -0.000 C 
BRANCH  18  19
ATOM     19  C   UNL     1      58.178  17.707  50.605  1.00  0.00    -0.000 C 
BRANCH  19  20
ATOM     20  C   UNL     1      56.856  18.437  50.341  1.00  0.00    -0.000 C 
BRANCH  20  21
ATOM     21  C   UNL     1      56.295  19.052  51.632  1.00  0.00    -0.000 C 
BRANCH  21  22
ATOM     22  C   UNL     1      57.291  18.986  52.801  1.00  0.00    -0.000 C 
BRANCH  22  23
ATOM     23  C   UNL     1      57.482  20.345  53.498  1.00  0.00    -0.000 C 
BRANCH  23  24
ATOM     24  C   UNL     1      58.399  21.289  52.690  1.00  0.00    -0.000 C 
BRANCH  24  25
ATOM     25  C   UNL     1      59.797  21.458  53.307  1.00  0.00    -0.003 C 
ATOM     26  C   UNL     1      59.833  21.134  54.799  1.00  0.00     0.004 C 
ENDBRANCH  24  25
ENDBRANCH  23  24
ENDBRANCH  22  23
ENDBRANCH  21  22
ENDBRANCH  20  21
ENDBRANCH  19  20
ENDBRANCH  18  19
ENDBRANCH  17  18
ENDBRANCH  16  17
ENDBRANCH  15  16
ENDBRANCH   1  15
TORSDOF 22
ENDMDL
MODEL 7
REMARK VINA RESULT:    -3.171     10.853     13.610
REMARK INTER + INTRA:         -11.023
REMARK INTER:                  -6.818
REMARK INTRA:                  -4.205
REMARK UNBOUND:                -3.773
REMARK SMILES CCCCCCCCCCCCCCCCCCCCCCCC(=O)[O-]
REMARK SMILES IDX 13 1 14 2 15 3 16 4 17 5 18 6 19 7 20 8 21 9 22 10 23 11
REMARK SMILES IDX 24 12 25 13 26 14 12 15 11 16 10 17 9 18 8 19 7 20 6 21 5 22
REMARK SMILES IDX 4 23 3 24 2 25 1 26
REMARK H PARENT
REMARK Flexibility Score: inf
ROOT
ATOM      1  C   UNL     1      61.363  30.792  61.826  1.00  0.00     0.000 C 
ENDROOT
BRANCH   1   2
ATOM      2  C   UNL     1      60.670  30.809  60.452  1.00  0.00     0.000 C 
BRANCH   2   3
ATOM      3  C   UNL     1      60.735  32.186  59.771  1.00  0.00     0.000 C 
BRANCH   3   4
ATOM      4  C   UNL     1      61.112  33.312  60.750  1.00  0.00     0.000 C 
BRANCH   4   5
ATOM      5  C   UNL     1      61.929  34.434  60.084  1.00  0.00     0.000 C 
BRANCH   5   6
ATOM      6  C   UNL     1      61.771  35.829  60.724  1.00  0.00     0.000 C 
BRANCH   6   7
ATOM      7  C   UNL     1      62.990  36.320  61.528  1.00  0.00     0.000 C 
BRANCH   7   8
ATOM      8  C   UNL     1      64.165  35.324  61.600  1.00  0.00     0.000 C 
BRANCH   8   9
ATOM      9  C   UNL     1      65.551  35.927  61.288  1.00  0.00     0.000 C 
BRANCH   9  10
ATOM     10  C   UNL     1      65.802  36.245  59.804  1.00  0.00     0.006 C 
BRANCH  10  11
ATOM     11  C   UNL     1      65.476  35.066  58.877  1.00  0.00     0.053 C 
BRANCH  11  12
ATOM     12  C   UNL     1      66.651  34.734  58.011  1.00  0.00     0.041 C 
ATOM     13  O   UNL     1      67.579  35.571  57.853  1.00  0.00    -0.550 OA
ATOM     14  O   UNL     1      66.726  33.497  57.383  1.00  0.00    -0.550 OA
ENDBRANCH  11  12
ENDBRANCH  10  11
ENDBRANCH   9  10
ENDBRANCH   8   9
ENDBRANCH   7   8
ENDBRANCH   6   7
ENDBRANCH   5   6
ENDBRANCH   4   5
ENDBRANCH   3   4
ENDBRANCH   2   3
ENDBRANCH   1   2
BRANCH   1  15
ATOM     15  C   UNL     1      62.275  29.569  62.017  1.00  0.00     0.000 C 
BRANCH  15  16
ATOM     16  C   UNL     1      63.730  29.847  61.599  1.00  0.00     0.000 C 
BRANCH  16  17
ATOM     17  C   UNL     1      64.055  31.350  61.572  1.00  0.00     0.000 C 
BRANCH  17  18
ATOM     18  C   UNL     1      64.593  31.811  60.209  1.00  0.00    -0.000 C 
BRANCH  18  19
ATOM     19  C   UNL     1      65.322  30.670  59.488  1.00  0.00    -0.000 C 
BRANCH  19  20
ATOM     20  C   UNL     1      64.924  30.612  58.008  1.00  0.00    -0.000 C 
BRANCH  20  21
ATOM     21  C   UNL     1      63.401  30.715  57.841  1.00  0.00    -0.000 C 
BRANCH  21  22
ATOM     22  C   UNL     1      62.761  29.386  57.407  1.00  0.00    -0.000 C 
BRANCH  22  23
ATOM     23  C   UNL     1      62.683  28.362  58.553  1.00  0.00    -0.000 C 
BRANCH  23  24
ATOM     24  C   UNL     1      61.531  27.353  58.354  1.00  0.00    -0.000 C 
BRANCH  24  25
ATOM     25  C   UNL     1      60.606  27.231  59.576  1.00  0.00    -0.003 C 
ATOM     26  C   UNL     1      61.023  26.112  60.528  1.00  0.00     0.004 C 
ENDBRANCH  24  25
ENDBRANCH  23  24
ENDBRANCH  22  23
ENDBRANCH  21  22
ENDBRANCH  20  21
ENDBRANCH  19  20
ENDBRANCH  18  19
ENDBRANCH  17  18
ENDBRANCH  16  17
ENDBRANCH  15  16
ENDBRANCH   1  15
TORSDOF 22
ENDMDL
MODEL 8
REMARK VINA RESULT:    -3.164     10.765     13.006
REMARK INTER + INTRA:         -11.006
REMARK INTER:                  -7.442
REMARK INTRA:                  -3.565
REMARK UNBOUND:                -3.773
REMARK SMILES CCCCCCCCCCCCCCCCCCCCCCCC(=O)[O-]
REMARK SMILES IDX 13 1 14 2 15 3 16 4 17 5 18 6 19 7 20 8 21 9 22 10 23 11
REMARK SMILES IDX 24 12 25 13 26 14 12 15 11 16 10 17 9 18 8 19 7 20 6 21 5 22
REMARK SMILES IDX 4 23 3 24 2 25 1 26
REMARK H PARENT
REMARK Flexibility Score: inf
ROOT
ATOM      1  C   UNL     1      60.773  31.488  61.157  1.00  0.00     0.000 C 
ENDROOT
BRANCH   1   2
ATOM      2  C   UNL     1      60.575  30.729  59.833  1.00  0.00     0.000 C 
BRANCH   2   3
ATOM      3  C   UNL     1      61.229  29.338  59.840  1.00  0.00     0.000 C 
BRANCH   3   4
ATOM      4  C   UNL     1      62.630  29.348  60.476  1.00  0.00     0.000 C 
BRANCH   4   5
ATOM      5  C   UNL     1      62.767  28.346  61.637  1.00  0.00     0.000 C 
BRANCH   5   6
ATOM      6  C   UNL     1      62.736  26.859  61.227  1.00  0.00     0.000 C 
BRANCH   6   7
ATOM      7  C   UNL     1      62.247  25.890  62.321  1.00  0.00     0.000 C 
BRANCH   7   8
ATOM      8  C   UNL     1      60.895  26.262  62.961  1.00  0.00     0.000 C 
BRANCH   8   9
ATOM      9  C   UNL     1      59.662  25.598  62.313  1.00  0.00     0.000 C 
BRANCH   9  10
ATOM     10  C   UNL     1      59.008  26.410  61.180  1.00  0.00     0.006 C 
BRANCH  10  11
ATOM     11  C   UNL     1      58.476  27.770  61.651  1.00  0.00     0.053 C 
BRANCH  11  12
ATOM     12  C   UNL     1      56.980  27.775  61.665  1.00  0.00     0.041 C 
ATOM     13  O   UNL     1      56.334  27.209  60.743  1.00  0.00    -0.550 OA
ATOM     14  O   UNL     1      56.295  28.400  62.700  1.00  0.00    -0.550 OA
ENDBRANCH  11  12
ENDBRANCH  10  11
ENDBRANCH   9  10
ENDBRANCH   8   9
ENDBRANCH   7   8
ENDBRANCH   6   7
ENDBRANCH   5   6
ENDBRANCH   4   5
ENDBRANCH   3   4
ENDBRANCH   2   3
ENDBRANCH   1   2
BRANCH   1  15
ATOM     15  C   UNL     1      61.208  32.947  60.947  1.00  0.00     0.000 C 
BRANCH  15  16
ATOM     16  C   UNL     1      60.850  33.474  59.546  1.00  0.00     0.000 C 
BRANCH  16  17
ATOM     17  C   UNL     1      61.256  34.945  59.352  1.00  0.00     0.000 C 
BRANCH  17  18
ATOM     18  C   UNL     1      60.581  35.881  60.368  1.00  0.00    -0.000 C 
BRANCH  18  19
ATOM     19  C   UNL     1      61.625  36.632  61.204  1.00  0.00    -0.000 C 
BRANCH  19  20
ATOM     20  C   UNL     1      63.014  36.539  60.561  1.00  0.00    -0.000 C 
BRANCH  20  21
ATOM     21  C   UNL     1      64.083  36.182  61.604  1.00  0.00    -0.000 C 
BRANCH  21  22
ATOM     22  C   UNL     1      64.383  34.675  61.653  1.00  0.00    -0.000 C 
BRANCH  22  23
ATOM     23  C   UNL     1      64.743  34.095  60.274  1.00  0.00    -0.000 C 
BRANCH  23  24
ATOM     24  C   UNL     1      64.504  32.571  60.204  1.00  0.00    -0.000 C 
BRANCH  24  25
ATOM     25  C   UNL     1      64.371  32.038  58.768  1.00  0.00    -0.003 C 
ATOM     26  C   UNL     1      64.007  33.126  57.760  1.00  0.00     0.004 C 
ENDBRANCH  24  25
ENDBRANCH  23  24
ENDBRANCH  22  23
ENDBRANCH  21  22
ENDBRANCH  20  21
ENDBRANCH  19  20
ENDBRANCH  18  19
ENDBRANCH  17  18
ENDBRANCH  16  17
ENDBRANCH  15  16
ENDBRANCH   1  15
TORSDOF 22
ENDMDL
MODEL 9
REMARK VINA RESULT:    -3.110     10.087     12.654
REMARK INTER + INTRA:         -10.883
REMARK INTER:                  -6.456
REMARK INTRA:                  -4.427
REMARK UNBOUND:                -3.773
REMARK SMILES CCCCCCCCCCCCCCCCCCCCCCCC(=O)[O-]
REMARK SMILES IDX 13 1 14 2 15 3 16 4 17 5 18 6 19 7 20 8 21 9 22 10 23 11
REMARK SMILES IDX 24 12 25 13 26 14 12 15 11 16 10 17 9 18 8 19 7 20 6 21 5 22
REMARK SMILES IDX 4 23 3 24 2 25 1 26
REMARK H PARENT
REMARK Flexibility Score: inf
ROOT
ATOM      1  C   UNL     1      61.288  30.668  61.747  1.00  0.00     0.000 C 
ENDROOT
BRANCH   1   2
ATOM      2  C   UNL     1      62.806  30.464  61.901  1.00  0.00     0.000 C 
BRANCH   2   3
ATOM      3  C   UNL     1      63.260  29.053  61.493  1.00  0.00     0.000 C 
BRANCH   3   4
ATOM      4  C   UNL     1      62.222  27.974  61.847  1.00  0.00     0.000 C 
BRANCH   4   5
ATOM      5  C   UNL     1      62.474  26.641  61.119  1.00  0.00     0.000 C 
BRANCH   5   6
ATOM      6  C   UNL     1      61.434  26.275  60.040  1.00  0.00     0.000 C 
BRANCH   6   7
ATOM      7  C   UNL     1      60.535  27.438  59.580  1.00  0.00     0.000 C 
BRANCH   7   8
ATOM      8  C   UNL     1      60.664  27.810  58.089  1.00  0.00     0.000 C 
BRANCH   8   9
ATOM      9  C   UNL     1      62.112  27.965  57.579  1.00  0.00     0.000 C 
BRANCH   9  10
ATOM     10  C   UNL     1      62.846  29.221  58.080  1.00  0.00     0.006 C 
BRANCH  10  11
ATOM     11  C   UNL     1      62.028  30.506  57.892  1.00  0.00     0.053 C 
BRANCH  11  12
ATOM     12  C   UNL     1      62.193  31.039  56.504  1.00  0.00     0.041 C 
ATOM     13  O   UNL     1      63.275  30.865  55.881  1.00  0.00    -0.550 OA
ATOM     14  O   UNL     1      61.150  31.724  55.892  1.00  0.00    -0.550 OA
ENDBRANCH  11  12
ENDBRANCH  10  11
ENDBRANCH   9  10
ENDBRANCH   8   9
ENDBRANCH   7   8
ENDBRANCH   6   7
ENDBRANCH   5   6
ENDBRANCH   4   5
ENDBRANCH   3   4
ENDBRANCH   2   3
ENDBRANCH   1   2
BRANCH   1  15
ATOM     15  C   UNL     1      60.930  32.026  61.122  1.00  0.00     0.000 C 
BRANCH  15  16
ATOM     16  C   UNL     1      62.171  32.898  60.854  1.00  0.00     0.000 C 
BRANCH  16  17
ATOM     17  C   UNL     1      61.807  34.367  60.583  1.00  0.00     0.000 C 
BRANCH  17  18
ATOM     18  C   UNL     1      62.775  35.348  61.264  1.00  0.00    -0.000 C 
BRANCH  18  19
ATOM     19  C   UNL     1      64.106  34.665  61.600  1.00  0.00    -0.000 C 
BRANCH  19  20
ATOM     20  C   UNL     1      65.277  35.646  61.463  1.00  0.00    -0.000 C 
BRANCH  20  21
ATOM     21  C   UNL     1      65.203  36.413  60.134  1.00  0.00    -0.000 C 
BRANCH  21  22
ATOM     22  C   UNL     1      65.681  35.575  58.938  1.00  0.00    -0.000 C 
BRANCH  22  23
ATOM     23  C   UNL     1      64.544  35.228  57.961  1.00  0.00    -0.000 C 
BRANCH  23  24
ATOM     24  C   UNL     1      64.344  33.703  57.819  1.00  0.00    -0.000 C 
BRANCH  24  25
ATOM     25  C   UNL     1      65.558  32.882  58.284  1.00  0.00    -0.003 C 
ATOM     26  C   UNL     1      65.203  31.849  59.353  1.00  0.00     0.004 C 
ENDBRANCH  24  25
ENDBRANCH  23  24
ENDBRANCH  22  23
ENDBRANCH  21  22
ENDBRANCH  20  21
ENDBRANCH  19  20
ENDBRANCH  18  19
ENDBRANCH  17  18
ENDBRANCH  16  17
ENDBRANCH  15  16
ENDBRANCH   1  15
TORSDOF 22
ENDMDL
