MODEL 1
REMARK VINA RESULT:    -3.554      0.000      0.000
REMARK INTER + INTRA:          -5.749
REMARK INTER:                  -5.009
REMARK INTRA:                  -0.741
REMARK UNBOUND:                -0.741
REMARK SMILES CCCCCCCCC(=O)[O-]
REMARK SMILES IDX 6 1 7 2 8 3 9 4 10 5 11 6 5 7 4 8 3 9 2 10 1 11
REMARK H PARENT
REMARK Flexibility Score: inf
ROOT
ATOM      1  C   UNL     1       4.361   5.046   1.684  1.00  0.00     0.000 C 
ENDROOT
BRANCH   1   2
ATOM      2  C   UNL     1       4.144   6.534   1.340  1.00  0.00     0.006 C 
BRANCH   2   3
ATOM      3  C   UNL     1       4.322   7.496   2.525  1.00  0.00     0.053 C 
BRANCH   3   4
ATOM      4  C   UNL     1       3.191   7.397   3.503  1.00  0.00     0.041 C 
ATOM      5  O   UNL     1       2.053   7.844   3.202  1.00  0.00    -0.550 OA
ATOM      6  O   UNL     1       3.403   6.842   4.759  1.00  0.00    -0.550 OA
ENDBRANCH   3   4
ENDBRANCH   2   3
ENDBRANCH   1   2
BRANCH   1   7
ATOM      7  C   UNL     1       5.330   4.296   0.752  1.00  0.00     0.000 C 
BRANCH   7   8
ATOM      8  C   UNL     1       6.784   4.333   1.246  1.00  0.00    -0.000 C 
BRANCH   8   9
ATOM      9  C   UNL     1       7.664   5.158   0.299  1.00  0.00    -0.000 C 
BRANCH   9  10
ATOM     10  C   UNL     1       8.002   6.522   0.911  1.00  0.00    -0.003 C 
ATOM     11  C   UNL     1       7.920   6.479   2.434  1.00  0.00     0.004 C 
ENDBRANCH   9  10
ENDBRANCH   8   9
ENDBRANCH   7   8
ENDBRANCH   1   7
TORSDOF 7
ENDMDL
MODEL 2
REMARK VINA RESULT:    -3.427      1.309      2.865
REMARK INTER + INTRA:          -5.570
REMARK INTER:                  -4.918
REMARK INTRA:                  -0.652
REMARK UNBOUND:                -0.741
REMARK SMILES CCCCCCCCC(=O)[O-]
REMARK SMILES IDX 6 1 7 2 8 3 9 4 10 5 11 6 5 7 4 8 3 9 2 10 1 11
REMARK H PARENT
REMARK Flexibility Score: inf
ROOT
ATOM      1  C   UNL     1       7.058   7.238   2.375  1.00  0.00     0.000 C 
ENDROOT
BRANCH   1   2
ATOM      2  C   UNL     1       5.834   8.001   1.830  1.00  0.00     0.006 C 
BRANCH   2   3
ATOM      3  C   UNL     1       4.589   7.935   2.728  1.00  0.00     0.053 C 
BRANCH   3   4
ATOM      4  C   UNL     1       3.392   7.416   1.991  1.00  0.00     0.041 C 
ATOM      5  O   UNL     1       2.868   6.321   2.327  1.00  0.00    -0.550 OA
ATOM      6  O   UNL     1       2.878   8.124   0.912  1.00  0.00    -0.550 OA
ENDBRANCH   3   4
ENDBRANCH   2   3
ENDBRANCH   1   2
BRANCH   1   7
ATOM      7  C   UNL     1       8.022   6.700   1.303  1.00  0.00     0.000 C 
BRANCH   7   8
ATOM      8  C   UNL     1       7.363   5.678   0.364  1.00  0.00    -0.000 C 
BRANCH   8   9
ATOM      9  C   UNL     1       6.991   4.398   1.120  1.00  0.00    -0.000 C 
BRANCH   9  10
ATOM     10  C   UNL     1       5.474   4.291   1.308  1.00  0.00    -0.003 C 
ATOM     11  C   UNL     1       4.737   4.529  -0.008  1.00  0.00     0.004 C 
ENDBRANCH   9  10
ENDBRANCH   8   9
ENDBRANCH   7   8
ENDBRANCH   1   7
TORSDOF 7
ENDMDL
MODEL 3
REMARK VINA RESULT:    -3.382      1.076      2.553
REMARK INTER + INTRA:          -5.506
REMARK INTER:                  -4.765
REMARK INTRA:                  -0.741
REMARK UNBOUND:                -0.741
REMARK SMILES CCCCCCCCC(=O)[O-]
REMARK SMILES IDX 6 1 7 2 8 3 9 4 10 5 11 6 5 7 4 8 3 9 2 10 1 11
REMARK H PARENT
REMARK Flexibility Score: inf
ROOT
ATOM      1  C   UNL     1       7.064   7.238   2.562  1.00  0.00     0.000 C 
ENDROOT
BRANCH   1   2
ATOM      2  C   UNL     1       5.832   7.956   3.148  1.00  0.00     0.006 C 
BRANCH   2   3
ATOM      3  C   UNL     1       4.538   7.764   2.341  1.00  0.00     0.053 C 
BRANCH   3   4
ATOM      4  C   UNL     1       3.507   6.994   3.108  1.00  0.00     0.041 C 
ATOM      5  O   UNL     1       2.527   6.479   2.509  1.00  0.00    -0.550 OA
ATOM      6  O   UNL     1       3.611   6.874   4.488  1.00  0.00    -0.550 OA
ENDBRANCH   3   4
ENDBRANCH   2   3
ENDBRANCH   1   2
BRANCH   1   7
ATOM      7  C   UNL     1       7.230   7.365   1.037  1.00  0.00     0.000 C 
BRANCH   7   8
ATOM      8  C   UNL     1       7.072   6.025   0.304  1.00  0.00    -0.000 C 
BRANCH   8   9
ATOM      9  C   UNL     1       7.065   4.855   1.294  1.00  0.00    -0.000 C 
BRANCH   9  10
ATOM     10  C   UNL     1       5.825   3.976   1.099  1.00  0.00    -0.003 C 
ATOM     11  C   UNL     1       4.756   4.703   0.286  1.00  0.00     0.004 C 
ENDBRANCH   9  10
ENDBRANCH   8   9
ENDBRANCH   7   8
ENDBRANCH   1   7
TORSDOF 7
ENDMDL
MODEL 4
REMARK VINA RESULT:    -3.341      2.722      4.833
REMARK INTER + INTRA:          -5.448
REMARK INTER:                  -4.934
REMARK INTRA:                  -0.514
REMARK UNBOUND:                -0.741
REMARK SMILES CCCCCCCCC(=O)[O-]
REMARK SMILES IDX 6 1 7 2 8 3 9 4 10 5 11 6 5 7 4 8 3 9 2 10 1 11
REMARK H PARENT
REMARK Flexibility Score: inf
ROOT
ATOM      1  C   UNL     1       4.764   4.761   1.784  1.00  0.00     0.000 C 
ENDROOT
BRANCH   1   2
ATOM      2  C   UNL     1       5.827   4.011   0.956  1.00  0.00     0.006 C 
BRANCH   2   3
ATOM      3  C   UNL     1       7.280   4.375   1.301  1.00  0.00     0.053 C 
BRANCH   3   4
ATOM      4  C   UNL     1       7.621   5.774   0.885  1.00  0.00     0.041 C 
ATOM      5  O   UNL     1       7.864   6.651   1.755  1.00  0.00    -0.550 OA
ATOM      6  O   UNL     1       7.638   6.116  -0.461  1.00  0.00    -0.550 OA
ENDBRANCH   3   4
ENDBRANCH   2   3
ENDBRANCH   1   2
BRANCH   1   7
ATOM      7  C   UNL     1       4.009   5.867   1.027  1.00  0.00     0.000 C 
BRANCH   7   8
ATOM      8  C   UNL     1       4.232   7.263   1.629  1.00  0.00    -0.000 C 
BRANCH   8   9
ATOM      9  C   UNL     1       2.895   7.939   1.959  1.00  0.00    -0.000 C 
BRANCH   9  10
ATOM     10  C   UNL     1       2.384   7.502   3.337  1.00  0.00    -0.003 C 
ATOM     11  C   UNL     1       3.519   7.454   4.356  1.00  0.00     0.004 C 
ENDBRANCH   9  10
ENDBRANCH   8   9
ENDBRANCH   7   8
ENDBRANCH   1   7
TORSDOF 7
ENDMDL
MODEL 5
REMARK VINA RESULT:    -3.236      2.375      4.406
REMARK INTER + INTRA:          -5.300
REMARK INTER:                  -4.604
REMARK INTRA:                  -0.696
REMARK UNBOUND:                -0.741
REMARK SMILES CCCCCCCCC(=O)[O-]
REMARK SMILES IDX 6 1 7 2 8 3 9 4 10 5 11 6 5 7 4 8 3 9 2 10 1 11
REMARK H PARENT
REMARK Flexibility Score: inf
ROOT
ATOM      1  C   UNL     1       8.046   5.661   2.193  1.00  0.00     0.000 C 
ENDROOT
BRANCH   1   2
ATOM      2  C   UNL     1       7.567   4.728   1.062  1.00  0.00     0.006 C 
BRANCH   2   3
ATOM      3  C   UNL     1       6.158   4.150   1.265  1.00  0.00     0.053 C 
BRANCH   3   4
ATOM      4  C   UNL     1       5.134   4.861   0.433  1.00  0.00     0.041 C 
ATOM      5  O   UNL     1       3.908   4.722   0.683  1.00  0.00    -0.550 OA
ATOM      6  O   UNL     1       5.534   5.648  -0.640  1.00  0.00    -0.550 OA
ENDBRANCH   3   4
ENDBRANCH   2   3
ENDBRANCH   1   2
BRANCH   1   7
ATOM      7  C   UNL     1       7.732   7.153   1.985  1.00  0.00     0.000 C 
BRANCH   7   8
ATOM      8  C   UNL     1       6.620   7.666   2.913  1.00  0.00    -0.000 C 
BRANCH   8   9
ATOM      9  C   UNL     1       5.388   8.094   2.108  1.00  0.00    -0.000 C 
BRANCH   9  10
ATOM     10  C   UNL     1       4.100   7.574   2.756  1.00  0.00    -0.003 C 
ATOM     11  C   UNL     1       2.883   7.877   1.885  1.00  0.00     0.004 C 
ENDBRANCH   9  10
ENDBRANCH   8   9
ENDBRANCH   7   8
ENDBRANCH   1   7
TORSDOF 7
ENDMDL
MODEL 6
REMARK VINA RESULT:    -2.849      2.792      4.739
REMARK INTER + INTRA:          -4.755
REMARK INTER:                  -4.217
REMARK INTRA:                  -0.538
REMARK UNBOUND:                -0.741
REMARK SMILES CCCCCCCCC(=O)[O-]
REMARK SMILES IDX 6 1 7 2 8 3 9 4 10 5 11 6 5 7 4 8 3 9 2 10 1 11
REMARK H PARENT
REMARK Flexibility Score: inf
ROOT
ATOM      1  C   UNL     1       5.739   8.045   2.220  1.00  0.00     0.000 C 
ENDROOT
BRANCH   1   2
ATOM      2  C   UNL     1       7.205   7.690   2.538  1.00  0.00     0.006 C 
BRANCH   2   3
ATOM      3  C   UNL     1       8.044   7.287   1.315  1.00  0.00     0.053 C 
BRANCH   3   4
ATOM      4  C   UNL     1       7.944   5.820   1.025  1.00  0.00     0.041 C 
ATOM      5  O   UNL     1       7.878   5.413  -0.164  1.00  0.00    -0.550 OA
ATOM      6  O   UNL     1       7.889   4.906   2.070  1.00  0.00    -0.550 OA
ENDBRANCH   3   4
ENDBRANCH   2   3
ENDBRANCH   1   2
BRANCH   1   7
ATOM      7  C   UNL     1       4.756   7.864   3.390  1.00  0.00     0.000 C 
BRANCH   7   8
ATOM      8  C   UNL     1       3.592   6.920   3.053  1.00  0.00    -0.000 C 
BRANCH   8   9
ATOM      9  C   UNL     1       3.738   6.353   1.636  1.00  0.00    -0.000 C 
BRANCH   9  10
ATOM     10  C   UNL     1       4.342   4.945   1.667  1.00  0.00    -0.003 C 
ATOM     11  C   UNL     1       4.651   4.446   0.257  1.00  0.00     0.004 C 
ENDBRANCH   9  10
ENDBRANCH   8   9
ENDBRANCH   7   8
ENDBRANCH   1   7
TORSDOF 7
ENDMDL
MODEL 7
REMARK VINA RESULT:    -2.744      2.756      4.926
REMARK INTER + INTRA:          -4.608
REMARK INTER:                  -4.179
REMARK INTRA:                  -0.429
REMARK UNBOUND:                -0.741
REMARK SMILES CCCCCCCCC(=O)[O-]
REMARK SMILES IDX 6 1 7 2 8 3 9 4 10 5 11 6 5 7 4 8 3 9 2 10 1 11
REMARK H PARENT
REMARK Flexibility Score: inf
ROOT
ATOM      1  C   UNL     1       5.420   8.082   0.986  1.00  0.00     0.000 C 
ENDROOT
BRANCH   1   2
ATOM      2  C   UNL     1       6.390   7.013   0.445  1.00  0.00     0.006 C 
BRANCH   2   3
ATOM      3  C   UNL     1       7.401   6.487   1.476  1.00  0.00     0.053 C 
BRANCH   3   4
ATOM      4  C   UNL     1       7.277   5.008   1.679  1.00  0.00     0.041 C 
ATOM      5  O   UNL     1       6.386   4.358   1.073  1.00  0.00    -0.550 OA
ATOM      6  O   UNL     1       8.125   4.354   2.564  1.00  0.00    -0.550 OA
ENDBRANCH   3   4
ENDBRANCH   2   3
ENDBRANCH   1   2
BRANCH   1   7
ATOM      7  C   UNL     1       3.940   7.865   0.621  1.00  0.00     0.000 C 
BRANCH   7   8
ATOM      8  C   UNL     1       3.019   7.836   1.850  1.00  0.00    -0.000 C 
BRANCH   8   9
ATOM      9  C   UNL     1       3.413   6.703   2.805  1.00  0.00    -0.000 C 
BRANCH   9  10
ATOM     10  C   UNL     1       3.249   7.135   4.267  1.00  0.00    -0.003 C 
ATOM     11  C   UNL     1       1.997   7.988   4.453  1.00  0.00     0.004 C 
ENDBRANCH   9  10
ENDBRANCH   8   9
ENDBRANCH   7   8
ENDBRANCH   1   7
TORSDOF 7
ENDMDL
MODEL 8
REMARK VINA RESULT:    -2.433     21.480     22.789
REMARK INTER + INTRA:          -4.170
REMARK INTER:                  -3.686
REMARK INTRA:                  -0.484
REMARK UNBOUND:                -0.741
REMARK SMILES CCCCCCCCC(=O)[O-]
REMARK SMILES IDX 6 1 7 2 8 3 9 4 10 5 11 6 5 7 4 8 3 9 2 10 1 11
REMARK H PARENT
REMARK Flexibility Score: inf
ROOT
ATOM      1  C   UNL     1     -10.213 -11.452  -2.716  1.00  0.00     0.000 C 
ENDROOT
BRANCH   1   2
ATOM      2  C   UNL     1     -10.119 -10.033  -2.119  1.00  0.00     0.006 C 
BRANCH   2   3
ATOM      3  C   UNL     1     -11.444  -9.482  -1.571  1.00  0.00     0.053 C 
BRANCH   3   4
ATOM      4  C   UNL     1     -11.441  -9.400  -0.074  1.00  0.00     0.041 C 
ATOM      5  O   UNL     1     -11.281 -10.441   0.616  1.00  0.00    -0.550 OA
ATOM      6  O   UNL     1     -11.650  -8.180   0.556  1.00  0.00    -0.550 OA
ENDBRANCH   3   4
ENDBRANCH   2   3
ENDBRANCH   1   2
BRANCH   1   7
ATOM      7  C   UNL     1      -9.864 -11.556  -4.211  1.00  0.00     0.000 C 
BRANCH   7   8
ATOM      8  C   UNL     1     -10.050 -10.228  -4.963  1.00  0.00    -0.000 C 
BRANCH   8   9
ATOM      9  C   UNL     1      -8.851  -9.940  -5.873  1.00  0.00    -0.000 C 
BRANCH   9  10
ATOM     10  C   UNL     1      -7.556 -10.495  -5.269  1.00  0.00    -0.003 C 
ATOM     11  C   UNL     1      -6.474  -9.421  -5.203  1.00  0.00     0.004 C 
ENDBRANCH   9  10
ENDBRANCH   8   9
ENDBRANCH   7   8
ENDBRANCH   1   7
TORSDOF 7
ENDMDL
