MODEL 1
REMARK VINA RESULT:    -7.283      0.000      0.000
REMARK INTER + INTRA:          -8.768
REMARK INTER:                  -8.560
REMARK INTRA:                  -0.208
REMARK UNBOUND:                -0.208
REMARK SMILES O=c1c(O)c(-c2ccc(O)c(O)c2)oc2cc(O)ccc12
REMARK SMILES IDX 5 1 3 2 2 3 1 4 21 5 15 6 14 7 16 8 17 9 19 10 20 11 6 12
REMARK SMILES IDX 7 13 8 14 9 15 13 16 11 17 10 18 12 20 4 22 18 24
REMARK H PARENT 10 19 12 21 4 23 18 25
REMARK Flexibility Score: inf
ROOT
ATOM      1  C   UNL     1      49.342 -40.055  -3.036  1.00  0.00     0.180 A 
ATOM      2  C   UNL     1      48.804 -39.938  -4.334  1.00  0.00     0.208 A 
ATOM      3  C   UNL     1      47.409 -39.939  -4.492  1.00  0.00     0.235 A 
ATOM      4  O   UNL     1      46.905 -39.847  -5.644  1.00  0.00    -0.285 OA
ATOM      5  C   UNL     1      46.587 -40.036  -3.359  1.00  0.00     0.069 A 
ATOM      6  C   UNL     1      47.201 -40.126  -2.091  1.00  0.00     0.142 A 
ATOM      7  O   UNL     1      48.525 -40.131  -1.986  1.00  0.00    -0.452 OA
ATOM      8  C   UNL     1      46.416 -40.214  -0.937  1.00  0.00     0.094 A 
ATOM      9  C   UNL     1      45.018 -40.216  -1.033  1.00  0.00     0.119 A 
ATOM     10  C   UNL     1      44.406 -40.128  -2.288  1.00  0.00     0.047 A 
ATOM     11  C   UNL     1      45.183 -40.039  -3.447  1.00  0.00     0.020 A 
ENDROOT
BRANCH   1  12
ATOM     12  C   UNL     1      50.801 -40.080  -2.789  1.00  0.00     0.025 A 
ATOM     13  C   UNL     1      51.596 -38.937  -2.983  1.00  0.00     0.016 A 
ATOM     14  C   UNL     1      52.976 -38.991  -2.767  1.00  0.00     0.051 A 
ATOM     15  C   UNL     1      53.584 -40.185  -2.368  1.00  0.00     0.157 A 
ATOM     16  C   UNL     1      51.417 -41.283  -2.409  1.00  0.00     0.062 A 
ATOM     17  C   UNL     1      52.802 -41.340  -2.191  1.00  0.00     0.158 A 
BRANCH  15  18
ATOM     18  O   UNL     1      54.961 -40.208  -2.159  1.00  0.00    -0.504 OA
ATOM     19  H   UNL     1      55.610 -40.511  -2.876  1.00  0.00     0.293 HD
ENDBRANCH  15  18
BRANCH  17  20
ATOM     20  O   UNL     1      53.401 -42.536  -1.801  1.00  0.00    -0.504 OA
ATOM     21  H   UNL     1      53.074 -43.056  -0.996  1.00  0.00     0.293 HD
ENDBRANCH  17  20
ENDBRANCH   1  12
BRANCH   2  22
ATOM     22  O   UNL     1      49.647 -39.793  -5.439  1.00  0.00    -0.502 OA
ATOM     23  H   UNL     1      50.613 -40.094  -5.426  1.00  0.00     0.293 HD
ENDBRANCH   2  22
BRANCH   9  24
ATOM     24  O   UNL     1      44.228 -40.303   0.111  1.00  0.00    -0.508 OA
ATOM     25  H   UNL     1      44.373 -39.687   0.903  1.00  0.00     0.293 HD
ENDBRANCH   9  24
TORSDOF 5
ENDMDL
MODEL 2
REMARK VINA RESULT:    -7.250      1.674      2.453
REMARK INTER + INTRA:          -8.729
REMARK INTER:                  -9.118
REMARK INTRA:                   0.389
REMARK UNBOUND:                -0.208
REMARK SMILES O=c1c(O)c(-c2ccc(O)c(O)c2)oc2cc(O)ccc12
REMARK SMILES IDX 5 1 3 2 2 3 1 4 21 5 15 6 14 7 16 8 17 9 19 10 20 11 6 12
REMARK SMILES IDX 7 13 8 14 9 15 13 16 11 17 10 18 12 20 4 22 18 24
REMARK H PARENT 10 19 12 21 4 23 18 25
REMARK Flexibility Score: inf
ROOT
ATOM      1  C   UNL     1      50.279 -39.452  -3.529  1.00  0.00     0.180 A 
ATOM      2  C   UNL     1      50.226 -38.311  -4.355  1.00  0.00     0.208 A 
ATOM      3  C   UNL     1      48.976 -37.861  -4.809  1.00  0.00     0.235 A 
ATOM      4  O   UNL     1      48.904 -36.849  -5.559  1.00  0.00    -0.285 OA
ATOM      5  C   UNL     1      47.814 -38.542  -4.416  1.00  0.00     0.069 A 
ATOM      6  C   UNL     1      47.948 -39.662  -3.568  1.00  0.00     0.142 A 
ATOM      7  O   UNL     1      49.151 -40.061  -3.168  1.00  0.00    -0.452 OA
ATOM      8  C   UNL     1      46.813 -40.361  -3.146  1.00  0.00     0.094 A 
ATOM      9  C   UNL     1      45.538 -39.956  -3.564  1.00  0.00     0.119 A 
ATOM     10  C   UNL     1      45.402 -38.847  -4.406  1.00  0.00     0.047 A 
ATOM     11  C   UNL     1      46.531 -38.141  -4.832  1.00  0.00     0.020 A 
ENDROOT
BRANCH   1  12
ATOM     12  C   UNL     1      51.559 -39.998  -3.025  1.00  0.00     0.025 A 
ATOM     13  C   UNL     1      51.676 -41.341  -2.626  1.00  0.00     0.016 A 
ATOM     14  C   UNL     1      52.888 -41.829  -2.130  1.00  0.00     0.051 A 
ATOM     15  C   UNL     1      53.995 -40.983  -2.012  1.00  0.00     0.157 A 
ATOM     16  C   UNL     1      52.667 -39.146  -2.885  1.00  0.00     0.062 A 
ATOM     17  C   UNL     1      53.885 -39.633  -2.388  1.00  0.00     0.158 A 
BRANCH  15  18
ATOM     18  O   UNL     1      55.192 -41.498  -1.515  1.00  0.00    -0.504 OA
ATOM     19  H   UNL     1      56.063 -41.422  -2.026  1.00  0.00     0.293 HD
ENDBRANCH  15  18
BRANCH  17  20
ATOM     20  O   UNL     1      54.982 -38.782  -2.266  1.00  0.00    -0.504 OA
ATOM     21  H   UNL     1      55.747 -38.988  -1.634  1.00  0.00     0.293 HD
ENDBRANCH  17  20
ENDBRANCH   1  12
BRANCH   2  22
ATOM     22  O   UNL     1      51.396 -37.624  -4.690  1.00  0.00    -0.502 OA
ATOM     23  H   UNL     1      52.033 -37.267  -3.990  1.00  0.00     0.293 HD
ENDBRANCH   2  22
BRANCH   9  24
ATOM     24  O   UNL     1      44.402 -40.646  -3.149  1.00  0.00    -0.508 OA
ATOM     25  H   UNL     1      43.963 -40.455  -2.255  1.00  0.00     0.293 HD
ENDBRANCH   9  24
TORSDOF 5
ENDMDL
MODEL 3
REMARK VINA RESULT:    -6.975      3.506      6.708
REMARK INTER + INTRA:          -8.406
REMARK INTER:                  -8.140
REMARK INTRA:                  -0.266
REMARK UNBOUND:                -0.208
REMARK SMILES O=c1c(O)c(-c2ccc(O)c(O)c2)oc2cc(O)ccc12
REMARK SMILES IDX 5 1 3 2 2 3 1 4 21 5 15 6 14 7 16 8 17 9 19 10 20 11 6 12
REMARK SMILES IDX 7 13 8 14 9 15 13 16 11 17 10 18 12 20 4 22 18 24
REMARK H PARENT 10 19 12 21 4 23 18 25
REMARK Flexibility Score: inf
ROOT
ATOM      1  C   UNL     1      50.149 -37.920  -4.188  1.00  0.00     0.180 A 
ATOM      2  C   UNL     1      49.304 -39.047  -4.131  1.00  0.00     0.208 A 
ATOM      3  C   UNL     1      49.808 -40.245  -3.601  1.00  0.00     0.235 A 
ATOM      4  O   UNL     1      49.075 -41.271  -3.551  1.00  0.00    -0.285 OA
ATOM      5  C   UNL     1      51.127 -40.287  -3.124  1.00  0.00     0.069 A 
ATOM      6  C   UNL     1      51.902 -39.110  -3.193  1.00  0.00     0.142 A 
ATOM      7  O   UNL     1      51.391 -37.999  -3.711  1.00  0.00    -0.452 OA
ATOM      8  C   UNL     1      53.218 -39.109  -2.719  1.00  0.00     0.094 A 
ATOM      9  C   UNL     1      53.774 -40.275  -2.175  1.00  0.00     0.119 A 
ATOM     10  C   UNL     1      53.008 -41.444  -2.106  1.00  0.00     0.047 A 
ATOM     11  C   UNL     1      51.692 -41.455  -2.577  1.00  0.00     0.020 A 
ENDROOT
BRANCH   1  12
ATOM     12  C   UNL     1      49.698 -36.627  -4.749  1.00  0.00     0.025 A 
ATOM     13  C   UNL     1      50.123 -36.190  -6.015  1.00  0.00     0.016 A 
ATOM     14  C   UNL     1      49.703 -34.954  -6.514  1.00  0.00     0.051 A 
ATOM     15  C   UNL     1      48.867 -34.131  -5.754  1.00  0.00     0.157 A 
ATOM     16  C   UNL     1      48.875 -35.788  -3.978  1.00  0.00     0.062 A 
ATOM     17  C   UNL     1      48.452 -34.548  -4.477  1.00  0.00     0.158 A 
BRANCH  15  18
ATOM     18  O   UNL     1      48.463 -32.904  -6.278  1.00  0.00    -0.504 OA
ATOM     19  H   UNL     1      47.513 -32.565  -6.185  1.00  0.00     0.293 HD
ENDBRANCH  15  18
BRANCH  17  20
ATOM     20  O   UNL     1      47.624 -33.730  -3.710  1.00  0.00    -0.504 OA
ATOM     21  H   UNL     1      47.942 -32.837  -3.353  1.00  0.00     0.293 HD
ENDBRANCH  17  20
ENDBRANCH   1  12
BRANCH   2  22
ATOM     22  O   UNL     1      47.980 -38.962  -4.568  1.00  0.00    -0.502 OA
ATOM     23  H   UNL     1      47.205 -39.315  -4.020  1.00  0.00     0.293 HD
ENDBRANCH   2  22
BRANCH   9  24
ATOM     24  O   UNL     1      55.083 -40.284  -1.701  1.00  0.00    -0.508 OA
ATOM     25  H   UNL     1      55.465 -41.088  -1.216  1.00  0.00     0.293 HD
ENDBRANCH   9  24
TORSDOF 5
ENDMDL
MODEL 4
REMARK VINA RESULT:    -6.965      1.992      3.205
REMARK INTER + INTRA:          -8.395
REMARK INTER:                  -8.928
REMARK INTRA:                   0.533
REMARK UNBOUND:                -0.208
REMARK SMILES O=c1c(O)c(-c2ccc(O)c(O)c2)oc2cc(O)ccc12
REMARK SMILES IDX 5 1 3 2 2 3 1 4 21 5 15 6 14 7 16 8 17 9 19 10 20 11 6 12
REMARK SMILES IDX 7 13 8 14 9 15 13 16 11 17 10 18 12 20 4 22 18 24
REMARK H PARENT 10 19 12 21 4 23 18 25
REMARK Flexibility Score: inf
ROOT
ATOM      1  C   UNL     1      49.801 -39.482  -3.551  1.00  0.00     0.180 A 
ATOM      2  C   UNL     1      48.786 -40.449  -3.402  1.00  0.00     0.208 A 
ATOM      3  C   UNL     1      47.494 -40.151  -3.863  1.00  0.00     0.235 A 
ATOM      4  O   UNL     1      46.566 -40.996  -3.731  1.00  0.00    -0.285 OA
ATOM      5  C   UNL     1      47.249 -38.913  -4.476  1.00  0.00     0.069 A 
ATOM      6  C   UNL     1      48.323 -38.007  -4.609  1.00  0.00     0.142 A 
ATOM      7  O   UNL     1      49.529 -38.324  -4.151  1.00  0.00    -0.452 OA
ATOM      8  C   UNL     1      48.122 -36.767  -5.223  1.00  0.00     0.094 A 
ATOM      9  C   UNL     1      46.854 -36.416  -5.706  1.00  0.00     0.119 A 
ATOM     10  C   UNL     1      45.787 -37.311  -5.574  1.00  0.00     0.047 A 
ATOM     11  C   UNL     1      45.979 -38.554  -4.963  1.00  0.00     0.020 A 
ENDROOT
BRANCH   1  12
ATOM     12  C   UNL     1      51.183 -39.714  -3.075  1.00  0.00     0.025 A 
ATOM     13  C   UNL     1      52.158 -38.703  -3.137  1.00  0.00     0.016 A 
ATOM     14  C   UNL     1      53.463 -38.952  -2.704  1.00  0.00     0.051 A 
ATOM     15  C   UNL     1      53.818 -40.214  -2.217  1.00  0.00     0.157 A 
ATOM     16  C   UNL     1      51.549 -40.986  -2.605  1.00  0.00     0.062 A 
ATOM     17  C   UNL     1      52.858 -41.239  -2.169  1.00  0.00     0.158 A 
BRANCH  15  18
ATOM     18  O   UNL     1      55.127 -40.432  -1.790  1.00  0.00    -0.504 OA
ATOM     19  H   UNL     1      55.342 -41.006  -0.983  1.00  0.00     0.293 HD
ENDBRANCH  15  18
BRANCH  17  20
ATOM     20  O   UNL     1      53.206 -42.501  -1.692  1.00  0.00    -0.504 OA
ATOM     21  H   UNL     1      54.152 -42.854  -1.765  1.00  0.00     0.293 HD
ENDBRANCH  17  20
ENDBRANCH   1  12
BRANCH   2  22
ATOM     22  O   UNL     1      49.071 -41.693  -2.833  1.00  0.00    -0.502 OA
ATOM     23  H   UNL     1      49.871 -41.843  -2.232  1.00  0.00     0.293 HD
ENDBRANCH   2  22
BRANCH   9  24
ATOM     24  O   UNL     1      46.643 -35.183  -6.319  1.00  0.00    -0.508 OA
ATOM     25  H   UNL     1      45.744 -34.717  -6.274  1.00  0.00     0.293 HD
ENDBRANCH   9  24
TORSDOF 5
ENDMDL
MODEL 5
REMARK VINA RESULT:    -6.867      3.582      4.399
REMARK INTER + INTRA:          -8.279
REMARK INTER:                  -8.050
REMARK INTRA:                  -0.230
REMARK UNBOUND:                -0.208
REMARK SMILES O=c1c(O)c(-c2ccc(O)c(O)c2)oc2cc(O)ccc12
REMARK SMILES IDX 5 1 3 2 2 3 1 4 21 5 15 6 14 7 16 8 17 9 19 10 20 11 6 12
REMARK SMILES IDX 7 13 8 14 9 15 13 16 11 17 10 18 12 20 4 22 18 24
REMARK H PARENT 10 19 12 21 4 23 18 25
REMARK Flexibility Score: inf
ROOT
ATOM      1  C   UNL     1      50.967 -38.117  -4.121  1.00  0.00     0.180 A 
ATOM      2  C   UNL     1      51.381 -37.651  -5.386  1.00  0.00     0.208 A 
ATOM      3  C   UNL     1      50.674 -36.596  -5.983  1.00  0.00     0.235 A 
ATOM      4  O   UNL     1      51.019 -36.169  -7.119  1.00  0.00    -0.285 OA
ATOM      5  C   UNL     1      49.590 -36.019  -5.303  1.00  0.00     0.069 A 
ATOM      6  C   UNL     1      49.252 -36.527  -4.030  1.00  0.00     0.142 A 
ATOM      7  O   UNL     1      49.941 -37.533  -3.503  1.00  0.00    -0.452 OA
ATOM      8  C   UNL     1      48.185 -35.972  -3.316  1.00  0.00     0.094 A 
ATOM      9  C   UNL     1      47.445 -34.914  -3.861  1.00  0.00     0.119 A 
ATOM     10  C   UNL     1      47.777 -34.410  -5.123  1.00  0.00     0.047 A 
ATOM     11  C   UNL     1      48.843 -34.957  -5.844  1.00  0.00     0.020 A 
ENDROOT
BRANCH   1  12
ATOM     12  C   UNL     1      51.649 -39.237  -3.434  1.00  0.00     0.025 A 
ATOM     13  C   UNL     1      51.033 -40.493  -3.291  1.00  0.00     0.016 A 
ATOM     14  C   UNL     1      51.686 -41.528  -2.618  1.00  0.00     0.051 A 
ATOM     15  C   UNL     1      52.955 -41.323  -2.065  1.00  0.00     0.157 A 
ATOM     16  C   UNL     1      52.914 -39.028  -2.860  1.00  0.00     0.062 A 
ATOM     17  C   UNL     1      53.572 -40.066  -2.183  1.00  0.00     0.158 A 
BRANCH  15  18
ATOM     18  O   UNL     1      53.583 -42.375  -1.400  1.00  0.00    -0.504 OA
ATOM     19  H   UNL     1      54.088 -43.100  -1.896  1.00  0.00     0.293 HD
ENDBRANCH  15  18
BRANCH  17  20
ATOM     20  O   UNL     1      54.833 -39.852  -1.629  1.00  0.00    -0.504 OA
ATOM     21  H   UNL     1      55.138 -38.929  -1.345  1.00  0.00     0.293 HD
ENDBRANCH  17  20
ENDBRANCH   1  12
BRANCH   2  22
ATOM     22  O   UNL     1      52.495 -38.211  -6.017  1.00  0.00    -0.502 OA
ATOM     23  H   UNL     1      52.753 -39.182  -5.897  1.00  0.00     0.293 HD
ENDBRANCH   2  22
BRANCH   9  24
ATOM     24  O   UNL     1      46.380 -34.356  -3.158  1.00  0.00    -0.508 OA
ATOM     25  H   UNL     1      45.875 -34.884  -2.455  1.00  0.00     0.293 HD
ENDBRANCH   9  24
TORSDOF 5
ENDMDL
MODEL 6
REMARK VINA RESULT:    -6.539      2.648      6.643
REMARK INTER + INTRA:          -7.894
REMARK INTER:                  -7.819
REMARK INTRA:                  -0.075
REMARK UNBOUND:                -0.208
REMARK SMILES O=c1c(O)c(-c2ccc(O)c(O)c2)oc2cc(O)ccc12
REMARK SMILES IDX 5 1 3 2 2 3 1 4 21 5 15 6 14 7 16 8 17 9 19 10 20 11 6 12
REMARK SMILES IDX 7 13 8 14 9 15 13 16 11 17 10 18 12 20 4 22 18 24
REMARK H PARENT 10 19 12 21 4 23 18 25
REMARK Flexibility Score: inf
ROOT
ATOM      1  C   UNL     1      49.572 -38.932  -3.784  1.00  0.00     0.180 A 
ATOM      2  C   UNL     1      49.085 -40.255  -3.752  1.00  0.00     0.208 A 
ATOM      3  C   UNL     1      49.942 -41.282  -3.325  1.00  0.00     0.235 A 
ATOM      4  O   UNL     1      49.532 -42.475  -3.298  1.00  0.00    -0.285 OA
ATOM      5  C   UNL     1      51.249 -40.967  -2.921  1.00  0.00     0.069 A 
ATOM      6  C   UNL     1      51.654 -39.615  -2.960  1.00  0.00     0.142 A 
ATOM      7  O   UNL     1      50.816 -38.675  -3.380  1.00  0.00    -0.452 OA
ATOM      8  C   UNL     1      52.945 -39.259  -2.557  1.00  0.00     0.094 A 
ATOM      9  C   UNL     1      53.843 -40.241  -2.117  1.00  0.00     0.119 A 
ATOM     10  C   UNL     1      53.445 -41.582  -2.079  1.00  0.00     0.047 A 
ATOM     11  C   UNL     1      52.156 -41.947  -2.478  1.00  0.00     0.020 A 
ENDROOT
BRANCH   1  12
ATOM     12  C   UNL     1      48.737 -37.798  -4.240  1.00  0.00     0.025 A 
ATOM     13  C   UNL     1      49.144 -36.969  -5.300  1.00  0.00     0.016 A 
ATOM     14  C   UNL     1      48.351 -35.890  -5.697  1.00  0.00     0.051 A 
ATOM     15  C   UNL     1      47.150 -35.613  -5.036  1.00  0.00     0.157 A 
ATOM     16  C   UNL     1      47.542 -37.505  -3.564  1.00  0.00     0.062 A 
ATOM     17  C   UNL     1      46.743 -36.422  -3.961  1.00  0.00     0.158 A 
BRANCH  15  18
ATOM     18  O   UNL     1      46.379 -34.530  -5.455  1.00  0.00    -0.504 OA
ATOM     19  H   UNL     1      45.780 -34.017  -4.819  1.00  0.00     0.293 HD
ENDBRANCH  15  18
BRANCH  17  20
ATOM     20  O   UNL     1      45.552 -36.148  -3.292  1.00  0.00    -0.504 OA
ATOM     21  H   UNL     1      44.871 -35.496  -3.664  1.00  0.00     0.293 HD
ENDBRANCH  17  20
ENDBRANCH   1  12
BRANCH   2  22
ATOM     22  O   UNL     1      47.764 -40.532  -4.112  1.00  0.00    -0.502 OA
ATOM     23  H   UNL     1      46.996 -40.446  -3.458  1.00  0.00     0.293 HD
ENDBRANCH   2  22
BRANCH   9  24
ATOM     24  O   UNL     1      55.131 -39.897  -1.714  1.00  0.00    -0.508 OA
ATOM     25  H   UNL     1      55.723 -40.553  -1.215  1.00  0.00     0.293 HD
ENDBRANCH   9  24
TORSDOF 5
ENDMDL
MODEL 7
REMARK VINA RESULT:    -6.343      2.437      6.626
REMARK INTER + INTRA:          -7.663
REMARK INTER:                  -7.405
REMARK INTRA:                  -0.258
REMARK UNBOUND:                -0.208
REMARK SMILES O=c1c(O)c(-c2ccc(O)c(O)c2)oc2cc(O)ccc12
REMARK SMILES IDX 5 1 3 2 2 3 1 4 21 5 15 6 14 7 16 8 17 9 19 10 20 11 6 12
REMARK SMILES IDX 7 13 8 14 9 15 13 16 11 17 10 18 12 20 4 22 18 24
REMARK H PARENT 10 19 12 21 4 23 18 25
REMARK Flexibility Score: inf
ROOT
ATOM      1  C   UNL     1      48.369 -39.059  -3.039  1.00  0.00     0.180 A 
ATOM      2  C   UNL     1      49.214 -40.158  -3.299  1.00  0.00     0.208 A 
ATOM      3  C   UNL     1      50.229 -40.019  -4.259  1.00  0.00     0.235 A 
ATOM      4  O   UNL     1      50.991 -40.992  -4.516  1.00  0.00    -0.285 OA
ATOM      5  C   UNL     1      50.391 -38.792  -4.919  1.00  0.00     0.069 A 
ATOM      6  C   UNL     1      49.520 -37.732  -4.586  1.00  0.00     0.142 A 
ATOM      7  O   UNL     1      48.566 -37.907  -3.678  1.00  0.00    -0.452 OA
ATOM      8  C   UNL     1      49.656 -36.490  -5.215  1.00  0.00     0.094 A 
ATOM      9  C   UNL     1      50.653 -36.292  -6.178  1.00  0.00     0.119 A 
ATOM     10  C   UNL     1      51.517 -37.341  -6.512  1.00  0.00     0.047 A 
ATOM     11  C   UNL     1      51.390 -38.585  -5.888  1.00  0.00     0.020 A 
ENDROOT
BRANCH   1  12
ATOM     12  C   UNL     1      47.266 -39.132  -2.055  1.00  0.00     0.025 A 
ATOM     13  C   UNL     1      47.387 -38.565  -0.775  1.00  0.00     0.016 A 
ATOM     14  C   UNL     1      46.341 -38.668   0.146  1.00  0.00     0.051 A 
ATOM     15  C   UNL     1      45.166 -39.347  -0.191  1.00  0.00     0.157 A 
ATOM     16  C   UNL     1      46.093 -39.832  -2.383  1.00  0.00     0.062 A 
ATOM     17  C   UNL     1      45.041 -39.935  -1.461  1.00  0.00     0.158 A 
BRANCH  15  18
ATOM     18  O   UNL     1      44.139 -39.431   0.748  1.00  0.00    -0.504 OA
ATOM     19  H   UNL     1      43.186 -39.652   0.484  1.00  0.00     0.293 HD
ENDBRANCH  15  18
BRANCH  17  20
ATOM     20  O   UNL     1      43.875 -40.620  -1.802  1.00  0.00    -0.504 OA
ATOM     21  H   UNL     1      43.311 -41.088  -1.103  1.00  0.00     0.293 HD
ENDBRANCH  17  20
ENDBRANCH   1  12
BRANCH   2  22
ATOM     22  O   UNL     1      49.061 -41.352  -2.590  1.00  0.00    -0.502 OA
ATOM     23  H   UNL     1      49.798 -42.043  -2.528  1.00  0.00     0.293 HD
ENDBRANCH   2  22
BRANCH   9  24
ATOM     24  O   UNL     1      50.796 -35.059  -6.811  1.00  0.00    -0.508 OA
ATOM     25  H   UNL     1      51.684 -34.765  -7.202  1.00  0.00     0.293 HD
ENDBRANCH   9  24
TORSDOF 5
ENDMDL
MODEL 8
REMARK VINA RESULT:    -6.208      3.405      6.669
REMARK INTER + INTRA:          -7.504
REMARK INTER:                  -7.399
REMARK INTRA:                  -0.105
REMARK UNBOUND:                -0.208
REMARK SMILES O=c1c(O)c(-c2ccc(O)c(O)c2)oc2cc(O)ccc12
REMARK SMILES IDX 5 1 3 2 2 3 1 4 21 5 15 6 14 7 16 8 17 9 19 10 20 11 6 12
REMARK SMILES IDX 7 13 8 14 9 15 13 16 11 17 10 18 12 20 4 22 18 24
REMARK H PARENT 10 19 12 21 4 23 18 25
REMARK Flexibility Score: inf
ROOT
ATOM      1  C   UNL     1      47.978 -38.139  -3.991  1.00  0.00     0.180 A 
ATOM      2  C   UNL     1      49.227 -38.696  -4.336  1.00  0.00     0.208 A 
ATOM      3  C   UNL     1      50.101 -37.951  -5.143  1.00  0.00     0.235 A 
ATOM      4  O   UNL     1      51.219 -38.432  -5.474  1.00  0.00    -0.285 OA
ATOM      5  C   UNL     1      49.723 -36.667  -5.567  1.00  0.00     0.069 A 
ATOM      6  C   UNL     1      48.467 -36.170  -5.159  1.00  0.00     0.142 A 
ATOM      7  O   UNL     1      47.664 -36.912  -4.404  1.00  0.00    -0.452 OA
ATOM      8  C   UNL     1      48.058 -34.892  -5.553  1.00  0.00     0.094 A 
ATOM      9  C   UNL     1      48.891 -34.101  -6.355  1.00  0.00     0.119 A 
ATOM     10  C   UNL     1      50.136 -34.591  -6.762  1.00  0.00     0.047 A 
ATOM     11  C   UNL     1      50.554 -35.867  -6.373  1.00  0.00     0.020 A 
ENDROOT
BRANCH   1  12
ATOM     12  C   UNL     1      46.995 -38.869  -3.160  1.00  0.00     0.025 A 
ATOM     13  C   UNL     1      45.706 -39.164  -3.640  1.00  0.00     0.016 A 
ATOM     14  C   UNL     1      44.786 -39.833  -2.828  1.00  0.00     0.051 A 
ATOM     15  C   UNL     1      45.131 -40.204  -1.525  1.00  0.00     0.157 A 
ATOM     16  C   UNL     1      47.330 -39.224  -1.843  1.00  0.00     0.062 A 
ATOM     17  C   UNL     1      46.409 -39.896  -1.027  1.00  0.00     0.158 A 
BRANCH  15  18
ATOM     18  O   UNL     1      44.192 -40.872  -0.740  1.00  0.00    -0.504 OA
ATOM     19  H   UNL     1      44.189 -41.881  -0.647  1.00  0.00     0.293 HD
ENDBRANCH  15  18
BRANCH  17  20
ATOM     20  O   UNL     1      46.757 -40.257   0.273  1.00  0.00    -0.504 OA
ATOM     21  H   UNL     1      47.008 -41.209   0.512  1.00  0.00     0.293 HD
ENDBRANCH  17  20
ENDBRANCH   1  12
BRANCH   2  22
ATOM     22  O   UNL     1      49.597 -39.956  -3.858  1.00  0.00    -0.502 OA
ATOM     23  H   UNL     1      49.926 -40.692  -4.470  1.00  0.00     0.293 HD
ENDBRANCH   2  22
BRANCH   9  24
ATOM     24  O   UNL     1      48.492 -32.826  -6.753  1.00  0.00    -0.508 OA
ATOM     25  H   UNL     1      49.169 -32.093  -6.933  1.00  0.00     0.293 HD
ENDBRANCH   9  24
TORSDOF 5
ENDMDL
MODEL 9
REMARK VINA RESULT:    -6.162     10.918     13.181
REMARK INTER + INTRA:          -7.450
REMARK INTER:                  -7.151
REMARK INTRA:                  -0.300
REMARK UNBOUND:                -0.208
REMARK SMILES O=c1c(O)c(-c2ccc(O)c(O)c2)oc2cc(O)ccc12
REMARK SMILES IDX 5 1 3 2 2 3 1 4 21 5 15 6 14 7 16 8 17 9 19 10 20 11 6 12
REMARK SMILES IDX 7 13 8 14 9 15 13 16 11 17 10 18 12 20 4 22 18 24
REMARK H PARENT 10 19 12 21 4 23 18 25
REMARK Flexibility Score: inf
ROOT
ATOM      1  C   UNL     1      48.328 -37.119   8.817  1.00  0.00     0.180 A 
ATOM      2  C   UNL     1      49.401 -36.485   9.477  1.00  0.00     0.208 A 
ATOM      3  C   UNL     1      49.880 -37.038  10.675  1.00  0.00     0.235 A 
ATOM      4  O   UNL     1      50.833 -36.483  11.289  1.00  0.00    -0.285 OA
ATOM      5  C   UNL     1      49.298 -38.212  11.174  1.00  0.00     0.069 A 
ATOM      6  C   UNL     1      48.243 -38.800  10.443  1.00  0.00     0.142 A 
ATOM      7  O   UNL     1      47.812 -38.240   9.318  1.00  0.00    -0.452 OA
ATOM      8  C   UNL     1      47.642 -39.976  10.903  1.00  0.00     0.094 A 
ATOM      9  C   UNL     1      48.081 -40.575  12.091  1.00  0.00     0.119 A 
ATOM     10  C   UNL     1      49.125 -39.995  12.819  1.00  0.00     0.047 A 
ATOM     11  C   UNL     1      49.733 -38.820  12.367  1.00  0.00     0.020 A 
ENDROOT
BRANCH   1  12
ATOM     12  C   UNL     1      47.755 -36.588   7.560  1.00  0.00     0.025 A 
ATOM     13  C   UNL     1      46.582 -35.813   7.560  1.00  0.00     0.016 A 
ATOM     14  C   UNL     1      46.046 -35.343   6.358  1.00  0.00     0.051 A 
ATOM     15  C   UNL     1      46.661 -35.649   5.140  1.00  0.00     0.157 A 
ATOM     16  C   UNL     1      48.359 -36.912   6.334  1.00  0.00     0.062 A 
ATOM     17  C   UNL     1      47.823 -36.441   5.126  1.00  0.00     0.158 A 
BRANCH  15  18
ATOM     18  O   UNL     1      46.104 -35.165   3.958  1.00  0.00    -0.504 OA
ATOM     19  H   UNL     1      45.348 -34.491   3.957  1.00  0.00     0.293 HD
ENDBRANCH  15  18
BRANCH  17  20
ATOM     20  O   UNL     1      48.438 -36.757   3.916  1.00  0.00    -0.504 OA
ATOM     21  H   UNL     1      49.418 -36.564   3.752  1.00  0.00     0.293 HD
ENDBRANCH  17  20
ENDBRANCH   1  12
BRANCH   2  22
ATOM     22  O   UNL     1      49.995 -35.345   8.929  1.00  0.00    -0.502 OA
ATOM     23  H   UNL     1      50.918 -35.031   9.203  1.00  0.00     0.293 HD
ENDBRANCH   2  22
BRANCH   9  24
ATOM     24  O   UNL     1      47.489 -41.747  12.558  1.00  0.00    -0.508 OA
ATOM     25  H   UNL     1      47.890 -42.273  13.326  1.00  0.00     0.293 HD
ENDBRANCH   9  24
TORSDOF 5
ENDMDL
