MODEL 1
REMARK VINA RESULT:    -3.853      0.000      0.000
REMARK INTER + INTRA:          -8.375
REMARK INTER:                  -7.006
REMARK INTRA:                  -1.369
REMARK UNBOUND:                -1.369
REMARK SMILES CCCCCCCCCCCCCCCC(=O)[O-]
REMARK SMILES IDX 9 1 10 2 11 3 12 4 13 5 14 6 15 7 16 8 17 9 18 10 8 11 7 12
REMARK SMILES IDX 6 13 5 14 4 15 3 16 2 17 1 18
REMARK H PARENT
REMARK Flexibility Score: inf
ROOT
ATOM      1  C   UNL     1       4.435  29.181  54.152  1.00  0.00     0.000 C 
ENDROOT
BRANCH   1   2
ATOM      2  C   UNL     1       3.907  30.071  53.015  1.00  0.00     0.000 C 
BRANCH   2   3
ATOM      3  C   UNL     1       4.890  31.194  52.640  1.00  0.00     0.000 C 
BRANCH   3   4
ATOM      4  C   UNL     1       5.527  30.985  51.256  1.00  0.00     0.000 C 
BRANCH   4   5
ATOM      5  C   UNL     1       5.285  29.574  50.697  1.00  0.00     0.000 C 
BRANCH   5   6
ATOM      6  C   UNL     1       4.649  29.637  49.303  1.00  0.00     0.006 C 
BRANCH   6   7
ATOM      7  C   UNL     1       3.442  28.699  49.206  1.00  0.00     0.053 C 
BRANCH   7   8
ATOM      8  C   UNL     1       3.785  27.483  48.404  1.00  0.00     0.041 C 
ATOM      9  O   UNL     1       4.114  26.414  48.984  1.00  0.00    -0.550 OA
ATOM     10  O   UNL     1       3.792  27.544  47.016  1.00  0.00    -0.550 OA
ENDBRANCH   7   8
ENDBRANCH   6   7
ENDBRANCH   5   6
ENDBRANCH   4   5
ENDBRANCH   3   4
ENDBRANCH   2   3
ENDBRANCH   1   2
BRANCH   1  11
ATOM     11  C   UNL     1       5.640  29.798  54.878  1.00  0.00     0.000 C 
BRANCH  11  12
ATOM     12  C   UNL     1       6.045  28.945  56.090  1.00  0.00    -0.000 C 
BRANCH  12  13
ATOM     13  C   UNL     1       5.011  28.996  57.227  1.00  0.00    -0.000 C 
BRANCH  13  14
ATOM     14  C   UNL     1       4.335  27.635  57.469  1.00  0.00    -0.000 C 
BRANCH  14  15
ATOM     15  C   UNL     1       2.865  27.774  57.900  1.00  0.00    -0.000 C 
BRANCH  15  16
ATOM     16  C   UNL     1       2.154  28.951  57.209  1.00  0.00    -0.000 C 
BRANCH  16  17
ATOM     17  C   UNL     1       0.809  28.543  56.586  1.00  0.00    -0.003 C 
ATOM     18  C   UNL     1       0.944  28.081  55.135  1.00  0.00     0.004 C 
ENDBRANCH  16  17
ENDBRANCH  15  16
ENDBRANCH  14  15
ENDBRANCH  13  14
ENDBRANCH  12  13
ENDBRANCH  11  12
ENDBRANCH   1  11
TORSDOF 14
ENDMDL
MODEL 2
REMARK VINA RESULT:    -3.843      2.978      3.645
REMARK INTER + INTRA:          -8.357
REMARK INTER:                  -6.864
REMARK INTRA:                  -1.492
REMARK UNBOUND:                -1.369
REMARK SMILES CCCCCCCCCCCCCCCC(=O)[O-]
REMARK SMILES IDX 9 1 10 2 11 3 12 4 13 5 14 6 15 7 16 8 17 9 18 10 8 11 7 12
REMARK SMILES IDX 6 13 5 14 4 15 3 16 2 17 1 18
REMARK H PARENT
REMARK Flexibility Score: inf
ROOT
ATOM      1  C   UNL     1       5.329  29.612  54.495  1.00  0.00     0.000 C 
ENDROOT
BRANCH   1   2
ATOM      2  C   UNL     1       4.178  29.040  53.648  1.00  0.00     0.000 C 
BRANCH   2   3
ATOM      3  C   UNL     1       4.652  28.536  52.275  1.00  0.00     0.000 C 
BRANCH   3   4
ATOM      4  C   UNL     1       4.160  29.421  51.118  1.00  0.00     0.000 C 
BRANCH   4   5
ATOM      5  C   UNL     1       5.038  30.665  50.906  1.00  0.00     0.000 C 
BRANCH   5   6
ATOM      6  C   UNL     1       4.362  31.918  51.477  1.00  0.00     0.006 C 
BRANCH   6   7
ATOM      7  C   UNL     1       2.882  31.971  51.087  1.00  0.00     0.053 C 
BRANCH   7   8
ATOM      8  C   UNL     1       2.057  32.482  52.226  1.00  0.00     0.041 C 
ATOM      9  O   UNL     1       1.857  31.759  53.238  1.00  0.00    -0.550 OA
ATOM     10  O   UNL     1       1.465  33.737  52.148  1.00  0.00    -0.550 OA
ENDBRANCH   7   8
ENDBRANCH   6   7
ENDBRANCH   5   6
ENDBRANCH   4   5
ENDBRANCH   3   4
ENDBRANCH   2   3
ENDBRANCH   1   2
BRANCH   1  11
ATOM     11  C   UNL     1       5.362  29.033  55.918  1.00  0.00     0.000 C 
BRANCH  11  12
ATOM     12  C   UNL     1       4.519  27.752  56.007  1.00  0.00    -0.000 C 
BRANCH  12  13
ATOM     13  C   UNL     1       3.733  27.647  57.325  1.00  0.00    -0.000 C 
BRANCH  13  14
ATOM     14  C   UNL     1       2.613  28.699  57.427  1.00  0.00    -0.000 C 
BRANCH  14  15
ATOM     15  C   UNL     1       1.241  28.143  57.011  1.00  0.00    -0.000 C 
BRANCH  15  16
ATOM     16  C   UNL     1       0.817  28.603  55.605  1.00  0.00    -0.000 C 
BRANCH  16  17
ATOM     17  C   UNL     1      -0.226  29.731  55.644  1.00  0.00    -0.003 C 
ATOM     18  C   UNL     1      -0.914  29.856  57.003  1.00  0.00     0.004 C 
ENDBRANCH  16  17
ENDBRANCH  15  16
ENDBRANCH  14  15
ENDBRANCH  13  14
ENDBRANCH  12  13
ENDBRANCH  11  12
ENDBRANCH   1  11
TORSDOF 14
ENDMDL
MODEL 3
REMARK VINA RESULT:    -3.769     15.052     17.002
REMARK INTER + INTRA:          -8.223
REMARK INTER:                  -6.324
REMARK INTRA:                  -1.899
REMARK UNBOUND:                -1.369
REMARK SMILES CCCCCCCCCCCCCCCC(=O)[O-]
REMARK SMILES IDX 9 1 10 2 11 3 12 4 13 5 14 6 15 7 16 8 17 9 18 10 8 11 7 12
REMARK SMILES IDX 6 13 5 14 4 15 3 16 2 17 1 18
REMARK H PARENT
REMARK Flexibility Score: inf
ROOT
ATOM      1  C   UNL     1      -7.602  38.933  46.249  1.00  0.00     0.000 C 
ENDROOT
BRANCH   1   2
ATOM      2  C   UNL     1      -8.693  37.938  45.818  1.00  0.00     0.000 C 
BRANCH   2   3
ATOM      3  C   UNL     1      -8.111  36.631  45.256  1.00  0.00     0.000 C 
BRANCH   3   4
ATOM      4  C   UNL     1      -6.709  36.323  45.809  1.00  0.00     0.000 C 
BRANCH   4   5
ATOM      5  C   UNL     1      -5.925  35.337  44.927  1.00  0.00     0.000 C 
BRANCH   5   6
ATOM      6  C   UNL     1      -6.667  35.068  43.612  1.00  0.00     0.006 C 
BRANCH   6   7
ATOM      7  C   UNL     1      -6.840  33.564  43.376  1.00  0.00     0.053 C 
BRANCH   7   8
ATOM      8  C   UNL     1      -8.226  33.132  43.736  1.00  0.00     0.041 C 
ATOM      9  O   UNL     1      -9.089  32.959  42.835  1.00  0.00    -0.550 OA
ATOM     10  O   UNL     1      -8.580  32.971  45.070  1.00  0.00    -0.550 OA
ENDBRANCH   7   8
ENDBRANCH   6   7
ENDBRANCH   5   6
ENDBRANCH   4   5
ENDBRANCH   3   4
ENDBRANCH   2   3
ENDBRANCH   1   2
BRANCH   1  11
ATOM     11  C   UNL     1      -7.399  40.068  45.233  1.00  0.00     0.000 C 
BRANCH  11  12
ATOM     12  C   UNL     1      -6.017  39.967  44.570  1.00  0.00    -0.000 C 
BRANCH  12  13
ATOM     13  C   UNL     1      -6.008  39.029  43.351  1.00  0.00    -0.000 C 
BRANCH  13  14
ATOM     14  C   UNL     1      -4.587  38.763  42.823  1.00  0.00    -0.000 C 
BRANCH  14  15
ATOM     15  C   UNL     1      -4.440  37.365  42.200  1.00  0.00    -0.000 C 
BRANCH  15  16
ATOM     16  C   UNL     1      -3.976  37.416  40.733  1.00  0.00    -0.000 C 
BRANCH  16  17
ATOM     17  C   UNL     1      -3.600  36.030  40.186  1.00  0.00    -0.003 C 
ATOM     18  C   UNL     1      -3.906  34.901  41.171  1.00  0.00     0.004 C 
ENDBRANCH  16  17
ENDBRANCH  15  16
ENDBRANCH  14  15
ENDBRANCH  13  14
ENDBRANCH  12  13
ENDBRANCH  11  12
ENDBRANCH   1  11
TORSDOF 14
ENDMDL
MODEL 4
REMARK VINA RESULT:    -3.728      4.100      4.669
REMARK INTER + INTRA:          -8.149
REMARK INTER:                  -6.698
REMARK INTRA:                  -1.451
REMARK UNBOUND:                -1.369
REMARK SMILES CCCCCCCCCCCCCCCC(=O)[O-]
REMARK SMILES IDX 9 1 10 2 11 3 12 4 13 5 14 6 15 7 16 8 17 9 18 10 8 11 7 12
REMARK SMILES IDX 6 13 5 14 4 15 3 16 2 17 1 18
REMARK H PARENT
REMARK Flexibility Score: inf
ROOT
ATOM      1  C   UNL     1       4.395  28.853  53.872  1.00  0.00     0.000 C 
ENDROOT
BRANCH   1   2
ATOM      2  C   UNL     1       4.219  29.704  52.603  1.00  0.00     0.000 C 
BRANCH   2   3
ATOM      3  C   UNL     1       3.590  31.076  52.896  1.00  0.00     0.000 C 
BRANCH   3   4
ATOM      4  C   UNL     1       4.016  32.151  51.881  1.00  0.00     0.000 C 
BRANCH   4   5
ATOM      5  C   UNL     1       2.848  33.047  51.439  1.00  0.00     0.000 C 
BRANCH   5   6
ATOM      6  C   UNL     1       1.587  32.752  52.261  1.00  0.00     0.006 C 
BRANCH   6   7
ATOM      7  C   UNL     1       0.322  33.108  51.474  1.00  0.00     0.053 C 
BRANCH   7   8
ATOM      8  C   UNL     1      -0.269  34.385  51.981  1.00  0.00     0.041 C 
ATOM      9  O   UNL     1       0.362  35.088  52.815  1.00  0.00    -0.550 OA
ATOM     10  O   UNL     1      -1.539  34.775  51.574  1.00  0.00    -0.550 OA
ENDBRANCH   7   8
ENDBRANCH   6   7
ENDBRANCH   5   6
ENDBRANCH   4   5
ENDBRANCH   3   4
ENDBRANCH   2   3
ENDBRANCH   1   2
BRANCH   1  11
ATOM     11  C   UNL     1       5.300  29.524  54.916  1.00  0.00     0.000 C 
BRANCH  11  12
ATOM     12  C   UNL     1       5.125  28.869  56.294  1.00  0.00    -0.000 C 
BRANCH  12  13
ATOM     13  C   UNL     1       3.968  27.858  56.330  1.00  0.00    -0.000 C 
BRANCH  13  14
ATOM     14  C   UNL     1       2.966  28.150  57.462  1.00  0.00    -0.000 C 
BRANCH  14  15
ATOM     15  C   UNL     1       1.645  28.743  56.943  1.00  0.00    -0.000 C 
BRANCH  15  16
ATOM     16  C   UNL     1       1.267  28.217  55.547  1.00  0.00    -0.000 C 
BRANCH  16  17
ATOM     17  C   UNL     1      -0.015  28.865  55.001  1.00  0.00    -0.003 C 
ATOM     18  C   UNL     1       0.182  30.328  54.606  1.00  0.00     0.004 C 
ENDBRANCH  16  17
ENDBRANCH  15  16
ENDBRANCH  14  15
ENDBRANCH  13  14
ENDBRANCH  12  13
ENDBRANCH  11  12
ENDBRANCH   1  11
TORSDOF 14
ENDMDL
MODEL 5
REMARK VINA RESULT:    -3.714     15.022     16.630
REMARK INTER + INTRA:          -8.123
REMARK INTER:                  -5.957
REMARK INTRA:                  -2.166
REMARK UNBOUND:                -1.369
REMARK SMILES CCCCCCCCCCCCCCCC(=O)[O-]
REMARK SMILES IDX 9 1 10 2 11 3 12 4 13 5 14 6 15 7 16 8 17 9 18 10 8 11 7 12
REMARK SMILES IDX 6 13 5 14 4 15 3 16 2 17 1 18
REMARK H PARENT
REMARK Flexibility Score: inf
ROOT
ATOM      1  C   UNL     1      -4.007  36.188  40.566  1.00  0.00     0.000 C 
ENDROOT
BRANCH   1   2
ATOM      2  C   UNL     1      -3.977  37.586  41.209  1.00  0.00     0.000 C 
BRANCH   2   3
ATOM      3  C   UNL     1      -3.504  37.551  42.672  1.00  0.00     0.000 C 
BRANCH   3   4
ATOM      4  C   UNL     1      -4.411  38.370  43.605  1.00  0.00     0.000 C 
BRANCH   4   5
ATOM      5  C   UNL     1      -5.811  38.608  43.016  1.00  0.00     0.000 C 
BRANCH   5   6
ATOM      6  C   UNL     1      -6.767  39.163  44.079  1.00  0.00     0.006 C 
BRANCH   6   7
ATOM      7  C   UNL     1      -6.585  38.437  45.416  1.00  0.00     0.053 C 
BRANCH   7   8
ATOM      8  C   UNL     1      -7.798  37.624  45.740  1.00  0.00     0.041 C 
ATOM      9  O   UNL     1      -8.890  37.854  45.155  1.00  0.00    -0.550 OA
ATOM     10  O   UNL     1      -7.737  36.645  46.725  1.00  0.00    -0.550 OA
ENDBRANCH   7   8
ENDBRANCH   6   7
ENDBRANCH   5   6
ENDBRANCH   4   5
ENDBRANCH   3   4
ENDBRANCH   2   3
ENDBRANCH   1   2
BRANCH   1  11
ATOM     11  C   UNL     1      -3.535  35.084  41.524  1.00  0.00     0.000 C 
BRANCH  11  12
ATOM     12  C   UNL     1      -4.644  34.047  41.753  1.00  0.00    -0.000 C 
BRANCH  12  13
ATOM     13  C   UNL     1      -4.851  33.714  43.239  1.00  0.00    -0.000 C 
BRANCH  13  14
ATOM     14  C   UNL     1      -5.645  34.803  43.982  1.00  0.00    -0.000 C 
BRANCH  14  15
ATOM     15  C   UNL     1      -7.129  34.832  43.577  1.00  0.00    -0.000 C 
BRANCH  15  16
ATOM     16  C   UNL     1      -7.992  33.876  44.420  1.00  0.00    -0.000 C 
BRANCH  16  17
ATOM     17  C   UNL     1      -8.848  32.939  43.555  1.00  0.00    -0.003 C 
ATOM     18  C   UNL     1      -8.501  33.021  42.068  1.00  0.00     0.004 C 
ENDBRANCH  16  17
ENDBRANCH  15  16
ENDBRANCH  14  15
ENDBRANCH  13  14
ENDBRANCH  12  13
ENDBRANCH  11  12
ENDBRANCH   1  11
TORSDOF 14
ENDMDL
MODEL 6
REMARK VINA RESULT:    -3.707      1.572      2.049
REMARK INTER + INTRA:          -8.111
REMARK INTER:                  -7.272
REMARK INTRA:                  -0.839
REMARK UNBOUND:                -1.369
REMARK SMILES CCCCCCCCCCCCCCCC(=O)[O-]
REMARK SMILES IDX 9 1 10 2 11 3 12 4 13 5 14 6 15 7 16 8 17 9 18 10 8 11 7 12
REMARK SMILES IDX 6 13 5 14 4 15 3 16 2 17 1 18
REMARK H PARENT
REMARK Flexibility Score: inf
ROOT
ATOM      1  C   UNL     1       4.989  29.986  53.753  1.00  0.00     0.000 C 
ENDROOT
BRANCH   1   2
ATOM      2  C   UNL     1       3.976  29.251  52.859  1.00  0.00     0.000 C 
BRANCH   2   3
ATOM      3  C   UNL     1       4.625  28.125  52.036  1.00  0.00     0.000 C 
BRANCH   3   4
ATOM      4  C   UNL     1       5.751  28.635  51.122  1.00  0.00     0.000 C 
BRANCH   4   5
ATOM      5  C   UNL     1       6.120  27.631  50.017  1.00  0.00     0.000 C 
BRANCH   5   6
ATOM      6  C   UNL     1       4.892  27.270  49.171  1.00  0.00     0.006 C 
BRANCH   6   7
ATOM      7  C   UNL     1       5.083  27.701  47.714  1.00  0.00     0.053 C 
BRANCH   7   8
ATOM      8  C   UNL     1       4.108  28.777  47.353  1.00  0.00     0.041 C 
ATOM      9  O   UNL     1       4.300  29.960  47.738  1.00  0.00    -0.550 OA
ATOM     10  O   UNL     1       2.960  28.464  46.635  1.00  0.00    -0.550 OA
ENDBRANCH   7   8
ENDBRANCH   6   7
ENDBRANCH   5   6
ENDBRANCH   4   5
ENDBRANCH   3   4
ENDBRANCH   2   3
ENDBRANCH   1   2
BRANCH   1  11
ATOM     11  C   UNL     1       5.262  29.247  55.072  1.00  0.00     0.000 C 
BRANCH  11  12
ATOM     12  C   UNL     1       4.126  28.262  55.392  1.00  0.00    -0.000 C 
BRANCH  12  13
ATOM     13  C   UNL     1       4.133  27.803  56.859  1.00  0.00    -0.000 C 
BRANCH  13  14
ATOM     14  C   UNL     1       2.804  28.104  57.576  1.00  0.00    -0.000 C 
BRANCH  14  15
ATOM     15  C   UNL     1       1.821  28.890  56.692  1.00  0.00    -0.000 C 
BRANCH  15  16
ATOM     16  C   UNL     1       0.452  29.093  57.365  1.00  0.00    -0.000 C 
BRANCH  16  17
ATOM     17  C   UNL     1      -0.616  29.603  56.384  1.00  0.00    -0.003 C 
ATOM     18  C   UNL     1      -0.234  29.378  54.921  1.00  0.00     0.004 C 
ENDBRANCH  16  17
ENDBRANCH  15  16
ENDBRANCH  14  15
ENDBRANCH  13  14
ENDBRANCH  12  13
ENDBRANCH  11  12
ENDBRANCH   1  11
TORSDOF 14
ENDMDL
MODEL 7
REMARK VINA RESULT:    -3.635     14.376     16.205
REMARK INTER + INTRA:          -7.978
REMARK INTER:                  -5.771
REMARK INTRA:                  -2.207
REMARK UNBOUND:                -1.369
REMARK SMILES CCCCCCCCCCCCCCCC(=O)[O-]
REMARK SMILES IDX 9 1 10 2 11 3 12 4 13 5 14 6 15 7 16 8 17 9 18 10 8 11 7 12
REMARK SMILES IDX 6 13 5 14 4 15 3 16 2 17 1 18
REMARK H PARENT
REMARK Flexibility Score: inf
ROOT
ATOM      1  C   UNL     1      -4.928  38.000  43.848  1.00  0.00     0.000 C 
ENDROOT
BRANCH   1   2
ATOM      2  C   UNL     1      -4.431  36.966  42.823  1.00  0.00     0.000 C 
BRANCH   2   3
ATOM      3  C   UNL     1      -5.107  35.596  42.995  1.00  0.00     0.000 C 
BRANCH   3   4
ATOM      4  C   UNL     1      -5.119  35.121  44.457  1.00  0.00     0.000 C 
BRANCH   4   5
ATOM      5  C   UNL     1      -6.508  34.651  44.919  1.00  0.00     0.000 C 
BRANCH   5   6
ATOM      6  C   UNL     1      -7.450  34.467  43.723  1.00  0.00     0.006 C 
BRANCH   6   7
ATOM      7  C   UNL     1      -7.504  32.999  43.286  1.00  0.00     0.053 C 
BRANCH   7   8
ATOM      8  C   UNL     1      -8.801  32.703  42.603  1.00  0.00     0.041 C 
ATOM      9  O   UNL     1      -8.856  32.646  41.345  1.00  0.00    -0.550 OA
ATOM     10  O   UNL     1      -9.961  32.541  43.350  1.00  0.00    -0.550 OA
ENDBRANCH   7   8
ENDBRANCH   6   7
ENDBRANCH   5   6
ENDBRANCH   4   5
ENDBRANCH   3   4
ENDBRANCH   2   3
ENDBRANCH   1   2
BRANCH   1  11
ATOM     11  C   UNL     1      -5.900  39.021  43.237  1.00  0.00     0.000 C 
BRANCH  11  12
ATOM     12  C   UNL     1      -7.086  39.278  44.179  1.00  0.00    -0.000 C 
BRANCH  12  13
ATOM     13  C   UNL     1      -7.958  38.029  44.392  1.00  0.00    -0.000 C 
BRANCH  13  14
ATOM     14  C   UNL     1      -8.455  37.899  45.843  1.00  0.00    -0.000 C 
BRANCH  14  15
ATOM     15  C   UNL     1      -7.420  38.390  46.869  1.00  0.00    -0.000 C 
BRANCH  15  16
ATOM     16  C   UNL     1      -6.675  37.234  47.559  1.00  0.00    -0.000 C 
BRANCH  16  17
ATOM     17  C   UNL     1      -5.149  37.352  47.421  1.00  0.00    -0.003 C 
ATOM     18  C   UNL     1      -4.585  38.591  48.118  1.00  0.00     0.004 C 
ENDBRANCH  16  17
ENDBRANCH  15  16
ENDBRANCH  14  15
ENDBRANCH  13  14
ENDBRANCH  12  13
ENDBRANCH  11  12
ENDBRANCH   1  11
TORSDOF 14
ENDMDL
MODEL 8
REMARK VINA RESULT:    -3.622      3.170      7.270
REMARK INTER + INTRA:          -7.956
REMARK INTER:                  -6.786
REMARK INTRA:                  -1.170
REMARK UNBOUND:                -1.369
REMARK SMILES CCCCCCCCCCCCCCCC(=O)[O-]
REMARK SMILES IDX 9 1 10 2 11 3 12 4 13 5 14 6 15 7 16 8 17 9 18 10 8 11 7 12
REMARK SMILES IDX 6 13 5 14 4 15 3 16 2 17 1 18
REMARK H PARENT
REMARK Flexibility Score: inf
ROOT
ATOM      1  C   UNL     1       3.854  30.244  53.119  1.00  0.00     0.000 C 
ENDROOT
BRANCH   1   2
ATOM      2  C   UNL     1       4.224  28.760  53.281  1.00  0.00     0.000 C 
BRANCH   2   3
ATOM      3  C   UNL     1       3.705  28.163  54.599  1.00  0.00     0.000 C 
BRANCH   3   4
ATOM      4  C   UNL     1       4.585  28.533  55.804  1.00  0.00     0.000 C 
BRANCH   4   5
ATOM      5  C   UNL     1       3.809  28.536  57.130  1.00  0.00     0.000 C 
BRANCH   5   6
ATOM      6  C   UNL     1       2.345  28.135  56.910  1.00  0.00     0.006 C 
BRANCH   6   7
ATOM      7  C   UNL     1       1.395  29.243  57.376  1.00  0.00     0.053 C 
BRANCH   7   8
ATOM      8  C   UNL     1       0.275  29.418  56.400  1.00  0.00     0.041 C 
ATOM      9  O   UNL     1      -0.917  29.234  56.764  1.00  0.00    -0.550 OA
ATOM     10  O   UNL     1       0.549  29.734  55.074  1.00  0.00    -0.550 OA
ENDBRANCH   7   8
ENDBRANCH   6   7
ENDBRANCH   5   6
ENDBRANCH   4   5
ENDBRANCH   3   4
ENDBRANCH   2   3
ENDBRANCH   1   2
BRANCH   1  11
ATOM     11  C   UNL     1       4.672  30.944  52.024  1.00  0.00     0.000 C 
BRANCH  11  12
ATOM     12  C   UNL     1       4.494  30.237  50.672  1.00  0.00    -0.000 C 
BRANCH  12  13
ATOM     13  C   UNL     1       5.823  30.041  49.923  1.00  0.00    -0.000 C 
BRANCH  13  14
ATOM     14  C   UNL     1       5.664  29.181  48.656  1.00  0.00    -0.000 C 
BRANCH  14  15
ATOM     15  C   UNL     1       4.214  28.719  48.434  1.00  0.00    -0.000 C 
BRANCH  15  16
ATOM     16  C   UNL     1       4.070  27.187  48.459  1.00  0.00    -0.000 C 
BRANCH  16  17
ATOM     17  C   UNL     1       4.444  26.582  49.821  1.00  0.00    -0.003 C 
ATOM     18  C   UNL     1       4.511  25.055  49.793  1.00  0.00     0.004 C 
ENDBRANCH  16  17
ENDBRANCH  15  16
ENDBRANCH  14  15
ENDBRANCH  13  14
ENDBRANCH  12  13
ENDBRANCH  11  12
ENDBRANCH   1  11
TORSDOF 14
ENDMDL
MODEL 9
REMARK VINA RESULT:    -3.585     14.597     16.311
REMARK INTER + INTRA:          -7.888
REMARK INTER:                  -5.836
REMARK INTRA:                  -2.052
REMARK UNBOUND:                -1.369
REMARK SMILES CCCCCCCCCCCCCCCC(=O)[O-]
REMARK SMILES IDX 9 1 10 2 11 3 12 4 13 5 14 6 15 7 16 8 17 9 18 10 8 11 7 12
REMARK SMILES IDX 6 13 5 14 4 15 3 16 2 17 1 18
REMARK H PARENT
REMARK Flexibility Score: inf
ROOT
ATOM      1  C   UNL     1      -4.413  35.246  40.982  1.00  0.00     0.000 C 
ENDROOT
BRANCH   1   2
ATOM      2  C   UNL     1      -3.394  34.136  41.292  1.00  0.00     0.000 C 
BRANCH   2   3
ATOM      3  C   UNL     1      -3.797  33.291  42.512  1.00  0.00     0.000 C 
BRANCH   3   4
ATOM      4  C   UNL     1      -5.151  33.715  43.105  1.00  0.00     0.000 C 
BRANCH   4   5
ATOM      5  C   UNL     1      -5.677  32.724  44.155  1.00  0.00     0.000 C 
BRANCH   5   6
ATOM      6  C   UNL     1      -7.202  32.817  44.283  1.00  0.00     0.006 C 
BRANCH   6   7
ATOM      7  C   UNL     1      -7.805  33.608  43.117  1.00  0.00     0.053 C 
BRANCH   7   8
ATOM      8  C   UNL     1      -8.889  32.821  42.453  1.00  0.00     0.041 C 
ATOM      9  O   UNL     1      -8.885  32.666  41.203  1.00  0.00    -0.550 OA
ATOM     10  O   UNL     1      -9.934  32.301  43.208  1.00  0.00    -0.550 OA
ENDBRANCH   7   8
ENDBRANCH   6   7
ENDBRANCH   5   6
ENDBRANCH   4   5
ENDBRANCH   3   4
ENDBRANCH   2   3
ENDBRANCH   1   2
BRANCH   1  11
ATOM     11  C   UNL     1      -3.749  36.538  40.483  1.00  0.00     0.000 C 
BRANCH  11  12
ATOM     12  C   UNL     1      -3.447  37.486  41.654  1.00  0.00    -0.000 C 
BRANCH  12  13
ATOM     13  C   UNL     1      -4.420  37.306  42.831  1.00  0.00    -0.000 C 
BRANCH  13  14
ATOM     14  C   UNL     1      -5.086  38.629  43.251  1.00  0.00    -0.000 C 
BRANCH  14  15
ATOM     15  C   UNL     1      -6.559  38.446  43.654  1.00  0.00    -0.000 C 
BRANCH  15  16
ATOM     16  C   UNL     1      -6.936  36.970  43.870  1.00  0.00    -0.000 C 
BRANCH  16  17
ATOM     17  C   UNL     1      -7.117  36.620  45.355  1.00  0.00    -0.003 C 
ATOM     18  C   UNL     1      -5.831  36.110  46.006  1.00  0.00     0.004 C 
ENDBRANCH  16  17
ENDBRANCH  15  16
ENDBRANCH  14  15
ENDBRANCH  13  14
ENDBRANCH  12  13
ENDBRANCH  11  12
ENDBRANCH   1  11
TORSDOF 14
ENDMDL
