MODEL 1
REMARK VINA RESULT:    -3.639      0.000      0.000
REMARK INTER + INTRA:         -10.003
REMARK INTER:                  -6.829
REMARK INTRA:                  -3.174
REMARK UNBOUND:                -3.174
REMARK SMILES CCCCCCCCC=CCCCCCCCC(=O)[O-]
REMARK SMILES IDX 10 1 9 2 11 3 12 4 13 5 14 6 15 7 16 8 17 9 18 10 19 11
REMARK SMILES IDX 20 12 8 13 7 14 6 15 5 16 4 17 3 18 2 19 1 20
REMARK H PARENT
REMARK Flexibility Score: inf
ROOT
ATOM      1  C   UNL     1       4.365  -0.467   5.001  1.00  0.00    -0.031 C 
ATOM      2  C   UNL     1       3.615  -1.161   4.133  1.00  0.00    -0.031 C 
ENDROOT
BRANCH   1   3
ATOM      3  C   UNL     1       3.750   0.271   6.160  1.00  0.00     0.027 C 
BRANCH   3   4
ATOM      4  C   UNL     1       4.480  -0.001   7.483  1.00  0.00     0.004 C 
BRANCH   4   5
ATOM      5  C   UNL     1       5.590  -1.055   7.325  1.00  0.00     0.000 C 
BRANCH   5   6
ATOM      6  C   UNL     1       5.291  -2.358   8.089  1.00  0.00     0.000 C 
BRANCH   6   7
ATOM      7  C   UNL     1       4.888  -3.554   7.207  1.00  0.00     0.000 C 
BRANCH   7   8
ATOM      8  C   UNL     1       3.377  -3.615   6.935  1.00  0.00     0.006 C 
BRANCH   8   9
ATOM      9  C   UNL     1       2.581  -3.214   8.180  1.00  0.00     0.053 C 
BRANCH   9  10
ATOM     10  C   UNL     1       1.586  -2.149   7.845  1.00  0.00     0.041 C 
ATOM     11  O   UNL     1       1.232  -1.314   8.718  1.00  0.00    -0.550 OA
ATOM     12  O   UNL     1       1.086  -2.046   6.552  1.00  0.00    -0.550 OA
ENDBRANCH   9  10
ENDBRANCH   8   9
ENDBRANCH   7   8
ENDBRANCH   6   7
ENDBRANCH   5   6
ENDBRANCH   4   5
ENDBRANCH   3   4
ENDBRANCH   1   3
BRANCH   2  13
ATOM     13  C   UNL     1       4.231  -1.902   2.976  1.00  0.00     0.027 C 
BRANCH  13  14
ATOM     14  C   UNL     1       4.558  -3.366   3.316  1.00  0.00     0.004 C 
BRANCH  14  15
ATOM     15  C   UNL     1       6.042  -3.747   3.138  1.00  0.00     0.000 C 
BRANCH  15  16
ATOM     16  C   UNL     1       6.939  -3.452   4.354  1.00  0.00     0.000 C 
BRANCH  16  17
ATOM     17  C   UNL     1       7.792  -2.188   4.175  1.00  0.00    -0.000 C 
BRANCH  17  18
ATOM     18  C   UNL     1       8.423  -2.146   2.776  1.00  0.00    -0.000 C 
BRANCH  18  19
ATOM     19  C   UNL     1       8.298  -0.765   2.112  1.00  0.00    -0.003 C 
ATOM     20  C   UNL     1       7.304   0.148   2.831  1.00  0.00     0.004 C 
ENDBRANCH  18  19
ENDBRANCH  17  18
ENDBRANCH  16  17
ENDBRANCH  15  16
ENDBRANCH  14  15
ENDBRANCH  13  14
ENDBRANCH   2  13
TORSDOF 15
ENDMDL
MODEL 2
REMARK VINA RESULT:    -3.635      1.934      3.339
REMARK INTER + INTRA:          -9.996
REMARK INTER:                  -7.857
REMARK INTRA:                  -2.139
REMARK UNBOUND:                -3.174
REMARK SMILES CCCCCCCCC=CCCCCCCCC(=O)[O-]
REMARK SMILES IDX 10 1 9 2 11 3 12 4 13 5 14 6 15 7 16 8 17 9 18 10 19 11
REMARK SMILES IDX 20 12 8 13 7 14 6 15 5 16 4 17 3 18 2 19 1 20
REMARK H PARENT
REMARK Flexibility Score: inf
ROOT
ATOM      1  C   UNL     1       4.373  -0.442   5.178  1.00  0.00    -0.031 C 
ATOM      2  C   UNL     1       3.540  -0.880   4.223  1.00  0.00    -0.031 C 
ENDROOT
BRANCH   1   3
ATOM      3  C   UNL     1       3.867   0.301   6.385  1.00  0.00     0.027 C 
BRANCH   3   4
ATOM      4  C   UNL     1       4.216  -0.410   7.701  1.00  0.00     0.004 C 
BRANCH   4   5
ATOM      5  C   UNL     1       4.584  -1.887   7.480  1.00  0.00     0.000 C 
BRANCH   5   6
ATOM      6  C   UNL     1       3.496  -2.856   7.978  1.00  0.00     0.000 C 
BRANCH   6   7
ATOM      7  C   UNL     1       2.476  -3.295   6.911  1.00  0.00     0.000 C 
BRANCH   7   8
ATOM      8  C   UNL     1       1.256  -2.365   6.830  1.00  0.00     0.006 C 
BRANCH   8   9
ATOM      9  C   UNL     1      -0.048  -3.163   6.931  1.00  0.00     0.053 C 
BRANCH   9  10
ATOM     10  C   UNL     1      -0.523  -3.213   8.347  1.00  0.00     0.041 C 
ATOM     11  O   UNL     1      -0.939  -4.295   8.839  1.00  0.00    -0.550 OA
ATOM     12  O   UNL     1      -0.460  -2.076   9.144  1.00  0.00    -0.550 OA
ENDBRANCH   9  10
ENDBRANCH   8   9
ENDBRANCH   7   8
ENDBRANCH   6   7
ENDBRANCH   5   6
ENDBRANCH   4   5
ENDBRANCH   3   4
ENDBRANCH   1   3
BRANCH   2  13
ATOM     13  C   UNL     1       4.046  -1.627   3.017  1.00  0.00     0.027 C 
BRANCH  13  14
ATOM     14  C   UNL     1       5.512  -2.067   3.165  1.00  0.00     0.004 C 
BRANCH  14  15
ATOM     15  C   UNL     1       5.717  -3.595   3.231  1.00  0.00     0.000 C 
BRANCH  15  16
ATOM     16  C   UNL     1       4.637  -4.362   4.015  1.00  0.00     0.000 C 
BRANCH  16  17
ATOM     17  C   UNL     1       4.027  -5.522   3.216  1.00  0.00    -0.000 C 
BRANCH  17  18
ATOM     18  C   UNL     1       3.662  -5.074   1.793  1.00  0.00    -0.000 C 
BRANCH  18  19
ATOM     19  C   UNL     1       4.032  -6.122   0.730  1.00  0.00    -0.003 C 
ATOM     20  C   UNL     1       5.507  -6.521   0.783  1.00  0.00     0.004 C 
ENDBRANCH  18  19
ENDBRANCH  17  18
ENDBRANCH  16  17
ENDBRANCH  15  16
ENDBRANCH  14  15
ENDBRANCH  13  14
ENDBRANCH   2  13
TORSDOF 15
ENDMDL
MODEL 3
REMARK VINA RESULT:    -3.441      1.943      3.373
REMARK INTER + INTRA:          -9.633
REMARK INTER:                  -6.993
REMARK INTRA:                  -2.640
REMARK UNBOUND:                -3.174
REMARK SMILES CCCCCCCCC=CCCCCCCCC(=O)[O-]
REMARK SMILES IDX 10 1 9 2 11 3 12 4 13 5 14 6 15 7 16 8 17 9 18 10 19 11
REMARK SMILES IDX 20 12 8 13 7 14 6 15 5 16 4 17 3 18 2 19 1 20
REMARK H PARENT
REMARK Flexibility Score: inf
ROOT
ATOM      1  C   UNL     1       3.833  -0.309   7.707  1.00  0.00    -0.031 C 
ATOM      2  C   UNL     1       4.106  -0.234   6.396  1.00  0.00    -0.031 C 
ENDROOT
BRANCH   1   3
ATOM      3  C   UNL     1       4.884  -0.705   8.709  1.00  0.00     0.027 C 
BRANCH   3   4
ATOM      4  C   UNL     1       5.795  -1.829   8.192  1.00  0.00     0.004 C 
BRANCH   4   5
ATOM      5  C   UNL     1       5.077  -3.190   8.168  1.00  0.00     0.000 C 
BRANCH   5   6
ATOM      6  C   UNL     1       4.920  -3.759   6.746  1.00  0.00     0.000 C 
BRANCH   6   7
ATOM      7  C   UNL     1       3.473  -4.086   6.330  1.00  0.00     0.000 C 
BRANCH   7   8
ATOM      8  C   UNL     1       2.459  -3.859   7.461  1.00  0.00     0.006 C 
BRANCH   8   9
ATOM      9  C   UNL     1       1.345  -2.909   7.013  1.00  0.00     0.053 C 
BRANCH   9  10
ATOM     10  C   UNL     1       0.006  -3.549   7.195  1.00  0.00     0.041 C 
ATOM     11  O   UNL     1      -0.980  -2.862   7.572  1.00  0.00    -0.550 OA
ATOM     12  O   UNL     1      -0.168  -4.895   6.898  1.00  0.00    -0.550 OA
ENDBRANCH   9  10
ENDBRANCH   8   9
ENDBRANCH   7   8
ENDBRANCH   6   7
ENDBRANCH   5   6
ENDBRANCH   4   5
ENDBRANCH   3   4
ENDBRANCH   1   3
BRANCH   2  13
ATOM     13  C   UNL     1       3.056   0.165   5.393  1.00  0.00     0.027 C 
BRANCH  13  14
ATOM     14  C   UNL     1       3.038  -0.751   4.158  1.00  0.00     0.004 C 
BRANCH  14  15
ATOM     15  C   UNL     1       4.386  -1.434   3.849  1.00  0.00     0.000 C 
BRANCH  15  16
ATOM     16  C   UNL     1       4.287  -2.702   2.982  1.00  0.00     0.000 C 
BRANCH  16  17
ATOM     17  C   UNL     1       5.546  -3.579   3.057  1.00  0.00    -0.000 C 
BRANCH  17  18
ATOM     18  C   UNL     1       5.240  -5.017   2.613  1.00  0.00    -0.000 C 
BRANCH  18  19
ATOM     19  C   UNL     1       3.827  -5.166   2.025  1.00  0.00    -0.003 C 
ATOM     20  C   UNL     1       3.812  -5.966   0.722  1.00  0.00     0.004 C 
ENDBRANCH  18  19
ENDBRANCH  17  18
ENDBRANCH  16  17
ENDBRANCH  15  16
ENDBRANCH  14  15
ENDBRANCH  13  14
ENDBRANCH   2  13
TORSDOF 15
ENDMDL
MODEL 4
REMARK VINA RESULT:    -3.420      2.403      6.317
REMARK INTER + INTRA:          -9.593
REMARK INTER:                  -6.747
REMARK INTRA:                  -2.846
REMARK UNBOUND:                -3.174
REMARK SMILES CCCCCCCCC=CCCCCCCCC(=O)[O-]
REMARK SMILES IDX 10 1 9 2 11 3 12 4 13 5 14 6 15 7 16 8 17 9 18 10 19 11
REMARK SMILES IDX 20 12 8 13 7 14 6 15 5 16 4 17 3 18 2 19 1 20
REMARK H PARENT
REMARK Flexibility Score: inf
ROOT
ATOM      1  C   UNL     1       3.309  -3.923   6.096  1.00  0.00    -0.031 C 
ATOM      2  C   UNL     1       3.360  -3.464   7.355  1.00  0.00    -0.031 C 
ENDROOT
BRANCH   1   3
ATOM      3  C   UNL     1       4.540  -4.423   5.389  1.00  0.00     0.027 C 
BRANCH   3   4
ATOM      4  C   UNL     1       4.252  -4.853   3.943  1.00  0.00     0.004 C 
BRANCH   4   5
ATOM      5  C   UNL     1       4.871  -3.887   2.918  1.00  0.00     0.000 C 
BRANCH   5   6
ATOM      6  C   UNL     1       4.258  -2.475   2.980  1.00  0.00     0.000 C 
BRANCH   6   7
ATOM      7  C   UNL     1       5.278  -1.324   3.051  1.00  0.00     0.000 C 
BRANCH   7   8
ATOM      8  C   UNL     1       5.339  -0.662   4.436  1.00  0.00     0.006 C 
BRANCH   8   9
ATOM      9  C   UNL     1       3.933  -0.450   5.003  1.00  0.00     0.053 C 
BRANCH   9  10
ATOM     10  C   UNL     1       4.001  -0.091   6.453  1.00  0.00     0.041 C 
ATOM     11  O   UNL     1       5.042  -0.334   7.118  1.00  0.00    -0.550 OA
ATOM     12  O   UNL     1       2.933   0.559   7.060  1.00  0.00    -0.550 OA
ENDBRANCH   9  10
ENDBRANCH   8   9
ENDBRANCH   7   8
ENDBRANCH   6   7
ENDBRANCH   5   6
ENDBRANCH   4   5
ENDBRANCH   3   4
ENDBRANCH   1   3
BRANCH   2  13
ATOM     13  C   UNL     1       2.128  -2.967   8.064  1.00  0.00     0.027 C 
BRANCH  13  14
ATOM     14  C   UNL     1       1.002  -2.577   7.092  1.00  0.00     0.004 C 
BRANCH  14  15
ATOM     15  C   UNL     1      -0.274  -3.435   7.216  1.00  0.00     0.000 C 
BRANCH  15  16
ATOM     16  C   UNL     1      -0.032  -4.912   7.572  1.00  0.00     0.000 C 
BRANCH  16  17
ATOM     17  C   UNL     1       0.070  -5.818   6.337  1.00  0.00    -0.000 C 
BRANCH  17  18
ATOM     18  C   UNL     1       1.136  -6.905   6.541  1.00  0.00    -0.000 C 
BRANCH  18  19
ATOM     19  C   UNL     1       1.790  -6.838   7.930  1.00  0.00    -0.003 C 
ATOM     20  C   UNL     1       3.286  -7.150   7.894  1.00  0.00     0.004 C 
ENDBRANCH  18  19
ENDBRANCH  17  18
ENDBRANCH  16  17
ENDBRANCH  15  16
ENDBRANCH  14  15
ENDBRANCH  13  14
ENDBRANCH   2  13
TORSDOF 15
ENDMDL
MODEL 5
REMARK VINA RESULT:    -3.409      1.985      3.083
REMARK INTER + INTRA:          -9.573
REMARK INTER:                  -6.501
REMARK INTRA:                  -3.072
REMARK UNBOUND:                -3.174
REMARK SMILES CCCCCCCCC=CCCCCCCCC(=O)[O-]
REMARK SMILES IDX 10 1 9 2 11 3 12 4 13 5 14 6 15 7 16 8 17 9 18 10 19 11
REMARK SMILES IDX 20 12 8 13 7 14 6 15 5 16 4 17 3 18 2 19 1 20
REMARK H PARENT
REMARK Flexibility Score: inf
ROOT
ATOM      1  C   UNL     1       3.595  -1.109   4.488  1.00  0.00    -0.031 C 
ATOM      2  C   UNL     1       4.806  -1.057   3.914  1.00  0.00    -0.031 C 
ENDROOT
BRANCH   1   3
ATOM      3  C   UNL     1       3.088   0.007   5.362  1.00  0.00     0.027 C 
BRANCH   3   4
ATOM      4  C   UNL     1       4.039   0.317   6.528  1.00  0.00     0.004 C 
BRANCH   4   5
ATOM      5  C   UNL     1       3.312   0.314   7.883  1.00  0.00     0.000 C 
BRANCH   5   6
ATOM      6  C   UNL     1       3.798  -0.807   8.821  1.00  0.00     0.000 C 
BRANCH   6   7
ATOM      7  C   UNL     1       2.932  -2.081   8.816  1.00  0.00     0.000 C 
BRANCH   7   8
ATOM      8  C   UNL     1       1.493  -1.826   8.344  1.00  0.00     0.006 C 
BRANCH   8   9
ATOM      9  C   UNL     1       1.184  -2.626   7.075  1.00  0.00     0.053 C 
BRANCH   9  10
ATOM     10  C   UNL     1      -0.081  -3.406   7.243  1.00  0.00     0.041 C 
ATOM     11  O   UNL     1      -1.195  -2.863   7.021  1.00  0.00    -0.550 OA
ATOM     12  O   UNL     1      -0.028  -4.750   7.594  1.00  0.00    -0.550 OA
ENDBRANCH   9  10
ENDBRANCH   8   9
ENDBRANCH   7   8
ENDBRANCH   6   7
ENDBRANCH   5   6
ENDBRANCH   4   5
ENDBRANCH   3   4
ENDBRANCH   1   3
BRANCH   2  13
ATOM     13  C   UNL     1       5.312  -2.170   3.037  1.00  0.00     0.027 C 
BRANCH  13  14
ATOM     14  C   UNL     1       4.208  -3.170   2.653  1.00  0.00     0.004 C 
BRANCH  14  15
ATOM     15  C   UNL     1       4.644  -4.649   2.687  1.00  0.00     0.000 C 
BRANCH  15  16
ATOM     16  C   UNL     1       5.050  -5.175   4.075  1.00  0.00     0.000 C 
BRANCH  16  17
ATOM     17  C   UNL     1       3.938  -5.019   5.123  1.00  0.00    -0.000 C 
BRANCH  17  18
ATOM     18  C   UNL     1       4.421  -4.176   6.313  1.00  0.00    -0.000 C 
BRANCH  18  19
ATOM     19  C   UNL     1       5.941  -3.949   6.299  1.00  0.00    -0.003 C 
ATOM     20  C   UNL     1       6.342  -2.602   6.902  1.00  0.00     0.004 C 
ENDBRANCH  18  19
ENDBRANCH  17  18
ENDBRANCH  16  17
ENDBRANCH  15  16
ENDBRANCH  14  15
ENDBRANCH  13  14
ENDBRANCH   2  13
TORSDOF 15
ENDMDL
MODEL 6
REMARK VINA RESULT:    -3.380      3.091      6.169
REMARK INTER + INTRA:          -9.518
REMARK INTER:                  -7.561
REMARK INTRA:                  -1.956
REMARK UNBOUND:                -3.174
REMARK SMILES CCCCCCCCC=CCCCCCCCC(=O)[O-]
REMARK SMILES IDX 10 1 9 2 11 3 12 4 13 5 14 6 15 7 16 8 17 9 18 10 19 11
REMARK SMILES IDX 20 12 8 13 7 14 6 15 5 16 4 17 3 18 2 19 1 20
REMARK H PARENT
REMARK Flexibility Score: inf
ROOT
ATOM      1  C   UNL     1       3.036  -0.142   5.360  1.00  0.00    -0.031 C 
ATOM      2  C   UNL     1       3.951   0.321   6.224  1.00  0.00    -0.031 C 
ENDROOT
BRANCH   1   3
ATOM      3  C   UNL     1       3.429  -0.967   4.164  1.00  0.00     0.027 C 
BRANCH   3   4
ATOM      4  C   UNL     1       4.934  -1.270   4.128  1.00  0.00     0.004 C 
BRANCH   4   5
ATOM      5  C   UNL     1       5.306  -2.216   2.974  1.00  0.00     0.000 C 
BRANCH   5   6
ATOM      6  C   UNL     1       6.315  -3.303   3.391  1.00  0.00     0.000 C 
BRANCH   6   7
ATOM      7  C   UNL     1       6.189  -4.636   2.631  1.00  0.00     0.000 C 
BRANCH   7   8
ATOM      8  C   UNL     1       5.282  -5.649   3.346  1.00  0.00     0.006 C 
BRANCH   8   9
ATOM      9  C   UNL     1       3.865  -5.617   2.768  1.00  0.00     0.053 C 
BRANCH   9  10
ATOM     10  C   UNL     1       3.879  -5.996   1.322  1.00  0.00     0.041 C 
ATOM     11  O   UNL     1       4.624  -6.926   0.917  1.00  0.00    -0.550 OA
ATOM     12  O   UNL     1       3.031  -5.355   0.426  1.00  0.00    -0.550 OA
ENDBRANCH   9  10
ENDBRANCH   8   9
ENDBRANCH   7   8
ENDBRANCH   6   7
ENDBRANCH   5   6
ENDBRANCH   4   5
ENDBRANCH   3   4
ENDBRANCH   1   3
BRANCH   2  13
ATOM     13  C   UNL     1       3.559   1.143   7.423  1.00  0.00     0.027 C 
BRANCH  13  14
ATOM     14  C   UNL     1       3.642   0.350   8.738  1.00  0.00     0.004 C 
BRANCH  14  15
ATOM     15  C   UNL     1       4.465  -0.952   8.648  1.00  0.00     0.000 C 
BRANCH  15  16
ATOM     16  C   UNL     1       3.639  -2.248   8.715  1.00  0.00     0.000 C 
BRANCH  16  17
ATOM     17  C   UNL     1       3.810  -3.132   7.472  1.00  0.00    -0.000 C 
BRANCH  17  18
ATOM     18  C   UNL     1       2.447  -3.491   6.863  1.00  0.00    -0.000 C 
BRANCH  18  19
ATOM     19  C   UNL     1       1.329  -2.536   7.311  1.00  0.00    -0.003 C 
ATOM     20  C   UNL     1      -0.067  -3.125   7.109  1.00  0.00     0.004 C 
ENDBRANCH  18  19
ENDBRANCH  17  18
ENDBRANCH  16  17
ENDBRANCH  15  16
ENDBRANCH  14  15
ENDBRANCH  13  14
ENDBRANCH   2  13
TORSDOF 15
ENDMDL
MODEL 7
REMARK VINA RESULT:    -3.373      3.053      5.809
REMARK INTER + INTRA:          -9.504
REMARK INTER:                  -6.669
REMARK INTRA:                  -2.835
REMARK UNBOUND:                -3.174
REMARK SMILES CCCCCCCCC=CCCCCCCCC(=O)[O-]
REMARK SMILES IDX 10 1 9 2 11 3 12 4 13 5 14 6 15 7 16 8 17 9 18 10 19 11
REMARK SMILES IDX 20 12 8 13 7 14 6 15 5 16 4 17 3 18 2 19 1 20
REMARK H PARENT
REMARK Flexibility Score: inf
ROOT
ATOM      1  C   UNL     1       4.045  -1.643   3.860  1.00  0.00    -0.031 C 
ATOM      2  C   UNL     1       3.965  -0.549   4.632  1.00  0.00    -0.031 C 
ENDROOT
BRANCH   1   3
ATOM      3  C   UNL     1       5.117  -1.793   2.814  1.00  0.00     0.027 C 
BRANCH   3   4
ATOM      4  C   UNL     1       6.532  -1.724   3.410  1.00  0.00     0.004 C 
BRANCH   4   5
ATOM      5  C   UNL     1       7.076  -3.118   3.769  1.00  0.00     0.000 C 
BRANCH   5   6
ATOM      6  C   UNL     1       6.421  -4.246   2.950  1.00  0.00     0.000 C 
BRANCH   6   7
ATOM      7  C   UNL     1       5.881  -5.426   3.780  1.00  0.00     0.000 C 
BRANCH   7   8
ATOM      8  C   UNL     1       4.484  -5.882   3.334  1.00  0.00     0.006 C 
BRANCH   8   9
ATOM      9  C   UNL     1       3.991  -5.053   2.145  1.00  0.00     0.053 C 
BRANCH   9  10
ATOM     10  C   UNL     1       3.886  -5.903   0.920  1.00  0.00     0.041 C 
ATOM     11  O   UNL     1       3.010  -5.657   0.050  1.00  0.00    -0.550 OA
ATOM     12  O   UNL     1       4.789  -6.939   0.712  1.00  0.00    -0.550 OA
ENDBRANCH   9  10
ENDBRANCH   8   9
ENDBRANCH   7   8
ENDBRANCH   6   7
ENDBRANCH   5   6
ENDBRANCH   4   5
ENDBRANCH   3   4
ENDBRANCH   1   3
BRANCH   2  13
ATOM     13  C   UNL     1       2.895  -0.400   5.680  1.00  0.00     0.027 C 
BRANCH  13  14
ATOM     14  C   UNL     1       3.471  -0.139   7.082  1.00  0.00     0.004 C 
BRANCH  14  15
ATOM     15  C   UNL     1       4.954  -0.532   7.248  1.00  0.00     0.000 C 
BRANCH  15  16
ATOM     16  C   UNL     1       5.229  -1.584   8.336  1.00  0.00     0.000 C 
BRANCH  16  17
ATOM     17  C   UNL     1       4.303  -2.805   8.237  1.00  0.00    -0.000 C 
BRANCH  17  18
ATOM     18  C   UNL     1       4.598  -3.615   6.966  1.00  0.00    -0.000 C 
BRANCH  18  19
ATOM     19  C   UNL     1       3.330  -4.220   6.342  1.00  0.00    -0.003 C 
ATOM     20  C   UNL     1       2.050  -3.758   7.040  1.00  0.00     0.004 C 
ENDBRANCH  18  19
ENDBRANCH  17  18
ENDBRANCH  16  17
ENDBRANCH  15  16
ENDBRANCH  14  15
ENDBRANCH  13  14
ENDBRANCH   2  13
TORSDOF 15
ENDMDL
MODEL 8
REMARK VINA RESULT:    -3.368      3.568      6.121
REMARK INTER + INTRA:          -9.496
REMARK INTER:                  -6.918
REMARK INTRA:                  -2.578
REMARK UNBOUND:                -3.174
REMARK SMILES CCCCCCCCC=CCCCCCCCC(=O)[O-]
REMARK SMILES IDX 10 1 9 2 11 3 12 4 13 5 14 6 15 7 16 8 17 9 18 10 19 11
REMARK SMILES IDX 20 12 8 13 7 14 6 15 5 16 4 17 3 18 2 19 1 20
REMARK H PARENT
REMARK Flexibility Score: inf
ROOT
ATOM      1  C   UNL     1       3.802  -1.360   3.979  1.00  0.00    -0.031 C 
ATOM      2  C   UNL     1       4.066  -0.330   4.797  1.00  0.00    -0.031 C 
ENDROOT
BRANCH   1   3
ATOM      3  C   UNL     1       4.739  -1.740   2.863  1.00  0.00     0.027 C 
BRANCH   3   4
ATOM      4  C   UNL     1       6.013  -2.427   3.376  1.00  0.00     0.004 C 
BRANCH   4   5
ATOM      5  C   UNL     1       6.074  -3.910   2.970  1.00  0.00     0.000 C 
BRANCH   5   6
ATOM      6  C   UNL     1       5.218  -4.815   3.875  1.00  0.00     0.000 C 
BRANCH   6   7
ATOM      7  C   UNL     1       3.988  -5.444   3.194  1.00  0.00     0.000 C 
BRANCH   7   8
ATOM      8  C   UNL     1       3.836  -5.022   1.725  1.00  0.00     0.006 C 
BRANCH   8   9
ATOM      9  C   UNL     1       3.821  -6.244   0.803  1.00  0.00     0.053 C 
BRANCH   9  10
ATOM     10  C   UNL     1       5.156  -6.918   0.806  1.00  0.00     0.041 C 
ATOM     11  O   UNL     1       5.262  -8.116   1.179  1.00  0.00    -0.550 OA
ATOM     12  O   UNL     1       6.279  -6.240   0.345  1.00  0.00    -0.550 OA
ENDBRANCH   9  10
ENDBRANCH   8   9
ENDBRANCH   7   8
ENDBRANCH   6   7
ENDBRANCH   5   6
ENDBRANCH   4   5
ENDBRANCH   3   4
ENDBRANCH   1   3
BRANCH   2  13
ATOM     13  C   UNL     1       3.131   0.048   5.915  1.00  0.00     0.027 C 
BRANCH  13  14
ATOM     14  C   UNL     1       3.833   0.838   7.032  1.00  0.00     0.004 C 
BRANCH  14  15
ATOM     15  C   UNL     1       3.479   0.376   8.461  1.00  0.00     0.000 C 
BRANCH  15  16
ATOM     16  C   UNL     1       3.296  -1.143   8.625  1.00  0.00     0.000 C 
BRANCH  16  17
ATOM     17  C   UNL     1       4.628  -1.902   8.711  1.00  0.00    -0.000 C 
BRANCH  17  18
ATOM     18  C   UNL     1       4.834  -2.789   7.475  1.00  0.00    -0.000 C 
BRANCH  18  19
ATOM     19  C   UNL     1       6.281  -2.756   6.958  1.00  0.00    -0.003 C 
ATOM     20  C   UNL     1       6.874  -1.347   6.951  1.00  0.00     0.004 C 
ENDBRANCH  18  19
ENDBRANCH  17  18
ENDBRANCH  16  17
ENDBRANCH  15  16
ENDBRANCH  14  15
ENDBRANCH  13  14
ENDBRANCH   2  13
TORSDOF 15
ENDMDL
MODEL 9
REMARK VINA RESULT:    -3.320      2.917      5.624
REMARK INTER + INTRA:          -9.406
REMARK INTER:                  -7.008
REMARK INTRA:                  -2.398
REMARK UNBOUND:                -3.174
REMARK SMILES CCCCCCCCC=CCCCCCCCC(=O)[O-]
REMARK SMILES IDX 10 1 9 2 11 3 12 4 13 5 14 6 15 7 16 8 17 9 18 10 19 11
REMARK SMILES IDX 20 12 8 13 7 14 6 15 5 16 4 17 3 18 2 19 1 20
REMARK H PARENT
REMARK Flexibility Score: inf
ROOT
ATOM      1  C   UNL     1       6.047  -0.761   3.555  1.00  0.00    -0.031 C 
ATOM      2  C   UNL     1       4.929  -1.279   3.026  1.00  0.00    -0.031 C 
ENDROOT
BRANCH   1   3
ATOM      3  C   UNL     1       7.216  -0.366   2.694  1.00  0.00     0.027 C 
BRANCH   3   4
ATOM      4  C   UNL     1       8.234  -1.504   2.527  1.00  0.00     0.004 C 
BRANCH   4   5
ATOM      5  C   UNL     1       8.004  -2.638   3.540  1.00  0.00     0.000 C 
BRANCH   5   6
ATOM      6  C   UNL     1       7.561  -3.954   2.875  1.00  0.00     0.000 C 
BRANCH   6   7
ATOM      7  C   UNL     1       6.479  -4.740   3.638  1.00  0.00     0.000 C 
BRANCH   7   8
ATOM      8  C   UNL     1       5.177  -4.898   2.838  1.00  0.00     0.006 C 
BRANCH   8   9
ATOM      9  C   UNL     1       5.402  -5.759   1.592  1.00  0.00     0.053 C 
BRANCH   9  10
ATOM     10  C   UNL     1       4.094  -6.168   0.995  1.00  0.00     0.041 C 
ATOM     11  O   UNL     1       3.920  -7.349   0.596  1.00  0.00    -0.550 OA
ATOM     12  O   UNL     1       3.046  -5.258   0.925  1.00  0.00    -0.550 OA
ENDBRANCH   9  10
ENDBRANCH   8   9
ENDBRANCH   7   8
ENDBRANCH   6   7
ENDBRANCH   5   6
ENDBRANCH   4   5
ENDBRANCH   3   4
ENDBRANCH   1   3
BRANCH   2  13
ATOM     13  C   UNL     1       3.757  -1.672   3.886  1.00  0.00     0.027 C 
BRANCH  13  14
ATOM     14  C   UNL     1       3.086  -0.463   4.560  1.00  0.00     0.004 C 
BRANCH  14  15
ATOM     15  C   UNL     1       2.988  -0.561   6.096  1.00  0.00     0.000 C 
BRANCH  15  16
ATOM     16  C   UNL     1       4.063   0.225   6.867  1.00  0.00     0.000 C 
BRANCH  16  17
ATOM     17  C   UNL     1       4.887  -0.659   7.814  1.00  0.00    -0.000 C 
BRANCH  17  18
ATOM     18  C   UNL     1       6.126  -1.221   7.100  1.00  0.00    -0.000 C 
BRANCH  18  19
ATOM     19  C   UNL     1       5.980  -2.710   6.748  1.00  0.00    -0.003 C 
ATOM     20  C   UNL     1       7.230  -3.522   7.089  1.00  0.00     0.004 C 
ENDBRANCH  18  19
ENDBRANCH  17  18
ENDBRANCH  16  17
ENDBRANCH  15  16
ENDBRANCH  14  15
ENDBRANCH  13  14
ENDBRANCH   2  13
TORSDOF 15
ENDMDL
