MODEL 1
REMARK VINA RESULT:    -4.432      0.000      0.000
REMARK INTER + INTRA:          -6.894
REMARK INTER:                  -6.246
REMARK INTRA:                  -0.648
REMARK UNBOUND:                -0.648
REMARK SMILES CCCCCCCCC(=O)[O-]
REMARK SMILES IDX 6 1 7 2 8 3 9 4 10 5 11 6 5 7 4 8 3 9 2 10 1 11
REMARK H PARENT
REMARK Flexibility Score: inf
ROOT
ATOM      1  C   UNL     1      -3.707 -48.888  16.863  1.00  0.00     0.000 C 
ENDROOT
BRANCH   1   2
ATOM      2  C   UNL     1      -4.927 -48.899  17.792  1.00  0.00     0.006 C 
BRANCH   2   3
ATOM      3  C   UNL     1      -4.517 -48.609  19.239  1.00  0.00     0.053 C 
BRANCH   3   4
ATOM      4  C   UNL     1      -4.917 -47.221  19.628  1.00  0.00     0.041 C 
ATOM      5  O   UNL     1      -4.697 -46.801  20.794  1.00  0.00    -0.550 OA
ATOM      6  O   UNL     1      -5.489 -46.373  18.688  1.00  0.00    -0.550 OA
ENDBRANCH   3   4
ENDBRANCH   2   3
ENDBRANCH   1   2
BRANCH   1   7
ATOM      7  C   UNL     1      -2.404 -48.986  17.663  1.00  0.00     0.000 C 
BRANCH   7   8
ATOM      8  C   UNL     1      -1.488 -47.787  17.372  1.00  0.00    -0.000 C 
BRANCH   8   9
ATOM      9  C   UNL     1      -1.641 -46.659  18.405  1.00  0.00    -0.000 C 
BRANCH   9  10
ATOM     10  C   UNL     1      -2.181 -45.361  17.788  1.00  0.00    -0.003 C 
ATOM     11  C   UNL     1      -1.825 -45.268  16.307  1.00  0.00     0.004 C 
ENDBRANCH   9  10
ENDBRANCH   8   9
ENDBRANCH   7   8
ENDBRANCH   1   7
TORSDOF 7
ENDMDL
MODEL 2
REMARK VINA RESULT:    -4.234      1.565      3.513
REMARK INTER + INTRA:          -6.615
REMARK INTER:                  -5.756
REMARK INTRA:                  -0.859
REMARK UNBOUND:                -0.648
REMARK SMILES CCCCCCCCC(=O)[O-]
REMARK SMILES IDX 6 1 7 2 8 3 9 4 10 5 11 6 5 7 4 8 3 9 2 10 1 11
REMARK H PARENT
REMARK Flexibility Score: inf
ROOT
ATOM      1  C   UNL     1      -1.947 -46.888  16.240  1.00  0.00     0.000 C 
ENDROOT
BRANCH   1   2
ATOM      2  C   UNL     1      -1.847 -45.523  16.932  1.00  0.00     0.006 C 
BRANCH   2   3
ATOM      3  C   UNL     1      -3.185 -45.128  17.563  1.00  0.00     0.053 C 
BRANCH   3   4
ATOM      4  C   UNL     1      -3.005 -44.804  19.012  1.00  0.00     0.041 C 
ATOM      5  O   UNL     1      -2.278 -45.531  19.739  1.00  0.00    -0.550 OA
ATOM      6  O   UNL     1      -3.600 -43.670  19.550  1.00  0.00    -0.550 OA
ENDBRANCH   3   4
ENDBRANCH   2   3
ENDBRANCH   1   2
BRANCH   1   7
ATOM      7  C   UNL     1      -1.296 -47.986  17.089  1.00  0.00     0.000 C 
BRANCH   7   8
ATOM      8  C   UNL     1      -2.358 -48.807  17.834  1.00  0.00    -0.000 C 
BRANCH   8   9
ATOM      9  C   UNL     1      -3.656 -48.970  17.027  1.00  0.00    -0.000 C 
BRANCH   9  10
ATOM     10  C   UNL     1      -4.911 -48.660  17.855  1.00  0.00    -0.003 C 
ATOM     11  C   UNL     1      -4.547 -48.321  19.298  1.00  0.00     0.004 C 
ENDBRANCH   9  10
ENDBRANCH   8   9
ENDBRANCH   7   8
ENDBRANCH   1   7
TORSDOF 7
ENDMDL
MODEL 3
REMARK VINA RESULT:    -4.233      1.145      1.926
REMARK INTER + INTRA:          -6.613
REMARK INTER:                  -5.732
REMARK INTRA:                  -0.881
REMARK UNBOUND:                -0.648
REMARK SMILES CCCCCCCCC(=O)[O-]
REMARK SMILES IDX 6 1 7 2 8 3 9 4 10 5 11 6 5 7 4 8 3 9 2 10 1 11
REMARK H PARENT
REMARK Flexibility Score: inf
ROOT
ATOM      1  C   UNL     1      -4.903 -48.601  17.917  1.00  0.00     0.000 C 
ENDROOT
BRANCH   1   2
ATOM      2  C   UNL     1      -4.357 -48.401  19.336  1.00  0.00     0.006 C 
BRANCH   2   3
ATOM      3  C   UNL     1      -4.809 -47.057  19.914  1.00  0.00     0.053 C 
BRANCH   3   4
ATOM      4  C   UNL     1      -3.982 -45.943  19.355  1.00  0.00     0.041 C 
ATOM      5  O   UNL     1      -4.480 -45.142  18.520  1.00  0.00    -0.550 OA
ATOM      6  O   UNL     1      -2.677 -45.758  19.792  1.00  0.00    -0.550 OA
ENDBRANCH   3   4
ENDBRANCH   2   3
ENDBRANCH   1   2
BRANCH   1   7
ATOM      7  C   UNL     1      -3.767 -48.865  16.922  1.00  0.00     0.000 C 
BRANCH   7   8
ATOM      8  C   UNL     1      -2.403 -48.853  17.629  1.00  0.00    -0.000 C 
BRANCH   8   9
ATOM      9  C   UNL     1      -1.466 -47.760  17.089  1.00  0.00    -0.000 C 
BRANCH   9  10
ATOM     10  C   UNL     1      -2.178 -46.786  16.140  1.00  0.00    -0.003 C 
ATOM     11  C   UNL     1      -1.699 -45.354  16.363  1.00  0.00     0.004 C 
ENDBRANCH   9  10
ENDBRANCH   8   9
ENDBRANCH   7   8
ENDBRANCH   1   7
TORSDOF 7
ENDMDL
MODEL 4
REMARK VINA RESULT:    -4.204      1.088      3.260
REMARK INTER + INTRA:          -6.572
REMARK INTER:                  -5.771
REMARK INTRA:                  -0.801
REMARK UNBOUND:                -0.648
REMARK SMILES CCCCCCCCC(=O)[O-]
REMARK SMILES IDX 6 1 7 2 8 3 9 4 10 5 11 6 5 7 4 8 3 9 2 10 1 11
REMARK H PARENT
REMARK Flexibility Score: inf
ROOT
ATOM      1  C   UNL     1      -1.716 -46.568  17.353  1.00  0.00     0.000 C 
ENDROOT
BRANCH   1   2
ATOM      2  C   UNL     1      -1.930 -46.308  18.848  1.00  0.00     0.006 C 
BRANCH   2   3
ATOM      3  C   UNL     1      -2.694 -45.000  19.074  1.00  0.00     0.053 C 
BRANCH   3   4
ATOM      4  C   UNL     1      -4.168 -45.254  19.110  1.00  0.00     0.041 C 
ATOM      5  O   UNL     1      -4.723 -45.610  20.183  1.00  0.00    -0.550 OA
ATOM      6  O   UNL     1      -4.937 -45.050  17.972  1.00  0.00    -0.550 OA
ENDBRANCH   3   4
ENDBRANCH   2   3
ENDBRANCH   1   2
BRANCH   1   7
ATOM      7  C   UNL     1      -1.324 -48.028  17.098  1.00  0.00     0.000 C 
BRANCH   7   8
ATOM      8  C   UNL     1      -2.381 -48.988  17.663  1.00  0.00    -0.000 C 
BRANCH   8   9
ATOM      9  C   UNL     1      -3.723 -48.898  16.918  1.00  0.00    -0.000 C 
BRANCH   9  10
ATOM     10  C   UNL     1      -4.919 -48.752  17.869  1.00  0.00    -0.003 C 
ATOM     11  C   UNL     1      -4.494 -48.956  19.321  1.00  0.00     0.004 C 
ENDBRANCH   9  10
ENDBRANCH   8   9
ENDBRANCH   7   8
ENDBRANCH   1   7
TORSDOF 7
ENDMDL
MODEL 5
REMARK VINA RESULT:    -4.151      2.184      4.311
REMARK INTER + INTRA:          -6.497
REMARK INTER:                  -5.800
REMARK INTRA:                  -0.698
REMARK UNBOUND:                -0.648
REMARK SMILES CCCCCCCCC(=O)[O-]
REMARK SMILES IDX 6 1 7 2 8 3 9 4 10 5 11 6 5 7 4 8 3 9 2 10 1 11
REMARK H PARENT
REMARK Flexibility Score: inf
ROOT
ATOM      1  C   UNL     1      -1.832 -46.693  18.498  1.00  0.00     0.000 C 
ENDROOT
BRANCH   1   2
ATOM      2  C   UNL     1      -2.086 -45.312  17.881  1.00  0.00     0.006 C 
BRANCH   2   3
ATOM      3  C   UNL     1      -1.735 -45.304  16.390  1.00  0.00     0.053 C 
BRANCH   3   4
ATOM      4  C   UNL     1      -2.739 -44.505  15.621  1.00  0.00     0.041 C 
ATOM      5  O   UNL     1      -3.971 -44.696  15.797  1.00  0.00    -0.550 OA
ATOM      6  O   UNL     1      -2.314 -43.514  14.745  1.00  0.00    -0.550 OA
ENDBRANCH   3   4
ENDBRANCH   2   3
ENDBRANCH   1   2
BRANCH   1   7
ATOM      7  C   UNL     1      -1.553 -47.739  17.412  1.00  0.00     0.000 C 
BRANCH   7   8
ATOM      8  C   UNL     1      -2.398 -49.002  17.634  1.00  0.00    -0.000 C 
BRANCH   8   9
ATOM      9  C   UNL     1      -3.766 -48.929  16.937  1.00  0.00    -0.000 C 
BRANCH   9  10
ATOM     10  C   UNL     1      -4.912 -48.626  17.914  1.00  0.00    -0.003 C 
ATOM     11  C   UNL     1      -5.483 -47.231  17.674  1.00  0.00     0.004 C 
ENDBRANCH   9  10
ENDBRANCH   8   9
ENDBRANCH   7   8
ENDBRANCH   1   7
TORSDOF 7
ENDMDL
MODEL 6
REMARK VINA RESULT:    -4.054      1.270      2.448
REMARK INTER + INTRA:          -6.360
REMARK INTER:                  -5.671
REMARK INTRA:                  -0.689
REMARK UNBOUND:                -0.648
REMARK SMILES CCCCCCCCC(=O)[O-]
REMARK SMILES IDX 6 1 7 2 8 3 9 4 10 5 11 6 5 7 4 8 3 9 2 10 1 11
REMARK H PARENT
REMARK Flexibility Score: inf
ROOT
ATOM      1  C   UNL     1      -4.405 -48.681  19.346  1.00  0.00     0.000 C 
ENDROOT
BRANCH   1   2
ATOM      2  C   UNL     1      -4.652 -47.310  19.987  1.00  0.00     0.006 C 
BRANCH   2   3
ATOM      3  C   UNL     1      -5.370 -46.370  19.014  1.00  0.00     0.053 C 
BRANCH   3   4
ATOM      4  C   UNL     1      -6.078 -45.285  19.762  1.00  0.00     0.041 C 
ATOM      5  O   UNL     1      -6.199 -45.352  21.013  1.00  0.00    -0.550 OA
ATOM      6  O   UNL     1      -6.561 -44.174  19.082  1.00  0.00    -0.550 OA
ENDBRANCH   3   4
ENDBRANCH   2   3
ENDBRANCH   1   2
BRANCH   1   7
ATOM      7  C   UNL     1      -4.874 -48.699  17.887  1.00  0.00     0.000 C 
BRANCH   7   8
ATOM      8  C   UNL     1      -3.692 -48.928  16.933  1.00  0.00    -0.000 C 
BRANCH   8   9
ATOM      9  C   UNL     1      -2.343 -48.998  17.666  1.00  0.00    -0.000 C 
BRANCH   9  10
ATOM     10  C   UNL     1      -1.365 -47.906  17.212  1.00  0.00    -0.003 C 
ATOM     11  C   UNL     1      -1.763 -46.544  17.774  1.00  0.00     0.004 C 
ENDBRANCH   9  10
ENDBRANCH   8   9
ENDBRANCH   7   8
ENDBRANCH   1   7
TORSDOF 7
ENDMDL
MODEL 7
REMARK VINA RESULT:    -4.053      2.074      3.889
REMARK INTER + INTRA:          -6.360
REMARK INTER:                  -5.565
REMARK INTRA:                  -0.795
REMARK UNBOUND:                -0.648
REMARK SMILES CCCCCCCCC(=O)[O-]
REMARK SMILES IDX 6 1 7 2 8 3 9 4 10 5 11 6 5 7 4 8 3 9 2 10 1 11
REMARK H PARENT
REMARK Flexibility Score: inf
ROOT
ATOM      1  C   UNL     1      -2.358 -48.955  17.834  1.00  0.00     0.000 C 
ENDROOT
BRANCH   1   2
ATOM      2  C   UNL     1      -1.391 -47.840  17.418  1.00  0.00     0.006 C 
BRANCH   2   3
ATOM      3  C   UNL     1      -1.993 -46.981  16.302  1.00  0.00     0.053 C 
BRANCH   3   4
ATOM      4  C   UNL     1      -1.944 -45.532  16.672  1.00  0.00     0.041 C 
ATOM      5  O   UNL     1      -2.062 -45.182  17.876  1.00  0.00    -0.550 OA
ATOM      6  O   UNL     1      -1.720 -44.572  15.695  1.00  0.00    -0.550 OA
ENDBRANCH   3   4
ENDBRANCH   2   3
ENDBRANCH   1   2
BRANCH   1   7
ATOM      7  C   UNL     1      -3.640 -48.915  16.996  1.00  0.00     0.000 C 
BRANCH   7   8
ATOM      8  C   UNL     1      -4.871 -48.676  17.884  1.00  0.00    -0.000 C 
BRANCH   8   9
ATOM      9  C   UNL     1      -5.507 -47.295  17.657  1.00  0.00    -0.000 C 
BRANCH   9  10
ATOM     10  C   UNL     1      -5.292 -46.344  18.842  1.00  0.00    -0.003 C 
ATOM     11  C   UNL     1      -4.658 -47.073  20.024  1.00  0.00     0.004 C 
ENDBRANCH   9  10
ENDBRANCH   8   9
ENDBRANCH   7   8
ENDBRANCH   1   7
TORSDOF 7
ENDMDL
MODEL 8
REMARK VINA RESULT:    -3.932      2.786      4.646
REMARK INTER + INTRA:          -6.189
REMARK INTER:                  -5.453
REMARK INTRA:                  -0.736
REMARK UNBOUND:                -0.648
REMARK SMILES CCCCCCCCC(=O)[O-]
REMARK SMILES IDX 6 1 7 2 8 3 9 4 10 5 11 6 5 7 4 8 3 9 2 10 1 11
REMARK H PARENT
REMARK Flexibility Score: inf
ROOT
ATOM      1  C   UNL     1      -2.088 -45.620  17.940  1.00  0.00     0.000 C 
ENDROOT
BRANCH   1   2
ATOM      2  C   UNL     1      -1.548 -47.039  17.728  1.00  0.00     0.006 C 
BRANCH   2   3
ATOM      3  C   UNL     1      -1.598 -47.430  16.248  1.00  0.00     0.053 C 
BRANCH   3   4
ATOM      4  C   UNL     1      -1.271 -48.880  16.078  1.00  0.00     0.041 C 
ATOM      5  O   UNL     1      -1.608 -49.713  16.961  1.00  0.00    -0.550 OA
ATOM      6  O   UNL     1      -0.638 -49.320  14.923  1.00  0.00    -0.550 OA
ENDBRANCH   3   4
ENDBRANCH   2   3
ENDBRANCH   1   2
BRANCH   1   7
ATOM      7  C   UNL     1      -2.976 -45.548  19.187  1.00  0.00     0.000 C 
BRANCH   7   8
ATOM      8  C   UNL     1      -4.350 -46.180  18.920  1.00  0.00    -0.000 C 
BRANCH   8   9
ATOM      9  C   UNL     1      -4.655 -47.356  19.863  1.00  0.00    -0.000 C 
BRANCH   9  10
ATOM     10  C   UNL     1      -4.454 -48.721  19.190  1.00  0.00    -0.003 C 
ATOM     11  C   UNL     1      -4.963 -48.704  17.751  1.00  0.00     0.004 C 
ENDBRANCH   9  10
ENDBRANCH   8   9
ENDBRANCH   7   8
ENDBRANCH   1   7
TORSDOF 7
ENDMDL
MODEL 9
REMARK VINA RESULT:    -3.929      2.738      3.762
REMARK INTER + INTRA:          -6.185
REMARK INTER:                  -5.445
REMARK INTRA:                  -0.739
REMARK UNBOUND:                -0.648
REMARK SMILES CCCCCCCCC(=O)[O-]
REMARK SMILES IDX 6 1 7 2 8 3 9 4 10 5 11 6 5 7 4 8 3 9 2 10 1 11
REMARK H PARENT
REMARK Flexibility Score: inf
ROOT
ATOM      1  C   UNL     1      -4.990 -48.604  17.901  1.00  0.00     0.000 C 
ENDROOT
BRANCH   1   2
ATOM      2  C   UNL     1      -3.959 -49.031  16.850  1.00  0.00     0.006 C 
BRANCH   2   3
ATOM      3  C   UNL     1      -2.544 -49.034  17.438  1.00  0.00     0.053 C 
BRANCH   3   4
ATOM      4  C   UNL     1      -1.525 -49.152  16.350  1.00  0.00     0.041 C 
ATOM      5  O   UNL     1      -0.500 -48.420  16.359  1.00  0.00    -0.550 OA
ATOM      6  O   UNL     1      -1.681 -50.105  15.352  1.00  0.00    -0.550 OA
ENDBRANCH   3   4
ENDBRANCH   2   3
ENDBRANCH   1   2
BRANCH   1   7
ATOM      7  C   UNL     1      -4.352 -48.507  19.292  1.00  0.00     0.000 C 
BRANCH   7   8
ATOM      8  C   UNL     1      -4.715 -47.178  19.972  1.00  0.00    -0.000 C 
BRANCH   8   9
ATOM      9  C   UNL     1      -4.335 -45.954  19.123  1.00  0.00    -0.000 C 
BRANCH   9  10
ATOM     10  C   UNL     1      -2.872 -45.532  19.317  1.00  0.00    -0.003 C 
ATOM     11  C   UNL     1      -2.149 -45.424  17.977  1.00  0.00     0.004 C 
ENDBRANCH   9  10
ENDBRANCH   8   9
ENDBRANCH   7   8
ENDBRANCH   1   7
TORSDOF 7
ENDMDL
