MODEL 1
REMARK VINA RESULT:    -4.437      0.000      0.000
REMARK INTER + INTRA:          -5.500
REMARK INTER:                  -5.215
REMARK INTRA:                  -0.285
REMARK UNBOUND:                -0.285
REMARK SMILES O=c1c(O)c(-c2ccc(O)cc2)oc2cc(O)cc(O)c12
REMARK SMILES IDX 5 1 3 2 2 3 1 4 21 5 19 6 18 7 16 8 15 9 14 10 13 11 6 12
REMARK SMILES IDX 7 13 8 14 9 15 12 16 11 17 10 18 4 20 20 22 17 24
REMARK H PARENT 10 19 4 21 20 23 17 25
REMARK Flexibility Score: inf
ROOT
ATOM      1  C   UNL     1      36.250  -3.046   6.727  1.00  0.00     0.180 A 
ATOM      2  C   UNL     1      35.720  -4.053   5.903  1.00  0.00     0.208 A 
ATOM      3  C   UNL     1      34.563  -4.733   6.316  1.00  0.00     0.238 A 
ATOM      4  O   UNL     1      34.061  -5.595   5.548  1.00  0.00    -0.285 OA
ATOM      5  C   UNL     1      33.960  -4.407   7.555  1.00  0.00     0.111 A 
ATOM      6  C   UNL     1      32.807  -5.058   8.091  1.00  0.00     0.134 A 
ATOM      7  C   UNL     1      32.220  -4.567   9.263  1.00  0.00     0.093 A 
ATOM      8  C   UNL     1      32.778  -3.492   9.953  1.00  0.00     0.123 A 
ATOM      9  C   UNL     1      33.939  -2.885   9.469  1.00  0.00     0.094 A 
ATOM     10  C   UNL     1      34.528  -3.330   8.283  1.00  0.00     0.146 A 
ATOM     11  O   UNL     1      35.625  -2.719   7.852  1.00  0.00    -0.452 OA
ENDROOT
BRANCH   1  12
ATOM     12  C   UNL     1      37.482  -2.304   6.371  1.00  0.00     0.021 A 
ATOM     13  C   UNL     1      38.740  -2.695   6.863  1.00  0.00     0.016 A 
ATOM     14  C   UNL     1      39.886  -1.965   6.532  1.00  0.00     0.047 A 
ATOM     15  C   UNL     1      39.786  -0.827   5.720  1.00  0.00     0.115 A 
ATOM     16  C   UNL     1      37.389  -1.151   5.574  1.00  0.00     0.016 A 
ATOM     17  C   UNL     1      38.535  -0.423   5.246  1.00  0.00     0.047 A 
BRANCH  15  18
ATOM     18  O   UNL     1      40.921  -0.093   5.384  1.00  0.00    -0.508 OA
ATOM     19  H   UNL     1      41.613  -0.453   4.737  1.00  0.00     0.293 HD
ENDBRANCH  15  18
ENDBRANCH   1  12
BRANCH   2  20
ATOM     20  O   UNL     1      36.318  -4.343   4.673  1.00  0.00    -0.502 OA
ATOM     21  H   UNL     1      37.083  -3.797   4.297  1.00  0.00     0.293 HD
ENDBRANCH   2  20
BRANCH   6  22
ATOM     22  O   UNL     1      32.223  -6.198   7.530  1.00  0.00    -0.507 OA
ATOM     23  H   UNL     1      31.581  -6.810   8.010  1.00  0.00     0.293 HD
ENDBRANCH   6  22
BRANCH   8  24
ATOM     24  O   UNL     1      32.176  -3.039  11.125  1.00  0.00    -0.508 OA
ATOM     25  H   UNL     1      32.637  -3.120  12.024  1.00  0.00     0.293 HD
ENDBRANCH   8  24
TORSDOF 5
ENDMDL
MODEL 2
REMARK VINA RESULT:    -4.288     11.139     12.674
REMARK INTER + INTRA:          -5.325
REMARK INTER:                  -5.120
REMARK INTRA:                  -0.205
REMARK UNBOUND:                -0.285
REMARK SMILES O=c1c(O)c(-c2ccc(O)cc2)oc2cc(O)cc(O)c12
REMARK SMILES IDX 5 1 3 2 2 3 1 4 21 5 19 6 18 7 16 8 15 9 14 10 13 11 6 12
REMARK SMILES IDX 7 13 8 14 9 15 12 16 11 17 10 18 4 20 20 22 17 24
REMARK H PARENT 10 19 4 21 20 23 17 25
REMARK Flexibility Score: inf
ROOT
ATOM      1  C   UNL     1      30.177   6.795   4.722  1.00  0.00     0.180 A 
ATOM      2  C   UNL     1      28.931   6.876   4.077  1.00  0.00     0.208 A 
ATOM      3  C   UNL     1      28.803   6.366   2.775  1.00  0.00     0.238 A 
ATOM      4  O   UNL     1      27.671   6.392   2.224  1.00  0.00    -0.285 OA
ATOM      5  C   UNL     1      29.926   5.796   2.128  1.00  0.00     0.111 A 
ATOM      6  C   UNL     1      29.920   5.284   0.796  1.00  0.00     0.134 A 
ATOM      7  C   UNL     1      31.053   4.624   0.305  1.00  0.00     0.093 A 
ATOM      8  C   UNL     1      32.212   4.515   1.072  1.00  0.00     0.123 A 
ATOM      9  C   UNL     1      32.248   5.064   2.355  1.00  0.00     0.094 A 
ATOM     10  C   UNL     1      31.122   5.696   2.886  1.00  0.00     0.146 A 
ATOM     11  O   UNL     1      31.194   6.195   4.114  1.00  0.00    -0.452 OA
ENDROOT
BRANCH   1  12
ATOM     12  C   UNL     1      30.396   7.334   6.084  1.00  0.00     0.021 A 
ATOM     13  C   UNL     1      31.165   8.492   6.298  1.00  0.00     0.016 A 
ATOM     14  C   UNL     1      31.377   8.968   7.595  1.00  0.00     0.047 A 
ATOM     15  C   UNL     1      30.838   8.286   8.694  1.00  0.00     0.115 A 
ATOM     16  C   UNL     1      29.876   6.645   7.192  1.00  0.00     0.016 A 
ATOM     17  C   UNL     1      30.090   7.124   8.487  1.00  0.00     0.047 A 
BRANCH  15  18
ATOM     18  O   UNL     1      31.043   8.753   9.990  1.00  0.00    -0.508 OA
ATOM     19  H   UNL     1      31.322   9.710  10.171  1.00  0.00     0.293 HD
ENDBRANCH  15  18
ENDBRANCH   1  12
BRANCH   2  20
ATOM     20  O   UNL     1      27.829   7.423   4.741  1.00  0.00    -0.502 OA
ATOM     21  H   UNL     1      26.903   7.445   4.332  1.00  0.00     0.293 HD
ENDBRANCH   2  20
BRANCH   6  22
ATOM     22  O   UNL     1      28.846   5.421  -0.088  1.00  0.00    -0.507 OA
ATOM     23  H   UNL     1      28.750   4.920  -0.959  1.00  0.00     0.293 HD
ENDBRANCH   6  22
BRANCH   8  24
ATOM     24  O   UNL     1      33.327   3.866   0.546  1.00  0.00    -0.508 OA
ATOM     25  H   UNL     1      34.142   4.380   0.232  1.00  0.00     0.293 HD
ENDBRANCH   8  24
TORSDOF 5
ENDMDL
MODEL 3
REMARK VINA RESULT:    -4.272      2.447      2.994
REMARK INTER + INTRA:          -5.306
REMARK INTER:                  -5.054
REMARK INTRA:                  -0.251
REMARK UNBOUND:                -0.285
REMARK SMILES O=c1c(O)c(-c2ccc(O)cc2)oc2cc(O)cc(O)c12
REMARK SMILES IDX 5 1 3 2 2 3 1 4 21 5 19 6 18 7 16 8 15 9 14 10 13 11 6 12
REMARK SMILES IDX 7 13 8 14 9 15 12 16 11 17 10 18 4 20 20 22 17 24
REMARK H PARENT 10 19 4 21 20 23 17 25
REMARK Flexibility Score: inf
ROOT
ATOM      1  C   UNL     1      36.726  -3.419   6.515  1.00  0.00     0.180 A 
ATOM      2  C   UNL     1      37.479  -4.468   7.071  1.00  0.00     0.208 A 
ATOM      3  C   UNL     1      37.113  -4.977   8.327  1.00  0.00     0.238 A 
ATOM      4  O   UNL     1      37.757  -5.953   8.794  1.00  0.00    -0.285 OA
ATOM      5  C   UNL     1      36.010  -4.421   9.019  1.00  0.00     0.111 A 
ATOM      6  C   UNL     1      35.576  -4.833  10.316  1.00  0.00     0.134 A 
ATOM      7  C   UNL     1      34.394  -4.303  10.848  1.00  0.00     0.093 A 
ATOM      8  C   UNL     1      33.668  -3.329  10.163  1.00  0.00     0.123 A 
ATOM      9  C   UNL     1      34.116  -2.877   8.921  1.00  0.00     0.094 A 
ATOM     10  C   UNL     1      35.271  -3.413   8.347  1.00  0.00     0.146 A 
ATOM     11  O   UNL     1      35.658  -2.963   7.160  1.00  0.00    -0.452 OA
ENDROOT
BRANCH   1  12
ATOM     12  C   UNL     1      37.065  -2.812   5.208  1.00  0.00     0.021 A 
ATOM     13  C   UNL     1      37.718  -1.569   5.124  1.00  0.00     0.016 A 
ATOM     14  C   UNL     1      38.007  -1.005   3.877  1.00  0.00     0.047 A 
ATOM     15  C   UNL     1      37.633  -1.669   2.701  1.00  0.00     0.115 A 
ATOM     16  C   UNL     1      36.677  -3.460   4.023  1.00  0.00     0.016 A 
ATOM     17  C   UNL     1      36.967  -2.894   2.779  1.00  0.00     0.047 A 
BRANCH  15  18
ATOM     18  O   UNL     1      37.917  -1.116   1.454  1.00  0.00    -0.508 OA
ATOM     19  H   UNL     1      37.289  -1.232   0.667  1.00  0.00     0.293 HD
ENDBRANCH  15  18
ENDBRANCH   1  12
BRANCH   2  20
ATOM     20  O   UNL     1      38.549  -5.018   6.361  1.00  0.00    -0.502 OA
ATOM     21  H   UNL     1      39.105  -5.784   6.721  1.00  0.00     0.293 HD
ENDBRANCH   2  20
BRANCH   6  22
ATOM     22  O   UNL     1      36.277  -5.731  11.125  1.00  0.00    -0.507 OA
ATOM     23  H   UNL     1      37.283  -5.806  11.163  1.00  0.00     0.293 HD
ENDBRANCH   6  22
BRANCH   8  24
ATOM     24  O   UNL     1      32.506  -2.813  10.730  1.00  0.00    -0.508 OA
ATOM     25  H   UNL     1      31.880  -2.213  10.204  1.00  0.00     0.293 HD
ENDBRANCH   8  24
TORSDOF 5
ENDMDL
MODEL 4
REMARK VINA RESULT:    -4.201     11.400     12.889
REMARK INTER + INTRA:          -5.222
REMARK INTER:                  -4.933
REMARK INTRA:                  -0.289
REMARK UNBOUND:                -0.285
REMARK SMILES O=c1c(O)c(-c2ccc(O)cc2)oc2cc(O)cc(O)c12
REMARK SMILES IDX 5 1 3 2 2 3 1 4 21 5 19 6 18 7 16 8 15 9 14 10 13 11 6 12
REMARK SMILES IDX 7 13 8 14 9 15 12 16 11 17 10 18 4 20 20 22 17 24
REMARK H PARENT 10 19 4 21 20 23 17 25
REMARK Flexibility Score: inf
ROOT
ATOM      1  C   UNL     1      27.375  -2.882  -1.888  1.00  0.00     0.180 A 
ATOM      2  C   UNL     1      26.578  -3.209  -2.998  1.00  0.00     0.208 A 
ATOM      3  C   UNL     1      26.561  -4.537  -3.456  1.00  0.00     0.238 A 
ATOM      4  O   UNL     1      25.802  -4.836  -4.415  1.00  0.00    -0.285 OA
ATOM      5  C   UNL     1      27.353  -5.516  -2.809  1.00  0.00     0.111 A 
ATOM      6  C   UNL     1      27.442  -6.882  -3.213  1.00  0.00     0.134 A 
ATOM      7  C   UNL     1      28.155  -7.791  -2.421  1.00  0.00     0.093 A 
ATOM      8  C   UNL     1      28.835  -7.372  -1.278  1.00  0.00     0.123 A 
ATOM      9  C   UNL     1      28.802  -6.026  -0.906  1.00  0.00     0.094 A 
ATOM     10  C   UNL     1      28.070  -5.103  -1.656  1.00  0.00     0.146 A 
ATOM     11  O   UNL     1      28.056  -3.835  -1.263  1.00  0.00    -0.452 OA
ENDROOT
BRANCH   1  12
ATOM     12  C   UNL     1      27.466  -1.500  -1.364  1.00  0.00     0.021 A 
ATOM     13  C   UNL     1      28.489  -0.626  -1.773  1.00  0.00     0.016 A 
ATOM     14  C   UNL     1      28.568   0.667  -1.245  1.00  0.00     0.047 A 
ATOM     15  C   UNL     1      27.634   1.096  -0.293  1.00  0.00     0.115 A 
ATOM     16  C   UNL     1      26.546  -1.067  -0.394  1.00  0.00     0.016 A 
ATOM     17  C   UNL     1      26.627   0.226   0.131  1.00  0.00     0.047 A 
BRANCH  15  18
ATOM     18  O   UNL     1      27.703   2.383   0.238  1.00  0.00    -0.508 OA
ATOM     19  H   UNL     1      27.138   2.659   1.033  1.00  0.00     0.293 HD
ENDBRANCH  15  18
ENDBRANCH   1  12
BRANCH   2  20
ATOM     20  O   UNL     1      25.786  -2.233  -3.609  1.00  0.00    -0.502 OA
ATOM     21  H   UNL     1      26.161  -1.346  -3.923  1.00  0.00     0.293 HD
ENDBRANCH   2  20
BRANCH   6  22
ATOM     22  O   UNL     1      26.878  -7.387  -4.388  1.00  0.00    -0.507 OA
ATOM     23  H   UNL     1      27.083  -7.049  -5.316  1.00  0.00     0.293 HD
ENDBRANCH   6  22
BRANCH   8  24
ATOM     24  O   UNL     1      29.547  -8.300  -0.522  1.00  0.00    -0.508 OA
ATOM     25  H   UNL     1      29.212  -8.618   0.380  1.00  0.00     0.293 HD
ENDBRANCH   8  24
TORSDOF 5
ENDMDL
MODEL 5
REMARK VINA RESULT:    -4.094      2.049      2.160
REMARK INTER + INTRA:          -5.097
REMARK INTER:                  -4.805
REMARK INTRA:                  -0.292
REMARK UNBOUND:                -0.285
REMARK SMILES O=c1c(O)c(-c2ccc(O)cc2)oc2cc(O)cc(O)c12
REMARK SMILES IDX 5 1 3 2 2 3 1 4 21 5 19 6 18 7 16 8 15 9 14 10 13 11 6 12
REMARK SMILES IDX 7 13 8 14 9 15 12 16 11 17 10 18 4 20 20 22 17 24
REMARK H PARENT 10 19 4 21 20 23 17 25
REMARK Flexibility Score: inf
ROOT
ATOM      1  C   UNL     1      36.366  -3.824   4.995  1.00  0.00     0.180 A 
ATOM      2  C   UNL     1      35.678  -4.998   4.644  1.00  0.00     0.208 A 
ATOM      3  C   UNL     1      34.714  -5.512   5.527  1.00  0.00     0.238 A 
ATOM      4  O   UNL     1      34.061  -6.532   5.183  1.00  0.00    -0.285 OA
ATOM      5  C   UNL     1      34.462  -4.854   6.755  1.00  0.00     0.111 A 
ATOM      6  C   UNL     1      33.535  -5.308   7.742  1.00  0.00     0.134 A 
ATOM      7  C   UNL     1      33.272  -4.508   8.861  1.00  0.00     0.093 A 
ATOM      8  C   UNL     1      33.948  -3.306   9.062  1.00  0.00     0.123 A 
ATOM      9  C   UNL     1      34.898  -2.881   8.132  1.00  0.00     0.094 A 
ATOM     10  C   UNL     1      35.157  -3.639   6.988  1.00  0.00     0.146 A 
ATOM     11  O   UNL     1      36.061  -3.195   6.124  1.00  0.00    -0.452 OA
ENDROOT
BRANCH   1  12
ATOM     12  C   UNL     1      37.414  -3.237   4.129  1.00  0.00     0.021 A 
ATOM     13  C   UNL     1      38.744  -3.692   4.177  1.00  0.00     0.016 A 
ATOM     14  C   UNL     1      39.721  -3.105   3.367  1.00  0.00     0.047 A 
ATOM     15  C   UNL     1      39.384  -2.049   2.510  1.00  0.00     0.115 A 
ATOM     16  C   UNL     1      37.090  -2.165   3.281  1.00  0.00     0.016 A 
ATOM     17  C   UNL     1      38.068  -1.581   2.472  1.00  0.00     0.047 A 
BRANCH  15  18
ATOM     18  O   UNL     1      40.350  -1.459   1.697  1.00  0.00    -0.508 OA
ATOM     19  H   UNL     1      40.615  -1.866   0.808  1.00  0.00     0.293 HD
ENDBRANCH  15  18
ENDBRANCH   1  12
BRANCH   2  20
ATOM     20  O   UNL     1      35.925  -5.619   3.417  1.00  0.00    -0.502 OA
ATOM     21  H   UNL     1      36.677  -5.332   2.803  1.00  0.00     0.293 HD
ENDBRANCH   2  20
BRANCH   6  22
ATOM     22  O   UNL     1      32.875  -6.539   7.685  1.00  0.00    -0.507 OA
ATOM     23  H   UNL     1      33.196  -7.385   8.130  1.00  0.00     0.293 HD
ENDBRANCH   6  22
BRANCH   8  24
ATOM     24  O   UNL     1      33.672  -2.543  10.195  1.00  0.00    -0.508 OA
ATOM     25  H   UNL     1      32.902  -2.770  10.813  1.00  0.00     0.293 HD
ENDBRANCH   8  24
TORSDOF 5
ENDMDL
MODEL 6
REMARK VINA RESULT:    -4.068     11.642     12.885
REMARK INTER + INTRA:          -5.067
REMARK INTER:                  -4.767
REMARK INTRA:                  -0.300
REMARK UNBOUND:                -0.285
REMARK SMILES O=c1c(O)c(-c2ccc(O)cc2)oc2cc(O)cc(O)c12
REMARK SMILES IDX 5 1 3 2 2 3 1 4 21 5 19 6 18 7 16 8 15 9 14 10 13 11 6 12
REMARK SMILES IDX 7 13 8 14 9 15 12 16 11 17 10 18 4 20 20 22 17 24
REMARK H PARENT 10 19 4 21 20 23 17 25
REMARK Flexibility Score: inf
ROOT
ATOM      1  C   UNL     1      27.196  -1.255  -1.008  1.00  0.00     0.180 A 
ATOM      2  C   UNL     1      28.173  -0.289  -1.300  1.00  0.00     0.208 A 
ATOM      3  C   UNL     1      28.237   0.875  -0.516  1.00  0.00     0.238 A 
ATOM      4  O   UNL     1      29.150   1.710  -0.747  1.00  0.00    -0.285 OA
ATOM      5  C   UNL     1      27.312   1.064   0.539  1.00  0.00     0.111 A 
ATOM      6  C   UNL     1      27.260   2.223   1.372  1.00  0.00     0.134 A 
ATOM      7  C   UNL     1      26.388   2.246   2.468  1.00  0.00     0.093 A 
ATOM      8  C   UNL     1      25.523   1.183   2.723  1.00  0.00     0.123 A 
ATOM      9  C   UNL     1      25.525   0.070   1.880  1.00  0.00     0.094 A 
ATOM     10  C   UNL     1      26.408   0.002   0.800  1.00  0.00     0.146 A 
ATOM     11  O   UNL     1      26.385  -1.078   0.029  1.00  0.00    -0.452 OA
ENDROOT
BRANCH   1  12
ATOM     12  C   UNL     1      27.050  -2.494  -1.806  1.00  0.00     0.021 A 
ATOM     13  C   UNL     1      26.233  -2.538  -2.951  1.00  0.00     0.016 A 
ATOM     14  C   UNL     1      26.093  -3.726  -3.674  1.00  0.00     0.047 A 
ATOM     15  C   UNL     1      26.753  -4.888  -3.254  1.00  0.00     0.115 A 
ATOM     16  C   UNL     1      27.692  -3.669  -1.382  1.00  0.00     0.016 A 
ATOM     17  C   UNL     1      27.550  -4.856  -2.106  1.00  0.00     0.047 A 
BRANCH  15  18
ATOM     18  O   UNL     1      26.621  -6.077  -3.968  1.00  0.00    -0.508 OA
ATOM     19  H   UNL     1      26.539  -6.971  -3.498  1.00  0.00     0.293 HD
ENDBRANCH  15  18
ENDBRANCH   1  12
BRANCH   2  20
ATOM     20  O   UNL     1      29.091  -0.506  -2.332  1.00  0.00    -0.502 OA
ATOM     21  H   UNL     1      29.497   0.252  -2.868  1.00  0.00     0.293 HD
ENDBRANCH   2  20
BRANCH   6  22
ATOM     22  O   UNL     1      28.015   3.378   1.151  1.00  0.00    -0.507 OA
ATOM     23  H   UNL     1      28.557   3.854   1.856  1.00  0.00     0.293 HD
ENDBRANCH   6  22
BRANCH   8  24
ATOM     24  O   UNL     1      24.658   1.246   3.813  1.00  0.00    -0.508 OA
ATOM     25  H   UNL     1      24.574   0.478   4.469  1.00  0.00     0.293 HD
ENDBRANCH   8  24
TORSDOF 5
ENDMDL
MODEL 7
REMARK VINA RESULT:    -4.045     11.602     13.561
REMARK INTER + INTRA:          -5.039
REMARK INTER:                  -4.811
REMARK INTRA:                  -0.228
REMARK UNBOUND:                -0.285
REMARK SMILES O=c1c(O)c(-c2ccc(O)cc2)oc2cc(O)cc(O)c12
REMARK SMILES IDX 5 1 3 2 2 3 1 4 21 5 19 6 18 7 16 8 15 9 14 10 13 11 6 12
REMARK SMILES IDX 7 13 8 14 9 15 12 16 11 17 10 18 4 20 20 22 17 24
REMARK H PARENT 10 19 4 21 20 23 17 25
REMARK Flexibility Score: inf
ROOT
ATOM      1  C   UNL     1      27.694  -0.849  -1.817  1.00  0.00     0.180 A 
ATOM      2  C   UNL     1      27.883  -0.448  -3.150  1.00  0.00     0.208 A 
ATOM      3  C   UNL     1      28.384   0.838  -3.410  1.00  0.00     0.238 A 
ATOM      4  O   UNL     1      28.604   1.172  -4.604  1.00  0.00    -0.285 OA
ATOM      5  C   UNL     1      28.675   1.712  -2.335  1.00  0.00     0.111 A 
ATOM      6  C   UNL     1      29.149   3.050  -2.483  1.00  0.00     0.134 A 
ATOM      7  C   UNL     1      29.527   3.778  -1.348  1.00  0.00     0.093 A 
ATOM      8  C   UNL     1      29.387   3.243  -0.069  1.00  0.00     0.123 A 
ATOM      9  C   UNL     1      28.869   1.956   0.091  1.00  0.00     0.094 A 
ATOM     10  C   UNL     1      28.517   1.192  -1.023  1.00  0.00     0.146 A 
ATOM     11  O   UNL     1      28.038  -0.031  -0.829  1.00  0.00    -0.452 OA
ENDROOT
BRANCH   1  12
ATOM     12  C   UNL     1      27.146  -2.179  -1.464  1.00  0.00     0.021 A 
ATOM     13  C   UNL     1      27.927  -3.344  -1.564  1.00  0.00     0.016 A 
ATOM     14  C   UNL     1      27.380  -4.591  -1.248  1.00  0.00     0.047 A 
ATOM     15  C   UNL     1      26.043  -4.691  -0.843  1.00  0.00     0.115 A 
ATOM     16  C   UNL     1      25.801  -2.291  -1.076  1.00  0.00     0.016 A 
ATOM     17  C   UNL     1      25.256  -3.538  -0.760  1.00  0.00     0.047 A 
BRANCH  15  18
ATOM     18  O   UNL     1      25.488  -5.929  -0.524  1.00  0.00    -0.508 OA
ATOM     19  H   UNL     1      26.065  -6.751  -0.395  1.00  0.00     0.293 HD
ENDBRANCH  15  18
ENDBRANCH   1  12
BRANCH   2  20
ATOM     20  O   UNL     1      27.612  -1.333  -4.197  1.00  0.00    -0.502 OA
ATOM     21  H   UNL     1      27.464  -2.324  -4.047  1.00  0.00     0.293 HD
ENDBRANCH   2  20
BRANCH   6  22
ATOM     22  O   UNL     1      29.241   3.714  -3.710  1.00  0.00    -0.507 OA
ATOM     23  H   UNL     1      29.521   4.676  -3.823  1.00  0.00     0.293 HD
ENDBRANCH   6  22
BRANCH   8  24
ATOM     24  O   UNL     1      29.759   4.001   1.039  1.00  0.00    -0.508 OA
ATOM     25  H   UNL     1      29.102   4.215   1.780  1.00  0.00     0.293 HD
ENDBRANCH   8  24
TORSDOF 5
ENDMDL
MODEL 8
REMARK VINA RESULT:    -4.005      1.866      3.938
REMARK INTER + INTRA:          -4.992
REMARK INTER:                  -4.691
REMARK INTRA:                  -0.300
REMARK UNBOUND:                -0.285
REMARK SMILES O=c1c(O)c(-c2ccc(O)cc2)oc2cc(O)cc(O)c12
REMARK SMILES IDX 5 1 3 2 2 3 1 4 21 5 19 6 18 7 16 8 15 9 14 10 13 11 6 12
REMARK SMILES IDX 7 13 8 14 9 15 12 16 11 17 10 18 4 20 20 22 17 24
REMARK H PARENT 10 19 4 21 20 23 17 25
REMARK Flexibility Score: inf
ROOT
ATOM      1  C   UNL     1      35.993  -3.701   6.093  1.00  0.00     0.180 A 
ATOM      2  C   UNL     1      34.914  -3.606   6.988  1.00  0.00     0.208 A 
ATOM      3  C   UNL     1      33.844  -4.507   6.863  1.00  0.00     0.238 A 
ATOM      4  O   UNL     1      32.907  -4.454   7.702  1.00  0.00    -0.285 OA
ATOM      5  C   UNL     1      33.860  -5.480   5.835  1.00  0.00     0.111 A 
ATOM      6  C   UNL     1      32.811  -6.418   5.591  1.00  0.00     0.134 A 
ATOM      7  C   UNL     1      32.991  -7.420   4.629  1.00  0.00     0.093 A 
ATOM      8  C   UNL     1      34.151  -7.479   3.858  1.00  0.00     0.123 A 
ATOM      9  C   UNL     1      35.158  -6.531   4.049  1.00  0.00     0.094 A 
ATOM     10  C   UNL     1      35.024  -5.542   5.025  1.00  0.00     0.146 A 
ATOM     11  O   UNL     1      36.009  -4.666   5.181  1.00  0.00    -0.452 OA
ENDROOT
BRANCH   1  12
ATOM     12  C   UNL     1      37.144  -2.770   6.146  1.00  0.00     0.021 A 
ATOM     13  C   UNL     1      37.140  -1.558   5.433  1.00  0.00     0.016 A 
ATOM     14  C   UNL     1      38.248  -0.707   5.479  1.00  0.00     0.047 A 
ATOM     15  C   UNL     1      39.379  -1.063   6.225  1.00  0.00     0.115 A 
ATOM     16  C   UNL     1      38.290  -3.128   6.875  1.00  0.00     0.016 A 
ATOM     17  C   UNL     1      39.396  -2.276   6.920  1.00  0.00     0.047 A 
BRANCH  15  18
ATOM     18  O   UNL     1      40.489  -0.222   6.279  1.00  0.00    -0.508 OA
ATOM     19  H   UNL     1      40.392   0.786   6.241  1.00  0.00     0.293 HD
ENDBRANCH  15  18
ENDBRANCH   1  12
BRANCH   2  20
ATOM     20  O   UNL     1      34.929  -2.653   8.010  1.00  0.00    -0.502 OA
ATOM     21  H   UNL     1      34.329  -1.837   8.003  1.00  0.00     0.293 HD
ENDBRANCH   2  20
BRANCH   6  22
ATOM     22  O   UNL     1      31.573  -6.392   6.241  1.00  0.00    -0.507 OA
ATOM     23  H   UNL     1      30.697  -6.656   5.818  1.00  0.00     0.293 HD
ENDBRANCH   6  22
BRANCH   8  24
ATOM     24  O   UNL     1      34.290  -8.480   2.900  1.00  0.00    -0.508 OA
ATOM     25  H   UNL     1      33.493  -8.834   2.383  1.00  0.00     0.293 HD
ENDBRANCH   8  24
TORSDOF 5
ENDMDL
MODEL 9
REMARK VINA RESULT:    -3.979      3.381      7.470
REMARK INTER + INTRA:          -4.961
REMARK INTER:                  -4.662
REMARK INTRA:                  -0.300
REMARK UNBOUND:                -0.285
REMARK SMILES O=c1c(O)c(-c2ccc(O)cc2)oc2cc(O)cc(O)c12
REMARK SMILES IDX 5 1 3 2 2 3 1 4 21 5 19 6 18 7 16 8 15 9 14 10 13 11 6 12
REMARK SMILES IDX 7 13 8 14 9 15 12 16 11 17 10 18 4 20 20 22 17 24
REMARK H PARENT 10 19 4 21 20 23 17 25
REMARK Flexibility Score: inf
ROOT
ATOM      1  C   UNL     1      35.091  -5.523   4.192  1.00  0.00     0.180 A 
ATOM      2  C   UNL     1      35.239  -5.189   5.549  1.00  0.00     0.208 A 
ATOM      3  C   UNL     1      36.003  -4.063   5.895  1.00  0.00     0.238 A 
ATOM      4  O   UNL     1      36.086  -3.737   7.108  1.00  0.00    -0.285 OA
ATOM      5  C   UNL     1      36.624  -3.295   4.880  1.00  0.00     0.111 A 
ATOM      6  C   UNL     1      37.453  -2.157   5.118  1.00  0.00     0.134 A 
ATOM      7  C   UNL     1      37.908  -1.396   4.034  1.00  0.00     0.093 A 
ATOM      8  C   UNL     1      37.620  -1.767   2.722  1.00  0.00     0.123 A 
ATOM      9  C   UNL     1      36.859  -2.911   2.476  1.00  0.00     0.094 A 
ATOM     10  C   UNL     1      36.360  -3.670   3.537  1.00  0.00     0.146 A 
ATOM     11  O   UNL     1      35.632  -4.745   3.261  1.00  0.00    -0.452 OA
ENDROOT
BRANCH   1  12
ATOM     12  C   UNL     1      34.323  -6.710   3.751  1.00  0.00     0.021 A 
ATOM     13  C   UNL     1      34.930  -7.973   3.630  1.00  0.00     0.016 A 
ATOM     14  C   UNL     1      34.189  -9.073   3.189  1.00  0.00     0.047 A 
ATOM     15  C   UNL     1      32.838  -8.923   2.851  1.00  0.00     0.115 A 
ATOM     16  C   UNL     1      32.973  -6.564   3.391  1.00  0.00     0.016 A 
ATOM     17  C   UNL     1      32.235  -7.666   2.951  1.00  0.00     0.047 A 
BRANCH  15  18
ATOM     18  O   UNL     1      32.090 -10.013   2.411  1.00  0.00    -0.508 OA
ATOM     19  H   UNL     1      32.316 -10.499   1.551  1.00  0.00     0.293 HD
ENDBRANCH  15  18
ENDBRANCH   1  12
BRANCH   2  20
ATOM     20  O   UNL     1      34.599  -5.947   6.534  1.00  0.00    -0.502 OA
ATOM     21  H   UNL     1      34.294  -6.900   6.375  1.00  0.00     0.293 HD
ENDBRANCH   2  20
BRANCH   6  22
ATOM     22  O   UNL     1      37.879  -1.753   6.387  1.00  0.00    -0.507 OA
ATOM     23  H   UNL     1      38.753  -1.288   6.579  1.00  0.00     0.293 HD
ENDBRANCH   6  22
BRANCH   8  24
ATOM     24  O   UNL     1      38.102  -0.995   1.667  1.00  0.00    -0.508 OA
ATOM     25  H   UNL     1      37.588  -0.903   0.799  1.00  0.00     0.293 HD
ENDBRANCH   8  24
TORSDOF 5
ENDMDL
