MODEL 1
REMARK VINA RESULT:    -4.536      0.000      0.000
REMARK INTER + INTRA:          -6.838
REMARK INTER:                  -6.923
REMARK INTRA:                   0.085
REMARK UNBOUND:                 0.085
REMARK SMILES CC1=CCC[C@H](C)C(=O)C[C@@H](C(C)C)C(=O)C1
REMARK SMILES IDX 8 1 9 2 6 3 7 4 5 5 4 6 3 7 2 8 1 9 10 11 11 12 15 13 16 14
REMARK SMILES IDX 17 15 12 17 13 18 14 19
REMARK H PARENT
REMARK Flexibility Score: 70.00
ROOT
ATOM      1  C   UNL     1       1.124  14.496  46.222  1.00  0.00     0.136 C 
ATOM      2  O   UNL     1       1.542  14.713  45.093  1.00  0.00    -0.299 OA
ENDROOT
BRANCH   1   3
ATOM      3  C   UNL     1      -0.271  14.943  46.602  1.00  0.00     0.053 C 
ATOM      4  C   UNL     1      -0.294  16.426  46.985  1.00  0.00     0.016 C 
BRANCH   3   5
ATOM      5  C   UNL     1      -1.232  14.643  45.426  1.00  0.00     0.015 C 
BRANCH   5   6
ATOM      6  C   UNL     1      -1.293  13.173  44.963  1.00  0.00     0.028 C 
BRANCH   6   7
ATOM      7  C   UNL     1      -1.644  12.135  46.007  1.00  0.00    -0.028 C 
ATOM      8  C   UNL     1      -0.918  11.042  46.346  1.00  0.00    -0.070 CG0
ATOM      9  C   UNL     1      -1.525  10.079  47.337  1.00  0.00     0.039 C 
ATOM     10  G   UNL     1       0.495  10.771  45.859  1.00  0.00     0.000 G0
ENDBRANCH   6   7
ENDBRANCH   5   6
ENDBRANCH   3   5
ENDBRANCH   1   3
BRANCH   1  11
ATOM     11  C   UNL     1       1.985  13.720  47.191  1.00  0.00     0.087 C 
BRANCH  11  12
ATOM     12  C   UNL     1       2.490  12.373  46.593  1.00  0.00     0.066 C 
BRANCH  12  13
ATOM     13  C   UNL     1       1.510  11.242  46.882  1.00  0.00     0.140 C 
ATOM     14  O   UNL     1       1.557  10.675  47.964  1.00  0.00    -0.299 OA
BRANCH  13  15
ATOM     15  C   UNL     1       0.499  10.772  45.856  1.00  0.00     0.106 CG0
ATOM     16  G   UNL     1      -0.919  11.042  46.333  1.00  0.00     0.000 G0
ENDBRANCH  13  15
ENDBRANCH  12  13
BRANCH  12  17
ATOM     17  C   UNL     1       3.928  11.982  47.065  1.00  0.00    -0.006 C 
ATOM     18  C   UNL     1       4.874  13.181  47.261  1.00  0.00     0.008 C 
ATOM     19  C   UNL     1       4.574  10.953  46.121  1.00  0.00     0.008 C 
ENDBRANCH  12  17
ENDBRANCH  11  12
ENDBRANCH   1  11
TORSDOF 1
ENDMDL
MODEL 2
REMARK VINA RESULT:    -4.440      1.783      3.656
REMARK INTER + INTRA:          -6.692
REMARK INTER:                  -7.059
REMARK INTRA:                   0.367
REMARK UNBOUND:                 0.085
REMARK SMILES CC1=CCC[C@H](C)C(=O)C[C@@H](C(C)C)C(=O)C1
REMARK SMILES IDX 8 1 9 2 6 3 7 4 5 5 4 6 3 7 2 8 1 9 10 11 11 12 15 13 16 14
REMARK SMILES IDX 17 15 12 17 13 18 14 19
REMARK H PARENT
REMARK Flexibility Score: 70.00
ROOT
ATOM      1  C   UNL     1      -0.420  11.165  46.114  1.00  0.00     0.136 C 
ATOM      2  O   UNL     1      -0.485  10.425  47.085  1.00  0.00    -0.299 OA
ENDROOT
BRANCH   1   3
ATOM      3  C   UNL     1      -1.692  11.659  45.463  1.00  0.00     0.053 C 
ATOM      4  C   UNL     1      -2.849  11.704  46.467  1.00  0.00     0.016 C 
BRANCH   3   5
ATOM      5  C   UNL     1      -1.429  13.049  44.836  1.00  0.00     0.015 C 
BRANCH   5   6
ATOM      6  C   UNL     1      -2.210  14.226  45.452  1.00  0.00     0.028 C 
BRANCH   6   7
ATOM      7  C   UNL     1      -1.493  15.060  46.493  1.00  0.00    -0.028 C 
ATOM      8  C   UNL     1      -0.154  15.185  46.656  1.00  0.00    -0.070 CG0
ATOM      9  C   UNL     1       0.335  15.982  47.840  1.00  0.00     0.039 C 
ATOM     10  G   UNL     1       0.879  14.647  45.679  1.00  0.00     0.000 G0
ENDBRANCH   6   7
ENDBRANCH   5   6
ENDBRANCH   3   5
ENDBRANCH   1   3
BRANCH   1  11
ATOM     11  C   UNL     1       0.935  11.628  45.630  1.00  0.00     0.087 C 
BRANCH  11  12
ATOM     12  C   UNL     1       1.741  12.372  46.736  1.00  0.00     0.066 C 
BRANCH  12  13
ATOM     13  C   UNL     1       1.952  13.836  46.371  1.00  0.00     0.140 C 
ATOM     14  O   UNL     1       3.004  14.380  46.674  1.00  0.00    -0.299 OA
BRANCH  13  15
ATOM     15  C   UNL     1       0.884  14.654  45.673  1.00  0.00     0.106 CG0
ATOM     16  G   UNL     1      -0.134  15.178  46.673  1.00  0.00     0.000 G0
ENDBRANCH  13  15
ENDBRANCH  12  13
BRANCH  12  17
ATOM     17  C   UNL     1       3.107  11.693  47.075  1.00  0.00    -0.006 C 
ATOM     18  C   UNL     1       3.476  10.522  46.145  1.00  0.00     0.008 C 
ATOM     19  C   UNL     1       3.162  11.234  48.542  1.00  0.00     0.008 C 
ENDBRANCH  12  17
ENDBRANCH  11  12
ENDBRANCH   1  11
TORSDOF 1
ENDMDL
MODEL 3
REMARK VINA RESULT:    -4.425      1.639      4.254
REMARK INTER + INTRA:          -6.668
REMARK INTER:                  -6.759
REMARK INTRA:                   0.091
REMARK UNBOUND:                 0.085
REMARK SMILES CC1=CCC[C@H](C)C(=O)C[C@@H](C(C)C)C(=O)C1
REMARK SMILES IDX 8 1 9 2 6 3 7 4 5 5 4 6 3 7 2 8 1 9 10 11 11 12 15 13 16 14
REMARK SMILES IDX 17 15 12 17 13 18 14 19
REMARK H PARENT
REMARK Flexibility Score: 70.00
ROOT
ATOM      1  C   UNL     1       1.629  14.470  46.584  1.00  0.00     0.136 C 
ATOM      2  O   UNL     1       1.439  15.167  47.571  1.00  0.00    -0.299 OA
ENDROOT
BRANCH   1   3
ATOM      3  C   UNL     1       2.804  13.518  46.555  1.00  0.00     0.053 C 
ATOM      4  C   UNL     1       4.095  14.214  47.000  1.00  0.00     0.016 C 
BRANCH   3   5
ATOM      5  C   UNL     1       2.481  12.295  47.447  1.00  0.00     0.015 C 
BRANCH   5   6
ATOM      6  C   UNL     1       2.041  11.017  46.705  1.00  0.00     0.028 C 
BRANCH   6   7
ATOM      7  C   UNL     1       0.652  10.491  47.001  1.00  0.00    -0.028 C 
ATOM      8  C   UNL     1      -0.513  10.915  46.455  1.00  0.00    -0.070 CG0
ATOM      9  C   UNL     1      -1.793  10.322  46.991  1.00  0.00     0.039 C 
ATOM     10  G   UNL     1      -0.607  11.881  45.286  1.00  0.00     0.000 G0
ENDBRANCH   6   7
ENDBRANCH   5   6
ENDBRANCH   3   5
ENDBRANCH   1   3
BRANCH   1  11
ATOM     11  C   UNL     1       0.640  14.524  45.442  1.00  0.00     0.087 C 
BRANCH  11  12
ATOM     12  C   UNL     1      -0.838  14.448  45.929  1.00  0.00     0.066 C 
BRANCH  12  13
ATOM     13  C   UNL     1      -1.449  13.087  45.617  1.00  0.00     0.140 C 
ATOM     14  O   UNL     1      -2.663  12.954  45.666  1.00  0.00    -0.299 OA
BRANCH  13  15
ATOM     15  C   UNL     1      -0.597  11.880  45.280  1.00  0.00     0.106 CG0
ATOM     16  G   UNL     1      -0.523  10.925  46.461  1.00  0.00     0.000 G0
ENDBRANCH  13  15
ENDBRANCH  12  13
BRANCH  12  17
ATOM     17  C   UNL     1      -1.740  15.592  45.365  1.00  0.00    -0.006 C 
ATOM     18  C   UNL     1      -1.036  16.501  44.340  1.00  0.00     0.008 C 
ATOM     19  C   UNL     1      -2.344  16.445  46.493  1.00  0.00     0.008 C 
ENDBRANCH  12  17
ENDBRANCH  11  12
ENDBRANCH   1  11
TORSDOF 1
ENDMDL
MODEL 4
REMARK VINA RESULT:    -3.781      1.829      4.462
REMARK INTER + INTRA:          -5.685
REMARK INTER:                  -5.520
REMARK INTRA:                  -0.166
REMARK UNBOUND:                 0.085
REMARK SMILES CC1=CCC[C@H](C)C(=O)C[C@@H](C(C)C)C(=O)C1
REMARK SMILES IDX 8 1 9 2 6 3 7 4 5 5 4 6 3 7 2 8 1 9 10 11 11 12 15 13 16 14
REMARK SMILES IDX 17 15 12 17 13 18 14 19
REMARK H PARENT
REMARK Flexibility Score: 70.00
ROOT
ATOM      1  C   UNL     1       3.540  14.222  46.935  1.00  0.00     0.136 C 
ATOM      2  O   UNL     1       3.523  15.176  47.701  1.00  0.00    -0.299 OA
ENDROOT
BRANCH   1   3
ATOM      3  C   UNL     1       4.665  13.215  47.018  1.00  0.00     0.053 C 
ATOM      4  C   UNL     1       6.032  13.908  47.021  1.00  0.00     0.016 C 
BRANCH   3   5
ATOM      5  C   UNL     1       4.466  12.343  48.282  1.00  0.00     0.015 C 
BRANCH   5   6
ATOM      6  C   UNL     1       3.949  10.911  48.039  1.00  0.00     0.028 C 
BRANCH   6   7
ATOM      7  C   UNL     1       3.548  10.554  46.623  1.00  0.00    -0.028 C 
ATOM      8  C   UNL     1       2.291  10.512  46.119  1.00  0.00    -0.070 CG0
ATOM      9  C   UNL     1       2.121  10.013  44.705  1.00  0.00     0.039 C 
ATOM     10  G   UNL     1       1.058  11.012  46.854  1.00  0.00     0.000 G0
ENDBRANCH   6   7
ENDBRANCH   5   6
ENDBRANCH   3   5
ENDBRANCH   1   3
BRANCH   1  11
ATOM     11  C   UNL     1       2.393  14.032  45.969  1.00  0.00     0.087 C 
BRANCH  11  12
ATOM     12  C   UNL     1       1.059  13.675  46.691  1.00  0.00     0.066 C 
BRANCH  12  13
ATOM     13  C   UNL     1       0.543  12.311  46.247  1.00  0.00     0.140 C 
ATOM     14  O   UNL     1      -0.332  12.254  45.395  1.00  0.00    -0.299 OA
BRANCH  13  15
ATOM     15  C   UNL     1       1.055  11.020  46.854  1.00  0.00     0.106 CG0
ATOM     16  G   UNL     1       2.277  10.519  46.103  1.00  0.00     0.000 G0
ENDBRANCH  13  15
ENDBRANCH  12  13
BRANCH  12  17
ATOM     17  C   UNL     1      -0.052  14.760  46.519  1.00  0.00    -0.006 C 
ATOM     18  C   UNL     1      -0.017  15.489  45.163  1.00  0.00     0.008 C 
ATOM     19  C   UNL     1      -0.024  15.785  47.666  1.00  0.00     0.008 C 
ENDBRANCH  12  17
ENDBRANCH  11  12
ENDBRANCH   1  11
TORSDOF 1
ENDMDL
MODEL 5
REMARK VINA RESULT:    -3.452      2.095      4.358
REMARK INTER + INTRA:          -5.183
REMARK INTER:                  -6.597
REMARK INTRA:                   1.414
REMARK UNBOUND:                 0.085
REMARK SMILES CC1=CCC[C@H](C)C(=O)C[C@@H](C(C)C)C(=O)C1
REMARK SMILES IDX 8 1 9 2 6 3 7 4 5 5 4 6 3 7 2 8 1 9 10 11 11 12 15 13 16 14
REMARK SMILES IDX 17 15 12 17 13 18 14 19
REMARK H PARENT
REMARK Flexibility Score: 70.00
ROOT
ATOM      1  C   UNL     1      -2.181  14.872  45.258  1.00  0.00     0.136 C 
ATOM      2  O   UNL     1      -2.978  15.081  46.161  1.00  0.00    -0.299 OA
ENDROOT
BRANCH   1   3
ATOM      3  C   UNL     1      -1.417  16.028  44.651  1.00  0.00     0.053 C 
ATOM      4  C   UNL     1      -2.362  17.012  43.952  1.00  0.00     0.016 C 
BRANCH   3   5
ATOM      5  C   UNL     1      -0.591  16.722  45.760  1.00  0.00     0.015 C 
BRANCH   5   6
ATOM      6  C   UNL     1      -0.384  15.911  47.055  1.00  0.00     0.028 C 
BRANCH   6   7
ATOM      7  C   UNL     1       1.007  15.373  47.316  1.00  0.00    -0.028 C 
ATOM      8  C   UNL     1       1.657  14.418  46.609  1.00  0.00    -0.070 CG0
ATOM      9  C   UNL     1       2.998  13.955  47.126  1.00  0.00     0.039 C 
ATOM     10  G   UNL     1       1.164  13.848  45.289  1.00  0.00     0.000 G0
ENDBRANCH   6   7
ENDBRANCH   5   6
ENDBRANCH   3   5
ENDBRANCH   1   3
BRANCH   1  11
ATOM     11  C   UNL     1      -1.922  13.450  44.818  1.00  0.00     0.087 C 
BRANCH  11  12
ATOM     12  C   UNL     1      -1.117  12.635  45.875  1.00  0.00     0.066 C 
BRANCH  12  13
ATOM     13  C   UNL     1       0.363  12.583  45.517  1.00  0.00     0.140 C 
ATOM     14  O   UNL     1       0.919  11.496  45.441  1.00  0.00    -0.299 OA
BRANCH  13  15
ATOM     15  C   UNL     1       1.180  13.838  45.285  1.00  0.00     0.106 CG0
ATOM     16  G   UNL     1       1.667  14.416  46.604  1.00  0.00     0.000 G0
ENDBRANCH  13  15
ENDBRANCH  12  13
BRANCH  12  17
ATOM     17  C   UNL     1      -1.674  11.194  46.105  1.00  0.00    -0.006 C 
ATOM     18  C   UNL     1      -3.125  11.153  46.620  1.00  0.00     0.008 C 
ATOM     19  C   UNL     1      -0.764  10.378  47.040  1.00  0.00     0.008 C 
ENDBRANCH  12  17
ENDBRANCH  11  12
ENDBRANCH   1  11
TORSDOF 1
ENDMDL
MODEL 6
REMARK VINA RESULT:    -3.247      2.097      4.975
REMARK INTER + INTRA:          -4.871
REMARK INTER:                  -4.836
REMARK INTRA:                  -0.036
REMARK UNBOUND:                 0.085
REMARK SMILES CC1=CCC[C@H](C)C(=O)C[C@@H](C(C)C)C(=O)C1
REMARK SMILES IDX 8 1 9 2 6 3 7 4 5 5 4 6 3 7 2 8 1 9 10 11 11 12 15 13 16 14
REMARK SMILES IDX 17 15 12 17 13 18 14 19
REMARK H PARENT
REMARK Flexibility Score: 70.00
ROOT
ATOM      1  C   UNL     1      -1.881  12.794  45.821  1.00  0.00     0.136 C 
ATOM      2  O   UNL     1      -2.284  12.663  44.673  1.00  0.00    -0.299 OA
ENDROOT
BRANCH   1   3
ATOM      3  C   UNL     1      -1.510  11.571  46.628  1.00  0.00     0.053 C 
ATOM      4  C   UNL     1      -2.722  10.656  46.840  1.00  0.00     0.016 C 
BRANCH   3   5
ATOM      5  C   UNL     1      -0.355  10.828  45.914  1.00  0.00     0.015 C 
BRANCH   5   6
ATOM      6  C   UNL     1       0.832  11.703  45.463  1.00  0.00     0.028 C 
BRANCH   6   7
ATOM      7  C   UNL     1       1.894  12.011  46.497  1.00  0.00    -0.028 C 
ATOM      8  C   UNL     1       2.500  13.204  46.713  1.00  0.00    -0.070 CG0
ATOM      9  C   UNL     1       3.619  13.247  47.725  1.00  0.00     0.039 C 
ATOM     10  G   UNL     1       2.070  14.510  46.066  1.00  0.00     0.000 G0
ENDBRANCH   6   7
ENDBRANCH   5   6
ENDBRANCH   3   5
ENDBRANCH   1   3
BRANCH   1  11
ATOM     11  C   UNL     1      -1.692  14.186  46.381  1.00  0.00     0.087 C 
BRANCH  11  12
ATOM     12  C   UNL     1      -0.524  14.952  45.692  1.00  0.00     0.066 C 
BRANCH  12  13
ATOM     13  C   UNL     1       0.714  14.981  46.579  1.00  0.00     0.140 C 
ATOM     14  O   UNL     1       0.617  15.399  47.724  1.00  0.00    -0.299 OA
BRANCH  13  15
ATOM     15  C   UNL     1       2.074  14.538  46.079  1.00  0.00     0.106 CG0
ATOM     16  G   UNL     1       2.481  13.219  46.716  1.00  0.00     0.000 G0
ENDBRANCH  13  15
ENDBRANCH  12  13
BRANCH  12  17
ATOM     17  C   UNL     1      -0.907  16.400  45.245  1.00  0.00    -0.006 C 
ATOM     18  C   UNL     1      -2.152  16.969  45.952  1.00  0.00     0.008 C 
ATOM     19  C   UNL     1      -1.082  16.494  43.719  1.00  0.00     0.008 C 
ENDBRANCH  12  17
ENDBRANCH  11  12
ENDBRANCH   1  11
TORSDOF 1
ENDMDL
MODEL 7
REMARK VINA RESULT:    -3.242      1.785      5.107
REMARK INTER + INTRA:          -4.863
REMARK INTER:                  -5.786
REMARK INTRA:                   0.923
REMARK UNBOUND:                 0.085
REMARK SMILES CC1=CCC[C@H](C)C(=O)C[C@@H](C(C)C)C(=O)C1
REMARK SMILES IDX 8 1 9 2 6 3 7 4 5 5 4 6 3 7 2 8 1 9 10 11 11 12 15 13 16 14
REMARK SMILES IDX 17 15 12 17 13 18 14 19
REMARK H PARENT
REMARK Flexibility Score: 70.00
ROOT
ATOM      1  C   UNL     1       1.933  10.735  46.185  1.00  0.00     0.136 C 
ATOM      2  O   UNL     1       1.724  10.414  45.023  1.00  0.00    -0.299 OA
ENDROOT
BRANCH   1   3
ATOM      3  C   UNL     1       3.346  10.720  46.723  1.00  0.00     0.053 C 
ATOM      4  C   UNL     1       4.373  10.691  45.586  1.00  0.00     0.016 C 
BRANCH   3   5
ATOM      5  C   UNL     1       3.546  11.951  47.640  1.00  0.00     0.015 C 
BRANCH   5   6
ATOM      6  C   UNL     1       3.555  13.323  46.936  1.00  0.00     0.028 C 
BRANCH   6   7
ATOM      7  C   UNL     1       2.501  14.323  47.360  1.00  0.00    -0.028 C 
ATOM      8  C   UNL     1       1.347  14.615  46.713  1.00  0.00    -0.070 CG0
ATOM      9  C   UNL     1       0.500  15.736  47.264  1.00  0.00     0.039 C 
ATOM     10  G   UNL     1       0.814  13.833  45.523  1.00  0.00     0.000 G0
ENDBRANCH   6   7
ENDBRANCH   5   6
ENDBRANCH   3   5
ENDBRANCH   1   3
BRANCH   1  11
ATOM     11  C   UNL     1       0.778  11.209  47.036  1.00  0.00     0.087 C 
BRANCH  11  12
ATOM     12  C   UNL     1      -0.468  11.603  46.187  1.00  0.00     0.066 C 
BRANCH  12  13
ATOM     13  C   UNL     1      -0.464  13.092  45.864  1.00  0.00     0.140 C 
ATOM     14  O   UNL     1      -1.524  13.702  45.856  1.00  0.00    -0.299 OA
BRANCH  13  15
ATOM     15  C   UNL     1       0.809  13.838  45.519  1.00  0.00     0.106 CG0
ATOM     16  G   UNL     1       1.335  14.596  46.726  1.00  0.00     0.000 G0
ENDBRANCH  13  15
ENDBRANCH  12  13
BRANCH  12  17
ATOM     17  C   UNL     1      -1.824  11.191  46.843  1.00  0.00    -0.006 C 
ATOM     18  C   UNL     1      -1.848   9.752  47.391  1.00  0.00     0.008 C 
ATOM     19  C   UNL     1      -3.006  11.404  45.882  1.00  0.00     0.008 C 
ENDBRANCH  12  17
ENDBRANCH  11  12
ENDBRANCH   1  11
TORSDOF 1
ENDMDL
MODEL 8
REMARK VINA RESULT:    -2.893      2.037      4.794
REMARK INTER + INTRA:          -4.330
REMARK INTER:                  -5.042
REMARK INTRA:                   0.712
REMARK UNBOUND:                 0.085
REMARK SMILES CC1=CCC[C@H](C)C(=O)C[C@@H](C(C)C)C(=O)C1
REMARK SMILES IDX 8 1 9 2 6 3 7 4 5 5 4 6 3 7 2 8 1 9 10 11 11 12 15 13 16 14
REMARK SMILES IDX 17 15 12 17 13 18 14 19
REMARK H PARENT
REMARK Flexibility Score: 70.00
ROOT
ATOM      1  C   UNL     1      -0.104  12.088  45.804  1.00  0.00     0.136 C 
ATOM      2  O   UNL     1      -1.320  12.184  45.889  1.00  0.00    -0.299 OA
ENDROOT
BRANCH   1   3
ATOM      3  C   UNL     1       0.599  10.907  46.432  1.00  0.00     0.053 C 
ATOM      4  C   UNL     1      -0.406   9.899  47.000  1.00  0.00     0.016 C 
BRANCH   3   5
ATOM      5  C   UNL     1       1.526  10.254  45.378  1.00  0.00     0.015 C 
BRANCH   5   6
ATOM      6  C   UNL     1       3.036  10.506  45.558  1.00  0.00     0.028 C 
BRANCH   6   7
ATOM      7  C   UNL     1       3.515  10.855  46.951  1.00  0.00    -0.028 C 
ATOM      8  C   UNL     1       3.788  12.092  47.433  1.00  0.00    -0.070 CG0
ATOM      9  C   UNL     1       4.368  12.189  48.823  1.00  0.00     0.039 C 
ATOM     10  G   UNL     1       3.470  13.384  46.699  1.00  0.00     0.000 G0
ENDBRANCH   6   7
ENDBRANCH   5   6
ENDBRANCH   3   5
ENDBRANCH   1   3
BRANCH   1  11
ATOM     11  C   UNL     1       0.662  13.119  45.006  1.00  0.00     0.087 C 
BRANCH  11  12
ATOM     12  C   UNL     1       1.126  14.324  45.878  1.00  0.00     0.066 C 
BRANCH  12  13
ATOM     13  C   UNL     1       2.064  13.869  46.989  1.00  0.00     0.140 C 
ATOM     14  O   UNL     1       1.677  13.907  48.148  1.00  0.00    -0.299 OA
BRANCH  13  15
ATOM     15  C   UNL     1       3.478  13.402  46.708  1.00  0.00     0.106 CG0
ATOM     16  G   UNL     1       3.769  12.097  47.429  1.00  0.00     0.000 G0
ENDBRANCH  13  15
ENDBRANCH  12  13
BRANCH  12  17
ATOM     17  C   UNL     1      -0.057  15.155  46.470  1.00  0.00    -0.006 C 
ATOM     18  C   UNL     1      -1.038  15.696  45.413  1.00  0.00     0.008 C 
ATOM     19  C   UNL     1       0.448  16.308  47.354  1.00  0.00     0.008 C 
ENDBRANCH  12  17
ENDBRANCH  11  12
ENDBRANCH   1  11
TORSDOF 1
ENDMDL
MODEL 9
REMARK VINA RESULT:    -2.619      1.184      4.126
REMARK INTER + INTRA:          -3.912
REMARK INTER:                  -5.034
REMARK INTRA:                   1.123
REMARK UNBOUND:                 0.085
REMARK SMILES CC1=CCC[C@H](C)C(=O)C[C@@H](C(C)C)C(=O)C1
REMARK SMILES IDX 8 1 9 2 6 3 7 4 5 5 4 6 3 7 2 8 1 9 10 11 11 12 15 13 16 14
REMARK SMILES IDX 17 15 12 17 13 18 14 19
REMARK H PARENT
REMARK Flexibility Score: 70.00
ROOT
ATOM      1  C   UNL     1       2.774  12.284  47.355  1.00  0.00     0.136 C 
ATOM      2  O   UNL     1       2.252  11.804  48.352  1.00  0.00    -0.299 OA
ENDROOT
BRANCH   1   3
ATOM      3  C   UNL     1       3.638  11.413  46.470  1.00  0.00     0.053 C 
ATOM      4  C   UNL     1       4.774  10.764  47.267  1.00  0.00     0.016 C 
BRANCH   3   5
ATOM      5  C   UNL     1       2.744  10.351  45.785  1.00  0.00     0.015 C 
BRANCH   5   6
ATOM      6  C   UNL     1       1.441  10.875  45.149  1.00  0.00     0.028 C 
BRANCH   6   7
ATOM      7  C   UNL     1       0.146  10.547  45.861  1.00  0.00    -0.028 C 
ATOM      8  C   UNL     1      -0.867  11.401  46.143  1.00  0.00    -0.070 CG0
ATOM      9  C   UNL     1      -2.016  10.874  46.969  1.00  0.00     0.039 C 
ATOM     10  G   UNL     1      -0.960  12.822  45.612  1.00  0.00     0.000 G0
ENDBRANCH   6   7
ENDBRANCH   5   6
ENDBRANCH   3   5
ENDBRANCH   1   3
BRANCH   1  11
ATOM     11  C   UNL     1       2.485  13.722  46.991  1.00  0.00     0.087 C 
BRANCH  11  12
ATOM     12  C   UNL     1       0.959  14.035  46.967  1.00  0.00     0.066 C 
BRANCH  12  13
ATOM     13  C   UNL     1       0.324  13.575  45.661  1.00  0.00     0.140 C 
ATOM     14  O   UNL     1       0.884  13.831  44.604  1.00  0.00    -0.299 OA
BRANCH  13  15
ATOM     15  C   UNL     1      -1.000  12.840  45.624  1.00  0.00     0.106 CG0
ATOM     16  G   UNL     1      -0.842  11.416  46.131  1.00  0.00     0.000 G0
ENDBRANCH  13  15
ENDBRANCH  12  13
BRANCH  12  17
ATOM     17  C   UNL     1       0.627  15.539  47.235  1.00  0.00    -0.006 C 
ATOM     18  C   UNL     1      -0.178  15.787  48.524  1.00  0.00     0.008 C 
ATOM     19  C   UNL     1      -0.090  16.183  46.036  1.00  0.00     0.008 C 
ENDBRANCH  12  17
ENDBRANCH  11  12
ENDBRANCH   1  11
TORSDOF 1
ENDMDL
