MODEL 1
REMARK VINA RESULT:    -4.683      0.000      0.000
REMARK INTER + INTRA:          -7.440
REMARK INTER:                  -6.325
REMARK INTRA:                  -1.115
REMARK UNBOUND:                -1.115
REMARK SMILES CC(=O)CCC=C(C)CCC=C(C)C
REMARK SMILES IDX 7 1 6 2 8 3 9 4 10 5 11 6 13 7 12 8 14 9 5 10 4 11 2 12 3 13
REMARK SMILES IDX 1 14
REMARK H PARENT
REMARK Flexibility Score: inf
ROOT
ATOM      1  C   UNL     1      11.085 -12.454 -44.900  1.00  0.00    -0.077 C 
ATOM      2  C   UNL     1      10.195 -12.011 -45.819  1.00  0.00    -0.028 C 
ATOM      3  C   UNL     1      12.263 -13.262 -45.381  1.00  0.00     0.039 C 
ENDROOT
BRANCH   1   4
ATOM      4  C   UNL     1      10.986 -12.117 -43.425  1.00  0.00     0.034 C 
BRANCH   4   5
ATOM      5  C   UNL     1      11.784 -10.846 -43.108  1.00  0.00     0.032 C 
BRANCH   5   6
ATOM      6  C   UNL     1      10.867  -9.683 -42.821  1.00  0.00    -0.028 C 
ATOM      7  C   UNL     1      11.608  -8.476 -44.878  1.00  0.00     0.039 C 
ATOM      8  C   UNL     1      10.779  -8.598 -43.621  1.00  0.00    -0.080 C 
ATOM      9  C   UNL     1       9.830  -7.492 -43.241  1.00  0.00     0.039 C 
ENDBRANCH   5   6
ENDBRANCH   4   5
ENDBRANCH   1   4
BRANCH   2  10
ATOM     10  C   UNL     1       8.949 -11.218 -45.503  1.00  0.00     0.035 C 
BRANCH  10  11
ATOM     11  C   UNL     1       7.892 -11.363 -46.606  1.00  0.00     0.079 C 
BRANCH  11  12
ATOM     12  C   UNL     1       7.454 -12.797 -46.769  1.00  0.00     0.130 C 
ATOM     13  O   UNL     1       7.683 -13.381 -47.818  1.00  0.00    -0.300 OA
ATOM     14  C   UNL     1       6.741 -13.523 -45.668  1.00  0.00     0.087 C 
ENDBRANCH  11  12
ENDBRANCH  10  11
ENDBRANCH   2  10
TORSDOF 6
ENDMDL
MODEL 2
REMARK VINA RESULT:    -4.414      1.522      3.589
REMARK INTER + INTRA:          -7.077
REMARK INTER:                  -6.227
REMARK INTRA:                  -0.850
REMARK UNBOUND:                -1.115
REMARK SMILES CC(=O)CCC=C(C)CCC=C(C)C
REMARK SMILES IDX 7 1 6 2 8 3 9 4 10 5 11 6 13 7 12 8 14 9 5 10 4 11 2 12 3 13
REMARK SMILES IDX 1 14
REMARK H PARENT
REMARK Flexibility Score: inf
ROOT
ATOM      1  C   UNL     1      10.072  -9.043 -44.271  1.00  0.00    -0.077 C 
ATOM      2  C   UNL     1       9.005  -9.600 -44.889  1.00  0.00    -0.028 C 
ATOM      3  C   UNL     1       9.868  -7.753 -43.518  1.00  0.00     0.039 C 
ENDROOT
BRANCH   1   4
ATOM      4  C   UNL     1      11.443  -9.691 -44.245  1.00  0.00     0.034 C 
BRANCH   4   5
ATOM      5  C   UNL     1      11.619 -10.530 -42.974  1.00  0.00     0.032 C 
BRANCH   5   6
ATOM      6  C   UNL     1      11.680 -12.003 -43.295  1.00  0.00    -0.028 C 
ATOM      7  C   UNL     1      14.175 -11.965 -43.412  1.00  0.00     0.039 C 
ATOM      8  C   UNL     1      12.839 -12.666 -43.497  1.00  0.00    -0.080 C 
ATOM      9  C   UNL     1      12.787 -14.138 -43.812  1.00  0.00     0.039 C 
ENDBRANCH   5   6
ENDBRANCH   4   5
ENDBRANCH   1   4
BRANCH   2  10
ATOM     10  C   UNL     1       9.045 -10.869 -45.706  1.00  0.00     0.035 C 
BRANCH  10  11
ATOM     11  C   UNL     1       7.634 -11.415 -45.970  1.00  0.00     0.079 C 
BRANCH  11  12
ATOM     12  C   UNL     1       7.537 -12.883 -45.638  1.00  0.00     0.130 C 
ATOM     13  O   UNL     1       6.487 -13.476 -45.831  1.00  0.00    -0.300 OA
ATOM     14  C   UNL     1       8.707 -13.632 -45.072  1.00  0.00     0.087 C 
ENDBRANCH  11  12
ENDBRANCH  10  11
ENDBRANCH   2  10
TORSDOF 6
ENDMDL
MODEL 3
REMARK VINA RESULT:    -4.355      2.396      4.673
REMARK INTER + INTRA:          -6.998
REMARK INTER:                  -5.654
REMARK INTRA:                  -1.344
REMARK UNBOUND:                -1.115
REMARK SMILES CC(=O)CCC=C(C)CCC=C(C)C
REMARK SMILES IDX 7 1 6 2 8 3 9 4 10 5 11 6 13 7 12 8 14 9 5 10 4 11 2 12 3 13
REMARK SMILES IDX 1 14
REMARK H PARENT
REMARK Flexibility Score: inf
ROOT
ATOM      1  C   UNL     1      12.630 -12.829 -43.680  1.00  0.00    -0.077 C 
ATOM      2  C   UNL     1      12.509 -11.481 -43.663  1.00  0.00    -0.028 C 
ATOM      3  C   UNL     1      13.892 -13.424 -44.250  1.00  0.00     0.039 C 
ENDROOT
BRANCH   1   4
ATOM      4  C   UNL     1      11.588 -13.760 -43.091  1.00  0.00     0.034 C 
BRANCH   4   5
ATOM      5  C   UNL     1      10.824 -14.486 -44.204  1.00  0.00     0.032 C 
BRANCH   5   6
ATOM      6  C   UNL     1       9.516 -13.796 -44.508  1.00  0.00    -0.028 C 
ATOM      7  C   UNL     1      10.373 -12.945 -46.695  1.00  0.00     0.039 C 
ATOM      8  C   UNL     1       9.301 -13.092 -45.640  1.00  0.00    -0.080 C 
ATOM      9  C   UNL     1       7.957 -12.443 -45.845  1.00  0.00     0.039 C 
ENDBRANCH   5   6
ENDBRANCH   4   5
ENDBRANCH   1   4
BRANCH   2  10
ATOM     10  C   UNL     1      11.302 -10.728 -43.155  1.00  0.00     0.035 C 
BRANCH  10  11
ATOM     11  C   UNL     1      10.534 -10.053 -44.300  1.00  0.00     0.079 C 
BRANCH  11  12
ATOM     12  C   UNL     1      10.772  -8.564 -44.325  1.00  0.00     0.130 C 
ATOM     13  O   UNL     1      11.668  -8.109 -45.019  1.00  0.00    -0.300 OA
ATOM     14  C   UNL     1       9.930  -7.628 -43.511  1.00  0.00     0.087 C 
ENDBRANCH  11  12
ENDBRANCH  10  11
ENDBRANCH   2  10
TORSDOF 6
ENDMDL
MODEL 4
REMARK VINA RESULT:    -4.344      4.384      6.313
REMARK INTER + INTRA:          -6.983
REMARK INTER:                  -6.436
REMARK INTRA:                  -0.547
REMARK UNBOUND:                -1.115
REMARK SMILES CC(=O)CCC=C(C)CCC=C(C)C
REMARK SMILES IDX 7 1 6 2 8 3 9 4 10 5 11 6 13 7 12 8 14 9 5 10 4 11 2 12 3 13
REMARK SMILES IDX 1 14
REMARK H PARENT
REMARK Flexibility Score: inf
ROOT
ATOM      1  C   UNL     1      13.166 -12.983 -43.762  1.00  0.00    -0.077 C 
ATOM      2  C   UNL     1      14.466 -12.918 -44.135  1.00  0.00    -0.028 C 
ATOM      3  C   UNL     1      12.431 -14.283 -43.963  1.00  0.00     0.039 C 
ENDROOT
BRANCH   1   4
ATOM      4  C   UNL     1      12.440 -11.832 -43.093  1.00  0.00     0.034 C 
BRANCH   4   5
ATOM      5  C   UNL     1      11.582 -11.072 -44.110  1.00  0.00     0.032 C 
BRANCH   5   6
ATOM      6  C   UNL     1      10.774  -9.986 -43.440  1.00  0.00    -0.028 C 
ATOM      7  C   UNL     1      11.807  -8.215 -44.866  1.00  0.00     0.039 C 
ATOM      8  C   UNL     1      10.870  -8.682 -43.777  1.00  0.00    -0.080 C 
ATOM      9  C   UNL     1      10.017  -7.680 -43.045  1.00  0.00     0.039 C 
ENDBRANCH   5   6
ENDBRANCH   4   5
ENDBRANCH   1   4
BRANCH   2  10
ATOM     10  C   UNL     1      15.335 -11.687 -44.030  1.00  0.00     0.035 C 
BRANCH  10  11
ATOM     11  C   UNL     1      16.266 -11.755 -42.811  1.00  0.00     0.079 C 
BRANCH  11  12
ATOM     12  C   UNL     1      17.659 -12.178 -43.201  1.00  0.00     0.130 C 
ATOM     13  O   UNL     1      18.521 -12.277 -42.341  1.00  0.00    -0.300 OA
ATOM     14  C   UNL     1      18.011 -12.479 -44.627  1.00  0.00     0.087 C 
ENDBRANCH  11  12
ENDBRANCH  10  11
ENDBRANCH   2  10
TORSDOF 6
ENDMDL
MODEL 5
REMARK VINA RESULT:    -4.224     11.859     13.546
REMARK INTER + INTRA:          -6.820
REMARK INTER:                  -5.104
REMARK INTRA:                  -1.716
REMARK UNBOUND:                -1.115
REMARK SMILES CC(=O)CCC=C(C)CCC=C(C)C
REMARK SMILES IDX 7 1 6 2 8 3 9 4 10 5 11 6 13 7 12 8 14 9 5 10 4 11 2 12 3 13
REMARK SMILES IDX 1 14
REMARK H PARENT
REMARK Flexibility Score: inf
ROOT
ATOM      1  C   UNL     1       9.793 -23.437 -36.702  1.00  0.00    -0.077 C 
ATOM      2  C   UNL     1      10.385 -22.980 -37.830  1.00  0.00    -0.028 C 
ATOM      3  C   UNL     1       9.009 -24.722 -36.778  1.00  0.00     0.039 C 
ENDROOT
BRANCH   1   4
ATOM      4  C   UNL     1       9.939 -22.752 -35.358  1.00  0.00     0.034 C 
BRANCH   4   5
ATOM      5  C   UNL     1       8.574 -22.289 -34.837  1.00  0.00     0.032 C 
BRANCH   5   6
ATOM      6  C   UNL     1       8.218 -20.924 -35.374  1.00  0.00    -0.028 C 
ATOM      7  C   UNL     1       6.386 -21.861 -36.789  1.00  0.00     0.039 C 
ATOM      8  C   UNL     1       7.223 -20.719 -36.264  1.00  0.00    -0.080 C 
ATOM      9  C   UNL     1       6.952 -19.314 -36.735  1.00  0.00     0.039 C 
ENDBRANCH   5   6
ENDBRANCH   4   5
ENDBRANCH   1   4
BRANCH   2  10
ATOM     10  C   UNL     1      11.178 -21.699 -37.933  1.00  0.00     0.035 C 
BRANCH  10  11
ATOM     11  C   UNL     1      10.310 -20.536 -38.431  1.00  0.00     0.079 C 
BRANCH  11  12
ATOM     12  C   UNL     1      10.642 -19.251 -37.715  1.00  0.00     0.130 C 
ATOM     13  O   UNL     1      10.202 -18.194 -38.141  1.00  0.00    -0.300 OA
ATOM     14  C   UNL     1      11.505 -19.243 -36.488  1.00  0.00     0.087 C 
ENDBRANCH  11  12
ENDBRANCH  10  11
ENDBRANCH   2  10
TORSDOF 6
ENDMDL
MODEL 6
REMARK VINA RESULT:    -4.218      2.227      3.667
REMARK INTER + INTRA:          -6.812
REMARK INTER:                  -6.312
REMARK INTRA:                  -0.500
REMARK UNBOUND:                -1.115
REMARK SMILES CC(=O)CCC=C(C)CCC=C(C)C
REMARK SMILES IDX 7 1 6 2 8 3 9 4 10 5 11 6 13 7 12 8 14 9 5 10 4 11 2 12 3 13
REMARK SMILES IDX 1 14
REMARK H PARENT
REMARK Flexibility Score: inf
ROOT
ATOM      1  C   UNL     1      11.168 -10.090 -44.256  1.00  0.00    -0.077 C 
ATOM      2  C   UNL     1      10.085 -10.243 -45.051  1.00  0.00    -0.028 C 
ATOM      3  C   UNL     1      11.913  -8.780 -44.310  1.00  0.00     0.039 C 
ENDROOT
BRANCH   1   4
ATOM      4  C   UNL     1      11.624 -11.146 -43.268  1.00  0.00     0.034 C 
BRANCH   4   5
ATOM      5  C   UNL     1      12.732 -12.012 -43.878  1.00  0.00     0.032 C 
BRANCH   5   6
ATOM      6  C   UNL     1      14.044 -11.806 -43.161  1.00  0.00    -0.028 C 
ATOM      7  C   UNL     1      15.350 -12.578 -45.146  1.00  0.00     0.039 C 
ATOM      8  C   UNL     1      15.242 -12.061 -43.730  1.00  0.00    -0.080 C 
ATOM      9  C   UNL     1      16.492 -11.819 -42.925  1.00  0.00     0.039 C 
ENDBRANCH   5   6
ENDBRANCH   4   5
ENDBRANCH   1   4
BRANCH   2  10
ATOM     10  C   UNL     1       9.247 -11.497 -45.140  1.00  0.00     0.035 C 
BRANCH  10  11
ATOM     11  C   UNL     1       7.937 -11.249 -45.899  1.00  0.00     0.079 C 
BRANCH  11  12
ATOM     12  C   UNL     1       7.260 -12.543 -46.274  1.00  0.00     0.130 C 
ATOM     13  O   UNL     1       6.295 -12.926 -45.630  1.00  0.00    -0.300 OA
ATOM     14  C   UNL     1       7.748 -13.372 -47.424  1.00  0.00     0.087 C 
ENDBRANCH  11  12
ENDBRANCH  10  11
ENDBRANCH   2  10
TORSDOF 6
ENDMDL
MODEL 7
REMARK VINA RESULT:    -4.214      2.575      5.173
REMARK INTER + INTRA:          -6.808
REMARK INTER:                  -5.762
REMARK INTRA:                  -1.046
REMARK UNBOUND:                -1.115
REMARK SMILES CC(=O)CCC=C(C)CCC=C(C)C
REMARK SMILES IDX 7 1 6 2 8 3 9 4 10 5 11 6 13 7 12 8 14 9 5 10 4 11 2 12 3 13
REMARK SMILES IDX 1 14
REMARK H PARENT
REMARK Flexibility Score: inf
ROOT
ATOM      1  C   UNL     1       8.952 -11.346 -45.731  1.00  0.00    -0.077 C 
ATOM      2  C   UNL     1       9.224 -10.244 -44.993  1.00  0.00    -0.028 C 
ATOM      3  C   UNL     1       7.516 -11.789 -45.848  1.00  0.00     0.039 C 
ENDROOT
BRANCH   1   4
ATOM      4  C   UNL     1      10.014 -12.110 -46.496  1.00  0.00     0.034 C 
BRANCH   4   5
ATOM      5  C   UNL     1      10.563 -13.264 -45.651  1.00  0.00     0.032 C 
BRANCH   5   6
ATOM      6  C   UNL     1      12.005 -13.028 -45.274  1.00  0.00    -0.028 C 
ATOM      7  C   UNL     1      11.483 -13.162 -42.835  1.00  0.00     0.039 C 
ATOM      8  C   UNL     1      12.435 -12.980 -43.995  1.00  0.00    -0.080 C 
ATOM      9  C   UNL     1      13.897 -12.738 -43.730  1.00  0.00     0.039 C 
ENDBRANCH   5   6
ENDBRANCH   4   5
ENDBRANCH   1   4
BRANCH   2  10
ATOM     10  C   UNL     1      10.606  -9.686 -44.751  1.00  0.00     0.035 C 
BRANCH  10  11
ATOM     11  C   UNL     1      10.947  -9.650 -43.254  1.00  0.00     0.079 C 
BRANCH  11  12
ATOM     12  C   UNL     1      10.418  -8.402 -42.595  1.00  0.00     0.130 C 
ATOM     13  O   UNL     1      10.472  -8.294 -41.379  1.00  0.00    -0.300 OA
ATOM     14  C   UNL     1       9.822  -7.287 -43.402  1.00  0.00     0.087 C 
ENDBRANCH  11  12
ENDBRANCH  10  11
ENDBRANCH   2  10
TORSDOF 6
ENDMDL
MODEL 8
REMARK VINA RESULT:    -4.150      2.112      3.290
REMARK INTER + INTRA:          -6.721
REMARK INTER:                  -5.671
REMARK INTRA:                  -1.050
REMARK UNBOUND:                -1.115
REMARK SMILES CC(=O)CCC=C(C)CCC=C(C)C
REMARK SMILES IDX 7 1 6 2 8 3 9 4 10 5 11 6 13 7 12 8 14 9 5 10 4 11 2 12 3 13
REMARK SMILES IDX 1 14
REMARK H PARENT
REMARK Flexibility Score: inf
ROOT
ATOM      1  C   UNL     1      13.951 -12.383 -43.551  1.00  0.00    -0.077 C 
ATOM      2  C   UNL     1      13.859 -13.700 -43.846  1.00  0.00    -0.028 C 
ATOM      3  C   UNL     1      15.296 -11.715 -43.680  1.00  0.00     0.039 C 
ENDROOT
BRANCH   1   4
ATOM      4  C   UNL     1      12.753 -11.538 -43.163  1.00  0.00     0.034 C 
BRANCH   4   5
ATOM      5  C   UNL     1      12.296 -10.676 -44.346  1.00  0.00     0.032 C 
BRANCH   5   6
ATOM      6  C   UNL     1      11.652  -9.396 -43.872  1.00  0.00    -0.028 C 
ATOM      7  C   UNL     1       9.468 -10.001 -44.923  1.00  0.00     0.039 C 
ATOM      8  C   UNL     1      10.365  -9.079 -44.130  1.00  0.00    -0.080 C 
ATOM      9  C   UNL     1       9.822  -7.774 -43.609  1.00  0.00     0.039 C 
ENDBRANCH   5   6
ENDBRANCH   4   5
ENDBRANCH   1   4
BRANCH   2  10
ATOM     10  C   UNL     1      12.597 -14.524 -43.741  1.00  0.00     0.035 C 
BRANCH  10  11
ATOM     11  C   UNL     1      11.895 -14.658 -45.099  1.00  0.00     0.079 C 
BRANCH  11  12
ATOM     12  C   UNL     1      10.637 -13.829 -45.157  1.00  0.00     0.130 C 
ATOM     13  O   UNL     1      10.345 -13.248 -46.191  1.00  0.00    -0.300 OA
ATOM     14  C   UNL     1       9.733 -13.702 -43.966  1.00  0.00     0.087 C 
ENDBRANCH  11  12
ENDBRANCH  10  11
ENDBRANCH   2  10
TORSDOF 6
ENDMDL
MODEL 9
REMARK VINA RESULT:    -4.148     11.707     13.177
REMARK INTER + INTRA:          -6.718
REMARK INTER:                  -4.987
REMARK INTRA:                  -1.731
REMARK UNBOUND:                -1.115
REMARK SMILES CC(=O)CCC=C(C)CCC=C(C)C
REMARK SMILES IDX 7 1 6 2 8 3 9 4 10 5 11 6 13 7 12 8 14 9 5 10 4 11 2 12 3 13
REMARK SMILES IDX 1 14
REMARK H PARENT
REMARK Flexibility Score: inf
ROOT
ATOM      1  C   UNL     1       8.192 -23.185 -36.513  1.00  0.00    -0.077 C 
ATOM      2  C   UNL     1       7.483 -22.736 -37.575  1.00  0.00    -0.028 C 
ATOM      3  C   UNL     1       8.999 -24.447 -36.677  1.00  0.00     0.039 C 
ENDROOT
BRANCH   1   4
ATOM      4  C   UNL     1       8.264 -22.441 -35.194  1.00  0.00     0.034 C 
BRANCH   4   5
ATOM      5  C   UNL     1       9.688 -21.936 -34.936  1.00  0.00     0.032 C 
BRANCH   5   6
ATOM      6  C   UNL     1       9.932 -20.615 -35.624  1.00  0.00    -0.028 C 
ATOM      7  C   UNL     1      11.502 -21.658 -37.263  1.00  0.00     0.039 C 
ATOM      8  C   UNL     1      10.756 -20.478 -36.685  1.00  0.00    -0.080 C 
ATOM      9  C   UNL     1      10.928 -19.113 -37.297  1.00  0.00     0.039 C 
ENDBRANCH   5   6
ENDBRANCH   4   5
ENDBRANCH   1   4
BRANCH   2  10
ATOM     10  C   UNL     1       6.603 -21.509 -37.570  1.00  0.00     0.035 C 
BRANCH  10  11
ATOM     11  C   UNL     1       7.316 -20.299 -38.191  1.00  0.00     0.079 C 
BRANCH  11  12
ATOM     12  C   UNL     1       7.034 -19.034 -37.421  1.00  0.00     0.130 C 
ATOM     13  O   UNL     1       7.135 -17.953 -37.980  1.00  0.00    -0.300 OA
ATOM     14  C   UNL     1       6.632 -19.075 -35.976  1.00  0.00     0.087 C 
ENDBRANCH  11  12
ENDBRANCH  10  11
ENDBRANCH   2  10
TORSDOF 6
ENDMDL
