MODEL 1
REMARK VINA RESULT:    -7.325      0.000      0.000
REMARK INTER + INTRA:          -7.967
REMARK INTER:                  -7.967
REMARK INTRA:                   0.000
REMARK UNBOUND:                 0.000
REMARK SMILES Cc1cc(O)c2c(c1)C(=O)c1cc(O)cc(O)c1C2=O
REMARK SMILES IDX 1 1 2 2 8 3 7 4 6 5 4 6 3 7 19 8 20 9 18 10 11 11 9 12 10 13
REMARK SMILES IDX 12 14 13 15 15 16 16 17 5 18 17 20 14 22
REMARK H PARENT 5 19 17 21 14 23
REMARK Flexibility Score: inf
ROOT
ATOM      1  C   UNL     1       9.402  94.378  30.331  1.00  0.00     0.044 C 
ATOM      2  C   UNL     1       9.740  95.263  29.167  1.00  0.00    -0.047 A 
ATOM      3  C   UNL     1      10.630  96.329  29.329  1.00  0.00     0.016 A 
ATOM      4  C   UNL     1      10.931  97.180  28.253  1.00  0.00     0.038 A 
ATOM      5  C   UNL     1      10.330  96.961  26.993  1.00  0.00     0.076 A 
ATOM      6  C   UNL     1       9.365  95.931  26.858  1.00  0.00     0.127 A 
ATOM      7  C   UNL     1       9.097  95.084  27.938  1.00  0.00     0.050 A 
ATOM      8  C   UNL     1      10.784  97.788  25.845  1.00  0.00     0.201 C 
ATOM      9  O   UNL     1      10.752  97.311  24.679  1.00  0.00    -0.288 OA
ATOM     10  C   UNL     1      11.446  99.094  26.092  1.00  0.00     0.076 A 
ATOM     11  C   UNL     1      12.044  99.312  27.354  1.00  0.00     0.041 A 
ATOM     12  C   UNL     1      11.870  98.313  28.435  1.00  0.00     0.194 C 
ATOM     13  O   UNL     1      12.503  98.440  29.519  1.00  0.00    -0.289 OA
ATOM     14  C   UNL     1      12.796 100.477  27.580  1.00  0.00     0.059 A 
ATOM     15  C   UNL     1      12.947 101.430  26.574  1.00  0.00     0.120 A 
ATOM     16  C   UNL     1      12.324 101.239  25.337  1.00  0.00     0.093 A 
ATOM     17  C   UNL     1      11.553 100.098  25.094  1.00  0.00     0.131 A 
ENDROOT
BRANCH   6  18
ATOM     18  O   UNL     1       8.625  95.738  25.688  1.00  0.00    -0.507 OA
ATOM     19  H   UNL     1       9.040  95.490  24.800  1.00  0.00     0.293 HD
ENDBRANCH   6  18
BRANCH  17  20
ATOM     20  O   UNL     1      10.886 100.021  23.869  1.00  0.00    -0.507 OA
ATOM     21  H   UNL     1      10.594  99.150  23.445  1.00  0.00     0.293 HD
ENDBRANCH  17  20
BRANCH  15  22
ATOM     22  O   UNL     1      13.708 102.572  26.816  1.00  0.00    -0.508 OA
ATOM     23  H   UNL     1      13.278 103.450  27.082  1.00  0.00     0.293 HD
ENDBRANCH  15  22
TORSDOF 3
ENDMDL
MODEL 2
REMARK VINA RESULT:    -7.269      2.505      5.103
REMARK INTER + INTRA:          -7.906
REMARK INTER:                  -7.906
REMARK INTRA:                   0.000
REMARK UNBOUND:                 0.000
REMARK SMILES Cc1cc(O)c2c(c1)C(=O)c1cc(O)cc(O)c1C2=O
REMARK SMILES IDX 1 1 2 2 8 3 7 4 6 5 4 6 3 7 19 8 20 9 18 10 11 11 9 12 10 13
REMARK SMILES IDX 12 14 13 15 15 16 16 17 5 18 17 20 14 22
REMARK H PARENT 5 19 17 21 14 23
REMARK Flexibility Score: inf
ROOT
ATOM      1  C   UNL     1      15.903  97.341  28.550  1.00  0.00     0.044 C 
ATOM      2  C   UNL     1      14.852  97.898  27.635  1.00  0.00    -0.047 A 
ATOM      3  C   UNL     1      13.617  97.253  27.506  1.00  0.00     0.016 A 
ATOM      4  C   UNL     1      12.638  97.750  26.631  1.00  0.00     0.038 A 
ATOM      5  C   UNL     1      12.897  98.914  25.872  1.00  0.00     0.076 A 
ATOM      6  C   UNL     1      14.180  99.514  25.945  1.00  0.00     0.127 A 
ATOM      7  C   UNL     1      15.132  99.013  26.838  1.00  0.00     0.050 A 
ATOM      8  C   UNL     1      11.787  99.493  25.071  1.00  0.00     0.201 C 
ATOM      9  O   UNL     1      11.748 100.735  24.863  1.00  0.00    -0.288 OA
ATOM     10  C   UNL     1      10.636  98.639  24.682  1.00  0.00     0.076 A 
ATOM     11  C   UNL     1      10.380  97.475  25.441  1.00  0.00     0.041 A 
ATOM     12  C   UNL     1      11.335  97.055  26.493  1.00  0.00     0.194 C 
ATOM     13  O   UNL     1      11.050  96.091  27.256  1.00  0.00    -0.289 OA
ATOM     14  C   UNL     1       9.223  96.718  25.191  1.00  0.00     0.059 A 
ATOM     15  C   UNL     1       8.330  97.096  24.189  1.00  0.00     0.120 A 
ATOM     16  C   UNL     1       8.599  98.224  23.409  1.00  0.00     0.093 A 
ATOM     17  C   UNL     1       9.753  98.983  23.624  1.00  0.00     0.131 A 
ENDROOT
BRANCH   6  18
ATOM     18  O   UNL     1      14.563 100.581  25.127  1.00  0.00    -0.507 OA
ATOM     19  H   UNL     1      14.833 100.472  24.159  1.00  0.00     0.293 HD
ENDBRANCH   6  18
BRANCH  17  20
ATOM     20  O   UNL     1      10.001 100.041  22.746  1.00  0.00    -0.507 OA
ATOM     21  H   UNL     1       9.436 100.235  21.931  1.00  0.00     0.293 HD
ENDBRANCH  17  20
BRANCH  15  22
ATOM     22  O   UNL     1       7.183  96.337  23.968  1.00  0.00    -0.508 OA
ATOM     23  H   UNL     1       7.214  95.469  23.447  1.00  0.00     0.293 HD
ENDBRANCH  15  22
TORSDOF 3
ENDMDL
MODEL 3
REMARK VINA RESULT:    -7.219      2.223      3.957
REMARK INTER + INTRA:          -7.852
REMARK INTER:                  -7.852
REMARK INTRA:                   0.000
REMARK UNBOUND:                 0.000
REMARK SMILES Cc1cc(O)c2c(c1)C(=O)c1cc(O)cc(O)c1C2=O
REMARK SMILES IDX 1 1 2 2 8 3 7 4 6 5 4 6 3 7 19 8 20 9 18 10 11 11 9 12 10 13
REMARK SMILES IDX 12 14 13 15 15 16 16 17 5 18 17 20 14 22
REMARK H PARENT 5 19 17 21 14 23
REMARK Flexibility Score: inf
ROOT
ATOM      1  C   UNL     1      13.610  97.230  29.975  1.00  0.00     0.044 C 
ATOM      2  C   UNL     1      12.591  96.988  28.901  1.00  0.00    -0.047 A 
ATOM      3  C   UNL     1      12.540  97.822  27.779  1.00  0.00     0.016 A 
ATOM      4  C   UNL     1      11.571  97.622  26.781  1.00  0.00     0.038 A 
ATOM      5  C   UNL     1      10.638  96.568  26.909  1.00  0.00     0.076 A 
ATOM      6  C   UNL     1      10.642  95.780  28.088  1.00  0.00     0.127 A 
ATOM      7  C   UNL     1      11.628  95.986  29.058  1.00  0.00     0.050 A 
ATOM      8  C   UNL     1       9.726  96.295  25.767  1.00  0.00     0.201 C 
ATOM      9  O   UNL     1       9.315  95.122  25.561  1.00  0.00    -0.288 OA
ATOM     10  C   UNL     1       9.455  97.361  24.769  1.00  0.00     0.076 A 
ATOM     11  C   UNL     1      10.388  98.415  24.645  1.00  0.00     0.041 A 
ATOM     12  C   UNL     1      11.518  98.515  25.599  1.00  0.00     0.194 C 
ATOM     13  O   UNL     1      12.422  99.377  25.419  1.00  0.00    -0.289 OA
ATOM     14  C   UNL     1      10.238  99.365  23.622  1.00  0.00     0.059 A 
ATOM     15  C   UNL     1       9.167  99.288  22.733  1.00  0.00     0.120 A 
ATOM     16  C   UNL     1       8.218  98.272  22.876  1.00  0.00     0.093 A 
ATOM     17  C   UNL     1       8.333  97.325  23.898  1.00  0.00     0.131 A 
ENDROOT
BRANCH   6  18
ATOM     18  O   UNL     1       9.669  94.812  28.353  1.00  0.00    -0.507 OA
ATOM     19  H   UNL     1       9.636  94.274  29.209  1.00  0.00     0.293 HD
ENDBRANCH   6  18
BRANCH  17  20
ATOM     20  O   UNL     1       7.299  96.396  24.035  1.00  0.00    -0.507 OA
ATOM     21  H   UNL     1       7.001  95.777  23.293  1.00  0.00     0.293 HD
ENDBRANCH  17  20
BRANCH  15  22
ATOM     22  O   UNL     1       9.045 100.234  21.718  1.00  0.00    -0.508 OA
ATOM     23  H   UNL     1       8.981 101.225  21.921  1.00  0.00     0.293 HD
ENDBRANCH  15  22
TORSDOF 3
ENDMDL
MODEL 4
REMARK VINA RESULT:    -7.119      2.072      5.239
REMARK INTER + INTRA:          -7.743
REMARK INTER:                  -7.743
REMARK INTRA:                   0.000
REMARK UNBOUND:                 0.000
REMARK SMILES Cc1cc(O)c2c(c1)C(=O)c1cc(O)cc(O)c1C2=O
REMARK SMILES IDX 1 1 2 2 8 3 7 4 6 5 4 6 3 7 19 8 20 9 18 10 11 11 9 12 10 13
REMARK SMILES IDX 12 14 13 15 15 16 16 17 5 18 17 20 14 22
REMARK H PARENT 5 19 17 21 14 23
REMARK Flexibility Score: inf
ROOT
ATOM      1  C   UNL     1      14.869 100.733  28.521  1.00  0.00     0.044 C 
ATOM      2  C   UNL     1      13.847  99.699  28.149  1.00  0.00    -0.047 A 
ATOM      3  C   UNL     1      13.133  99.814  26.952  1.00  0.00     0.016 A 
ATOM      4  C   UNL     1      12.154  98.867  26.608  1.00  0.00     0.038 A 
ATOM      5  C   UNL     1      11.886  97.785  27.478  1.00  0.00     0.076 A 
ATOM      6  C   UNL     1      12.553  97.721  28.727  1.00  0.00     0.127 A 
ATOM      7  C   UNL     1      13.538  98.665  29.039  1.00  0.00     0.050 A 
ATOM      8  C   UNL     1      10.953  96.725  27.014  1.00  0.00     0.201 C 
ATOM      9  O   UNL     1      11.100  95.541  27.418  1.00  0.00    -0.288 OA
ATOM     10  C   UNL     1       9.975  97.024  25.936  1.00  0.00     0.076 A 
ATOM     11  C   UNL     1      10.244  98.107  25.070  1.00  0.00     0.041 A 
ATOM     12  C   UNL     1      11.395  99.000  25.342  1.00  0.00     0.194 C 
ATOM     13  O   UNL     1      11.715  99.890  24.506  1.00  0.00    -0.289 OA
ATOM     14  C   UNL     1       9.417  98.336  23.959  1.00  0.00     0.059 A 
ATOM     15  C   UNL     1       8.321  97.512  23.708  1.00  0.00     0.120 A 
ATOM     16  C   UNL     1       8.026  96.464  24.584  1.00  0.00     0.093 A 
ATOM     17  C   UNL     1       8.822  96.227  25.709  1.00  0.00     0.131 A 
ENDROOT
BRANCH   6  18
ATOM     18  O   UNL     1      12.246  96.765  29.700  1.00  0.00    -0.507 OA
ATOM     19  H   UNL     1      11.314  96.406  29.854  1.00  0.00     0.293 HD
ENDBRANCH   6  18
BRANCH  17  20
ATOM     20  O   UNL     1       8.413  95.220  26.588  1.00  0.00    -0.507 OA
ATOM     21  H   UNL     1       7.999  95.402  27.492  1.00  0.00     0.293 HD
ENDBRANCH  17  20
BRANCH  15  22
ATOM     22  O   UNL     1       7.521  97.750  22.592  1.00  0.00    -0.508 OA
ATOM     23  H   UNL     1       6.663  97.234  22.435  1.00  0.00     0.293 HD
ENDBRANCH  15  22
TORSDOF 3
ENDMDL
MODEL 5
REMARK VINA RESULT:    -7.116      2.063      4.150
REMARK INTER + INTRA:          -7.740
REMARK INTER:                  -7.740
REMARK INTRA:                   0.000
REMARK UNBOUND:                 0.000
REMARK SMILES Cc1cc(O)c2c(c1)C(=O)c1cc(O)cc(O)c1C2=O
REMARK SMILES IDX 1 1 2 2 8 3 7 4 6 5 4 6 3 7 19 8 20 9 18 10 11 11 9 12 10 13
REMARK SMILES IDX 12 14 13 15 15 16 16 17 5 18 17 20 14 22
REMARK H PARENT 5 19 17 21 14 23
REMARK Flexibility Score: inf
ROOT
ATOM      1  C   UNL     1      12.181  94.109  30.360  1.00  0.00     0.044 C 
ATOM      2  C   UNL     1      12.025  95.220  29.362  1.00  0.00    -0.047 A 
ATOM      3  C   UNL     1      10.946  95.221  28.473  1.00  0.00     0.016 A 
ATOM      4  C   UNL     1      10.807  96.240  27.516  1.00  0.00     0.038 A 
ATOM      5  C   UNL     1      11.765  97.278  27.449  1.00  0.00     0.076 A 
ATOM      6  C   UNL     1      12.901  97.225  28.297  1.00  0.00     0.127 A 
ATOM      7  C   UNL     1      13.007  96.210  29.255  1.00  0.00     0.050 A 
ATOM      8  C   UNL     1      11.507  98.414  26.528  1.00  0.00     0.201 C 
ATOM      9  O   UNL     1      11.949  99.560  26.809  1.00  0.00    -0.288 OA
ATOM     10  C   UNL     1      10.576  98.240  25.384  1.00  0.00     0.076 A 
ATOM     11  C   UNL     1       9.620  97.201  25.452  1.00  0.00     0.041 A 
ATOM     12  C   UNL     1       9.665  96.230  26.571  1.00  0.00     0.194 C 
ATOM     13  O   UNL     1       8.742  95.379  26.706  1.00  0.00    -0.289 OA
ATOM     14  C   UNL     1       8.636  97.089  24.456  1.00  0.00     0.059 A 
ATOM     15  C   UNL     1       8.600  97.987  23.390  1.00  0.00     0.120 A 
ATOM     16  C   UNL     1       9.567  98.991  23.296  1.00  0.00     0.093 A 
ATOM     17  C   UNL     1      10.570  99.112  24.263  1.00  0.00     0.131 A 
ENDROOT
BRANCH   6  18
ATOM     18  O   UNL     1      13.960  98.132  28.199  1.00  0.00    -0.507 OA
ATOM     19  H   UNL     1      14.697  98.205  28.887  1.00  0.00     0.293 HD
ENDBRANCH   6  18
BRANCH  17  20
ATOM     20  O   UNL     1      11.554 100.081  24.054  1.00  0.00    -0.507 OA
ATOM     21  H   UNL     1      12.490  99.867  23.736  1.00  0.00     0.293 HD
ENDBRANCH  17  20
BRANCH  15  22
ATOM     22  O   UNL     1       7.607  97.865  22.421  1.00  0.00    -0.508 OA
ATOM     23  H   UNL     1       7.829  97.855  21.432  1.00  0.00     0.293 HD
ENDBRANCH  15  22
TORSDOF 3
ENDMDL
MODEL 6
REMARK VINA RESULT:    -7.051      1.905      4.971
REMARK INTER + INTRA:          -7.670
REMARK INTER:                  -7.670
REMARK INTRA:                   0.000
REMARK UNBOUND:                 0.000
REMARK SMILES Cc1cc(O)c2c(c1)C(=O)c1cc(O)cc(O)c1C2=O
REMARK SMILES IDX 1 1 2 2 8 3 7 4 6 5 4 6 3 7 19 8 20 9 18 10 11 11 9 12 10 13
REMARK SMILES IDX 12 14 13 15 15 16 16 17 5 18 17 20 14 22
REMARK H PARENT 5 19 17 21 14 23
REMARK Flexibility Score: inf
ROOT
ATOM      1  C   UNL     1      15.094  99.240  31.582  1.00  0.00     0.044 C 
ATOM      2  C   UNL     1      14.371  99.358  30.272  1.00  0.00    -0.047 A 
ATOM      3  C   UNL     1      13.225  98.594  30.029  1.00  0.00     0.016 A 
ATOM      4  C   UNL     1      12.558  98.676  28.796  1.00  0.00     0.038 A 
ATOM      5  C   UNL     1      13.046  99.539  27.788  1.00  0.00     0.076 A 
ATOM      6  C   UNL     1      14.254 100.246  28.010  1.00  0.00     0.127 A 
ATOM      7  C   UNL     1      14.890 100.164  29.253  1.00  0.00     0.050 A 
ATOM      8  C   UNL     1      12.233  99.710  26.556  1.00  0.00     0.201 C 
ATOM      9  O   UNL     1      12.271 100.802  25.928  1.00  0.00    -0.288 OA
ATOM     10  C   UNL     1      11.241  98.672  26.176  1.00  0.00     0.076 A 
ATOM     11  C   UNL     1      10.757  97.809  27.185  1.00  0.00     0.041 A 
ATOM     12  C   UNL     1      11.349  97.856  28.542  1.00  0.00     0.194 C 
ATOM     13  O   UNL     1      10.838  97.179  29.478  1.00  0.00    -0.289 OA
ATOM     14  C   UNL     1       9.720  96.906  26.895  1.00  0.00     0.059 A 
ATOM     15  C   UNL     1       9.172  96.843  25.614  1.00  0.00     0.120 A 
ATOM     16  C   UNL     1       9.675  97.665  24.603  1.00  0.00     0.093 A 
ATOM     17  C   UNL     1      10.720  98.558  24.860  1.00  0.00     0.131 A 
ENDROOT
BRANCH   6  18
ATOM     18  O   UNL     1      14.876 101.010  27.018  1.00  0.00    -0.507 OA
ATOM     19  H   UNL     1      15.852 100.918  26.773  1.00  0.00     0.293 HD
ENDBRANCH   6  18
BRANCH  17  20
ATOM     20  O   UNL     1      11.231  99.280  23.779  1.00  0.00    -0.507 OA
ATOM     21  H   UNL     1      10.800 100.118  23.413  1.00  0.00     0.293 HD
ENDBRANCH  17  20
BRANCH  15  22
ATOM     22  O   UNL     1       8.136  95.949  25.353  1.00  0.00    -0.508 OA
ATOM     23  H   UNL     1       7.475  95.678  26.072  1.00  0.00     0.293 HD
ENDBRANCH  15  22
TORSDOF 3
ENDMDL
MODEL 7
REMARK VINA RESULT:    -6.811      2.058      5.906
REMARK INTER + INTRA:          -7.408
REMARK INTER:                  -7.408
REMARK INTRA:                   0.000
REMARK UNBOUND:                 0.000
REMARK SMILES Cc1cc(O)c2c(c1)C(=O)c1cc(O)cc(O)c1C2=O
REMARK SMILES IDX 1 1 2 2 8 3 7 4 6 5 4 6 3 7 19 8 20 9 18 10 11 11 9 12 10 13
REMARK SMILES IDX 12 14 13 15 15 16 16 17 5 18 17 20 14 22
REMARK H PARENT 5 19 17 21 14 23
REMARK Flexibility Score: inf
ROOT
ATOM      1  C   UNL     1       8.696  99.462  22.118  1.00  0.00     0.044 C 
ATOM      2  C   UNL     1       9.516  99.035  23.300  1.00  0.00    -0.047 A 
ATOM      3  C   UNL     1       9.108  97.952  24.085  1.00  0.00     0.016 A 
ATOM      4  C   UNL     1       9.854  97.562  25.210  1.00  0.00     0.038 A 
ATOM      5  C   UNL     1      11.028  98.269  25.555  1.00  0.00     0.076 A 
ATOM      6  C   UNL     1      11.389  99.417  24.805  1.00  0.00     0.127 A 
ATOM      7  C   UNL     1      10.643  99.773  23.677  1.00  0.00     0.050 A 
ATOM      8  C   UNL     1      11.868  97.739  26.661  1.00  0.00     0.201 C 
ATOM      9  O   UNL     1      13.114  97.930  26.647  1.00  0.00    -0.288 OA
ATOM     10  C   UNL     1      11.270  96.830  27.671  1.00  0.00     0.076 A 
ATOM     11  C   UNL     1      10.095  96.126  27.325  1.00  0.00     0.041 A 
ATOM     12  C   UNL     1       9.411  96.418  26.043  1.00  0.00     0.194 C 
ATOM     13  O   UNL     1       8.436  95.708  25.671  1.00  0.00    -0.289 OA
ATOM     14  C   UNL     1       9.577  95.157  28.199  1.00  0.00     0.059 A 
ATOM     15  C   UNL     1      10.204  94.891  29.416  1.00  0.00     0.120 A 
ATOM     16  C   UNL     1      11.343  95.612  29.781  1.00  0.00     0.093 A 
ATOM     17  C   UNL     1      11.868  96.596  28.938  1.00  0.00     0.131 A 
ENDROOT
BRANCH   6  18
ATOM     18  O   UNL     1      12.454 100.249  25.162  1.00  0.00    -0.507 OA
ATOM     19  H   UNL     1      12.332 101.172  25.557  1.00  0.00     0.293 HD
ENDBRANCH   6  18
BRANCH  17  20
ATOM     20  O   UNL     1      12.952  97.339  29.411  1.00  0.00    -0.507 OA
ATOM     21  H   UNL     1      13.176  97.439  30.391  1.00  0.00     0.293 HD
ENDBRANCH  17  20
BRANCH  15  22
ATOM     22  O   UNL     1       9.680  93.916  30.262  1.00  0.00    -0.508 OA
ATOM     23  H   UNL     1       9.950  92.942  30.181  1.00  0.00     0.293 HD
ENDBRANCH  15  22
TORSDOF 3
ENDMDL
MODEL 8
REMARK VINA RESULT:    -6.717      1.405      5.502
REMARK INTER + INTRA:          -7.306
REMARK INTER:                  -7.306
REMARK INTRA:                   0.000
REMARK UNBOUND:                 0.000
REMARK SMILES Cc1cc(O)c2c(c1)C(=O)c1cc(O)cc(O)c1C2=O
REMARK SMILES IDX 1 1 2 2 8 3 7 4 6 5 4 6 3 7 19 8 20 9 18 10 11 11 9 12 10 13
REMARK SMILES IDX 12 14 13 15 15 16 16 17 5 18 17 20 14 22
REMARK H PARENT 5 19 17 21 14 23
REMARK Flexibility Score: inf
ROOT
ATOM      1  C   UNL     1      13.868 102.066  26.523  1.00  0.00     0.044 C 
ATOM      2  C   UNL     1      12.924 100.905  26.405  1.00  0.00    -0.047 A 
ATOM      3  C   UNL     1      12.524 100.204  27.547  1.00  0.00     0.016 A 
ATOM      4  C   UNL     1      11.663  99.099  27.444  1.00  0.00     0.038 A 
ATOM      5  C   UNL     1      11.194  98.688  26.176  1.00  0.00     0.076 A 
ATOM      6  C   UNL     1      11.671  99.350  25.016  1.00  0.00     0.127 A 
ATOM      7  C   UNL     1      12.511 100.460  25.145  1.00  0.00     0.050 A 
ATOM      8  C   UNL     1      10.172  97.611  26.120  1.00  0.00     0.201 C 
ATOM      9  O   UNL     1       9.333  97.593  25.179  1.00  0.00    -0.288 OA
ATOM     10  C   UNL     1      10.022  96.676  27.264  1.00  0.00     0.076 A 
ATOM     11  C   UNL     1      10.493  97.088  28.531  1.00  0.00     0.041 A 
ATOM     12  C   UNL     1      11.250  98.356  28.659  1.00  0.00     0.194 C 
ATOM     13  O   UNL     1      11.563  98.791  29.802  1.00  0.00    -0.289 OA
ATOM     14  C   UNL     1      10.247  96.292  29.662  1.00  0.00     0.059 A 
ATOM     15  C   UNL     1       9.553  95.089  29.545  1.00  0.00     0.120 A 
ATOM     16  C   UNL     1       9.120  94.656  28.289  1.00  0.00     0.093 A 
ATOM     17  C   UNL     1       9.370  95.420  27.144  1.00  0.00     0.131 A 
ENDROOT
BRANCH   6  18
ATOM     18  O   UNL     1      11.366  98.919  23.721  1.00  0.00    -0.507 OA
ATOM     19  H   UNL     1      10.487  98.488  23.469  1.00  0.00     0.293 HD
ENDBRANCH   6  18
BRANCH  17  20
ATOM     20  O   UNL     1       8.989  94.880  25.913  1.00  0.00    -0.507 OA
ATOM     21  H   UNL     1       9.251  95.280  25.023  1.00  0.00     0.293 HD
ENDBRANCH  17  20
BRANCH  15  22
ATOM     22  O   UNL     1       9.309  94.322  30.682  1.00  0.00    -0.508 OA
ATOM     23  H   UNL     1       8.768  93.467  30.639  1.00  0.00     0.293 HD
ENDBRANCH  15  22
TORSDOF 3
ENDMDL
MODEL 9
REMARK VINA RESULT:    -6.452      1.682      3.576
REMARK INTER + INTRA:          -7.018
REMARK INTER:                  -7.018
REMARK INTRA:                   0.000
REMARK UNBOUND:                 0.000
REMARK SMILES Cc1cc(O)c2c(c1)C(=O)c1cc(O)cc(O)c1C2=O
REMARK SMILES IDX 1 1 2 2 8 3 7 4 6 5 4 6 3 7 19 8 20 9 18 10 11 11 9 12 10 13
REMARK SMILES IDX 12 14 13 15 15 16 16 17 5 18 17 20 14 22
REMARK H PARENT 5 19 17 21 14 23
REMARK Flexibility Score: inf
ROOT
ATOM      1  C   UNL     1       8.308  95.565  24.340  1.00  0.00     0.044 C 
ATOM      2  C   UNL     1       9.184  96.348  25.274  1.00  0.00    -0.047 A 
ATOM      3  C   UNL     1       9.843  97.497  24.824  1.00  0.00     0.016 A 
ATOM      4  C   UNL     1      10.687  98.220  25.682  1.00  0.00     0.038 A 
ATOM      5  C   UNL     1      10.877  97.786  27.014  1.00  0.00     0.076 A 
ATOM      6  C   UNL     1      10.274  96.575  27.438  1.00  0.00     0.127 A 
ATOM      7  C   UNL     1       9.420  95.883  26.572  1.00  0.00     0.050 A 
ATOM      8  C   UNL     1      11.657  98.656  27.932  1.00  0.00     0.201 C 
ATOM      9  O   UNL     1      11.398  98.655  29.165  1.00  0.00    -0.288 OA
ATOM     10  C   UNL     1      12.604  99.655  27.375  1.00  0.00     0.076 A 
ATOM     11  C   UNL     1      12.415 100.085  26.042  1.00  0.00     0.041 A 
ATOM     12  C   UNL     1      11.389  99.433  25.195  1.00  0.00     0.194 C 
ATOM     13  O   UNL     1      11.128  99.894  24.050  1.00  0.00    -0.289 OA
ATOM     14  C   UNL     1      13.203 101.126  25.525  1.00  0.00     0.059 A 
ATOM     15  C   UNL     1      14.183 101.732  26.310  1.00  0.00     0.120 A 
ATOM     16  C   UNL     1      14.403 101.282  27.615  1.00  0.00     0.093 A 
ATOM     17  C   UNL     1      13.646 100.234  28.147  1.00  0.00     0.131 A 
ENDROOT
BRANCH   6  18
ATOM     18  O   UNL     1      10.521  96.005  28.690  1.00  0.00    -0.507 OA
ATOM     19  H   UNL     1      10.409  95.020  28.887  1.00  0.00     0.293 HD
ENDBRANCH   6  18
BRANCH  17  20
ATOM     20  O   UNL     1      13.984  99.779  29.424  1.00  0.00    -0.507 OA
ATOM     21  H   UNL     1      14.338  98.851  29.610  1.00  0.00     0.293 HD
ENDBRANCH  17  20
BRANCH  15  22
ATOM     22  O   UNL     1      14.944 102.771  25.780  1.00  0.00    -0.508 OA
ATOM     23  H   UNL     1      15.949 102.812  25.907  1.00  0.00     0.293 HD
ENDBRANCH  15  22
TORSDOF 3
ENDMDL
