MODEL 1
REMARK VINA RESULT:    -3.687      0.000      0.000
REMARK INTER + INTRA:          -3.687
REMARK INTER:                  -3.687
REMARK INTRA:                   0.000
REMARK UNBOUND:                 0.000
REMARK SMILES O=C1CCCCC1
REMARK SMILES IDX 5 1 4 2 3 3 2 4 1 5 7 6 6 7
REMARK H PARENT
REMARK Flexibility Score: inf
ROOT
ATOM      1  C   UNL     1      13.957  42.824 -11.890  1.00  0.00     0.001 C 
ATOM      2  C   UNL     1      13.979  44.009 -12.867  1.00  0.00     0.008 C 
ATOM      3  C   UNL     1      14.535  43.596 -14.236  1.00  0.00     0.075 C 
ATOM      4  C   UNL     1      15.844  42.874 -14.073  1.00  0.00     0.132 C 
ATOM      5  O   UNL     1      16.782  43.122 -14.815  1.00  0.00    -0.300 OA
ATOM      6  C   UNL     1      15.957  41.779 -13.049  1.00  0.00     0.075 C 
ATOM      7  C   UNL     1      15.365  42.237 -11.709  1.00  0.00     0.008 C 
ENDROOT
TORSDOF 0
ENDMDL
MODEL 2
REMARK VINA RESULT:    -3.602     13.918     14.779
REMARK INTER + INTRA:          -3.602
REMARK INTER:                  -3.602
REMARK INTRA:                   0.000
REMARK UNBOUND:                 0.000
REMARK SMILES O=C1CCCCC1
REMARK SMILES IDX 5 1 4 2 3 3 2 4 1 5 7 6 6 7
REMARK H PARENT
REMARK Flexibility Score: inf
ROOT
ATOM      1  C   UNL     1      19.091  42.866   2.127  1.00  0.00     0.001 C 
ATOM      2  C   UNL     1      17.573  43.010   1.945  1.00  0.00     0.008 C 
ATOM      3  C   UNL     1      17.223  43.545   0.551  1.00  0.00     0.075 C 
ATOM      4  C   UNL     1      18.027  44.781   0.249  1.00  0.00     0.132 C 
ATOM      5  O   UNL     1      17.496  45.748  -0.276  1.00  0.00    -0.300 OA
ATOM      6  C   UNL     1      19.506  44.778   0.513  1.00  0.00     0.075 C 
ATOM      7  C   UNL     1      19.799  44.211   1.909  1.00  0.00     0.008 C 
ENDROOT
TORSDOF 0
ENDMDL
MODEL 3
REMARK VINA RESULT:    -3.596     14.260     15.189
REMARK INTER + INTRA:          -3.596
REMARK INTER:                  -3.596
REMARK INTRA:                   0.000
REMARK UNBOUND:                 0.000
REMARK SMILES O=C1CCCCC1
REMARK SMILES IDX 5 1 4 2 3 3 2 4 1 5 7 6 6 7
REMARK H PARENT
REMARK Flexibility Score: inf
ROOT
ATOM      1  C   UNL     1      19.299  44.788   0.570  1.00  0.00     0.001 C 
ATOM      2  C   UNL     1      17.825  44.491   0.256  1.00  0.00     0.008 C 
ATOM      3  C   UNL     1      17.113  43.857   1.457  1.00  0.00     0.075 C 
ATOM      4  C   UNL     1      17.906  42.690   1.979  1.00  0.00     0.132 C 
ATOM      5  O   UNL     1      17.342  41.653   2.292  1.00  0.00    -0.300 OA
ATOM      6  C   UNL     1      19.384  42.846   2.200  1.00  0.00     0.075 C 
ATOM      7  C   UNL     1      20.040  43.506   0.980  1.00  0.00     0.008 C 
ENDROOT
TORSDOF 0
ENDMDL
MODEL 4
REMARK VINA RESULT:    -3.583     14.214     15.202
REMARK INTER + INTRA:          -3.583
REMARK INTER:                  -3.583
REMARK INTRA:                   0.000
REMARK UNBOUND:                 0.000
REMARK SMILES O=C1CCCCC1
REMARK SMILES IDX 5 1 4 2 3 3 2 4 1 5 7 6 6 7
REMARK H PARENT
REMARK Flexibility Score: inf
ROOT
ATOM      1  C   UNL     1      19.930  43.840   0.689  1.00  0.00     0.001 C 
ATOM      2  C   UNL     1      19.552  43.243   2.053  1.00  0.00     0.008 C 
ATOM      3  C   UNL     1      18.100  42.750   2.067  1.00  0.00     0.075 C 
ATOM      4  C   UNL     1      17.178  43.826   1.560  1.00  0.00     0.132 C 
ATOM      5  O   UNL     1      16.120  44.048   2.128  1.00  0.00    -0.300 OA
ATOM      6  C   UNL     1      17.528  44.557   0.295  1.00  0.00     0.075 C 
ATOM      7  C   UNL     1      18.996  45.004   0.324  1.00  0.00     0.008 C 
ENDROOT
TORSDOF 0
ENDMDL
MODEL 5
REMARK VINA RESULT:    -3.581      1.549      2.639
REMARK INTER + INTRA:          -3.581
REMARK INTER:                  -3.581
REMARK INTRA:                   0.000
REMARK UNBOUND:                 0.000
REMARK SMILES O=C1CCCCC1
REMARK SMILES IDX 5 1 4 2 3 3 2 4 1 5 7 6 6 7
REMARK H PARENT
REMARK Flexibility Score: inf
ROOT
ATOM      1  C   UNL     1      15.677  41.691 -12.980  1.00  0.00     0.001 C 
ATOM      2  C   UNL     1      15.069  42.378 -11.748  1.00  0.00     0.008 C 
ATOM      3  C   UNL     1      13.875  43.261 -12.129  1.00  0.00     0.075 C 
ATOM      4  C   UNL     1      14.246  44.182 -13.259  1.00  0.00     0.132 C 
ATOM      5  O   UNL     1      13.905  45.355 -13.236  1.00  0.00    -0.300 OA
ATOM      6  C   UNL     1      14.959  43.624 -14.459  1.00  0.00     0.075 C 
ATOM      7  C   UNL     1      16.127  42.730 -14.018  1.00  0.00     0.008 C 
ENDROOT
TORSDOF 0
ENDMDL
MODEL 6
REMARK VINA RESULT:    -3.504     13.812     14.702
REMARK INTER + INTRA:          -3.504
REMARK INTER:                  -3.504
REMARK INTRA:                   0.000
REMARK UNBOUND:                 0.000
REMARK SMILES O=C1CCCCC1
REMARK SMILES IDX 5 1 4 2 3 3 2 4 1 5 7 6 6 7
REMARK H PARENT
REMARK Flexibility Score: inf
ROOT
ATOM      1  C   UNL     1      19.734  44.235   2.002  1.00  0.00     0.001 C 
ATOM      2  C   UNL     1      19.469  44.812   0.604  1.00  0.00     0.008 C 
ATOM      3  C   UNL     1      17.987  44.703   0.223  1.00  0.00     0.075 C 
ATOM      4  C   UNL     1      17.493  43.299   0.442  1.00  0.00     0.132 C 
ATOM      5  O   UNL     1      16.778  42.761  -0.389  1.00  0.00    -0.300 OA
ATOM      6  C   UNL     1      17.811  42.602   1.735  1.00  0.00     0.075 C 
ATOM      7  C   UNL     1      19.298  42.764   2.078  1.00  0.00     0.008 C 
ENDROOT
TORSDOF 0
ENDMDL
MODEL 7
REMARK VINA RESULT:    -3.486     14.083     15.057
REMARK INTER + INTRA:          -3.486
REMARK INTER:                  -3.486
REMARK INTRA:                   0.000
REMARK UNBOUND:                 0.000
REMARK SMILES O=C1CCCCC1
REMARK SMILES IDX 5 1 4 2 3 3 2 4 1 5 7 6 6 7
REMARK H PARENT
REMARK Flexibility Score: inf
ROOT
ATOM      1  C   UNL     1      17.090  44.190   1.306  1.00  0.00     0.001 C 
ATOM      2  C   UNL     1      17.488  42.799   1.824  1.00  0.00     0.008 C 
ATOM      3  C   UNL     1      18.945  42.774   2.302  1.00  0.00     0.075 C 
ATOM      4  C   UNL     1      19.851  43.350   1.248  1.00  0.00     0.132 C 
ATOM      5  O   UNL     1      20.913  42.806   0.984  1.00  0.00    -0.300 OA
ATOM      6  C   UNL     1      19.480  44.649   0.590  1.00  0.00     0.075 C 
ATOM      7  C   UNL     1      18.009  44.628   0.155  1.00  0.00     0.008 C 
ENDROOT
TORSDOF 0
ENDMDL
MODEL 8
REMARK VINA RESULT:    -3.483     14.207     15.027
REMARK INTER + INTRA:          -3.483
REMARK INTER:                  -3.483
REMARK INTRA:                   0.000
REMARK UNBOUND:                 0.000
REMARK SMILES O=C1CCCCC1
REMARK SMILES IDX 5 1 4 2 3 3 2 4 1 5 7 6 6 7
REMARK H PARENT
REMARK Flexibility Score: inf
ROOT
ATOM      1  C   UNL     1      16.862  44.221   0.276  1.00  0.00     0.001 C 
ATOM      2  C   UNL     1      17.966  45.259   0.029  1.00  0.00     0.008 C 
ATOM      3  C   UNL     1      19.351  44.698   0.372  1.00  0.00     0.075 C 
ATOM      4  C   UNL     1      19.341  44.087   1.747  1.00  0.00     0.132 C 
ATOM      5  O   UNL     1      20.268  44.288   2.517  1.00  0.00    -0.300 OA
ATOM      6  C   UNL     1      18.228  43.152   2.128  1.00  0.00     0.075 C 
ATOM      7  C   UNL     1      16.870  43.752   1.739  1.00  0.00     0.008 C 
ENDROOT
TORSDOF 0
ENDMDL
MODEL 9
REMARK VINA RESULT:    -3.164     21.946     22.532
REMARK INTER + INTRA:          -3.164
REMARK INTER:                  -3.164
REMARK INTRA:                   0.000
REMARK UNBOUND:                 0.000
REMARK SMILES O=C1CCCCC1
REMARK SMILES IDX 5 1 4 2 3 3 2 4 1 5 7 6 6 7
REMARK H PARENT
REMARK Flexibility Score: inf
ROOT
ATOM      1  C   UNL     1      32.555  57.004 -13.624  1.00  0.00     0.001 C 
ATOM      2  C   UNL     1      31.078  56.747 -13.292  1.00  0.00     0.008 C 
ATOM      3  C   UNL     1      30.365  58.036 -12.868  1.00  0.00     0.075 C 
ATOM      4  C   UNL     1      31.151  58.739 -11.794  1.00  0.00     0.132 C 
ATOM      5  O   UNL     1      30.581  59.217 -10.826  1.00  0.00    -0.300 OA
ATOM      6  C   UNL     1      32.632  58.928 -11.972  1.00  0.00     0.075 C 
ATOM      7  C   UNL     1      33.288  57.615 -12.420  1.00  0.00     0.008 C 
ENDROOT
TORSDOF 0
ENDMDL
