MODEL 1
REMARK VINA RESULT:    -4.682      0.000      0.000
REMARK INTER + INTRA:          -7.194
REMARK INTER:                  -6.324
REMARK INTRA:                  -0.870
REMARK UNBOUND:                -0.870
REMARK SMILES CC(=O)OCC=C(C)CCC=C(C)C
REMARK SMILES IDX 7 1 6 2 8 3 9 4 10 5 11 6 13 7 12 8 14 9 5 10 4 11 2 12 3 13
REMARK SMILES IDX 1 14
REMARK H PARENT
REMARK Flexibility Score: inf
ROOT
ATOM      1  C   UNL     1      -6.053   5.830   0.240  1.00  0.00    -0.074 C 
ATOM      2  C   UNL     1      -6.065   5.822   1.593  1.00  0.00     0.013 C 
ATOM      3  C   UNL     1      -4.948   5.089  -0.468  1.00  0.00     0.039 C 
ENDROOT
BRANCH   1   4
ATOM      4  C   UNL     1      -7.077   6.579  -0.597  1.00  0.00     0.034 C 
BRANCH   4   5
ATOM      5  C   UNL     1      -8.183   5.652  -1.120  1.00  0.00     0.032 C 
BRANCH   5   6
ATOM      6  C   UNL     1      -9.485   5.842  -0.381  1.00  0.00    -0.028 C 
ATOM      7  C   UNL     1      -9.181   3.792   1.027  1.00  0.00     0.039 C 
ATOM      8  C   UNL     1      -9.938   5.027   0.598  1.00  0.00    -0.080 C 
ATOM      9  C   UNL     1     -11.242   5.369   1.271  1.00  0.00     0.039 C 
ENDBRANCH   5   6
ENDBRANCH   4   5
ENDBRANCH   1   4
BRANCH   2  10
ATOM     10  C   UNL     1      -7.102   6.507   2.439  1.00  0.00     0.260 C 
BRANCH  10  11
ATOM     11  O   UNL     1      -6.496   7.032   3.615  1.00  0.00    -0.462 OA
BRANCH  11  12
ATOM     12  C   UNL     1      -6.656   6.442   4.872  1.00  0.00     0.302 C 
ATOM     13  O   UNL     1      -5.753   6.534   5.747  1.00  0.00    -0.253 OA
ATOM     14  C   UNL     1      -7.891   5.660   5.164  1.00  0.00     0.139 C 
ENDBRANCH  11  12
ENDBRANCH  10  11
ENDBRANCH   2  10
TORSDOF 6
ENDMDL
MODEL 2
REMARK VINA RESULT:    -4.605      1.474      3.302
REMARK INTER + INTRA:          -7.090
REMARK INTER:                  -6.447
REMARK INTRA:                  -0.644
REMARK UNBOUND:                -0.870
REMARK SMILES CC(=O)OCC=C(C)CCC=C(C)C
REMARK SMILES IDX 7 1 6 2 8 3 9 4 10 5 11 6 13 7 12 8 14 9 5 10 4 11 2 12 3 13
REMARK SMILES IDX 1 14
REMARK H PARENT
REMARK Flexibility Score: inf
ROOT
ATOM      1  C   UNL     1      -9.037   4.382   0.932  1.00  0.00    -0.074 C 
ATOM      2  C   UNL     1      -8.681   4.771   2.178  1.00  0.00     0.013 C 
ATOM      3  C   UNL     1      -8.962   2.915   0.594  1.00  0.00     0.039 C 
ENDROOT
BRANCH   1   4
ATOM      4  C   UNL     1      -9.472   5.356  -0.152  1.00  0.00     0.034 C 
BRANCH   4   5
ATOM      5  C   UNL     1      -8.784   5.069  -1.493  1.00  0.00     0.032 C 
BRANCH   5   6
ATOM      6  C   UNL     1      -8.106   6.292  -2.061  1.00  0.00    -0.028 C 
ATOM      7  C   UNL     1      -5.913   5.800  -0.952  1.00  0.00     0.039 C 
ATOM      8  C   UNL     1      -6.814   6.625  -1.842  1.00  0.00    -0.080 C 
ATOM      9  C   UNL     1      -6.268   7.861  -2.509  1.00  0.00     0.039 C 
ENDBRANCH   5   6
ENDBRANCH   4   5
ENDBRANCH   1   4
BRANCH   2  10
ATOM     10  C   UNL     1      -8.707   6.193   2.666  1.00  0.00     0.260 C 
BRANCH  10  11
ATOM     11  O   UNL     1      -8.217   6.255   4.001  1.00  0.00    -0.462 OA
BRANCH  11  12
ATOM     12  C   UNL     1      -6.892   6.580   4.301  1.00  0.00     0.302 C 
ATOM     13  O   UNL     1      -6.200   7.269   3.502  1.00  0.00    -0.253 OA
ATOM     14  C   UNL     1      -6.277   6.069   5.560  1.00  0.00     0.139 C 
ENDBRANCH  11  12
ENDBRANCH  10  11
ENDBRANCH   2  10
TORSDOF 6
ENDMDL
MODEL 3
REMARK VINA RESULT:    -4.573      1.482      2.853
REMARK INTER + INTRA:          -7.048
REMARK INTER:                  -6.414
REMARK INTRA:                  -0.633
REMARK UNBOUND:                -0.870
REMARK SMILES CC(=O)OCC=C(C)CCC=C(C)C
REMARK SMILES IDX 7 1 6 2 8 3 9 4 10 5 11 6 13 7 12 8 14 9 5 10 4 11 2 12 3 13
REMARK SMILES IDX 1 14
REMARK H PARENT
REMARK Flexibility Score: inf
ROOT
ATOM      1  C   UNL     1      -8.008   5.135   1.204  1.00  0.00    -0.074 C 
ATOM      2  C   UNL     1      -7.643   5.434   2.472  1.00  0.00     0.013 C 
ATOM      3  C   UNL     1      -9.328   4.443   0.985  1.00  0.00     0.039 C 
ENDROOT
BRANCH   1   4
ATOM      4  C   UNL     1      -7.133   5.428  -0.005  1.00  0.00     0.034 C 
BRANCH   4   5
ATOM      5  C   UNL     1      -7.549   6.723  -0.716  1.00  0.00     0.032 C 
BRANCH   5   6
ATOM      6  C   UNL     1      -7.679   6.537  -2.209  1.00  0.00    -0.028 C 
ATOM      7  C   UNL     1     -10.169   6.272  -2.130  1.00  0.00     0.039 C 
ATOM      8  C   UNL     1      -8.849   6.353  -2.860  1.00  0.00    -0.080 C 
ATOM      9  C   UNL     1      -8.821   6.220  -4.361  1.00  0.00     0.039 C 
ENDBRANCH   5   6
ENDBRANCH   4   5
ENDBRANCH   1   4
BRANCH   2  10
ATOM     10  C   UNL     1      -6.363   6.126   2.850  1.00  0.00     0.260 C 
BRANCH  10  11
ATOM     11  O   UNL     1      -6.586   6.976   3.969  1.00  0.00    -0.462 OA
BRANCH  11  12
ATOM     12  C   UNL     1      -6.656   6.494   5.278  1.00  0.00     0.302 C 
ATOM     13  O   UNL     1      -5.634   6.020   5.846  1.00  0.00    -0.253 OA
ATOM     14  C   UNL     1      -7.963   6.502   5.995  1.00  0.00     0.139 C 
ENDBRANCH  11  12
ENDBRANCH  10  11
ENDBRANCH   2  10
TORSDOF 6
ENDMDL
MODEL 4
REMARK VINA RESULT:    -4.551      1.572      2.669
REMARK INTER + INTRA:          -7.017
REMARK INTER:                  -6.427
REMARK INTRA:                  -0.590
REMARK UNBOUND:                -0.870
REMARK SMILES CC(=O)OCC=C(C)CCC=C(C)C
REMARK SMILES IDX 7 1 6 2 8 3 9 4 10 5 11 6 13 7 12 8 14 9 5 10 4 11 2 12 3 13
REMARK SMILES IDX 1 14
REMARK H PARENT
REMARK Flexibility Score: inf
ROOT
ATOM      1  C   UNL     1      -6.753   5.593   0.086  1.00  0.00    -0.074 C 
ATOM      2  C   UNL     1      -6.331   6.094   1.270  1.00  0.00     0.013 C 
ATOM      3  C   UNL     1      -5.915   5.854  -1.138  1.00  0.00     0.039 C 
ENDROOT
BRANCH   1   4
ATOM      4  C   UNL     1      -8.050   4.815  -0.074  1.00  0.00     0.034 C 
BRANCH   4   5
ATOM      5  C   UNL     1      -9.168   5.677  -0.675  1.00  0.00     0.032 C 
BRANCH   5   6
ATOM      6  C   UNL     1      -9.211   5.587  -2.181  1.00  0.00    -0.028 C 
ATOM      7  C   UNL     1      -8.763   8.031  -2.509  1.00  0.00     0.039 C 
ATOM      8  C   UNL     1      -9.013   6.631  -3.018  1.00  0.00    -0.080 C 
ATOM      9  C   UNL     1      -9.050   6.376  -4.503  1.00  0.00     0.039 C 
ENDBRANCH   5   6
ENDBRANCH   4   5
ENDBRANCH   1   4
BRANCH   2  10
ATOM     10  C   UNL     1      -7.053   5.914   2.577  1.00  0.00     0.260 C 
BRANCH  10  11
ATOM     11  O   UNL     1      -6.174   6.204   3.659  1.00  0.00    -0.462 OA
BRANCH  11  12
ATOM     12  C   UNL     1      -6.635   6.503   4.943  1.00  0.00     0.302 C 
ATOM     13  O   UNL     1      -5.849   6.952   5.821  1.00  0.00    -0.253 OA
ATOM     14  C   UNL     1      -8.062   6.249   5.289  1.00  0.00     0.139 C 
ENDBRANCH  11  12
ENDBRANCH  10  11
ENDBRANCH   2  10
TORSDOF 6
ENDMDL
MODEL 5
REMARK VINA RESULT:    -4.522      1.016      1.675
REMARK INTER + INTRA:          -6.978
REMARK INTER:                  -6.138
REMARK INTRA:                  -0.840
REMARK UNBOUND:                -0.870
REMARK SMILES CC(=O)OCC=C(C)CCC=C(C)C
REMARK SMILES IDX 7 1 6 2 8 3 9 4 10 5 11 6 13 7 12 8 14 9 5 10 4 11 2 12 3 13
REMARK SMILES IDX 1 14
REMARK H PARENT
REMARK Flexibility Score: inf
ROOT
ATOM      1  C   UNL     1      -7.130   6.670   0.024  1.00  0.00    -0.074 C 
ATOM      2  C   UNL     1      -6.780   7.151   1.239  1.00  0.00     0.013 C 
ATOM      3  C   UNL     1      -7.497   7.656  -1.055  1.00  0.00     0.039 C 
ENDROOT
BRANCH   1   4
ATOM      4  C   UNL     1      -7.207   5.185  -0.293  1.00  0.00     0.034 C 
BRANCH   4   5
ATOM      5  C   UNL     1      -8.635   4.744  -0.642  1.00  0.00     0.032 C 
BRANCH   5   6
ATOM      6  C   UNL     1      -9.596   4.963   0.501  1.00  0.00    -0.028 C 
ATOM      7  C   UNL     1     -11.080   6.493  -0.816  1.00  0.00     0.039 C 
ATOM      8  C   UNL     1     -10.707   5.730   0.433  1.00  0.00    -0.080 C 
ATOM      9  C   UNL     1     -11.590   5.822   1.650  1.00  0.00     0.039 C 
ENDBRANCH   5   6
ENDBRANCH   4   5
ENDBRANCH   1   4
BRANCH   2  10
ATOM     10  C   UNL     1      -6.384   6.297   2.411  1.00  0.00     0.260 C 
BRANCH  10  11
ATOM     11  O   UNL     1      -6.383   7.078   3.601  1.00  0.00    -0.462 OA
BRANCH  11  12
ATOM     12  C   UNL     1      -6.680   6.540   4.855  1.00  0.00     0.302 C 
ATOM     13  O   UNL     1      -5.962   6.807   5.857  1.00  0.00    -0.253 OA
ATOM     14  C   UNL     1      -7.833   5.607   5.000  1.00  0.00     0.139 C 
ENDBRANCH  11  12
ENDBRANCH  10  11
ENDBRANCH   2  10
TORSDOF 6
ENDMDL
MODEL 6
REMARK VINA RESULT:    -4.486      3.789      5.798
REMARK INTER + INTRA:          -6.930
REMARK INTER:                  -6.303
REMARK INTRA:                  -0.627
REMARK UNBOUND:                -0.870
REMARK SMILES CC(=O)OCC=C(C)CCC=C(C)C
REMARK SMILES IDX 7 1 6 2 8 3 9 4 10 5 11 6 13 7 12 8 14 9 5 10 4 11 2 12 3 13
REMARK SMILES IDX 1 14
REMARK H PARENT
REMARK Flexibility Score: inf
ROOT
ATOM      1  C   UNL     1      -6.727   6.674  -1.409  1.00  0.00    -0.074 C 
ATOM      2  C   UNL     1      -6.824   7.471  -2.498  1.00  0.00     0.013 C 
ATOM      3  C   UNL     1      -5.481   5.845  -1.240  1.00  0.00     0.039 C 
ENDROOT
BRANCH   1   4
ATOM      4  C   UNL     1      -7.830   6.548  -0.370  1.00  0.00     0.034 C 
BRANCH   4   5
ATOM      5  C   UNL     1      -7.878   5.145   0.251  1.00  0.00     0.032 C 
BRANCH   5   6
ATOM      6  C   UNL     1      -8.338   5.172   1.689  1.00  0.00    -0.028 C 
ATOM      7  C   UNL     1      -6.130   5.981   2.557  1.00  0.00     0.039 C 
ATOM      8  C   UNL     1      -7.571   5.562   2.732  1.00  0.00    -0.080 C 
ATOM      9  C   UNL     1      -8.184   5.570   4.109  1.00  0.00     0.039 C 
ENDBRANCH   5   6
ENDBRANCH   4   5
ENDBRANCH   1   4
BRANCH   2  10
ATOM     10  C   UNL     1      -7.998   8.360  -2.802  1.00  0.00     0.260 C 
BRANCH  10  11
ATOM     11  O   UNL     1      -8.613   7.949  -4.018  1.00  0.00    -0.462 OA
BRANCH  11  12
ATOM     12  C   UNL     1      -8.878   6.609  -4.312  1.00  0.00     0.302 C 
ATOM     13  O   UNL     1      -8.418   6.076  -5.358  1.00  0.00    -0.253 OA
ATOM     14  C   UNL     1      -9.750   5.815  -3.400  1.00  0.00     0.139 C 
ENDBRANCH  11  12
ENDBRANCH  10  11
ENDBRANCH   2  10
TORSDOF 6
ENDMDL
MODEL 7
REMARK VINA RESULT:    -4.391      3.130      5.559
REMARK INTER + INTRA:          -6.802
REMARK INTER:                  -5.981
REMARK INTRA:                  -0.821
REMARK UNBOUND:                -0.870
REMARK SMILES CC(=O)OCC=C(C)CCC=C(C)C
REMARK SMILES IDX 7 1 6 2 8 3 9 4 10 5 11 6 13 7 12 8 14 9 5 10 4 11 2 12 3 13
REMARK SMILES IDX 1 14
REMARK H PARENT
REMARK Flexibility Score: inf
ROOT
ATOM      1  C   UNL     1      -8.246   4.750  -0.111  1.00  0.00    -0.074 C 
ATOM      2  C   UNL     1      -8.790   5.049  -1.313  1.00  0.00     0.013 C 
ATOM      3  C   UNL     1      -9.011   3.835   0.811  1.00  0.00     0.039 C 
ENDROOT
BRANCH   1   4
ATOM      4  C   UNL     1      -6.921   5.322   0.369  1.00  0.00     0.034 C 
BRANCH   4   5
ATOM      5  C   UNL     1      -7.114   6.583   1.222  1.00  0.00     0.032 C 
BRANCH   5   6
ATOM      6  C   UNL     1      -6.461   6.461   2.578  1.00  0.00    -0.028 C 
ATOM      7  C   UNL     1      -8.600   5.875   3.745  1.00  0.00     0.039 C 
ATOM      8  C   UNL     1      -7.110   6.126   3.715  1.00  0.00    -0.080 C 
ATOM      9  C   UNL     1      -6.313   6.007   4.988  1.00  0.00     0.039 C 
ENDBRANCH   5   6
ENDBRANCH   4   5
ENDBRANCH   1   4
BRANCH   2  10
ATOM     10  C   UNL     1      -8.148   5.939  -2.341  1.00  0.00     0.260 C 
BRANCH  10  11
ATOM     11  O   UNL     1      -8.662   7.261  -2.223  1.00  0.00    -0.462 OA
BRANCH  11  12
ATOM     12  C   UNL     1      -7.976   8.380  -2.703  1.00  0.00     0.302 C 
ATOM     13  O   UNL     1      -8.560   9.231  -3.428  1.00  0.00    -0.253 OA
ATOM     14  C   UNL     1      -6.529   8.545  -2.388  1.00  0.00     0.139 C 
ENDBRANCH  11  12
ENDBRANCH  10  11
ENDBRANCH   2  10
TORSDOF 6
ENDMDL
MODEL 8
REMARK VINA RESULT:    -4.325      2.517      4.150
REMARK INTER + INTRA:          -6.712
REMARK INTER:                  -5.691
REMARK INTRA:                  -1.021
REMARK UNBOUND:                -0.870
REMARK SMILES CC(=O)OCC=C(C)CCC=C(C)C
REMARK SMILES IDX 7 1 6 2 8 3 9 4 10 5 11 6 13 7 12 8 14 9 5 10 4 11 2 12 3 13
REMARK SMILES IDX 1 14
REMARK H PARENT
REMARK Flexibility Score: inf
ROOT
ATOM      1  C   UNL     1      -7.493   5.456  -0.111  1.00  0.00    -0.074 C 
ATOM      2  C   UNL     1      -7.482   5.653   1.228  1.00  0.00     0.013 C 
ATOM      3  C   UNL     1      -6.331   5.973  -0.918  1.00  0.00     0.039 C 
ENDROOT
BRANCH   1   4
ATOM      4  C   UNL     1      -8.638   4.773  -0.842  1.00  0.00     0.034 C 
BRANCH   4   5
ATOM      5  C   UNL     1      -9.559   5.783  -1.541  1.00  0.00     0.032 C 
BRANCH   5   6
ATOM      6  C   UNL     1      -9.395   5.762  -3.042  1.00  0.00    -0.028 C 
ATOM      7  C   UNL     1      -8.470   8.089  -3.144  1.00  0.00     0.039 C 
ATOM      8  C   UNL     1      -8.891   6.781  -3.773  1.00  0.00    -0.080 C 
ATOM      9  C   UNL     1      -8.755   6.596  -5.262  1.00  0.00     0.039 C 
ENDBRANCH   5   6
ENDBRANCH   4   5
ENDBRANCH   1   4
BRANCH   2  10
ATOM     10  C   UNL     1      -8.563   5.192   2.165  1.00  0.00     0.260 C 
BRANCH  10  11
ATOM     11  O   UNL     1      -9.373   6.297   2.551  1.00  0.00    -0.462 OA
BRANCH  11  12
ATOM     12  C   UNL     1     -10.499   6.694   1.827  1.00  0.00     0.302 C 
ATOM     13  O   UNL     1     -10.620   7.883   1.424  1.00  0.00    -0.253 OA
ATOM     14  C   UNL     1     -11.589   5.711   1.566  1.00  0.00     0.139 C 
ENDBRANCH  11  12
ENDBRANCH  10  11
ENDBRANCH   2  10
TORSDOF 6
ENDMDL
MODEL 9
REMARK VINA RESULT:    -4.294      1.938      2.600
REMARK INTER + INTRA:          -6.670
REMARK INTER:                  -5.543
REMARK INTRA:                  -1.127
REMARK UNBOUND:                -0.870
REMARK SMILES CC(=O)OCC=C(C)CCC=C(C)C
REMARK SMILES IDX 7 1 6 2 8 3 9 4 10 5 11 6 13 7 12 8 14 9 5 10 4 11 2 12 3 13
REMARK SMILES IDX 1 14
REMARK H PARENT
REMARK Flexibility Score: inf
ROOT
ATOM      1  C   UNL     1      -7.001   6.016  -0.257  1.00  0.00    -0.074 C 
ATOM      2  C   UNL     1      -7.583   4.899   0.237  1.00  0.00     0.013 C 
ATOM      3  C   UNL     1      -5.820   5.856  -1.180  1.00  0.00     0.039 C 
ENDROOT
BRANCH   1   4
ATOM      4  C   UNL     1      -7.456   7.421   0.104  1.00  0.00     0.034 C 
BRANCH   4   5
ATOM      5  C   UNL     1      -8.299   8.057  -1.011  1.00  0.00     0.032 C 
BRANCH   5   6
ATOM      6  C   UNL     1      -9.775   7.804  -0.825  1.00  0.00    -0.028 C 
ATOM      7  C   UNL     1      -9.866   6.027  -2.589  1.00  0.00     0.039 C 
ATOM      8  C   UNL     1     -10.489   6.885  -1.513  1.00  0.00    -0.080 C 
ATOM      9  C   UNL     1     -11.951   6.722  -1.188  1.00  0.00     0.039 C 
ENDBRANCH   5   6
ENDBRANCH   4   5
ENDBRANCH   1   4
BRANCH   2  10
ATOM     10  C   UNL     1      -8.769   4.895   1.161  1.00  0.00     0.260 C 
BRANCH  10  11
ATOM     11  O   UNL     1      -8.335   4.706   2.503  1.00  0.00    -0.462 OA
BRANCH  11  12
ATOM     12  C   UNL     1      -8.110   5.771   3.378  1.00  0.00     0.302 C 
ATOM     13  O   UNL     1      -9.073   6.446   3.834  1.00  0.00    -0.253 OA
ATOM     14  C   UNL     1      -6.712   6.140   3.742  1.00  0.00     0.139 C 
ENDBRANCH  11  12
ENDBRANCH  10  11
ENDBRANCH   2  10
TORSDOF 6
ENDMDL
