MODEL 1
REMARK VINA RESULT:    -2.232      0.000      0.000
REMARK INTER + INTRA:          -3.882
REMARK INTER:                  -3.406
REMARK INTRA:                  -0.476
REMARK UNBOUND:                -0.476
REMARK SMILES CCCCCCCCCCC(=O)[O-]
REMARK SMILES IDX 7 1 8 2 9 3 10 4 11 5 12 6 13 7 6 8 5 9 4 10 3 11 2 12 1 13
REMARK H PARENT
REMARK Flexibility Score: inf
ROOT
ATOM      1  C   UNL     1      -7.458  50.838  -8.757  1.00  0.00     0.000 C 
ENDROOT
BRANCH   1   2
ATOM      2  C   UNL     1      -6.054  50.682  -9.364  1.00  0.00     0.000 C 
BRANCH   2   3
ATOM      3  C   UNL     1      -5.249  51.991  -9.333  1.00  0.00     0.006 C 
BRANCH   3   4
ATOM      4  C   UNL     1      -3.741  51.758  -9.174  1.00  0.00     0.053 C 
BRANCH   4   5
ATOM      5  C   UNL     1      -3.396  51.538  -7.736  1.00  0.00     0.041 C 
ATOM      6  O   UNL     1      -2.261  51.094  -7.416  1.00  0.00    -0.550 OA
ATOM      7  O   UNL     1      -4.344  51.776  -6.749  1.00  0.00    -0.550 OA
ENDBRANCH   4   5
ENDBRANCH   3   4
ENDBRANCH   2   3
ENDBRANCH   1   2
BRANCH   1   8
ATOM      8  C   UNL     1      -7.601  52.125  -7.928  1.00  0.00     0.000 C 
BRANCH   8   9
ATOM      9  C   UNL     1      -8.441  51.916  -6.657  1.00  0.00    -0.000 C 
BRANCH   9  10
ATOM     10  C   UNL     1      -7.581  51.626  -5.414  1.00  0.00    -0.000 C 
BRANCH  10  11
ATOM     11  C   UNL     1      -8.201  50.581  -4.462  1.00  0.00    -0.000 C 
BRANCH  11  12
ATOM     12  C   UNL     1      -9.113  51.227  -3.407  1.00  0.00    -0.003 C 
ATOM     13  C   UNL     1      -8.485  51.158  -2.018  1.00  0.00     0.004 C 
ENDBRANCH  11  12
ENDBRANCH  10  11
ENDBRANCH   9  10
ENDBRANCH   8   9
ENDBRANCH   1   8
TORSDOF 9
ENDMDL
MODEL 2
REMARK VINA RESULT:    -1.917      2.256      4.103
REMARK INTER + INTRA:          -3.401
REMARK INTER:                  -3.359
REMARK INTRA:                  -0.042
REMARK UNBOUND:                -0.476
REMARK SMILES CCCCCCCCCCC(=O)[O-]
REMARK SMILES IDX 7 1 8 2 9 3 10 4 11 5 12 6 13 7 6 8 5 9 4 10 3 11 2 12 1 13
REMARK H PARENT
REMARK Flexibility Score: inf
ROOT
ATOM      1  C   UNL     1      -8.356  51.960  -4.419  1.00  0.00     0.000 C 
ENDROOT
BRANCH   1   2
ATOM      2  C   UNL     1      -7.378  52.125  -5.594  1.00  0.00     0.000 C 
BRANCH   2   3
ATOM      3  C   UNL     1      -7.920  51.522  -6.901  1.00  0.00     0.006 C 
BRANCH   3   4
ATOM      4  C   UNL     1      -7.111  51.952  -8.132  1.00  0.00     0.053 C 
BRANCH   4   5
ATOM      5  C   UNL     1      -6.985  50.815  -9.096  1.00  0.00     0.041 C 
ATOM      6  O   UNL     1      -5.901  50.621  -9.710  1.00  0.00    -0.550 OA
ATOM      7  O   UNL     1      -8.077  49.997  -9.354  1.00  0.00    -0.550 OA
ENDBRANCH   4   5
ENDBRANCH   3   4
ENDBRANCH   2   3
ENDBRANCH   1   2
BRANCH   1   8
ATOM      8  C   UNL     1      -8.664  50.485  -4.112  1.00  0.00     0.000 C 
BRANCH   8   9
ATOM      9  C   UNL     1      -8.801  50.214  -2.605  1.00  0.00    -0.000 C 
BRANCH   9  10
ATOM     10  C   UNL     1      -8.716  51.495  -1.757  1.00  0.00    -0.000 C 
BRANCH  10  11
ATOM     11  C   UNL     1      -7.270  51.948  -1.461  1.00  0.00    -0.000 C 
BRANCH  11  12
ATOM     12  C   UNL     1      -7.011  52.112   0.044  1.00  0.00    -0.003 C 
ATOM     13  C   UNL     1      -5.544  51.860   0.381  1.00  0.00     0.004 C 
ENDBRANCH  11  12
ENDBRANCH  10  11
ENDBRANCH   9  10
ENDBRANCH   8   9
ENDBRANCH   1   8
TORSDOF 9
ENDMDL
MODEL 3
REMARK VINA RESULT:    -1.862      3.156      6.170
REMARK INTER + INTRA:          -3.317
REMARK INTER:                  -3.433
REMARK INTRA:                   0.116
REMARK UNBOUND:                -0.476
REMARK SMILES CCCCCCCCCCC(=O)[O-]
REMARK SMILES IDX 7 1 8 2 9 3 10 4 11 5 12 6 13 7 6 8 5 9 4 10 3 11 2 12 1 13
REMARK H PARENT
REMARK Flexibility Score: inf
ROOT
ATOM      1  C   UNL     1      -6.888  51.979  -5.619  1.00  0.00     0.000 C 
ENDROOT
BRANCH   1   2
ATOM      2  C   UNL     1      -8.375  51.586  -5.589  1.00  0.00     0.000 C 
BRANCH   2   3
ATOM      3  C   UNL     1      -9.021  51.828  -4.216  1.00  0.00     0.006 C 
BRANCH   3   4
ATOM      4  C   UNL     1      -9.123  50.549  -3.374  1.00  0.00     0.053 C 
BRANCH   4   5
ATOM      5  C   UNL     1      -8.597  50.790  -1.994  1.00  0.00     0.041 C 
ATOM      6  O   UNL     1      -8.133  49.835  -1.317  1.00  0.00    -0.550 OA
ATOM      7  O   UNL     1      -8.664  52.060  -1.436  1.00  0.00    -0.550 OA
ENDBRANCH   4   5
ENDBRANCH   3   4
ENDBRANCH   2   3
ENDBRANCH   1   2
BRANCH   1   8
ATOM      8  C   UNL     1      -6.348  52.124  -7.052  1.00  0.00     0.000 C 
BRANCH   8   9
ATOM      9  C   UNL     1      -6.929  51.070  -8.009  1.00  0.00    -0.000 C 
BRANCH   9  10
ATOM     10  C   UNL     1      -6.028  50.812  -9.230  1.00  0.00    -0.000 C 
BRANCH  10  11
ATOM     11  C   UNL     1      -4.630  51.456  -9.116  1.00  0.00    -0.000 C 
BRANCH  11  12
ATOM     12  C   UNL     1      -3.834  50.907  -7.922  1.00  0.00    -0.003 C 
ATOM     13  C   UNL     1      -2.496  51.626  -7.774  1.00  0.00     0.004 C 
ENDBRANCH  11  12
ENDBRANCH  10  11
ENDBRANCH   9  10
ENDBRANCH   8   9
ENDBRANCH   1   8
TORSDOF 9
ENDMDL
MODEL 4
REMARK VINA RESULT:    -1.800      1.906      4.173
REMARK INTER + INTRA:          -3.223
REMARK INTER:                  -2.755
REMARK INTRA:                  -0.468
REMARK UNBOUND:                -0.476
REMARK SMILES CCCCCCCCCCC(=O)[O-]
REMARK SMILES IDX 7 1 8 2 9 3 10 4 11 5 12 6 13 7 6 8 5 9 4 10 3 11 2 12 1 13
REMARK H PARENT
REMARK Flexibility Score: inf
ROOT
ATOM      1  C   UNL     1      -8.028  51.256  -3.946  1.00  0.00     0.000 C 
ENDROOT
BRANCH   1   2
ATOM      2  C   UNL     1      -8.325  51.247  -5.455  1.00  0.00     0.000 C 
BRANCH   2   3
ATOM      3  C   UNL     1      -7.347  52.124  -6.254  1.00  0.00     0.006 C 
BRANCH   3   4
ATOM      4  C   UNL     1      -7.361  51.812  -7.756  1.00  0.00     0.053 C 
BRANCH   4   5
ATOM      5  C   UNL     1      -5.966  51.770  -8.293  1.00  0.00     0.041 C 
ATOM      6  O   UNL     1      -5.765  51.769  -9.537  1.00  0.00    -0.550 OA
ATOM      7  O   UNL     1      -4.888  51.683  -7.422  1.00  0.00    -0.550 OA
ENDBRANCH   4   5
ENDBRANCH   3   4
ENDBRANCH   2   3
ENDBRANCH   1   2
BRANCH   1   8
ATOM      8  C   UNL     1      -8.569  50.006  -3.234  1.00  0.00     0.000 C 
BRANCH   8   9
ATOM      9  C   UNL     1      -8.527  50.137  -1.702  1.00  0.00    -0.000 C 
BRANCH   9  10
ATOM     10  C   UNL     1      -8.847  51.561  -1.216  1.00  0.00    -0.000 C 
BRANCH  10  11
ATOM     11  C   UNL     1      -7.812  52.124  -0.218  1.00  0.00    -0.000 C 
BRANCH  11  12
ATOM     12  C   UNL     1      -6.402  51.566  -0.470  1.00  0.00    -0.003 C 
ATOM     13  C   UNL     1      -5.479  51.850   0.712  1.00  0.00     0.004 C 
ENDBRANCH  11  12
ENDBRANCH  10  11
ENDBRANCH   9  10
ENDBRANCH   8   9
ENDBRANCH   1   8
TORSDOF 9
ENDMDL
MODEL 5
REMARK VINA RESULT:    -1.286      3.199      6.278
REMARK INTER + INTRA:          -2.439
REMARK INTER:                  -1.951
REMARK INTRA:                  -0.488
REMARK UNBOUND:                -0.476
REMARK SMILES CCCCCCCCCCC(=O)[O-]
REMARK SMILES IDX 7 1 8 2 9 3 10 4 11 5 12 6 13 7 6 8 5 9 4 10 3 11 2 12 1 13
REMARK H PARENT
REMARK Flexibility Score: inf
ROOT
ATOM      1  C   UNL     1      -8.925  51.217  -1.194  1.00  0.00     0.000 C 
ENDROOT
BRANCH   1   2
ATOM      2  C   UNL     1      -9.120  52.102  -2.437  1.00  0.00     0.000 C 
BRANCH   2   3
ATOM      3  C   UNL     1      -7.919  52.046  -3.395  1.00  0.00     0.006 C 
BRANCH   3   4
ATOM      4  C   UNL     1      -8.203  51.214  -4.653  1.00  0.00     0.053 C 
BRANCH   4   5
ATOM      5  C   UNL     1      -7.554  51.838  -5.848  1.00  0.00     0.041 C 
ATOM      6  O   UNL     1      -8.237  52.109  -6.871  1.00  0.00    -0.550 OA
ATOM      7  O   UNL     1      -6.185  52.074  -5.852  1.00  0.00    -0.550 OA
ENDBRANCH   4   5
ENDBRANCH   3   4
ENDBRANCH   2   3
ENDBRANCH   1   2
BRANCH   1   8
ATOM      8  C   UNL     1      -7.674  50.328  -1.296  1.00  0.00     0.000 C 
BRANCH   8   9
ATOM      9  C   UNL     1      -6.708  50.535  -0.117  1.00  0.00    -0.000 C 
BRANCH   9  10
ATOM     10  C   UNL     1      -6.221  51.989   0.008  1.00  0.00    -0.000 C 
BRANCH  10  11
ATOM     11  C   UNL     1      -4.843  52.125   0.691  1.00  0.00    -0.000 C 
BRANCH  11  12
ATOM     12  C   UNL     1      -3.770  51.264   0.007  1.00  0.00    -0.003 C 
ATOM     13  C   UNL     1      -2.418  51.973  -0.001  1.00  0.00     0.004 C 
ENDBRANCH  11  12
ENDBRANCH  10  11
ENDBRANCH   9  10
ENDBRANCH   8   9
ENDBRANCH   1   8
TORSDOF 9
ENDMDL
MODEL 6
REMARK VINA RESULT:    -1.125      3.336      6.485
REMARK INTER + INTRA:          -2.192
REMARK INTER:                  -1.711
REMARK INTRA:                  -0.481
REMARK UNBOUND:                -0.476
REMARK SMILES CCCCCCCCCCC(=O)[O-]
REMARK SMILES IDX 7 1 8 2 9 3 10 4 11 5 12 6 13 7 6 8 5 9 4 10 3 11 2 12 1 13
REMARK H PARENT
REMARK Flexibility Score: inf
ROOT
ATOM      1  C   UNL     1      -7.972  51.065  -5.163  1.00  0.00     0.000 C 
ENDROOT
BRANCH   1   2
ATOM      2  C   UNL     1      -9.087  51.813  -4.412  1.00  0.00     0.000 C 
BRANCH   2   3
ATOM      3  C   UNL     1      -9.069  51.534  -2.901  1.00  0.00     0.006 C 
BRANCH   3   4
ATOM      4  C   UNL     1      -7.681  51.730  -2.277  1.00  0.00     0.053 C 
BRANCH   4   5
ATOM      5  C   UNL     1      -7.789  51.855  -0.791  1.00  0.00     0.041 C 
ATOM      6  O   UNL     1      -8.899  52.123  -0.256  1.00  0.00    -0.550 OA
ATOM      7  O   UNL     1      -6.657  51.725   0.003  1.00  0.00    -0.550 OA
ENDBRANCH   4   5
ENDBRANCH   3   4
ENDBRANCH   2   3
ENDBRANCH   1   2
BRANCH   1   8
ATOM      8  C   UNL     1      -7.024  52.019  -5.908  1.00  0.00     0.000 C 
BRANCH   8   9
ATOM      9  C   UNL     1      -7.354  52.125  -7.407  1.00  0.00    -0.000 C 
BRANCH   9  10
ATOM     10  C   UNL     1      -7.951  50.827  -7.979  1.00  0.00    -0.000 C 
BRANCH  10  11
ATOM     11  C   UNL     1      -7.309  50.385  -9.312  1.00  0.00    -0.000 C 
BRANCH  11  12
ATOM     12  C   UNL     1      -6.390  51.467  -9.900  1.00  0.00    -0.003 C 
ATOM     13  C   UNL     1      -4.958  50.957 -10.036  1.00  0.00     0.004 C 
ENDBRANCH  11  12
ENDBRANCH  10  11
ENDBRANCH   9  10
ENDBRANCH   8   9
ENDBRANCH   1   8
TORSDOF 9
ENDMDL
MODEL 7
REMARK VINA RESULT:    -0.846      3.258      6.663
REMARK INTER + INTRA:          -1.766
REMARK INTER:                  -1.426
REMARK INTRA:                  -0.340
REMARK UNBOUND:                -0.476
REMARK SMILES CCCCCCCCCCC(=O)[O-]
REMARK SMILES IDX 7 1 8 2 9 3 10 4 11 5 12 6 13 7 6 8 5 9 4 10 3 11 2 12 1 13
REMARK H PARENT
REMARK Flexibility Score: inf
ROOT
ATOM      1  C   UNL     1      -8.188  49.864  -3.310  1.00  0.00     0.000 C 
ENDROOT
BRANCH   1   2
ATOM      2  C   UNL     1      -8.361  49.861  -1.781  1.00  0.00     0.000 C 
BRANCH   2   3
ATOM      3  C   UNL     1      -8.562  51.273  -1.207  1.00  0.00     0.006 C 
BRANCH   3   4
ATOM      4  C   UNL     1      -7.285  52.122  -1.262  1.00  0.00     0.053 C 
BRANCH   4   5
ATOM      5  C   UNL     1      -6.531  52.014   0.026  1.00  0.00     0.041 C 
ATOM      6  O   UNL     1      -5.293  51.779   0.019  1.00  0.00    -0.550 OA
ATOM      7  O   UNL     1      -7.203  52.124   1.236  1.00  0.00    -0.550 OA
ENDBRANCH   4   5
ENDBRANCH   3   4
ENDBRANCH   2   3
ENDBRANCH   1   2
BRANCH   1   8
ATOM      8  C   UNL     1      -9.048  50.938  -3.996  1.00  0.00     0.000 C 
BRANCH   8   9
ATOM      9  C   UNL     1      -8.203  51.954  -4.783  1.00  0.00    -0.000 C 
BRANCH   9  10
ATOM     10  C   UNL     1      -7.416  51.309  -5.938  1.00  0.00    -0.000 C 
BRANCH  10  11
ATOM     11  C   UNL     1      -7.456  52.124  -7.248  1.00  0.00    -0.000 C 
BRANCH  11  12
ATOM     12  C   UNL     1      -7.292  51.234  -8.489  1.00  0.00    -0.003 C 
ATOM     13  C   UNL     1      -6.124  51.702  -9.352  1.00  0.00     0.004 C 
ENDBRANCH  11  12
ENDBRANCH  10  11
ENDBRANCH   9  10
ENDBRANCH   8   9
ENDBRANCH   1   8
TORSDOF 9
ENDMDL
