MODEL 1
REMARK VINA RESULT:    -3.534      0.000      0.000
REMARK INTER + INTRA:          -4.318
REMARK INTER:                  -4.154
REMARK INTRA:                  -0.164
REMARK UNBOUND:                -0.164
REMARK SMILES O=C([O-])CCC(=O)[O-]
REMARK SMILES IDX 4 1 2 2 1 3 3 4 5 5 6 6 7 7 8 8
REMARK H PARENT
REMARK Flexibility Score: inf
ROOT
ATOM      1  C   UNL     1      24.174  39.926  23.652  1.00  0.00     0.059 C 
ENDROOT
BRANCH   1   2
ATOM      2  C   UNL     1      23.023  39.248  24.331  1.00  0.00     0.042 C 
ATOM      3  O   UNL     1      21.926  39.849  24.468  1.00  0.00    -0.550 OA
ATOM      4  O   UNL     1      23.152  37.938  24.776  1.00  0.00    -0.550 OA
ENDBRANCH   1   2
BRANCH   1   5
ATOM      5  C   UNL     1      23.948  40.044  22.141  1.00  0.00     0.059 C 
BRANCH   5   6
ATOM      6  C   UNL     1      24.049  38.712  21.462  1.00  0.00     0.042 C 
ATOM      7  O   UNL     1      25.158  38.119  21.393  1.00  0.00    -0.550 OA
ATOM      8  O   UNL     1      22.912  38.107  20.942  1.00  0.00    -0.550 OA
ENDBRANCH   5   6
ENDBRANCH   1   5
TORSDOF 3
ENDMDL
MODEL 2
REMARK VINA RESULT:    -3.531      0.150      3.441
REMARK INTER + INTRA:          -4.315
REMARK INTER:                  -4.161
REMARK INTRA:                  -0.154
REMARK UNBOUND:                -0.164
REMARK SMILES O=C([O-])CCC(=O)[O-]
REMARK SMILES IDX 4 1 2 2 1 3 3 4 5 5 6 6 7 7 8 8
REMARK H PARENT
REMARK Flexibility Score: inf
ROOT
ATOM      1  C   UNL     1      23.929  40.082  22.255  1.00  0.00     0.059 C 
ENDROOT
BRANCH   1   2
ATOM      2  C   UNL     1      24.051  38.790  21.508  1.00  0.00     0.042 C 
ATOM      3  O   UNL     1      25.153  38.181  21.471  1.00  0.00    -0.550 OA
ATOM      4  O   UNL     1      22.939  38.238  20.886  1.00  0.00    -0.550 OA
ENDBRANCH   1   2
BRANCH   1   5
ATOM      5  C   UNL     1      24.091  39.879  23.766  1.00  0.00     0.059 C 
BRANCH   5   6
ATOM      6  C   UNL     1      22.898  39.194  24.361  1.00  0.00     0.042 C 
ATOM      7  O   UNL     1      22.993  38.011  24.783  1.00  0.00    -0.550 OA
ATOM      8  O   UNL     1      21.694  39.876  24.485  1.00  0.00    -0.550 OA
ENDBRANCH   5   6
ENDBRANCH   1   5
TORSDOF 3
ENDMDL
MODEL 3
REMARK VINA RESULT:    -3.531      0.119      3.422
REMARK INTER + INTRA:          -4.314
REMARK INTER:                  -4.158
REMARK INTRA:                  -0.156
REMARK UNBOUND:                -0.164
REMARK SMILES O=C([O-])CCC(=O)[O-]
REMARK SMILES IDX 4 1 2 2 1 3 3 4 5 5 6 6 7 7 8 8
REMARK H PARENT
REMARK Flexibility Score: inf
ROOT
ATOM      1  C   UNL     1      23.914  40.034  22.141  1.00  0.00     0.059 C 
ENDROOT
BRANCH   1   2
ATOM      2  C   UNL     1      23.949  38.707  21.446  1.00  0.00     0.042 C 
ATOM      3  O   UNL     1      22.917  38.263  20.878  1.00  0.00    -0.550 OA
ATOM      4  O   UNL     1      25.131  37.980  21.393  1.00  0.00    -0.550 OA
ENDBRANCH   1   2
BRANCH   1   5
ATOM      5  C   UNL     1      24.124  39.887  23.652  1.00  0.00     0.059 C 
BRANCH   5   6
ATOM      6  C   UNL     1      22.931  39.271  24.317  1.00  0.00     0.042 C 
ATOM      7  O   UNL     1      21.867  39.933  24.448  1.00  0.00    -0.550 OA
ATOM      8  O   UNL     1      22.981  37.954  24.757  1.00  0.00    -0.550 OA
ENDBRANCH   5   6
ENDBRANCH   1   5
TORSDOF 3
ENDMDL
MODEL 4
REMARK VINA RESULT:    -3.507      2.375      2.953
REMARK INTER + INTRA:          -4.286
REMARK INTER:                  -4.189
REMARK INTRA:                  -0.097
REMARK UNBOUND:                -0.164
REMARK SMILES O=C([O-])CCC(=O)[O-]
REMARK SMILES IDX 4 1 2 2 1 3 3 4 5 5 6 6 7 7 8 8
REMARK H PARENT
REMARK Flexibility Score: inf
ROOT
ATOM      1  C   UNL     1      23.578  36.849  24.201  1.00  0.00     0.059 C 
ENDROOT
BRANCH   1   2
ATOM      2  C   UNL     1      23.236  38.287  24.447  1.00  0.00     0.042 C 
ATOM      3  O   UNL     1      22.348  38.591  25.286  1.00  0.00    -0.550 OA
ATOM      4  O   UNL     1      23.926  39.290  23.780  1.00  0.00    -0.550 OA
ENDBRANCH   1   2
BRANCH   1   5
ATOM      5  C   UNL     1      25.093  36.634  24.118  1.00  0.00     0.059 C 
BRANCH   5   6
ATOM      6  C   UNL     1      25.523  36.263  22.731  1.00  0.00     0.042 C 
ATOM      7  O   UNL     1      24.664  35.956  21.863  1.00  0.00    -0.550 OA
ATOM      8  O   UNL     1      26.869  36.295  22.387  1.00  0.00    -0.550 OA
ENDBRANCH   5   6
ENDBRANCH   1   5
TORSDOF 3
ENDMDL
MODEL 5
REMARK VINA RESULT:    -3.498      2.385      4.154
REMARK INTER + INTRA:          -4.276
REMARK INTER:                  -4.183
REMARK INTRA:                  -0.092
REMARK UNBOUND:                -0.164
REMARK SMILES O=C([O-])CCC(=O)[O-]
REMARK SMILES IDX 4 1 2 2 1 3 3 4 5 5 6 6 7 7 8 8
REMARK H PARENT
REMARK Flexibility Score: inf
ROOT
ATOM      1  C   UNL     1      25.180  36.637  24.161  1.00  0.00     0.059 C 
ENDROOT
BRANCH   1   2
ATOM      2  C   UNL     1      25.670  36.345  22.776  1.00  0.00     0.042 C 
ATOM      3  O   UNL     1      26.902  36.377  22.520  1.00  0.00    -0.550 OA
ATOM      4  O   UNL     1      24.768  35.999  21.777  1.00  0.00    -0.550 OA
ENDBRANCH   1   2
BRANCH   1   5
ATOM      5  C   UNL     1      23.658  36.811  24.198  1.00  0.00     0.059 C 
BRANCH   5   6
ATOM      6  C   UNL     1      23.271  38.246  24.394  1.00  0.00     0.042 C 
ATOM      7  O   UNL     1      23.814  39.148  23.702  1.00  0.00    -0.550 OA
ATOM      8  O   UNL     1      22.283  38.582  25.311  1.00  0.00    -0.550 OA
ENDBRANCH   5   6
ENDBRANCH   1   5
TORSDOF 3
ENDMDL
MODEL 6
REMARK VINA RESULT:    -3.439      1.919      2.552
REMARK INTER + INTRA:          -4.207
REMARK INTER:                  -4.099
REMARK INTRA:                  -0.108
REMARK UNBOUND:                -0.164
REMARK SMILES O=C([O-])CCC(=O)[O-]
REMARK SMILES IDX 4 1 2 2 1 3 3 4 5 5 6 6 7 7 8 8
REMARK H PARENT
REMARK Flexibility Score: inf
ROOT
ATOM      1  C   UNL     1      23.159  38.045  24.411  1.00  0.00     0.059 C 
ENDROOT
BRANCH   1   2
ATOM      2  C   UNL     1      24.058  36.871  24.176  1.00  0.00     0.042 C 
ATOM      3  O   UNL     1      23.599  35.700  24.232  1.00  0.00    -0.550 OA
ATOM      4  O   UNL     1      25.395  37.071  23.856  1.00  0.00    -0.550 OA
ENDBRANCH   1   2
BRANCH   1   5
ATOM      5  C   UNL     1      23.760  39.339  23.852  1.00  0.00     0.059 C 
BRANCH   5   6
ATOM      6  C   UNL     1      23.342  39.572  22.431  1.00  0.00     0.042 C 
ATOM      7  O   UNL     1      24.163  40.041  21.599  1.00  0.00    -0.550 OA
ATOM      8  O   UNL     1      22.059  39.236  22.019  1.00  0.00    -0.550 OA
ENDBRANCH   5   6
ENDBRANCH   1   5
TORSDOF 3
ENDMDL
MODEL 7
REMARK VINA RESULT:    -3.383      2.038      3.226
REMARK INTER + INTRA:          -4.140
REMARK INTER:                  -4.044
REMARK INTRA:                  -0.096
REMARK UNBOUND:                -0.164
REMARK SMILES O=C([O-])CCC(=O)[O-]
REMARK SMILES IDX 4 1 2 2 1 3 3 4 5 5 6 6 7 7 8 8
REMARK H PARENT
REMARK Flexibility Score: inf
ROOT
ATOM      1  C   UNL     1      23.879  39.103  23.844  1.00  0.00     0.059 C 
ENDROOT
BRANCH   1   2
ATOM      2  C   UNL     1      23.348  39.424  22.481  1.00  0.00     0.042 C 
ATOM      3  O   UNL     1      24.040  40.100  21.674  1.00  0.00    -0.550 OA
ATOM      4  O   UNL     1      22.105  38.945  22.087  1.00  0.00    -0.550 OA
ENDBRANCH   1   2
BRANCH   1   5
ATOM      5  C   UNL     1      23.217  37.850  24.428  1.00  0.00     0.059 C 
BRANCH   5   6
ATOM      6  C   UNL     1      24.045  36.624  24.185  1.00  0.00     0.042 C 
ATOM      7  O   UNL     1      23.486  35.520  23.949  1.00  0.00    -0.550 OA
ATOM      8  O   UNL     1      25.431  36.710  24.181  1.00  0.00    -0.550 OA
ENDBRANCH   5   6
ENDBRANCH   1   5
TORSDOF 3
ENDMDL
MODEL 8
REMARK VINA RESULT:    -3.337      2.389      2.984
REMARK INTER + INTRA:          -4.086
REMARK INTER:                  -4.005
REMARK INTRA:                  -0.081
REMARK UNBOUND:                -0.164
REMARK SMILES O=C([O-])CCC(=O)[O-]
REMARK SMILES IDX 4 1 2 2 1 3 3 4 5 5 6 6 7 7 8 8
REMARK H PARENT
REMARK Flexibility Score: inf
ROOT
ATOM      1  C   UNL     1      25.598  36.798  23.712  1.00  0.00     0.059 C 
ENDROOT
BRANCH   1   2
ATOM      2  C   UNL     1      24.183  36.650  24.181  1.00  0.00     0.042 C 
ATOM      3  O   UNL     1      23.641  35.514  24.207  1.00  0.00    -0.550 OA
ATOM      4  O   UNL     1      23.476  37.760  24.625  1.00  0.00    -0.550 OA
ENDBRANCH   1   2
BRANCH   1   5
ATOM      5  C   UNL     1      25.760  36.359  22.253  1.00  0.00     0.059 C 
BRANCH   5   6
ATOM      6  C   UNL     1      25.836  37.535  21.327  1.00  0.00     0.042 C 
ATOM      7  O   UNL     1      26.753  37.606  20.467  1.00  0.00    -0.550 OA
ATOM      8  O   UNL     1      24.871  38.532  21.389  1.00  0.00    -0.550 OA
ENDBRANCH   5   6
ENDBRANCH   1   5
TORSDOF 3
ENDMDL
MODEL 9
REMARK VINA RESULT:    -3.319      2.486      4.385
REMARK INTER + INTRA:          -4.065
REMARK INTER:                  -4.032
REMARK INTRA:                  -0.033
REMARK UNBOUND:                -0.164
REMARK SMILES O=C([O-])CCC(=O)[O-]
REMARK SMILES IDX 4 1 2 2 1 3 3 4 5 5 6 6 7 7 8 8
REMARK H PARENT
REMARK Flexibility Score: inf
ROOT
ATOM      1  C   UNL     1      25.954  36.327  22.379  1.00  0.00     0.059 C 
ENDROOT
BRANCH   1   2
ATOM      2  C   UNL     1      25.931  37.473  21.414  1.00  0.00     0.042 C 
ATOM      3  O   UNL     1      26.735  37.501  20.445  1.00  0.00    -0.550 OA
ATOM      4  O   UNL     1      24.995  38.489  21.561  1.00  0.00    -0.550 OA
ENDBRANCH   1   2
BRANCH   1   5
ATOM      5  C   UNL     1      25.591  36.777  23.799  1.00  0.00     0.059 C 
BRANCH   5   6
ATOM      6  C   UNL     1      24.136  36.564  24.090  1.00  0.00     0.042 C 
ATOM      7  O   UNL     1      23.453  37.487  24.608  1.00  0.00    -0.550 OA
ATOM      8  O   UNL     1      23.527  35.362  23.753  1.00  0.00    -0.550 OA
ENDBRANCH   5   6
ENDBRANCH   1   5
TORSDOF 3
ENDMDL
