MODEL 1
REMARK VINA RESULT:    -1.375      0.000      0.000
REMARK INTER + INTRA:          -2.263
REMARK INTER:                  -1.858
REMARK INTRA:                  -0.405
REMARK UNBOUND:                -0.405
REMARK SMILES CCCCCCCC(=O)[O-]
REMARK SMILES IDX 5 1 6 2 7 3 8 4 9 5 10 6 4 7 3 8 2 9 1 10
REMARK H PARENT
REMARK Flexibility Score: inf
ROOT
ATOM      1  C   UNL     1      30.639 -10.413  17.280  1.00  0.00     0.000 C 
ENDROOT
BRANCH   1   2
ATOM      2  C   UNL     1      29.322 -11.019  17.783  1.00  0.00     0.006 C 
BRANCH   2   3
ATOM      3  C   UNL     1      28.373  -9.956  18.351  1.00  0.00     0.053 C 
BRANCH   3   4
ATOM      4  C   UNL     1      28.219 -10.085  19.835  1.00  0.00     0.041 C 
ATOM      5  O   UNL     1      27.097  -9.894  20.375  1.00  0.00    -0.550 OA
ATOM      6  O   UNL     1      29.306 -10.449  20.618  1.00  0.00    -0.550 OA
ENDBRANCH   3   4
ENDBRANCH   2   3
ENDBRANCH   1   2
BRANCH   1   7
ATOM      7  C   UNL     1      31.124 -11.125  16.011  1.00  0.00     0.000 C 
BRANCH   7   8
ATOM      8  C   UNL     1      30.940 -10.235  14.775  1.00  0.00    -0.000 C 
BRANCH   8   9
ATOM      9  C   UNL     1      29.945 -10.860  13.792  1.00  0.00    -0.003 C 
ATOM     10  C   UNL     1      28.514 -10.444  14.116  1.00  0.00     0.004 C 
ENDBRANCH   8   9
ENDBRANCH   7   8
ENDBRANCH   1   7
TORSDOF 6
ENDMDL
MODEL 2
REMARK VINA RESULT:    -1.301      4.068      5.673
REMARK INTER + INTRA:          -2.162
REMARK INTER:                  -1.912
REMARK INTRA:                  -0.250
REMARK UNBOUND:                -0.405
REMARK SMILES CCCCCCCC(=O)[O-]
REMARK SMILES IDX 5 1 6 2 7 3 8 4 9 5 10 6 4 7 3 8 2 9 1 10
REMARK H PARENT
REMARK Flexibility Score: inf
ROOT
ATOM      1  C   UNL     1      30.119  -9.651  15.705  1.00  0.00     0.000 C 
ENDROOT
BRANCH   1   2
ATOM      2  C   UNL     1      30.711 -10.585  14.640  1.00  0.00     0.006 C 
BRANCH   2   3
ATOM      3  C   UNL     1      29.641 -11.125  13.682  1.00  0.00     0.053 C 
BRANCH   3   4
ATOM      4  C   UNL     1      29.709 -10.458  12.342  1.00  0.00     0.041 C 
ATOM      5  O   UNL     1      30.808 -10.368  11.733  1.00  0.00    -0.550 OA
ATOM      6  O   UNL     1      28.553  -9.964  11.752  1.00  0.00    -0.550 OA
ENDBRANCH   3   4
ENDBRANCH   2   3
ENDBRANCH   1   2
BRANCH   1   7
ATOM      7  C   UNL     1      31.098  -9.453  16.869  1.00  0.00     0.000 C 
BRANCH   7   8
ATOM      8  C   UNL     1      30.518 -10.007  18.176  1.00  0.00    -0.000 C 
BRANCH   8   9
ATOM      9  C   UNL     1      29.372 -10.985  17.899  1.00  0.00    -0.003 C 
ATOM     10  C   UNL     1      28.204 -10.751  18.852  1.00  0.00     0.004 C 
ENDBRANCH   8   9
ENDBRANCH   7   8
ENDBRANCH   1   7
TORSDOF 6
ENDMDL
MODEL 3
REMARK VINA RESULT:    -1.300      2.688      5.543
REMARK INTER + INTRA:          -2.161
REMARK INTER:                  -1.672
REMARK INTRA:                  -0.489
REMARK UNBOUND:                -0.405
REMARK SMILES CCCCCCCC(=O)[O-]
REMARK SMILES IDX 5 1 6 2 7 3 8 4 9 5 10 6 4 7 3 8 2 9 1 10
REMARK H PARENT
REMARK Flexibility Score: inf
ROOT
ATOM      1  C   UNL     1      28.117  -9.667  19.949  1.00  0.00     0.000 C 
ENDROOT
BRANCH   1   2
ATOM      2  C   UNL     1      29.094  -9.092  18.914  1.00  0.00     0.006 C 
BRANCH   2   3
ATOM      3  C   UNL     1      30.155 -10.115  18.486  1.00  0.00     0.053 C 
BRANCH   3   4
ATOM      4  C   UNL     1      29.968 -10.546  17.064  1.00  0.00     0.041 C 
ATOM      5  O   UNL     1      28.865 -10.360  16.484  1.00  0.00    -0.550 OA
ATOM      6  O   UNL     1      31.021 -11.125  16.368  1.00  0.00    -0.550 OA
ENDBRANCH   3   4
ENDBRANCH   2   3
ENDBRANCH   1   2
BRANCH   1   7
ATOM      7  C   UNL     1      28.556 -11.065  20.403  1.00  0.00     0.000 C 
BRANCH   7   8
ATOM      8  C   UNL     1      28.737 -11.119  21.925  1.00  0.00    -0.000 C 
BRANCH   8   9
ATOM      9  C   UNL     1      29.401  -9.840  22.445  1.00  0.00    -0.003 C 
ATOM     10  C   UNL     1      30.922  -9.962  22.429  1.00  0.00     0.004 C 
ENDBRANCH   8   9
ENDBRANCH   7   8
ENDBRANCH   1   7
TORSDOF 6
ENDMDL
MODEL 4
REMARK VINA RESULT:    -1.286      1.723      2.234
REMARK INTER + INTRA:          -2.142
REMARK INTER:                  -1.868
REMARK INTRA:                  -0.274
REMARK UNBOUND:                -0.405
REMARK SMILES CCCCCCCC(=O)[O-]
REMARK SMILES IDX 5 1 6 2 7 3 8 4 9 5 10 6 4 7 3 8 2 9 1 10
REMARK H PARENT
REMARK Flexibility Score: inf
ROOT
ATOM      1  C   UNL     1      31.075  -9.936  18.053  1.00  0.00     0.000 C 
ENDROOT
BRANCH   1   2
ATOM      2  C   UNL     1      30.337  -9.087  19.097  1.00  0.00     0.006 C 
BRANCH   2   3
ATOM      3  C   UNL     1      30.900  -9.284  20.510  1.00  0.00     0.053 C 
BRANCH   3   4
ATOM      4  C   UNL     1      30.004 -10.141  21.350  1.00  0.00     0.041 C 
ATOM      5  O   UNL     1      28.989 -10.688  20.842  1.00  0.00    -0.550 OA
ATOM      6  O   UNL     1      30.306 -10.363  22.688  1.00  0.00    -0.550 OA
ENDBRANCH   3   4
ENDBRANCH   2   3
ENDBRANCH   1   2
BRANCH   1   7
ATOM      7  C   UNL     1      30.115 -10.909  17.357  1.00  0.00     0.000 C 
BRANCH   7   8
ATOM      8  C   UNL     1      29.762 -10.421  15.947  1.00  0.00    -0.000 C 
BRANCH   8   9
ATOM      9  C   UNL     1      30.916 -10.677  14.972  1.00  0.00    -0.003 C 
ATOM     10  C   UNL     1      31.112  -9.496  14.026  1.00  0.00     0.004 C 
ENDBRANCH   8   9
ENDBRANCH   7   8
ENDBRANCH   1   7
TORSDOF 6
ENDMDL
MODEL 5
REMARK VINA RESULT:    -1.281      1.651      2.329
REMARK INTER + INTRA:          -2.135
REMARK INTER:                  -1.877
REMARK INTRA:                  -0.258
REMARK UNBOUND:                -0.405
REMARK SMILES CCCCCCCC(=O)[O-]
REMARK SMILES IDX 5 1 6 2 7 3 8 4 9 5 10 6 4 7 3 8 2 9 1 10
REMARK H PARENT
REMARK Flexibility Score: inf
ROOT
ATOM      1  C   UNL     1      28.869 -10.732  18.238  1.00  0.00     0.000 C 
ENDROOT
BRANCH   1   2
ATOM      2  C   UNL     1      29.619 -10.057  19.395  1.00  0.00     0.006 C 
BRANCH   2   3
ATOM      3  C   UNL     1      28.862 -10.175  20.724  1.00  0.00     0.053 C 
BRANCH   3   4
ATOM      4  C   UNL     1      29.792 -10.426  21.873  1.00  0.00     0.041 C 
ATOM      5  O   UNL     1      29.382 -11.024  22.902  1.00  0.00    -0.550 OA
ATOM      6  O   UNL     1      31.120 -10.027  21.792  1.00  0.00    -0.550 OA
ENDBRANCH   3   4
ENDBRANCH   2   3
ENDBRANCH   1   2
BRANCH   1   7
ATOM      7  C   UNL     1      29.831 -11.108  17.104  1.00  0.00     0.000 C 
BRANCH   7   8
ATOM      8  C   UNL     1      30.954 -10.072  16.968  1.00  0.00    -0.000 C 
BRANCH   8   9
ATOM      9  C   UNL     1      31.124  -9.634  15.510  1.00  0.00    -0.003 C 
ATOM     10  C   UNL     1      30.006 -10.190  14.633  1.00  0.00     0.004 C 
ENDBRANCH   8   9
ENDBRANCH   7   8
ENDBRANCH   1   7
TORSDOF 6
ENDMDL
MODEL 6
REMARK VINA RESULT:    -1.261      1.823      2.644
REMARK INTER + INTRA:          -2.108
REMARK INTER:                  -1.678
REMARK INTRA:                  -0.430
REMARK UNBOUND:                -0.405
REMARK SMILES CCCCCCCC(=O)[O-]
REMARK SMILES IDX 5 1 6 2 7 3 8 4 9 5 10 6 4 7 3 8 2 9 1 10
REMARK H PARENT
REMARK Flexibility Score: inf
ROOT
ATOM      1  C   UNL     1      28.120  -9.077  16.397  1.00  0.00     0.000 C 
ENDROOT
BRANCH   1   2
ATOM      2  C   UNL     1      28.405 -10.354  17.201  1.00  0.00     0.006 C 
BRANCH   2   3
ATOM      3  C   UNL     1      28.952 -10.048  18.601  1.00  0.00     0.053 C 
BRANCH   3   4
ATOM      4  C   UNL     1      30.441  -9.877  18.590  1.00  0.00     0.041 C 
ATOM      5  O   UNL     1      31.123 -10.322  17.630  1.00  0.00    -0.550 OA
ATOM      6  O   UNL     1      31.070  -9.198  19.625  1.00  0.00    -0.550 OA
ENDBRANCH   3   4
ENDBRANCH   2   3
ENDBRANCH   1   2
BRANCH   1   7
ATOM      7  C   UNL     1      28.889  -9.080  15.070  1.00  0.00     0.000 C 
BRANCH   7   8
ATOM      8  C   UNL     1      28.383 -10.190  14.141  1.00  0.00    -0.000 C 
BRANCH   8   9
ATOM      9  C   UNL     1      29.534 -11.092  13.684  1.00  0.00    -0.003 C 
ATOM     10  C   UNL     1      30.880 -10.554  14.163  1.00  0.00     0.004 C 
ENDBRANCH   8   9
ENDBRANCH   7   8
ENDBRANCH   1   7
TORSDOF 6
ENDMDL
MODEL 7
REMARK VINA RESULT:    -1.211      3.701      6.633
REMARK INTER + INTRA:          -2.040
REMARK INTER:                  -1.855
REMARK INTRA:                  -0.185
REMARK UNBOUND:                -0.405
REMARK SMILES CCCCCCCC(=O)[O-]
REMARK SMILES IDX 5 1 6 2 7 3 8 4 9 5 10 6 4 7 3 8 2 9 1 10
REMARK H PARENT
REMARK Flexibility Score: inf
ROOT
ATOM      1  C   UNL     1      29.402  -9.825  21.805  1.00  0.00     0.000 C 
ENDROOT
BRANCH   1   2
ATOM      2  C   UNL     1      28.994 -10.580  20.532  1.00  0.00     0.006 C 
BRANCH   2   3
ATOM      3  C   UNL     1      29.675 -10.016  19.278  1.00  0.00     0.053 C 
BRANCH   3   4
ATOM      4  C   UNL     1      29.007 -10.487  18.023  1.00  0.00     0.041 C 
ATOM      5  O   UNL     1      27.757 -10.640  17.989  1.00  0.00    -0.550 OA
ATOM      6  O   UNL     1      29.760 -10.725  16.881  1.00  0.00    -0.550 OA
ENDBRANCH   3   4
ENDBRANCH   2   3
ENDBRANCH   1   2
BRANCH   1   7
ATOM      7  C   UNL     1      30.523 -10.564  22.546  1.00  0.00     0.000 C 
BRANCH   7   8
ATOM      8  C   UNL     1      31.125  -9.686  23.651  1.00  0.00    -0.000 C 
BRANCH   8   9
ATOM      9  C   UNL     1      31.123 -10.418  24.997  1.00  0.00    -0.003 C 
ATOM     10  C   UNL     1      29.712 -10.520  25.567  1.00  0.00     0.004 C 
ENDBRANCH   8   9
ENDBRANCH   7   8
ENDBRANCH   1   7
TORSDOF 6
ENDMDL
