MODEL 1
REMARK VINA RESULT:    -4.379      0.000      0.000
REMARK INTER + INTRA:          -8.525
REMARK INTER:                  -7.962
REMARK INTRA:                  -0.562
REMARK UNBOUND:                -0.562
REMARK SMILES CCCCCCCCCCCCCC[C@H](C)C(=O)[O-]
REMARK SMILES IDX 9 1 10 2 11 3 12 4 13 5 14 6 15 7 16 8 17 9 18 10 19 11 8 12
REMARK SMILES IDX 7 13 6 14 5 15 4 16 3 17 2 18 1 19
REMARK H PARENT
REMARK Flexibility Score: inf
ROOT
ATOM      1  C   UNL     1       5.174  12.876  33.694  1.00  0.00     0.000 C 
ENDROOT
BRANCH   1   2
ATOM      2  C   UNL     1       4.902  11.398  34.007  1.00  0.00     0.000 C 
BRANCH   2   3
ATOM      3  C   UNL     1       5.868  10.442  33.286  1.00  0.00     0.000 C 
BRANCH   3   4
ATOM      4  C   UNL     1       6.431   9.304  34.157  1.00  0.00     0.000 C 
BRANCH   4   5
ATOM      5  C   UNL     1       6.733   8.029  33.356  1.00  0.00     0.001 C 
BRANCH   5   6
ATOM      6  C   UNL     1       8.033   7.369  33.841  1.00  0.00     0.009 C 
BRANCH   6   7
ATOM      7  C   UNL     1       7.766   6.187  34.796  1.00  0.00     0.032 C 
ATOM      8  C   UNL     1       6.303   5.741  34.708  1.00  0.00     0.014 C 
BRANCH   7   9
ATOM      9  C   UNL     1       8.112   6.537  36.217  1.00  0.00     0.044 C 
ATOM     10  O   UNL     1       7.398   7.343  36.871  1.00  0.00    -0.550 OA
ATOM     11  O   UNL     1       9.229   5.969  36.818  1.00  0.00    -0.550 OA
ENDBRANCH   7   9
ENDBRANCH   6   7
ENDBRANCH   5   6
ENDBRANCH   4   5
ENDBRANCH   3   4
ENDBRANCH   2   3
ENDBRANCH   1   2
BRANCH   1  12
ATOM     12  C   UNL     1       5.209  13.714  34.978  1.00  0.00     0.000 C 
BRANCH  12  13
ATOM     13  C   UNL     1       5.149  15.215  34.658  1.00  0.00    -0.000 C 
BRANCH  13  14
ATOM     14  C   UNL     1       6.528  15.890  34.721  1.00  0.00    -0.000 C 
BRANCH  14  15
ATOM     15  C   UNL     1       6.436  17.404  34.958  1.00  0.00    -0.000 C 
BRANCH  15  16
ATOM     16  C   UNL     1       5.492  18.063  33.943  1.00  0.00    -0.000 C 
BRANCH  16  17
ATOM     17  C   UNL     1       5.681  19.584  33.922  1.00  0.00    -0.000 C 
BRANCH  17  18
ATOM     18  C   UNL     1       5.846  20.098  32.487  1.00  0.00    -0.003 C 
ATOM     19  C   UNL     1       7.245  20.660  32.259  1.00  0.00     0.004 C 
ENDBRANCH  17  18
ENDBRANCH  16  17
ENDBRANCH  15  16
ENDBRANCH  14  15
ENDBRANCH  13  14
ENDBRANCH  12  13
ENDBRANCH   1  12
TORSDOF 14
ENDMDL
MODEL 2
REMARK VINA RESULT:    -4.292      4.539     10.446
REMARK INTER + INTRA:          -8.367
REMARK INTER:                  -7.534
REMARK INTRA:                  -0.834
REMARK UNBOUND:                -0.562
REMARK SMILES CCCCCCCCCCCCCC[C@H](C)C(=O)[O-]
REMARK SMILES IDX 9 1 10 2 11 3 12 4 13 5 14 6 15 7 16 8 17 9 18 10 19 11 8 12
REMARK SMILES IDX 7 13 6 14 5 15 4 16 3 17 2 18 1 19
REMARK H PARENT
REMARK Flexibility Score: inf
ROOT
ATOM      1  C   UNL     1       5.085  11.686  34.428  1.00  0.00     0.000 C 
ENDROOT
BRANCH   1   2
ATOM      2  C   UNL     1       5.034  13.212  34.589  1.00  0.00     0.000 C 
BRANCH   2   3
ATOM      3  C   UNL     1       5.634  13.697  35.921  1.00  0.00     0.000 C 
BRANCH   3   4
ATOM      4  C   UNL     1       5.914  15.209  35.998  1.00  0.00     0.000 C 
BRANCH   4   5
ATOM      5  C   UNL     1       6.377  15.802  34.659  1.00  0.00     0.001 C 
BRANCH   5   6
ATOM      6  C   UNL     1       5.725  17.170  34.407  1.00  0.00     0.009 C 
BRANCH   6   7
ATOM      7  C   UNL     1       6.723  18.333  34.585  1.00  0.00     0.032 C 
ATOM      8  C   UNL     1       6.488  19.046  35.921  1.00  0.00     0.014 C 
BRANCH   7   9
ATOM      9  C   UNL     1       6.629  19.319  33.453  1.00  0.00     0.044 C 
ATOM     10  O   UNL     1       7.502  20.216  33.310  1.00  0.00    -0.550 OA
ATOM     11  O   UNL     1       5.571  19.244  32.555  1.00  0.00    -0.550 OA
ENDBRANCH   7   9
ENDBRANCH   6   7
ENDBRANCH   5   6
ENDBRANCH   4   5
ENDBRANCH   3   4
ENDBRANCH   2   3
ENDBRANCH   1   2
BRANCH   1  12
ATOM     12  C   UNL     1       5.570  11.296  33.027  1.00  0.00     0.000 C 
BRANCH  12  13
ATOM     13  C   UNL     1       6.327   9.960  33.057  1.00  0.00    -0.000 C 
BRANCH  13  14
ATOM     14  C   UNL     1       6.145   9.206  34.383  1.00  0.00    -0.000 C 
BRANCH  14  15
ATOM     15  C   UNL     1       7.455   8.594  34.901  1.00  0.00    -0.000 C 
BRANCH  15  16
ATOM     16  C   UNL     1       7.813   7.322  34.124  1.00  0.00    -0.000 C 
BRANCH  16  17
ATOM     17  C   UNL     1       6.752   6.234  34.327  1.00  0.00    -0.000 C 
BRANCH  17  18
ATOM     18  C   UNL     1       6.739   5.741  35.777  1.00  0.00    -0.003 C 
ATOM     19  C   UNL     1       7.434   4.390  35.908  1.00  0.00     0.004 C 
ENDBRANCH  17  18
ENDBRANCH  16  17
ENDBRANCH  15  16
ENDBRANCH  14  15
ENDBRANCH  13  14
ENDBRANCH  12  13
ENDBRANCH   1  12
TORSDOF 14
ENDMDL
MODEL 3
REMARK VINA RESULT:    -4.180      1.687      3.913
REMARK INTER + INTRA:          -8.164
REMARK INTER:                  -7.107
REMARK INTRA:                  -1.057
REMARK UNBOUND:                -0.562
REMARK SMILES CCCCCCCCCCCCCC[C@H](C)C(=O)[O-]
REMARK SMILES IDX 9 1 10 2 11 3 12 4 13 5 14 6 15 7 16 8 17 9 18 10 19 11 8 12
REMARK SMILES IDX 7 13 6 14 5 15 4 16 3 17 2 18 1 19
REMARK H PARENT
REMARK Flexibility Score: inf
ROOT
ATOM      1  C   UNL     1       7.787   9.055  33.398  1.00  0.00     0.000 C 
ENDROOT
BRANCH   1   2
ATOM      2  C   UNL     1       7.715   7.569  33.782  1.00  0.00     0.000 C 
BRANCH   2   3
ATOM      3  C   UNL     1       6.415   6.890  33.318  1.00  0.00     0.000 C 
BRANCH   3   4
ATOM      4  C   UNL     1       5.802   5.900  34.326  1.00  0.00     0.000 C 
BRANCH   4   5
ATOM      5  C   UNL     1       5.813   6.428  35.768  1.00  0.00     0.001 C 
BRANCH   5   6
ATOM      6  C   UNL     1       6.555   5.461  36.703  1.00  0.00     0.009 C 
BRANCH   6   7
ATOM      7  C   UNL     1       7.591   4.601  35.949  1.00  0.00     0.032 C 
ATOM      8  C   UNL     1       7.495   3.135  36.384  1.00  0.00     0.014 C 
BRANCH   7   9
ATOM      9  C   UNL     1       8.990   5.110  36.162  1.00  0.00     0.044 C 
ATOM     10  O   UNL     1       9.246   5.913  37.099  1.00  0.00    -0.550 OA
ATOM     11  O   UNL     1      10.014   4.695  35.318  1.00  0.00    -0.550 OA
ENDBRANCH   7   9
ENDBRANCH   6   7
ENDBRANCH   5   6
ENDBRANCH   4   5
ENDBRANCH   3   4
ENDBRANCH   2   3
ENDBRANCH   1   2
BRANCH   1  12
ATOM     12  C   UNL     1       6.394   9.607  33.074  1.00  0.00     0.000 C 
BRANCH  12  13
ATOM     13  C   UNL     1       5.732  10.202  34.327  1.00  0.00    -0.000 C 
BRANCH  13  14
ATOM     14  C   UNL     1       5.007  11.526  34.041  1.00  0.00    -0.000 C 
BRANCH  14  15
ATOM     15  C   UNL     1       5.344  12.619  35.067  1.00  0.00    -0.000 C 
BRANCH  15  16
ATOM     16  C   UNL     1       5.278  14.012  34.428  1.00  0.00    -0.000 C 
BRANCH  16  17
ATOM     17  C   UNL     1       5.718  15.095  35.419  1.00  0.00    -0.000 C 
BRANCH  17  18
ATOM     18  C   UNL     1       6.530  16.188  34.716  1.00  0.00    -0.003 C 
ATOM     19  C   UNL     1       5.661  17.398  34.389  1.00  0.00     0.004 C 
ENDBRANCH  17  18
ENDBRANCH  16  17
ENDBRANCH  15  16
ENDBRANCH  14  15
ENDBRANCH  13  14
ENDBRANCH  12  13
ENDBRANCH   1  12
TORSDOF 14
ENDMDL
MODEL 4
REMARK VINA RESULT:    -3.938      2.679      5.116
REMARK INTER + INTRA:          -7.724
REMARK INTER:                  -6.752
REMARK INTRA:                  -0.972
REMARK UNBOUND:                -0.562
REMARK SMILES CCCCCCCCCCCCCC[C@H](C)C(=O)[O-]
REMARK SMILES IDX 9 1 10 2 11 3 12 4 13 5 14 6 15 7 16 8 17 9 18 10 19 11 8 12
REMARK SMILES IDX 7 13 6 14 5 15 4 16 3 17 2 18 1 19
REMARK H PARENT
REMARK Flexibility Score: inf
ROOT
ATOM      1  C   UNL     1       7.498   8.846  33.441  1.00  0.00     0.000 C 
ENDROOT
BRANCH   1   2
ATOM      2  C   UNL     1       6.940   7.424  33.603  1.00  0.00     0.000 C 
BRANCH   2   3
ATOM      3  C   UNL     1       7.860   6.507  34.427  1.00  0.00     0.000 C 
BRANCH   3   4
ATOM      4  C   UNL     1       7.731   6.656  35.954  1.00  0.00     0.000 C 
BRANCH   4   5
ATOM      5  C   UNL     1       8.714   5.766  36.729  1.00  0.00     0.001 C 
BRANCH   5   6
ATOM      6  C   UNL     1       9.309   4.681  35.819  1.00  0.00     0.009 C 
BRANCH   6   7
ATOM      7  C   UNL     1       9.503   3.342  36.560  1.00  0.00     0.032 C 
ATOM      8  C   UNL     1      10.720   2.591  36.009  1.00  0.00     0.014 C 
BRANCH   7   9
ATOM      9  C   UNL     1       8.277   2.475  36.464  1.00  0.00     0.044 C 
ATOM     10  O   UNL     1       7.221   2.914  35.935  1.00  0.00    -0.550 OA
ATOM     11  O   UNL     1       8.305   1.178  36.963  1.00  0.00    -0.550 OA
ENDBRANCH   7   9
ENDBRANCH   6   7
ENDBRANCH   5   6
ENDBRANCH   4   5
ENDBRANCH   3   4
ENDBRANCH   2   3
ENDBRANCH   1   2
BRANCH   1  12
ATOM     12  C   UNL     1       6.365   9.872  33.323  1.00  0.00     0.000 C 
BRANCH  12  13
ATOM     13  C   UNL     1       5.434   9.806  34.543  1.00  0.00    -0.000 C 
BRANCH  13  14
ATOM     14  C   UNL     1       6.196   9.876  35.875  1.00  0.00    -0.000 C 
BRANCH  14  15
ATOM     15  C   UNL     1       5.871  11.144  36.678  1.00  0.00    -0.000 C 
BRANCH  15  16
ATOM     16  C   UNL     1       4.912  12.055  35.902  1.00  0.00    -0.000 C 
BRANCH  16  17
ATOM     17  C   UNL     1       5.341  13.523  36.006  1.00  0.00    -0.000 C 
BRANCH  17  18
ATOM     18  C   UNL     1       5.559  14.132  34.617  1.00  0.00    -0.003 C 
ATOM     19  C   UNL     1       6.135  15.541  34.715  1.00  0.00     0.004 C 
ENDBRANCH  17  18
ENDBRANCH  16  17
ENDBRANCH  15  16
ENDBRANCH  14  15
ENDBRANCH  13  14
ENDBRANCH  12  13
ENDBRANCH   1  12
TORSDOF 14
ENDMDL
MODEL 5
REMARK VINA RESULT:    -3.912      5.437     10.996
REMARK INTER + INTRA:          -7.677
REMARK INTER:                  -5.972
REMARK INTRA:                  -1.705
REMARK UNBOUND:                -0.562
REMARK SMILES CCCCCCCCCCCCCC[C@H](C)C(=O)[O-]
REMARK SMILES IDX 9 1 10 2 11 3 12 4 13 5 14 6 15 7 16 8 17 9 18 10 19 11 8 12
REMARK SMILES IDX 7 13 6 14 5 15 4 16 3 17 2 18 1 19
REMARK H PARENT
REMARK Flexibility Score: inf
ROOT
ATOM      1  C   UNL     1      10.130   4.237  35.846  1.00  0.00     0.000 C 
ENDROOT
BRANCH   1   2
ATOM      2  C   UNL     1       9.108   5.284  35.380  1.00  0.00     0.000 C 
BRANCH   2   3
ATOM      3  C   UNL     1       8.202   5.787  36.517  1.00  0.00     0.000 C 
BRANCH   3   4
ATOM      4  C   UNL     1       6.897   6.464  36.060  1.00  0.00     0.000 C 
BRANCH   4   5
ATOM      5  C   UNL     1       6.787   6.584  34.532  1.00  0.00     0.001 C 
BRANCH   5   6
ATOM      6  C   UNL     1       5.744   7.641  34.136  1.00  0.00     0.009 C 
BRANCH   6   7
ATOM      7  C   UNL     1       6.373   8.818  33.363  1.00  0.00     0.032 C 
ATOM      8  C   UNL     1       7.902   8.729  33.392  1.00  0.00     0.014 C 
BRANCH   7   9
ATOM      9  C   UNL     1       5.926  10.144  33.918  1.00  0.00     0.044 C 
ATOM     10  O   UNL     1       5.550  11.067  33.148  1.00  0.00    -0.550 OA
ATOM     11  O   UNL     1       5.927  10.355  35.291  1.00  0.00    -0.550 OA
ENDBRANCH   7   9
ENDBRANCH   6   7
ENDBRANCH   5   6
ENDBRANCH   4   5
ENDBRANCH   3   4
ENDBRANCH   2   3
ENDBRANCH   1   2
BRANCH   1  12
ATOM     12  C   UNL     1       9.549   3.357  36.958  1.00  0.00     0.000 C 
BRANCH  12  13
ATOM     13  C   UNL     1       8.916   2.083  36.377  1.00  0.00    -0.000 C 
BRANCH  13  14
ATOM     14  C   UNL     1       7.446   1.910  36.791  1.00  0.00    -0.000 C 
BRANCH  14  15
ATOM     15  C   UNL     1       6.511   1.717  35.588  1.00  0.00    -0.000 C 
BRANCH  15  16
ATOM     16  C   UNL     1       5.922   3.057  35.130  1.00  0.00    -0.000 C 
BRANCH  16  17
ATOM     17  C   UNL     1       4.881   2.852  34.023  1.00  0.00    -0.000 C 
BRANCH  17  18
ATOM     18  C   UNL     1       5.249   1.659  33.135  1.00  0.00    -0.003 C 
ATOM     19  C   UNL     1       5.118   2.009  31.656  1.00  0.00     0.004 C 
ENDBRANCH  17  18
ENDBRANCH  16  17
ENDBRANCH  15  16
ENDBRANCH  14  15
ENDBRANCH  13  14
ENDBRANCH  12  13
ENDBRANCH   1  12
TORSDOF 14
ENDMDL
MODEL 6
REMARK VINA RESULT:    -3.862      5.357     10.004
REMARK INTER + INTRA:          -7.585
REMARK INTER:                  -5.890
REMARK INTRA:                  -1.695
REMARK UNBOUND:                -0.562
REMARK SMILES CCCCCCCCCCCCCC[C@H](C)C(=O)[O-]
REMARK SMILES IDX 9 1 10 2 11 3 12 4 13 5 14 6 15 7 16 8 17 9 18 10 19 11 8 12
REMARK SMILES IDX 7 13 6 14 5 15 4 16 3 17 2 18 1 19
REMARK H PARENT
REMARK Flexibility Score: inf
ROOT
ATOM      1  C   UNL     1       5.455   2.537  34.555  1.00  0.00     0.000 C 
ENDROOT
BRANCH   1   2
ATOM      2  C   UNL     1       4.905   3.492  33.485  1.00  0.00     0.000 C 
BRANCH   2   3
ATOM      3  C   UNL     1       4.914   4.965  33.931  1.00  0.00     0.000 C 
BRANCH   3   4
ATOM      4  C   UNL     1       6.303   5.628  33.957  1.00  0.00     0.000 C 
BRANCH   4   5
ATOM      5  C   UNL     1       6.386   6.807  34.940  1.00  0.00     0.001 C 
BRANCH   5   6
ATOM      6  C   UNL     1       5.457   7.951  34.507  1.00  0.00     0.009 C 
BRANCH   6   7
ATOM      7  C   UNL     1       6.171   8.966  33.591  1.00  0.00     0.032 C 
ATOM      8  C   UNL     1       7.691   8.807  33.689  1.00  0.00     0.014 C 
BRANCH   7   9
ATOM      9  C   UNL     1       5.780  10.381  33.924  1.00  0.00     0.044 C 
ATOM     10  O   UNL     1       5.543  11.213  33.009  1.00  0.00    -0.550 OA
ATOM     11  O   UNL     1       5.680  10.776  35.253  1.00  0.00    -0.550 OA
ENDBRANCH   7   9
ENDBRANCH   6   7
ENDBRANCH   5   6
ENDBRANCH   4   5
ENDBRANCH   3   4
ENDBRANCH   2   3
ENDBRANCH   1   2
BRANCH   1  12
ATOM     12  C   UNL     1       5.161   3.064  35.965  1.00  0.00     0.000 C 
BRANCH  12  13
ATOM     13  C   UNL     1       6.246   2.617  36.957  1.00  0.00    -0.000 C 
BRANCH  13  14
ATOM     14  C   UNL     1       7.660   2.694  36.363  1.00  0.00    -0.000 C 
BRANCH  14  15
ATOM     15  C   UNL     1       8.374   4.011  36.703  1.00  0.00    -0.000 C 
BRANCH  15  16
ATOM     16  C   UNL     1       9.582   4.235  35.785  1.00  0.00    -0.000 C 
BRANCH  16  17
ATOM     17  C   UNL     1       9.722   5.714  35.409  1.00  0.00    -0.000 C 
BRANCH  17  18
ATOM     18  C   UNL     1      10.254   5.871  33.981  1.00  0.00    -0.003 C 
ATOM     19  C   UNL     1      11.546   5.084  33.782  1.00  0.00     0.004 C 
ENDBRANCH  17  18
ENDBRANCH  16  17
ENDBRANCH  15  16
ENDBRANCH  14  15
ENDBRANCH  13  14
ENDBRANCH  12  13
ENDBRANCH   1  12
TORSDOF 14
ENDMDL
MODEL 7
REMARK VINA RESULT:    -3.755      4.461      9.827
REMARK INTER + INTRA:          -7.391
REMARK INTER:                  -5.451
REMARK INTRA:                  -1.940
REMARK UNBOUND:                -0.562
REMARK SMILES CCCCCCCCCCCCCC[C@H](C)C(=O)[O-]
REMARK SMILES IDX 9 1 10 2 11 3 12 4 13 5 14 6 15 7 16 8 17 9 18 10 19 11 8 12
REMARK SMILES IDX 7 13 6 14 5 15 4 16 3 17 2 18 1 19
REMARK H PARENT
REMARK Flexibility Score: inf
ROOT
ATOM      1  C   UNL     1       9.061   6.198  34.313  1.00  0.00     0.000 C 
ENDROOT
BRANCH   1   2
ATOM      2  C   UNL     1       7.910   7.179  34.579  1.00  0.00     0.000 C 
BRANCH   2   3
ATOM      3  C   UNL     1       7.641   7.397  36.078  1.00  0.00     0.000 C 
BRANCH   3   4
ATOM      4  C   UNL     1       6.465   8.338  36.398  1.00  0.00     0.000 C 
BRANCH   4   5
ATOM      5  C   UNL     1       5.622   8.687  35.162  1.00  0.00     0.001 C 
BRANCH   5   6
ATOM      6  C   UNL     1       4.876  10.015  35.361  1.00  0.00     0.009 C 
BRANCH   6   7
ATOM      7  C   UNL     1       5.128  11.004  34.204  1.00  0.00     0.032 C 
ATOM      8  C   UNL     1       6.270  10.509  33.310  1.00  0.00     0.014 C 
BRANCH   7   9
ATOM      9  C   UNL     1       5.437  12.385  34.715  1.00  0.00     0.044 C 
ATOM     10  O   UNL     1       5.502  13.362  33.923  1.00  0.00    -0.550 OA
ATOM     11  O   UNL     1       5.654  12.588  36.073  1.00  0.00    -0.550 OA
ENDBRANCH   7   9
ENDBRANCH   6   7
ENDBRANCH   5   6
ENDBRANCH   4   5
ENDBRANCH   3   4
ENDBRANCH   2   3
ENDBRANCH   1   2
BRANCH   1  12
ATOM     12  C   UNL     1       9.592   5.604  35.622  1.00  0.00     0.000 C 
BRANCH  12  13
ATOM     13  C   UNL     1       9.126   4.151  35.797  1.00  0.00    -0.000 C 
BRANCH  13  14
ATOM     14  C   UNL     1       8.188   3.969  37.000  1.00  0.00    -0.000 C 
BRANCH  14  15
ATOM     15  C   UNL     1       6.936   3.149  36.657  1.00  0.00    -0.000 C 
BRANCH  15  16
ATOM     16  C   UNL     1       5.739   4.065  36.376  1.00  0.00    -0.000 C 
BRANCH  16  17
ATOM     17  C   UNL     1       5.289   3.952  34.915  1.00  0.00    -0.000 C 
BRANCH  17  18
ATOM     18  C   UNL     1       4.933   5.328  34.342  1.00  0.00    -0.003 C 
ATOM     19  C   UNL     1       4.906   5.300  32.817  1.00  0.00     0.004 C 
ENDBRANCH  17  18
ENDBRANCH  16  17
ENDBRANCH  15  16
ENDBRANCH  14  15
ENDBRANCH  13  14
ENDBRANCH  12  13
ENDBRANCH   1  12
TORSDOF 14
ENDMDL
MODEL 8
REMARK VINA RESULT:    -3.699      1.649      2.103
REMARK INTER + INTRA:          -7.288
REMARK INTER:                  -6.627
REMARK INTRA:                  -0.661
REMARK UNBOUND:                -0.562
REMARK SMILES CCCCCCCCCCCCCC[C@H](C)C(=O)[O-]
REMARK SMILES IDX 9 1 10 2 11 3 12 4 13 5 14 6 15 7 16 8 17 9 18 10 19 11 8 12
REMARK SMILES IDX 7 13 6 14 5 15 4 16 3 17 2 18 1 19
REMARK H PARENT
REMARK Flexibility Score: inf
ROOT
ATOM      1  C   UNL     1       5.025  12.863  34.797  1.00  0.00     0.000 C 
ENDROOT
BRANCH   1   2
ATOM      2  C   UNL     1       5.640  12.666  36.191  1.00  0.00     0.000 C 
BRANCH   2   3
ATOM      3  C   UNL     1       5.399  11.258  36.761  1.00  0.00     0.000 C 
BRANCH   3   4
ATOM      4  C   UNL     1       5.118  10.168  35.711  1.00  0.00     0.000 C 
BRANCH   4   5
ATOM      5  C   UNL     1       6.398   9.553  35.127  1.00  0.00     0.001 C 
BRANCH   5   6
ATOM      6  C   UNL     1       6.752   8.238  35.840  1.00  0.00     0.009 C 
BRANCH   6   7
ATOM      7  C   UNL     1       7.547   7.278  34.931  1.00  0.00     0.032 C 
ATOM      8  C   UNL     1       7.861   7.943  33.586  1.00  0.00     0.014 C 
BRANCH   7   9
ATOM      9  C   UNL     1       6.804   5.989  34.705  1.00  0.00     0.044 C 
ATOM     10  O   UNL     1       5.906   5.912  33.826  1.00  0.00    -0.550 OA
ATOM     11  O   UNL     1       7.108   4.872  35.474  1.00  0.00    -0.550 OA
ENDBRANCH   7   9
ENDBRANCH   6   7
ENDBRANCH   5   6
ENDBRANCH   4   5
ENDBRANCH   3   4
ENDBRANCH   2   3
ENDBRANCH   1   2
BRANCH   1  12
ATOM     12  C   UNL     1       4.896  14.352  34.458  1.00  0.00     0.000 C 
BRANCH  12  13
ATOM     13  C   UNL     1       6.212  15.095  34.736  1.00  0.00    -0.000 C 
BRANCH  13  14
ATOM     14  C   UNL     1       5.994  16.438  35.451  1.00  0.00    -0.000 C 
BRANCH  14  15
ATOM     15  C   UNL     1       6.005  17.632  34.485  1.00  0.00    -0.000 C 
BRANCH  15  16
ATOM     16  C   UNL     1       6.475  18.908  35.195  1.00  0.00    -0.000 C 
BRANCH  16  17
ATOM     17  C   UNL     1       6.317  20.134  34.288  1.00  0.00    -0.000 C 
BRANCH  17  18
ATOM     18  C   UNL     1       7.443  20.201  33.251  1.00  0.00    -0.003 C 
ATOM     19  C   UNL     1       6.966  20.854  31.958  1.00  0.00     0.004 C 
ENDBRANCH  17  18
ENDBRANCH  16  17
ENDBRANCH  15  16
ENDBRANCH  14  15
ENDBRANCH  13  14
ENDBRANCH  12  13
ENDBRANCH   1  12
TORSDOF 14
ENDMDL
MODEL 9
REMARK VINA RESULT:    -3.447      3.515      7.199
REMARK INTER + INTRA:          -6.831
REMARK INTER:                  -5.804
REMARK INTRA:                  -1.027
REMARK UNBOUND:                -0.562
REMARK SMILES CCCCCCCCCCCCCC[C@H](C)C(=O)[O-]
REMARK SMILES IDX 9 1 10 2 11 3 12 4 13 5 14 6 15 7 16 8 17 9 18 10 19 11 8 12
REMARK SMILES IDX 7 13 6 14 5 15 4 16 3 17 2 18 1 19
REMARK H PARENT
REMARK Flexibility Score: inf
ROOT
ATOM      1  C   UNL     1       6.306   5.283  35.592  1.00  0.00     0.000 C 
ENDROOT
BRANCH   1   2
ATOM      2  C   UNL     1       6.216   3.765  35.376  1.00  0.00     0.000 C 
BRANCH   2   3
ATOM      3  C   UNL     1       6.393   2.960  36.675  1.00  0.00     0.000 C 
BRANCH   3   4
ATOM      4  C   UNL     1       6.505   1.436  36.488  1.00  0.00     0.000 C 
BRANCH   4   5
ATOM      5  C   UNL     1       7.928   0.979  36.132  1.00  0.00     0.001 C 
BRANCH   5   6
ATOM      6  C   UNL     1       8.975   1.748  36.953  1.00  0.00     0.009 C 
BRANCH   6   7
ATOM      7  C   UNL     1      10.073   2.366  36.063  1.00  0.00     0.032 C 
ATOM      8  C   UNL     1      11.464   1.938  36.544  1.00  0.00     0.014 C 
BRANCH   7   9
ATOM      9  C   UNL     1       9.979   3.868  36.034  1.00  0.00     0.044 C 
ATOM     10  O   UNL     1      10.408   4.518  35.044  1.00  0.00    -0.550 OA
ATOM     11  O   UNL     1       9.417   4.547  37.108  1.00  0.00    -0.550 OA
ENDBRANCH   7   9
ENDBRANCH   6   7
ENDBRANCH   5   6
ENDBRANCH   4   5
ENDBRANCH   3   4
ENDBRANCH   2   3
ENDBRANCH   1   2
BRANCH   1  12
ATOM     12  C   UNL     1       5.689   6.044  34.413  1.00  0.00     0.000 C 
BRANCH  12  13
ATOM     13  C   UNL     1       5.092   7.382  34.874  1.00  0.00    -0.000 C 
BRANCH  13  14
ATOM     14  C   UNL     1       6.167   8.414  35.248  1.00  0.00    -0.000 C 
BRANCH  14  15
ATOM     15  C   UNL     1       7.005   8.860  34.042  1.00  0.00    -0.000 C 
BRANCH  15  16
ATOM     16  C   UNL     1       6.212   9.818  33.145  1.00  0.00    -0.000 C 
BRANCH  16  17
ATOM     17  C   UNL     1       5.348  10.769  33.981  1.00  0.00    -0.000 C 
BRANCH  17  18
ATOM     18  C   UNL     1       5.017  12.044  33.198  1.00  0.00    -0.003 C 
ATOM     19  C   UNL     1       5.409  13.291  33.983  1.00  0.00     0.004 C 
ENDBRANCH  17  18
ENDBRANCH  16  17
ENDBRANCH  15  16
ENDBRANCH  14  15
ENDBRANCH  13  14
ENDBRANCH  12  13
ENDBRANCH   1  12
TORSDOF 14
ENDMDL
