MODEL 1
REMARK VINA RESULT:    -3.533      0.000      0.000
REMARK INTER + INTRA:          -5.920
REMARK INTER:                  -5.392
REMARK INTRA:                  -0.529
REMARK UNBOUND:                -0.529
REMARK SMILES CCCCCCCCCCC(=O)[O-]
REMARK SMILES IDX 7 1 8 2 9 3 10 4 11 5 12 6 13 7 6 8 5 9 4 10 3 11 2 12 1 13
REMARK H PARENT
REMARK Flexibility Score: inf
ROOT
ATOM      1  C   UNL     1      45.209  33.448  48.803  1.00  0.00     0.000 C 
ENDROOT
BRANCH   1   2
ATOM      2  C   UNL     1      46.098  32.243  49.155  1.00  0.00     0.000 C 
BRANCH   2   3
ATOM      3  C   UNL     1      45.285  31.007  49.580  1.00  0.00     0.006 C 
BRANCH   3   4
ATOM      4  C   UNL     1      45.178  29.920  48.498  1.00  0.00     0.053 C 
BRANCH   4   5
ATOM      5  C   UNL     1      45.058  28.550  49.091  1.00  0.00     0.041 C 
ATOM      6  O   UNL     1      45.821  28.197  50.028  1.00  0.00    -0.550 OA
ATOM      7  O   UNL     1      44.126  27.652  48.586  1.00  0.00    -0.550 OA
ENDBRANCH   4   5
ENDBRANCH   3   4
ENDBRANCH   2   3
ENDBRANCH   1   2
BRANCH   1   8
ATOM      8  C   UNL     1      43.761  33.272  49.288  1.00  0.00     0.000 C 
BRANCH   8   9
ATOM      9  C   UNL     1      43.202  34.545  49.948  1.00  0.00    -0.000 C 
BRANCH   9  10
ATOM     10  C   UNL     1      42.550  35.501  48.935  1.00  0.00    -0.000 C 
BRANCH  10  11
ATOM     11  C   UNL     1      41.069  35.170  48.682  1.00  0.00    -0.000 C 
BRANCH  11  12
ATOM     12  C   UNL     1      40.701  35.230  47.190  1.00  0.00    -0.003 C 
ATOM     13  C   UNL     1      41.338  34.105  46.375  1.00  0.00     0.004 C 
ENDBRANCH  11  12
ENDBRANCH  10  11
ENDBRANCH   9  10
ENDBRANCH   8   9
ENDBRANCH   1   8
TORSDOF 9
ENDMDL
MODEL 2
REMARK VINA RESULT:    -3.447      1.378      2.710
REMARK INTER + INTRA:          -5.790
REMARK INTER:                  -5.038
REMARK INTRA:                  -0.752
REMARK UNBOUND:                -0.529
REMARK SMILES CCCCCCCCCCC(=O)[O-]
REMARK SMILES IDX 7 1 8 2 9 3 10 4 11 5 12 6 13 7 6 8 5 9 4 10 3 11 2 12 1 13
REMARK H PARENT
REMARK Flexibility Score: inf
ROOT
ATOM      1  C   UNL     1      42.934  34.881  49.564  1.00  0.00     0.000 C 
ENDROOT
BRANCH   1   2
ATOM      2  C   UNL     1      43.920  33.833  50.109  1.00  0.00     0.000 C 
BRANCH   2   3
ATOM      3  C   UNL     1      44.146  32.664  49.132  1.00  0.00     0.006 C 
BRANCH   3   4
ATOM      4  C   UNL     1      45.515  31.979  49.276  1.00  0.00     0.053 C 
BRANCH   4   5
ATOM      5  C   UNL     1      45.395  30.485  49.286  1.00  0.00     0.041 C 
ATOM      6  O   UNL     1      44.949  29.879  48.276  1.00  0.00    -0.550 OA
ATOM      7  O   UNL     1      45.744  29.767  50.423  1.00  0.00    -0.550 OA
ENDBRANCH   4   5
ENDBRANCH   3   4
ENDBRANCH   2   3
ENDBRANCH   1   2
BRANCH   1   8
ATOM      8  C   UNL     1      41.872  34.263  48.640  1.00  0.00     0.000 C 
BRANCH   8   9
ATOM      9  C   UNL     1      40.921  35.320  48.049  1.00  0.00    -0.000 C 
BRANCH   9  10
ATOM     10  C   UNL     1      40.878  35.284  46.512  1.00  0.00    -0.000 C 
BRANCH  10  11
ATOM     11  C   UNL     1      41.402  33.956  45.938  1.00  0.00    -0.000 C 
BRANCH  11  12
ATOM     12  C   UNL     1      42.670  34.143  45.089  1.00  0.00    -0.003 C 
ATOM     13  C   UNL     1      43.836  33.279  45.566  1.00  0.00     0.004 C 
ENDBRANCH  11  12
ENDBRANCH  10  11
ENDBRANCH   9  10
ENDBRANCH   8   9
ENDBRANCH   1   8
TORSDOF 9
ENDMDL
MODEL 3
REMARK VINA RESULT:    -3.304      1.312      1.766
REMARK INTER + INTRA:          -5.571
REMARK INTER:                  -5.152
REMARK INTRA:                  -0.419
REMARK UNBOUND:                -0.529
REMARK SMILES CCCCCCCCCCC(=O)[O-]
REMARK SMILES IDX 7 1 8 2 9 3 10 4 11 5 12 6 13 7 6 8 5 9 4 10 3 11 2 12 1 13
REMARK H PARENT
REMARK Flexibility Score: inf
ROOT
ATOM      1  C   UNL     1      45.009  33.451  48.315  1.00  0.00     0.000 C 
ENDROOT
BRANCH   1   2
ATOM      2  C   UNL     1      44.855  32.409  49.437  1.00  0.00     0.000 C 
BRANCH   2   3
ATOM      3  C   UNL     1      46.025  31.411  49.487  1.00  0.00     0.006 C 
BRANCH   3   4
ATOM      4  C   UNL     1      45.599  29.951  49.712  1.00  0.00     0.053 C 
BRANCH   4   5
ATOM      5  C   UNL     1      46.513  29.241  50.663  1.00  0.00     0.041 C 
ATOM      6  O   UNL     1      46.371  28.009  50.878  1.00  0.00    -0.550 OA
ATOM      7  O   UNL     1      47.501  29.949  51.337  1.00  0.00    -0.550 OA
ENDBRANCH   4   5
ENDBRANCH   3   4
ENDBRANCH   2   3
ENDBRANCH   1   2
BRANCH   1   8
ATOM      8  C   UNL     1      44.447  34.826  48.708  1.00  0.00     0.000 C 
BRANCH   8   9
ATOM      9  C   UNL     1      43.145  34.719  49.521  1.00  0.00    -0.000 C 
BRANCH   9  10
ATOM     10  C   UNL     1      41.955  34.238  48.675  1.00  0.00    -0.000 C 
BRANCH  10  11
ATOM     11  C   UNL     1      40.941  35.360  48.392  1.00  0.00    -0.000 C 
BRANCH  11  12
ATOM     12  C   UNL     1      40.483  35.383  46.925  1.00  0.00    -0.003 C 
ATOM     13  C   UNL     1      41.188  34.332  46.067  1.00  0.00     0.004 C 
ENDBRANCH  11  12
ENDBRANCH  10  11
ENDBRANCH   9  10
ENDBRANCH   8   9
ENDBRANCH   1   8
TORSDOF 9
ENDMDL
MODEL 4
REMARK VINA RESULT:    -3.300      1.136      1.458
REMARK INTER + INTRA:          -5.564
REMARK INTER:                  -4.928
REMARK INTRA:                  -0.637
REMARK UNBOUND:                -0.529
REMARK SMILES CCCCCCCCCCC(=O)[O-]
REMARK SMILES IDX 7 1 8 2 9 3 10 4 11 5 12 6 13 7 6 8 5 9 4 10 3 11 2 12 1 13
REMARK H PARENT
REMARK Flexibility Score: inf
ROOT
ATOM      1  C   UNL     1      45.965  32.671  48.453  1.00  0.00     0.000 C 
ENDROOT
BRANCH   1   2
ATOM      2  C   UNL     1      46.504  31.904  49.673  1.00  0.00     0.000 C 
BRANCH   2   3
ATOM      3  C   UNL     1      46.777  30.420  49.369  1.00  0.00     0.006 C 
BRANCH   3   4
ATOM      4  C   UNL     1      45.670  29.465  49.845  1.00  0.00     0.053 C 
BRANCH   4   5
ATOM      5  C   UNL     1      44.922  28.859  48.697  1.00  0.00     0.041 C 
ATOM      6  O   UNL     1      44.264  27.798  48.859  1.00  0.00    -0.550 OA
ATOM      7  O   UNL     1      44.980  29.449  47.440  1.00  0.00    -0.550 OA
ENDBRANCH   4   5
ENDBRANCH   3   4
ENDBRANCH   2   3
ENDBRANCH   1   2
BRANCH   1   8
ATOM      8  C   UNL     1      44.434  32.803  48.471  1.00  0.00     0.000 C 
BRANCH   8   9
ATOM      9  C   UNL     1      43.905  33.333  49.815  1.00  0.00    -0.000 C 
BRANCH   9  10
ATOM     10  C   UNL     1      42.959  34.535  49.648  1.00  0.00    -0.000 C 
BRANCH  10  11
ATOM     11  C   UNL     1      41.908  34.309  48.548  1.00  0.00    -0.000 C 
BRANCH  11  12
ATOM     12  C   UNL     1      41.883  35.449  47.517  1.00  0.00    -0.003 C 
ATOM     13  C   UNL     1      40.494  35.678  46.920  1.00  0.00     0.004 C 
ENDBRANCH  11  12
ENDBRANCH  10  11
ENDBRANCH   9  10
ENDBRANCH   8   9
ENDBRANCH   1   8
TORSDOF 9
ENDMDL
MODEL 5
REMARK VINA RESULT:    -3.298      3.272      5.746
REMARK INTER + INTRA:          -5.562
REMARK INTER:                  -4.472
REMARK INTRA:                  -1.091
REMARK UNBOUND:                -0.529
REMARK SMILES CCCCCCCCCCC(=O)[O-]
REMARK SMILES IDX 7 1 8 2 9 3 10 4 11 5 12 6 13 7 6 8 5 9 4 10 3 11 2 12 1 13
REMARK H PARENT
REMARK Flexibility Score: inf
ROOT
ATOM      1  C   UNL     1      47.833  31.722  49.294  1.00  0.00     0.000 C 
ENDROOT
BRANCH   1   2
ATOM      2  C   UNL     1      46.864  32.916  49.276  1.00  0.00     0.000 C 
BRANCH   2   3
ATOM      3  C   UNL     1      45.492  32.561  48.675  1.00  0.00     0.006 C 
BRANCH   3   4
ATOM      4  C   UNL     1      44.330  32.616  49.681  1.00  0.00     0.053 C 
BRANCH   4   5
ATOM      5  C   UNL     1      43.463  33.819  49.470  1.00  0.00     0.041 C 
ATOM      6  O   UNL     1      43.203  34.589  50.431  1.00  0.00    -0.550 OA
ATOM      7  O   UNL     1      42.917  34.071  48.217  1.00  0.00    -0.550 OA
ENDBRANCH   4   5
ENDBRANCH   3   4
ENDBRANCH   2   3
ENDBRANCH   1   2
BRANCH   1   8
ATOM      8  C   UNL     1      48.013  31.132  50.702  1.00  0.00     0.000 C 
BRANCH   8   9
ATOM      9  C   UNL     1      47.249  29.808  50.888  1.00  0.00    -0.000 C 
BRANCH   9  10
ATOM     10  C   UNL     1      46.728  29.233  49.560  1.00  0.00    -0.000 C 
BRANCH  10  11
ATOM     11  C   UNL     1      45.244  28.832  49.634  1.00  0.00    -0.000 C 
BRANCH  11  12
ATOM     12  C   UNL     1      44.698  28.352  48.279  1.00  0.00    -0.003 C 
ATOM     13  C   UNL     1      45.212  29.183  47.104  1.00  0.00     0.004 C 
ENDBRANCH  11  12
ENDBRANCH  10  11
ENDBRANCH   9  10
ENDBRANCH   8   9
ENDBRANCH   1   8
TORSDOF 9
ENDMDL
MODEL 6
REMARK VINA RESULT:    -3.290      3.186      6.031
REMARK INTER + INTRA:          -5.550
REMARK INTER:                  -4.353
REMARK INTRA:                  -1.197
REMARK UNBOUND:                -0.529
REMARK SMILES CCCCCCCCCCC(=O)[O-]
REMARK SMILES IDX 7 1 8 2 9 3 10 4 11 5 12 6 13 7 6 8 5 9 4 10 3 11 2 12 1 13
REMARK H PARENT
REMARK Flexibility Score: inf
ROOT
ATOM      1  C   UNL     1      46.175  32.388  47.598  1.00  0.00     0.000 C 
ENDROOT
BRANCH   1   2
ATOM      2  C   UNL     1      45.716  33.125  48.868  1.00  0.00     0.000 C 
BRANCH   2   3
ATOM      3  C   UNL     1      44.301  32.714  49.315  1.00  0.00     0.006 C 
BRANCH   3   4
ATOM      4  C   UNL     1      43.443  33.878  49.840  1.00  0.00     0.053 C 
BRANCH   4   5
ATOM      5  C   UNL     1      42.484  34.378  48.803  1.00  0.00     0.041 C 
ATOM      6  O   UNL     1      42.597  34.008  47.605  1.00  0.00    -0.550 OA
ATOM      7  O   UNL     1      41.486  35.279  49.156  1.00  0.00    -0.550 OA
ENDBRANCH   4   5
ENDBRANCH   3   4
ENDBRANCH   2   3
ENDBRANCH   1   2
BRANCH   1   8
ATOM      8  C   UNL     1      45.037  31.598  46.933  1.00  0.00     0.000 C 
BRANCH   8   9
ATOM      9  C   UNL     1      45.427  30.138  46.640  1.00  0.00    -0.000 C 
BRANCH   9  10
ATOM     10  C   UNL     1      46.126  29.461  47.831  1.00  0.00    -0.000 C 
BRANCH  10  11
ATOM     11  C   UNL     1      45.136  29.029  48.927  1.00  0.00    -0.000 C 
BRANCH  11  12
ATOM     12  C   UNL     1      45.744  29.121  50.336  1.00  0.00    -0.003 C 
ATOM     13  C   UNL     1      46.995  29.997  50.387  1.00  0.00     0.004 C 
ENDBRANCH  11  12
ENDBRANCH  10  11
ENDBRANCH   9  10
ENDBRANCH   8   9
ENDBRANCH   1   8
TORSDOF 9
ENDMDL
MODEL 7
REMARK VINA RESULT:    -3.284      1.946      2.827
REMARK INTER + INTRA:          -5.540
REMARK INTER:                  -4.959
REMARK INTRA:                  -0.582
REMARK UNBOUND:                -0.529
REMARK SMILES CCCCCCCCCCC(=O)[O-]
REMARK SMILES IDX 7 1 8 2 9 3 10 4 11 5 12 6 13 7 6 8 5 9 4 10 3 11 2 12 1 13
REMARK H PARENT
REMARK Flexibility Score: inf
ROOT
ATOM      1  C   UNL     1      45.623  31.038  48.123  1.00  0.00     0.000 C 
ENDROOT
BRANCH   1   2
ATOM      2  C   UNL     1      45.662  29.590  48.641  1.00  0.00     0.000 C 
BRANCH   2   3
ATOM      3  C   UNL     1      45.445  29.497  50.162  1.00  0.00     0.006 C 
BRANCH   3   4
ATOM      4  C   UNL     1      46.612  28.850  50.927  1.00  0.00     0.053 C 
BRANCH   4   5
ATOM      5  C   UNL     1      47.905  29.568  50.687  1.00  0.00     0.041 C 
ATOM      6  O   UNL     1      48.860  28.980  50.116  1.00  0.00    -0.550 OA
ATOM      7  O   UNL     1      48.065  30.877  51.126  1.00  0.00    -0.550 OA
ENDBRANCH   4   5
ENDBRANCH   3   4
ENDBRANCH   2   3
ENDBRANCH   1   2
BRANCH   1   8
ATOM      8  C   UNL     1      45.289  32.050  49.231  1.00  0.00     0.000 C 
BRANCH   8   9
ATOM      9  C   UNL     1      44.181  33.034  48.814  1.00  0.00    -0.000 C 
BRANCH   9  10
ATOM     10  C   UNL     1      43.605  33.818  50.006  1.00  0.00    -0.000 C 
BRANCH  10  11
ATOM     11  C   UNL     1      42.591  34.889  49.571  1.00  0.00    -0.000 C 
BRANCH  11  12
ATOM     12  C   UNL     1      41.655  34.394  48.456  1.00  0.00    -0.003 C 
ATOM     13  C   UNL     1      40.810  35.514  47.849  1.00  0.00     0.004 C 
ENDBRANCH  11  12
ENDBRANCH  10  11
ENDBRANCH   9  10
ENDBRANCH   8   9
ENDBRANCH   1   8
TORSDOF 9
ENDMDL
MODEL 8
REMARK VINA RESULT:    -3.260      3.588      6.632
REMARK INTER + INTRA:          -5.504
REMARK INTER:                  -4.724
REMARK INTRA:                  -0.781
REMARK UNBOUND:                -0.529
REMARK SMILES CCCCCCCCCCC(=O)[O-]
REMARK SMILES IDX 7 1 8 2 9 3 10 4 11 5 12 6 13 7 6 8 5 9 4 10 3 11 2 12 1 13
REMARK H PARENT
REMARK Flexibility Score: inf
ROOT
ATOM      1  C   UNL     1      45.291  32.072  48.491  1.00  0.00     0.000 C 
ENDROOT
BRANCH   1   2
ATOM      2  C   UNL     1      44.945  33.512  48.909  1.00  0.00     0.000 C 
BRANCH   2   3
ATOM      3  C   UNL     1      43.889  33.569  50.028  1.00  0.00     0.006 C 
BRANCH   3   4
ATOM      4  C   UNL     1      43.118  34.897  50.099  1.00  0.00     0.053 C 
BRANCH   4   5
ATOM      5  C   UNL     1      42.273  35.120  48.881  1.00  0.00     0.041 C 
ATOM      6  O   UNL     1      41.520  34.205  48.458  1.00  0.00    -0.550 OA
ATOM      7  O   UNL     1      42.345  36.327  48.197  1.00  0.00    -0.550 OA
ENDBRANCH   4   5
ENDBRANCH   3   4
ENDBRANCH   2   3
ENDBRANCH   1   2
BRANCH   1   8
ATOM      8  C   UNL     1      45.109  31.067  49.640  1.00  0.00     0.000 C 
BRANCH   8   9
ATOM      9  C   UNL     1      45.968  29.803  49.457  1.00  0.00    -0.000 C 
BRANCH   9  10
ATOM     10  C   UNL     1      46.816  29.478  50.698  1.00  0.00    -0.000 C 
BRANCH  10  11
ATOM     11  C   UNL     1      48.272  29.954  50.557  1.00  0.00    -0.000 C 
BRANCH  11  12
ATOM     12  C   UNL     1      48.506  31.327  51.208  1.00  0.00    -0.003 C 
ATOM     13  C   UNL     1      48.613  32.458  50.185  1.00  0.00     0.004 C 
ENDBRANCH  11  12
ENDBRANCH  10  11
ENDBRANCH   9  10
ENDBRANCH   8   9
ENDBRANCH   1   8
TORSDOF 9
ENDMDL
MODEL 9
REMARK VINA RESULT:    -3.199      3.481      6.439
REMARK INTER + INTRA:          -5.411
REMARK INTER:                  -4.639
REMARK INTRA:                  -0.772
REMARK UNBOUND:                -0.529
REMARK SMILES CCCCCCCCCCC(=O)[O-]
REMARK SMILES IDX 7 1 8 2 9 3 10 4 11 5 12 6 13 7 6 8 5 9 4 10 3 11 2 12 1 13
REMARK H PARENT
REMARK Flexibility Score: inf
ROOT
ATOM      1  C   UNL     1      45.816  32.103  48.804  1.00  0.00     0.000 C 
ENDROOT
BRANCH   1   2
ATOM      2  C   UNL     1      44.562  32.270  49.678  1.00  0.00     0.000 C 
BRANCH   2   3
ATOM      3  C   UNL     1      43.864  33.626  49.465  1.00  0.00     0.006 C 
BRANCH   3   4
ATOM      4  C   UNL     1      43.170  33.769  48.101  1.00  0.00     0.053 C 
BRANCH   4   5
ATOM      5  C   UNL     1      41.865  34.497  48.211  1.00  0.00     0.041 C 
ATOM      6  O   UNL     1      41.052  34.488  47.250  1.00  0.00    -0.550 OA
ATOM      7  O   UNL     1      41.562  35.212  49.363  1.00  0.00    -0.550 OA
ENDBRANCH   4   5
ENDBRANCH   3   4
ENDBRANCH   2   3
ENDBRANCH   1   2
BRANCH   1   8
ATOM      8  C   UNL     1      47.037  32.837  49.380  1.00  0.00     0.000 C 
BRANCH   8   9
ATOM      9  C   UNL     1      48.202  31.882  49.697  1.00  0.00    -0.000 C 
BRANCH   9  10
ATOM     10  C   UNL     1      47.912  30.973  50.903  1.00  0.00    -0.000 C 
BRANCH  10  11
ATOM     11  C   UNL     1      47.814  29.488  50.511  1.00  0.00    -0.000 C 
BRANCH  11  12
ATOM     12  C   UNL     1      46.465  28.864  50.907  1.00  0.00    -0.003 C 
ATOM     13  C   UNL     1      45.604  28.496  49.699  1.00  0.00     0.004 C 
ENDBRANCH  11  12
ENDBRANCH  10  11
ENDBRANCH   9  10
ENDBRANCH   8   9
ENDBRANCH   1   8
TORSDOF 9
ENDMDL
