MODEL 1
REMARK VINA RESULT:    -4.814      0.000      0.000
REMARK INTER + INTRA:          -5.302
REMARK INTER:                  -5.658
REMARK INTRA:                   0.356
REMARK UNBOUND:                 0.356
REMARK SMILES C=C(C)[C@H]1CC[C@]2(CO)CC[C@]3(C)[C@H](CC[C@@H]4[C@]5(C)CC[C@H](O)C(C)(C)[C@@H]5CC[C@]43C)[C@@H]12
REMARK SMILES IDX 4 1 5 2 6 3 7 4 32 5 14 6 15 7 16 8 17 9 18 10 20 11 21 12
REMARK SMILES IDX 22 13 24 14 27 15 28 16 29 17 30 18 12 19 11 20 10 21 13 22
REMARK SMILES IDX 31 23 25 24 26 25 19 26 2 27 3 28 1 29 8 30 9 31 23 33
REMARK H PARENT 9 32 23 34
REMARK Flexibility Score: inf
ROOT
ATOM      1  C   UNL     1      55.653  -2.814  22.331  1.00  0.00     0.018 C 
ATOM      2  C   UNL     1      54.572  -3.218  23.357  1.00  0.00     0.009 C 
ATOM      3  C   UNL     1      53.773  -4.374  22.728  1.00  0.00     0.010 C 
ATOM      4  C   UNL     1      53.879  -4.148  21.213  1.00  0.00    -0.003 C 
ATOM      5  C   UNL     1      55.348  -3.686  21.086  1.00  0.00     0.008 C 
ATOM      6  C   UNL     1      55.735  -3.296  19.634  1.00  0.00    -0.000 C 
ATOM      7  C   UNL     1      57.180  -2.774  19.496  1.00  0.00     0.005 C 
ATOM      8  C   UNL     1      57.506  -2.322  18.058  1.00  0.00     0.005 C 
ATOM      9  C   UNL     1      57.124  -3.356  16.941  1.00  0.00     0.002 C 
ATOM     10  C   UNL     1      57.594  -2.952  15.461  1.00  0.00    -0.026 C 
ATOM     11  C   UNL     1      57.087  -1.537  15.050  1.00  0.00     0.010 C 
ATOM     12  C   UNL     1      57.448  -1.148  13.613  1.00  0.00     0.033 C 
ATOM     13  C   UNL     1      56.888  -2.142  12.587  1.00  0.00     0.120 C 
ATOM     14  C   UNL     1      57.354  -3.615  12.849  1.00  0.00    -0.006 C 
ATOM     15  C   UNL     1      57.136  -4.037  14.385  1.00  0.00     0.003 C 
ATOM     16  C   UNL     1      55.682  -4.533  14.629  1.00  0.00     0.005 C 
ATOM     17  C   UNL     1      55.395  -4.979  16.063  1.00  0.00     0.008 C 
ATOM     18  C   UNL     1      55.641  -3.882  17.129  1.00  0.00    -0.024 C 
ATOM     19  C   UNL     1      55.481  -4.494  18.624  1.00  0.00    -0.024 C 
ATOM     20  C   UNL     1      54.058  -5.153  18.869  1.00  0.00     0.008 C 
ATOM     21  C   UNL     1      53.716  -5.429  20.359  1.00  0.00     0.010 C 
ATOM     22  C   UNL     1      56.496  -5.677  18.891  1.00  0.00     0.012 C 
ATOM     23  C   UNL     1      54.602  -2.716  16.900  1.00  0.00     0.012 C 
ATOM     24  C   UNL     1      58.850  -3.775  12.414  1.00  0.00     0.014 C 
ATOM     25  C   UNL     1      56.569  -4.551  11.876  1.00  0.00     0.014 C 
ATOM     26  C   UNL     1      59.159  -2.909  15.506  1.00  0.00     0.012 C 
ENDROOT
BRANCH   1  27
ATOM     27  C   UNL     1      55.802  -1.296  22.157  1.00  0.00    -0.077 C 
ATOM     28  C   UNL     1      54.622  -0.365  21.998  1.00  0.00     0.039 C 
ATOM     29  C   UNL     1      57.026  -0.745  22.278  1.00  0.00     0.008 C 
ENDBRANCH   1  27
BRANCH   4  30
ATOM     30  C   UNL     1      52.795  -3.099  20.799  1.00  0.00     0.163 C 
BRANCH  30  31
ATOM     31  O   UNL     1      52.299  -3.385  19.517  1.00  0.00    -0.396 OA
ATOM     32  H   UNL     1      51.581  -4.059  19.639  1.00  0.00     0.210 HD
ENDBRANCH  30  31
ENDBRANCH   4  30
BRANCH  13  33
ATOM     33  O   UNL     1      55.484  -2.041  12.599  1.00  0.00    -0.393 OA
ATOM     34  H   UNL     1      55.212  -1.726  13.499  1.00  0.00     0.210 HD
ENDBRANCH  13  33
TORSDOF 4
ENDMDL
MODEL 2
REMARK VINA RESULT:    -4.581      3.593      7.242
REMARK INTER + INTRA:          -5.029
REMARK INTER:                  -4.782
REMARK INTRA:                  -0.248
REMARK UNBOUND:                 0.356
REMARK SMILES C=C(C)[C@H]1CC[C@]2(CO)CC[C@]3(C)[C@H](CC[C@@H]4[C@]5(C)CC[C@H](O)C(C)(C)[C@@H]5CC[C@]43C)[C@@H]12
REMARK SMILES IDX 4 1 5 2 6 3 7 4 32 5 14 6 15 7 16 8 17 9 18 10 20 11 21 12
REMARK SMILES IDX 22 13 24 14 27 15 28 16 29 17 30 18 12 19 11 20 10 21 13 22
REMARK SMILES IDX 31 23 25 24 26 25 19 26 2 27 3 28 1 29 8 30 9 31 23 33
REMARK H PARENT 9 32 23 34
REMARK Flexibility Score: inf
ROOT
ATOM      1  C   UNL     1      49.931  -5.620  14.066  1.00  0.00     0.018 C 
ATOM      2  C   UNL     1      49.286  -5.178  12.734  1.00  0.00     0.009 C 
ATOM      3  C   UNL     1      50.412  -4.571  11.876  1.00  0.00     0.010 C 
ATOM      4  C   UNL     1      51.427  -4.022  12.889  1.00  0.00    -0.003 C 
ATOM      5  C   UNL     1      51.398  -5.129  13.966  1.00  0.00     0.008 C 
ATOM      6  C   UNL     1      52.293  -4.804  15.192  1.00  0.00    -0.000 C 
ATOM      7  C   UNL     1      52.232  -5.869  16.306  1.00  0.00     0.005 C 
ATOM      8  C   UNL     1      53.069  -5.476  17.540  1.00  0.00     0.005 C 
ATOM      9  C   UNL     1      54.534  -5.014  17.221  1.00  0.00     0.002 C 
ATOM     10  C   UNL     1      55.451  -4.746  18.511  1.00  0.00    -0.026 C 
ATOM     11  C   UNL     1      54.794  -3.736  19.497  1.00  0.00     0.010 C 
ATOM     12  C   UNL     1      55.675  -3.392  20.704  1.00  0.00     0.033 C 
ATOM     13  C   UNL     1      57.025  -2.797  20.281  1.00  0.00     0.120 C 
ATOM     14  C   UNL     1      57.828  -3.732  19.313  1.00  0.00    -0.006 C 
ATOM     15  C   UNL     1      56.909  -4.247  18.098  1.00  0.00     0.003 C 
ATOM     16  C   UNL     1      56.873  -3.207  16.942  1.00  0.00     0.005 C 
ATOM     17  C   UNL     1      56.039  -3.630  15.733  1.00  0.00     0.008 C 
ATOM     18  C   UNL     1      54.556  -3.936  16.060  1.00  0.00    -0.024 C 
ATOM     19  C   UNL     1      53.798  -4.541  14.759  1.00  0.00    -0.024 C 
ATOM     20  C   UNL     1      53.869  -3.576  13.502  1.00  0.00     0.008 C 
ATOM     21  C   UNL     1      52.877  -3.923  12.357  1.00  0.00     0.010 C 
ATOM     22  C   UNL     1      54.474  -5.877  14.249  1.00  0.00     0.012 C 
ATOM     23  C   UNL     1      53.859  -2.599  16.527  1.00  0.00     0.012 C 
ATOM     24  C   UNL     1      58.435  -4.926  20.123  1.00  0.00     0.014 C 
ATOM     25  C   UNL     1      59.073  -2.943  18.800  1.00  0.00     0.014 C 
ATOM     26  C   UNL     1      55.573  -6.125  19.243  1.00  0.00     0.012 C 
ENDROOT
BRANCH   1  27
ATOM     27  C   UNL     1      49.105  -5.245  15.305  1.00  0.00    -0.077 C 
ATOM     28  C   UNL     1      49.094  -6.073  16.569  1.00  0.00     0.039 C 
ATOM     29  C   UNL     1      48.458  -4.063  15.322  1.00  0.00     0.008 C 
ENDBRANCH   1  27
BRANCH   4  30
ATOM     30  C   UNL     1      50.939  -2.609  13.351  1.00  0.00     0.163 C 
BRANCH  30  31
ATOM     31  O   UNL     1      50.408  -1.893  12.267  1.00  0.00    -0.396 OA
ATOM     32  H   UNL     1      49.716  -1.288  12.642  1.00  0.00     0.210 HD
ENDBRANCH  30  31
ENDBRANCH   4  30
BRANCH  13  33
ATOM     33  O   UNL     1      56.787  -1.539  19.695  1.00  0.00    -0.393 OA
ATOM     34  H   UNL     1      57.626  -1.013  19.759  1.00  0.00     0.210 HD
ENDBRANCH  13  33
TORSDOF 4
ENDMDL
MODEL 3
REMARK VINA RESULT:    -4.140      3.637      7.558
REMARK INTER + INTRA:          -4.510
REMARK INTER:                  -4.016
REMARK INTRA:                  -0.494
REMARK UNBOUND:                 0.356
REMARK SMILES C=C(C)[C@H]1CC[C@]2(CO)CC[C@]3(C)[C@H](CC[C@@H]4[C@]5(C)CC[C@H](O)C(C)(C)[C@@H]5CC[C@]43C)[C@@H]12
REMARK SMILES IDX 4 1 5 2 6 3 7 4 32 5 14 6 15 7 16 8 17 9 18 10 20 11 21 12
REMARK SMILES IDX 22 13 24 14 27 15 28 16 29 17 30 18 12 19 11 20 10 21 13 22
REMARK SMILES IDX 31 23 25 24 26 25 19 26 2 27 3 28 1 29 8 30 9 31 23 33
REMARK H PARENT 9 32 23 34
REMARK Flexibility Score: inf
ROOT
ATOM      1  C   UNL     1      49.381  -3.040  14.078  1.00  0.00     0.018 C 
ATOM      2  C   UNL     1      49.245  -2.760  12.565  1.00  0.00     0.009 C 
ATOM      3  C   UNL     1      50.487  -3.368  11.888  1.00  0.00     0.010 C 
ATOM      4  C   UNL     1      51.584  -3.322  12.962  1.00  0.00    -0.003 C 
ATOM      5  C   UNL     1      50.776  -3.699  14.224  1.00  0.00     0.008 C 
ATOM      6  C   UNL     1      51.627  -3.655  15.522  1.00  0.00    -0.000 C 
ATOM      7  C   UNL     1      50.825  -3.970  16.802  1.00  0.00     0.005 C 
ATOM      8  C   UNL     1      51.681  -3.840  18.077  1.00  0.00     0.005 C 
ATOM      9  C   UNL     1      53.059  -4.591  18.024  1.00  0.00     0.002 C 
ATOM     10  C   UNL     1      53.885  -4.580  19.400  1.00  0.00    -0.026 C 
ATOM     11  C   UNL     1      54.104  -3.135  19.941  1.00  0.00     0.010 C 
ATOM     12  C   UNL     1      54.958  -3.078  21.213  1.00  0.00     0.033 C 
ATOM     13  C   UNL     1      56.346  -3.696  21.004  1.00  0.00     0.120 C 
ATOM     14  C   UNL     1      56.284  -5.178  20.498  1.00  0.00    -0.006 C 
ATOM     15  C   UNL     1      55.284  -5.332  19.248  1.00  0.00     0.003 C 
ATOM     16  C   UNL     1      55.999  -4.984  17.912  1.00  0.00     0.005 C 
ATOM     17  C   UNL     1      55.123  -5.128  16.667  1.00  0.00     0.008 C 
ATOM     18  C   UNL     1      53.842  -4.257  16.688  1.00  0.00    -0.024 C 
ATOM     19  C   UNL     1      52.895  -4.605  15.417  1.00  0.00    -0.024 C 
ATOM     20  C   UNL     1      53.636  -4.413  14.027  1.00  0.00     0.008 C 
ATOM     21  C   UNL     1      52.700  -4.381  12.788  1.00  0.00     0.010 C 
ATOM     22  C   UNL     1      52.456  -6.125  15.404  1.00  0.00     0.012 C 
ATOM     23  C   UNL     1      54.268  -2.738  16.654  1.00  0.00     0.012 C 
ATOM     24  C   UNL     1      55.876  -6.118  21.682  1.00  0.00     0.014 C 
ATOM     25  C   UNL     1      57.734  -5.627  20.134  1.00  0.00     0.014 C 
ATOM     26  C   UNL     1      53.000  -5.353  20.436  1.00  0.00     0.012 C 
ENDROOT
BRANCH   1  27
ATOM     27  C   UNL     1      49.032  -1.833  14.962  1.00  0.00    -0.077 C 
ATOM     28  C   UNL     1      49.583  -0.447  14.719  1.00  0.00     0.039 C 
ATOM     29  C   UNL     1      48.095  -1.978  15.920  1.00  0.00     0.008 C 
ENDBRANCH   1  27
BRANCH   4  30
ATOM     30  C   UNL     1      52.212  -1.890  12.957  1.00  0.00     0.163 C 
BRANCH  30  31
ATOM     31  O   UNL     1      53.096  -1.745  11.877  1.00  0.00    -0.396 OA
ATOM     32  H   UNL     1      53.595  -0.901  12.033  1.00  0.00     0.210 HD
ENDBRANCH  30  31
ENDBRANCH   4  30
BRANCH  13  33
ATOM     33  O   UNL     1      57.061  -2.880  20.106  1.00  0.00    -0.393 OA
ATOM     34  H   UNL     1      56.499  -2.759  19.297  1.00  0.00     0.210 HD
ENDBRANCH  13  33
TORSDOF 4
ENDMDL
MODEL 4
REMARK VINA RESULT:    -3.512      4.066      5.949
REMARK INTER + INTRA:          -3.772
REMARK INTER:                  -4.669
REMARK INTRA:                   0.897
REMARK UNBOUND:                 0.356
REMARK SMILES C=C(C)[C@H]1CC[C@]2(CO)CC[C@]3(C)[C@H](CC[C@@H]4[C@]5(C)CC[C@H](O)C(C)(C)[C@@H]5CC[C@]43C)[C@@H]12
REMARK SMILES IDX 4 1 5 2 6 3 7 4 32 5 14 6 15 7 16 8 17 9 18 10 20 11 21 12
REMARK SMILES IDX 22 13 24 14 27 15 28 16 29 17 30 18 12 19 11 20 10 21 13 22
REMARK SMILES IDX 31 23 25 24 26 25 19 26 2 27 3 28 1 29 8 30 9 31 23 33
REMARK H PARENT 9 32 23 34
REMARK Flexibility Score: inf
ROOT
ATOM      1  C   UNL     1      57.429  -3.204  17.087  1.00  0.00     0.018 C 
ATOM      2  C   UNL     1      58.243  -3.651  18.321  1.00  0.00     0.009 C 
ATOM      3  C   UNL     1      57.534  -4.893  18.894  1.00  0.00     0.010 C 
ATOM      4  C   UNL     1      56.059  -4.720  18.502  1.00  0.00    -0.003 C 
ATOM      5  C   UNL     1      56.198  -4.146  17.074  1.00  0.00     0.008 C 
ATOM      6  C   UNL     1      54.832  -3.785  16.432  1.00  0.00    -0.000 C 
ATOM      7  C   UNL     1      54.952  -3.155  15.029  1.00  0.00     0.005 C 
ATOM      8  C   UNL     1      53.584  -2.736  14.455  1.00  0.00     0.005 C 
ATOM      9  C   UNL     1      52.472  -3.842  14.531  1.00  0.00     0.002 C 
ATOM     10  C   UNL     1      51.093  -3.461  13.803  1.00  0.00    -0.026 C 
ATOM     11  C   UNL     1      50.514  -2.109  14.316  1.00  0.00     0.010 C 
ATOM     12  C   UNL     1      49.156  -1.750  13.702  1.00  0.00     0.033 C 
ATOM     13  C   UNL     1      48.097  -2.827  13.973  1.00  0.00     0.120 C 
ATOM     14  C   UNL     1      48.526  -4.246  13.466  1.00  0.00    -0.006 C 
ATOM     15  C   UNL     1      50.011  -4.622  13.958  1.00  0.00     0.003 C 
ATOM     16  C   UNL     1      49.990  -5.223  15.392  1.00  0.00     0.005 C 
ATOM     17  C   UNL     1      51.362  -5.632  15.929  1.00  0.00     0.008 C 
ATOM     18  C   UNL     1      52.394  -4.478  15.980  1.00  0.00    -0.024 C 
ATOM     19  C   UNL     1      53.859  -5.039  16.393  1.00  0.00    -0.024 C 
ATOM     20  C   UNL     1      53.855  -5.800  17.785  1.00  0.00     0.008 C 
ATOM     21  C   UNL     1      55.262  -6.043  18.399  1.00  0.00     0.010 C 
ATOM     22  C   UNL     1      54.387  -6.125  15.371  1.00  0.00     0.012 C 
ATOM     23  C   UNL     1      51.900  -3.409  17.032  1.00  0.00     0.012 C 
ATOM     24  C   UNL     1      48.405  -4.303  11.907  1.00  0.00     0.014 C 
ATOM     25  C   UNL     1      47.472  -5.281  13.972  1.00  0.00     0.014 C 
ATOM     26  C   UNL     1      51.444  -3.290  12.286  1.00  0.00     0.012 C 
ENDROOT
BRANCH   1  27
ATOM     27  C   UNL     1      57.204  -1.686  17.015  1.00  0.00    -0.077 C 
ATOM     28  C   UNL     1      55.892  -1.067  16.590  1.00  0.00     0.039 C 
ATOM     29  C   UNL     1      58.170  -0.864  17.468  1.00  0.00     0.008 C 
ENDBRANCH   1  27
BRANCH   4  30
ATOM     30  C   UNL     1      55.382  -3.779  19.552  1.00  0.00     0.163 C 
BRANCH  30  31
ATOM     31  O   UNL     1      55.499  -4.317  20.843  1.00  0.00    -0.396 OA
ATOM     32  H   UNL     1      55.517  -5.304  20.735  1.00  0.00     0.210 HD
ENDBRANCH  30  31
ENDBRANCH   4  30
BRANCH  13  33
ATOM     33  O   UNL     1      47.826  -2.839  15.355  1.00  0.00    -0.393 OA
ATOM     34  H   UNL     1      47.086  -2.199  15.523  1.00  0.00     0.210 HD
ENDBRANCH  13  33
TORSDOF 4
ENDMDL
MODEL 5
REMARK VINA RESULT:    -2.356      1.528      2.116
REMARK INTER + INTRA:          -2.413
REMARK INTER:                  -2.381
REMARK INTRA:                  -0.032
REMARK UNBOUND:                 0.356
REMARK SMILES C=C(C)[C@H]1CC[C@]2(CO)CC[C@]3(C)[C@H](CC[C@@H]4[C@]5(C)CC[C@H](O)C(C)(C)[C@@H]5CC[C@]43C)[C@@H]12
REMARK SMILES IDX 4 1 5 2 6 3 7 4 32 5 14 6 15 7 16 8 17 9 18 10 20 11 21 12
REMARK SMILES IDX 22 13 24 14 27 15 28 16 29 17 30 18 12 19 11 20 10 21 13 22
REMARK SMILES IDX 31 23 25 24 26 25 19 26 2 27 3 28 1 29 8 30 9 31 23 33
REMARK H PARENT 9 32 23 34
REMARK Flexibility Score: inf
ROOT
ATOM      1  C   UNL     1      57.805  -1.720  21.954  1.00  0.00     0.018 C 
ATOM      2  C   UNL     1      56.973  -1.471  23.231  1.00  0.00     0.009 C 
ATOM      3  C   UNL     1      55.574  -2.063  22.971  1.00  0.00     0.010 C 
ATOM      4  C   UNL     1      55.384  -1.972  21.450  1.00  0.00    -0.003 C 
ATOM      5  C   UNL     1      56.799  -2.343  20.953  1.00  0.00     0.008 C 
ATOM      6  C   UNL     1      56.941  -2.256  19.409  1.00  0.00    -0.000 C 
ATOM      7  C   UNL     1      58.362  -2.566  18.897  1.00  0.00     0.005 C 
ATOM      8  C   UNL     1      58.486  -2.392  17.369  1.00  0.00     0.005 C 
ATOM      9  C   UNL     1      57.369  -3.111  16.533  1.00  0.00     0.002 C 
ATOM     10  C   UNL     1      57.578  -3.056  14.943  1.00  0.00    -0.026 C 
ATOM     11  C   UNL     1      57.753  -1.597  14.425  1.00  0.00     0.010 C 
ATOM     12  C   UNL     1      57.876  -1.496  12.901  1.00  0.00     0.033 C 
ATOM     13  C   UNL     1      56.654  -2.086  12.183  1.00  0.00     0.120 C 
ATOM     14  C   UNL     1      56.379  -3.578  12.575  1.00  0.00    -0.006 C 
ATOM     15  C   UNL     1      56.383  -3.777  14.171  1.00  0.00     0.003 C 
ATOM     16  C   UNL     1      54.994  -3.439  14.783  1.00  0.00     0.005 C 
ATOM     17  C   UNL     1      54.905  -3.626  16.297  1.00  0.00     0.008 C 
ATOM     18  C   UNL     1      55.927  -2.785  17.102  1.00  0.00    -0.024 C 
ATOM     19  C   UNL     1      55.876  -3.178  18.676  1.00  0.00    -0.024 C 
ATOM     20  C   UNL     1      54.432  -2.994  19.308  1.00  0.00     0.008 C 
ATOM     21  C   UNL     1      54.395  -3.007  20.862  1.00  0.00     0.010 C 
ATOM     22  C   UNL     1      56.201  -4.707  18.915  1.00  0.00     0.012 C 
ATOM     23  C   UNL     1      55.583  -1.256  16.908  1.00  0.00     0.012 C 
ATOM     24  C   UNL     1      57.428  -4.505  11.875  1.00  0.00     0.014 C 
ATOM     25  C   UNL     1      55.013  -3.999  11.946  1.00  0.00     0.014 C 
ATOM     26  C   UNL     1      58.909  -3.830  14.660  1.00  0.00     0.012 C 
ENDROOT
BRANCH   1  27
ATOM     27  C   UNL     1      58.636  -0.505  21.514  1.00  0.00    -0.077 C 
ATOM     28  C   UNL     1      58.289   0.914  21.899  1.00  0.00     0.039 C 
ATOM     29  C   UNL     1      59.797  -0.714  20.862  1.00  0.00     0.008 C 
ENDBRANCH   1  27
BRANCH   4  30
ATOM     30  C   UNL     1      54.899  -0.525  21.104  1.00  0.00     0.163 C 
BRANCH  30  31
ATOM     31  O   UNL     1      54.309   0.077  22.227  1.00  0.00    -0.396 OA
ATOM     32  H   UNL     1      54.239   1.045  22.022  1.00  0.00     0.210 HD
ENDBRANCH  30  31
ENDBRANCH   4  30
BRANCH  13  33
ATOM     33  O   UNL     1      55.542  -1.270  12.466  1.00  0.00    -0.393 OA
ATOM     34  H   UNL     1      54.744  -1.857  12.525  1.00  0.00     0.210 HD
ENDBRANCH  13  33
TORSDOF 4
ENDMDL
MODEL 6
REMARK VINA RESULT:    -2.195      4.274      6.507
REMARK INTER + INTRA:          -2.225
REMARK INTER:                  -3.006
REMARK INTRA:                   0.782
REMARK UNBOUND:                 0.356
REMARK SMILES C=C(C)[C@H]1CC[C@]2(CO)CC[C@]3(C)[C@H](CC[C@@H]4[C@]5(C)CC[C@H](O)C(C)(C)[C@@H]5CC[C@]43C)[C@@H]12
REMARK SMILES IDX 4 1 5 2 6 3 7 4 32 5 14 6 15 7 16 8 17 9 18 10 20 11 21 12
REMARK SMILES IDX 22 13 24 14 27 15 28 16 29 17 30 18 12 19 11 20 10 21 13 22
REMARK SMILES IDX 31 23 25 24 26 25 19 26 2 27 3 28 1 29 8 30 9 31 23 33
REMARK H PARENT 9 32 23 34
REMARK Flexibility Score: inf
ROOT
ATOM      1  C   UNL     1      49.088  -5.319  15.342  1.00  0.00     0.018 C 
ATOM      2  C   UNL     1      47.646  -4.768  15.322  1.00  0.00     0.009 C 
ATOM      3  C   UNL     1      47.612  -3.649  14.264  1.00  0.00     0.010 C 
ATOM      4  C   UNL     1      49.045  -3.097  14.229  1.00  0.00    -0.003 C 
ATOM      5  C   UNL     1      49.866  -4.398  14.367  1.00  0.00     0.008 C 
ATOM      6  C   UNL     1      51.396  -4.143  14.446  1.00  0.00    -0.000 C 
ATOM      7  C   UNL     1      52.230  -5.424  14.644  1.00  0.00     0.005 C 
ATOM      8  C   UNL     1      53.736  -5.126  14.797  1.00  0.00     0.005 C 
ATOM      9  C   UNL     1      54.333  -4.176  13.700  1.00  0.00     0.002 C 
ATOM     10  C   UNL     1      55.924  -3.982  13.771  1.00  0.00    -0.026 C 
ATOM     11  C   UNL     1      56.395  -3.507  15.178  1.00  0.00     0.010 C 
ATOM     12  C   UNL     1      57.901  -3.234  15.263  1.00  0.00     0.033 C 
ATOM     13  C   UNL     1      58.352  -2.170  14.253  1.00  0.00     0.120 C 
ATOM     14  C   UNL     1      57.983  -2.537  12.775  1.00  0.00    -0.006 C 
ATOM     15  C   UNL     1      56.442  -2.977  12.646  1.00  0.00     0.003 C 
ATOM     16  C   UNL     1      55.516  -1.737  12.490  1.00  0.00     0.005 C 
ATOM     17  C   UNL     1      54.032  -2.068  12.336  1.00  0.00     0.008 C 
ATOM     18  C   UNL     1      53.437  -2.882  13.512  1.00  0.00    -0.024 C 
ATOM     19  C   UNL     1      51.914  -3.334  13.181  1.00  0.00    -0.024 C 
ATOM     20  C   UNL     1      50.964  -2.105  12.862  1.00  0.00     0.008 C 
ATOM     21  C   UNL     1      49.445  -2.430  12.891  1.00  0.00     0.010 C 
ATOM     22  C   UNL     1      51.832  -4.225  11.876  1.00  0.00     0.012 C 
ATOM     23  C   UNL     1      53.472  -1.986  14.811  1.00  0.00     0.012 C 
ATOM     24  C   UNL     1      58.947  -3.656  12.258  1.00  0.00     0.014 C 
ATOM     25  C   UNL     1      58.308  -1.303  11.875  1.00  0.00     0.014 C 
ATOM     26  C   UNL     1      56.539  -5.399  13.510  1.00  0.00     0.012 C 
ENDROOT
BRANCH   1  27
ATOM     27  C   UNL     1      49.643  -5.544  16.756  1.00  0.00    -0.077 C 
ATOM     28  C   UNL     1      51.022  -5.095  17.181  1.00  0.00     0.039 C 
ATOM     29  C   UNL     1      48.827  -6.048  17.702  1.00  0.00     0.008 C 
ENDBRANCH   1  27
BRANCH   4  30
ATOM     30  C   UNL     1      49.199  -2.067  15.396  1.00  0.00     0.163 C 
BRANCH  30  31
ATOM     31  O   UNL     1      48.095  -1.200  15.436  1.00  0.00    -0.396 OA
ATOM     32  H   UNL     1      47.910  -1.026  16.395  1.00  0.00     0.210 HD
ENDBRANCH  30  31
ENDBRANCH   4  30
BRANCH  13  33
ATOM     33  O   UNL     1      57.785  -0.938  14.631  1.00  0.00    -0.393 OA
ATOM     34  H   UNL     1      57.398  -1.049  15.538  1.00  0.00     0.210 HD
ENDBRANCH  13  33
TORSDOF 4
ENDMDL
