MODEL 1
REMARK VINA RESULT:    -7.814      0.000      0.000
REMARK INTER + INTRA:          -8.271
REMARK INTER:                  -8.271
REMARK INTRA:                   0.000
REMARK UNBOUND:                 0.000
REMARK SMILES C[C@H]1CC[C@@H]2[N@@H+](C1)C[C@H]1[C@@H]3C[C@H]4[C@@H](CC(=O)[C@H]5C[C@@H](O)CC[C@@]54C)[C@H]3CC[C@H]1[C@@]2(C)O
REMARK SMILES IDX 5 1 6 2 8 3 7 4 4 5 29 6 3 7 28 8 30 9 2 10 27 11 9 12 1 13
REMARK SMILES IDX 26 14 10 15 25 16 11 17 13 18 12 19 14 20 23 21 15 22 17 23
REMARK SMILES IDX 22 24 24 25 16 26 18 27 21 28 19 29 31 31 20 33
REMARK H PARENT 6 30 31 32 20 34
REMARK Flexibility Score: inf
ROOT
ATOM      1  C   UNL     1      -2.975  -0.529  -4.574  1.00  0.00     0.216 C 
ATOM      2  N   UNL     1      -4.336   0.046  -4.376  1.00  0.00    -0.330 N 
ATOM      3  C   UNL     1      -5.120  -0.789  -3.442  1.00  0.00     0.266 C 
ATOM      4  C   UNL     1      -5.092   0.113  -5.656  1.00  0.00     0.265 C 
ATOM      5  C   UNL     1      -2.184   0.256  -5.655  1.00  0.00     0.069 C 
ATOM      6  C   UNL     1      -2.167  -0.624  -3.233  1.00  0.00     0.117 C 
ATOM      7  C   UNL     1      -2.954   0.325  -6.970  1.00  0.00     0.015 C 
ATOM      8  C   UNL     1      -2.980  -1.411  -2.152  1.00  0.00     0.036 C 
ATOM      9  C   UNL     1      -1.805   0.784  -2.671  1.00  0.00     0.049 C 
ATOM     10  C   UNL     1      -4.360   0.900  -6.759  1.00  0.00     0.041 C 
ATOM     11  C   UNL     1      -2.883  -2.974  -2.240  1.00  0.00     0.007 C 
ATOM     12  C   UNL     1      -4.473  -0.941  -2.046  1.00  0.00     0.054 C 
ATOM     13  C   UNL     1      -4.346   2.413  -6.488  1.00  0.00     0.013 C 
ATOM     14  C   UNL     1      -3.509  -3.690  -0.996  1.00  0.00     0.004 C 
ATOM     15  C   UNL     1      -5.305  -1.977  -1.230  1.00  0.00     0.002 C 
ATOM     16  C   UNL     1      -4.443  -2.738  -0.225  1.00  0.00    -0.004 C 
ATOM     17  C   UNL     1      -6.517  -1.505  -0.424  1.00  0.00     0.009 C 
ATOM     18  C   UNL     1      -5.429  -3.270   0.836  1.00  0.00     0.003 C 
ATOM     19  C   UNL     1      -6.814  -2.784   0.371  1.00  0.00    -0.000 C 
ATOM     20  C   UNL     1      -5.484  -4.760   1.181  1.00  0.00     0.080 C 
ATOM     21  C   UNL     1      -7.864  -2.814   1.528  1.00  0.00    -0.020 C 
ATOM     22  C   UNL     1      -6.582  -4.949   2.214  1.00  0.00     0.136 C 
ATOM     23  C   UNL     1      -7.956  -4.321   1.970  1.00  0.00     0.065 C 
ATOM     24  C   UNL     1      -9.264  -2.339   1.009  1.00  0.00     0.010 C 
ATOM     25  C   UNL     1      -7.428  -1.905   2.716  1.00  0.00     0.012 C 
ATOM     26  O   UNL     1      -6.379  -5.656   3.191  1.00  0.00    -0.299 OA
ATOM     27  C   UNL     1      -8.952  -4.507   3.135  1.00  0.00     0.043 C 
ATOM     28  C   UNL     1     -10.451  -3.220   1.466  1.00  0.00     0.032 C 
ATOM     29  C   UNL     1     -10.303  -3.776   2.900  1.00  0.00     0.115 C 
ATOM     30  H   UNL     1      -4.277   1.012  -3.983  1.00  0.00     0.348 HD
ENDROOT
BRANCH   6  31
ATOM     31  O   UNL     1      -0.962  -1.304  -3.508  1.00  0.00    -0.384 OA
ATOM     32  H   UNL     1      -0.794  -1.950  -2.771  1.00  0.00     0.211 HD
ENDBRANCH   6  31
BRANCH  29  33
ATOM     33  O   UNL     1     -10.456  -2.742   3.838  1.00  0.00    -0.393 OA
ATOM     34  H   UNL     1      -9.680  -2.132   3.727  1.00  0.00     0.210 HD
ENDBRANCH  29  33
TORSDOF 2
ENDMDL
MODEL 2
REMARK VINA RESULT:    -7.810      2.168      8.755
REMARK INTER + INTRA:          -8.267
REMARK INTER:                  -8.267
REMARK INTRA:                   0.000
REMARK UNBOUND:                 0.000
REMARK SMILES C[C@H]1CC[C@@H]2[N@@H+](C1)C[C@H]1[C@@H]3C[C@H]4[C@@H](CC(=O)[C@H]5C[C@@H](O)CC[C@@]54C)[C@H]3CC[C@H]1[C@@]2(C)O
REMARK SMILES IDX 5 1 6 2 8 3 7 4 4 5 29 6 3 7 28 8 30 9 2 10 27 11 9 12 1 13
REMARK SMILES IDX 26 14 10 15 25 16 11 17 13 18 12 19 14 20 23 21 15 22 17 23
REMARK SMILES IDX 22 24 24 25 16 26 18 27 21 28 19 29 31 31 20 33
REMARK H PARENT 6 30 31 32 20 34
REMARK Flexibility Score: inf
ROOT
ATOM      1  C   UNL     1      -6.140  -3.635   1.033  1.00  0.00     0.216 C 
ATOM      2  N   UNL     1      -6.796  -2.363   0.614  1.00  0.00    -0.330 N 
ATOM      3  C   UNL     1      -5.894  -1.577  -0.254  1.00  0.00     0.266 C 
ATOM      4  C   UNL     1      -7.138  -1.514   1.787  1.00  0.00     0.265 C 
ATOM      5  C   UNL     1      -7.015  -4.410   2.054  1.00  0.00     0.069 C 
ATOM      6  C   UNL     1      -5.756  -4.538  -0.190  1.00  0.00     0.117 C 
ATOM      7  C   UNL     1      -7.366  -3.543   3.259  1.00  0.00     0.015 C 
ATOM      8  C   UNL     1      -4.880  -3.741  -1.214  1.00  0.00     0.036 C 
ATOM      9  C   UNL     1      -7.015  -5.093  -0.923  1.00  0.00     0.049 C 
ATOM     10  C   UNL     1      -8.024  -2.229   2.824  1.00  0.00     0.041 C 
ATOM     11  C   UNL     1      -3.351  -3.666  -0.878  1.00  0.00     0.007 C 
ATOM     12  C   UNL     1      -5.460  -2.320  -1.539  1.00  0.00     0.054 C 
ATOM     13  C   UNL     1      -9.466  -2.424   2.327  1.00  0.00     0.013 C 
ATOM     14  C   UNL     1      -2.501  -3.076  -2.054  1.00  0.00     0.004 C 
ATOM     15  C   UNL     1      -4.384  -1.456  -2.265  1.00  0.00     0.002 C 
ATOM     16  C   UNL     1      -3.396  -2.315  -3.051  1.00  0.00    -0.004 C 
ATOM     17  C   UNL     1      -4.827  -0.372  -3.251  1.00  0.00     0.009 C 
ATOM     18  C   UNL     1      -2.790  -1.371  -4.111  1.00  0.00     0.003 C 
ATOM     19  C   UNL     1      -3.468  -0.011  -3.866  1.00  0.00    -0.000 C 
ATOM     20  C   UNL     1      -1.275  -1.189  -4.227  1.00  0.00     0.080 C 
ATOM     21  C   UNL     1      -3.346   0.936  -5.104  1.00  0.00    -0.020 C 
ATOM     22  C   UNL     1      -1.021  -0.169  -5.324  1.00  0.00     0.136 C 
ATOM     23  C   UNL     1      -1.801   1.148  -5.317  1.00  0.00     0.065 C 
ATOM     24  C   UNL     1      -4.023   2.317  -4.806  1.00  0.00     0.010 C 
ATOM     25  C   UNL     1      -4.006   0.308  -6.368  1.00  0.00     0.012 C 
ATOM     26  O   UNL     1      -0.149  -0.378  -6.155  1.00  0.00    -0.299 OA
ATOM     27  C   UNL     1      -1.519   2.057  -6.533  1.00  0.00     0.043 C 
ATOM     28  C   UNL     1      -3.191   3.547  -5.239  1.00  0.00     0.032 C 
ATOM     29  C   UNL     1      -2.398   3.338  -6.549  1.00  0.00     0.115 C 
ATOM     30  H   UNL     1      -7.676  -2.556   0.086  1.00  0.00     0.348 HD
ENDROOT
BRANCH   6  31
ATOM     31  O   UNL     1      -5.024  -5.638   0.305  1.00  0.00    -0.384 OA
ATOM     32  H   UNL     1      -5.621  -6.432   0.310  1.00  0.00     0.211 HD
ENDBRANCH   6  31
BRANCH  29  33
ATOM     33  O   UNL     1      -3.275   3.302  -7.645  1.00  0.00    -0.393 OA
ATOM     34  H   UNL     1      -2.866   3.854  -8.362  1.00  0.00     0.210 HD
ENDBRANCH  29  33
TORSDOF 2
ENDMDL
MODEL 3
REMARK VINA RESULT:    -7.809      4.249      9.670
REMARK INTER + INTRA:          -8.266
REMARK INTER:                  -8.266
REMARK INTRA:                   0.000
REMARK UNBOUND:                 0.000
REMARK SMILES C[C@H]1CC[C@@H]2[N@@H+](C1)C[C@H]1[C@@H]3C[C@H]4[C@@H](CC(=O)[C@H]5C[C@@H](O)CC[C@@]54C)[C@H]3CC[C@H]1[C@@]2(C)O
REMARK SMILES IDX 5 1 6 2 8 3 7 4 4 5 29 6 3 7 28 8 30 9 2 10 27 11 9 12 1 13
REMARK SMILES IDX 26 14 10 15 25 16 11 17 13 18 12 19 14 20 23 21 15 22 17 23
REMARK SMILES IDX 22 24 24 25 16 26 18 27 21 28 19 29 31 31 20 33
REMARK H PARENT 6 30 31 32 20 34
REMARK Flexibility Score: inf
ROOT
ATOM      1  C   UNL     1      -2.574  -4.306  -2.762  1.00  0.00     0.216 C 
ATOM      2  N   UNL     1      -3.329  -3.133  -2.236  1.00  0.00    -0.330 N 
ATOM      3  C   UNL     1      -2.528  -1.898  -2.372  1.00  0.00     0.266 C 
ATOM      4  C   UNL     1      -3.654  -3.296  -0.793  1.00  0.00     0.265 C 
ATOM      5  C   UNL     1      -3.341  -5.631  -2.503  1.00  0.00     0.069 C 
ATOM      6  C   UNL     1      -2.206  -4.147  -4.278  1.00  0.00     0.117 C 
ATOM      7  C   UNL     1      -3.675  -5.803  -1.025  1.00  0.00     0.015 C 
ATOM      8  C   UNL     1      -1.440  -2.804  -4.524  1.00  0.00     0.036 C 
ATOM      9  C   UNL     1      -3.468  -4.186  -5.191  1.00  0.00     0.049 C 
ATOM     10  C   UNL     1      -4.435  -4.587  -0.483  1.00  0.00     0.041 C 
ATOM     11  C   UNL     1       0.099  -2.842  -4.225  1.00  0.00     0.007 C 
ATOM     12  C   UNL     1      -2.122  -1.574  -3.829  1.00  0.00     0.054 C 
ATOM     13  C   UNL     1      -5.888  -4.526  -0.981  1.00  0.00     0.013 C 
ATOM     14  C   UNL     1       0.843  -1.556  -4.722  1.00  0.00     0.004 C 
ATOM     15  C   UNL     1      -1.145  -0.360  -3.807  1.00  0.00     0.002 C 
ATOM     16  C   UNL     1      -0.152  -0.405  -4.968  1.00  0.00    -0.004 C 
ATOM     17  C   UNL     1      -1.708   1.063  -3.833  1.00  0.00     0.009 C 
ATOM     18  C   UNL     1       0.334   1.049  -5.143  1.00  0.00     0.003 C 
ATOM     19  C   UNL     1      -0.411   1.851  -4.060  1.00  0.00    -0.000 C 
ATOM     20  C   UNL     1       1.826   1.388  -5.114  1.00  0.00     0.080 C 
ATOM     21  C   UNL     1      -0.417   3.383  -4.366  1.00  0.00    -0.020 C 
ATOM     22  C   UNL     1       1.955   2.894  -5.266  1.00  0.00     0.136 C 
ATOM     23  C   UNL     1       1.097   3.811  -4.390  1.00  0.00     0.065 C 
ATOM     24  C   UNL     1      -1.159   4.166  -3.229  1.00  0.00     0.010 C 
ATOM     25  C   UNL     1      -1.109   3.689  -5.728  1.00  0.00     0.012 C 
ATOM     26  O   UNL     1       2.789   3.357  -6.031  1.00  0.00    -0.299 OA
ATOM     27  C   UNL     1       1.254   5.315  -4.706  1.00  0.00     0.043 C 
ATOM     28  C   UNL     1      -0.429   5.442  -2.746  1.00  0.00     0.032 C 
ATOM     29  C   UNL     1       0.299   6.211  -3.870  1.00  0.00     0.115 C 
ATOM     30  H   UNL     1      -4.224  -3.004  -2.758  1.00  0.00     0.348 HD
ENDROOT
BRANCH   6  31
ATOM     31  O   UNL     1      -1.381  -5.235  -4.633  1.00  0.00    -0.384 OA
ATOM     32  H   UNL     1      -1.337  -5.281  -5.625  1.00  0.00     0.211 HD
ENDBRANCH   6  31
BRANCH  29  33
ATOM     33  O   UNL     1      -0.635   6.832  -4.715  1.00  0.00    -0.393 OA
ATOM     34  H   UNL     1      -0.716   6.264  -5.526  1.00  0.00     0.210 HD
ENDBRANCH  29  33
TORSDOF 2
ENDMDL
MODEL 4
REMARK VINA RESULT:    -7.730      6.376      9.572
REMARK INTER + INTRA:          -8.182
REMARK INTER:                  -8.182
REMARK INTRA:                   0.000
REMARK UNBOUND:                 0.000
REMARK SMILES C[C@H]1CC[C@@H]2[N@@H+](C1)C[C@H]1[C@@H]3C[C@H]4[C@@H](CC(=O)[C@H]5C[C@@H](O)CC[C@@]54C)[C@H]3CC[C@H]1[C@@]2(C)O
REMARK SMILES IDX 5 1 6 2 8 3 7 4 4 5 29 6 3 7 28 8 30 9 2 10 27 11 9 12 1 13
REMARK SMILES IDX 26 14 10 15 25 16 11 17 13 18 12 19 14 20 23 21 15 22 17 23
REMARK SMILES IDX 22 24 24 25 16 26 18 27 21 28 19 29 31 31 20 33
REMARK H PARENT 6 30 31 32 20 34
REMARK Flexibility Score: inf
ROOT
ATOM      1  C   UNL     1       3.245   5.087  -1.893  1.00  0.00     0.216 C 
ATOM      2  N   UNL     1       3.856   3.743  -2.095  1.00  0.00    -0.330 N 
ATOM      3  C   UNL     1       2.806   2.718  -2.277  1.00  0.00     0.266 C 
ATOM      4  C   UNL     1       4.677   3.335  -0.922  1.00  0.00     0.265 C 
ATOM      5  C   UNL     1       4.324   6.153  -1.564  1.00  0.00     0.069 C 
ATOM      6  C   UNL     1       2.360   5.528  -3.110  1.00  0.00     0.117 C 
ATOM      7  C   UNL     1       5.167   5.741  -0.361  1.00  0.00     0.015 C 
ATOM      8  C   UNL     1       1.282   4.441  -3.435  1.00  0.00     0.036 C 
ATOM      9  C   UNL     1       3.215   5.791  -4.386  1.00  0.00     0.049 C 
ATOM     10  C   UNL     1       5.779   4.350  -0.565  1.00  0.00     0.041 C 
ATOM     11  C   UNL     1      -0.018   4.498  -2.559  1.00  0.00     0.007 C 
ATOM     12  C   UNL     1       1.872   2.988  -3.479  1.00  0.00     0.054 C 
ATOM     13  C   UNL     1       6.928   4.352  -1.587  1.00  0.00     0.013 C 
ATOM     14  C   UNL     1      -1.148   3.554  -3.092  1.00  0.00     0.004 C 
ATOM     15  C   UNL     1       0.718   1.940  -3.449  1.00  0.00     0.002 C 
ATOM     16  C   UNL     1      -0.573   2.492  -4.050  1.00  0.00    -0.004 C 
ATOM     17  C   UNL     1       0.913   0.583  -4.130  1.00  0.00     0.009 C 
ATOM     18  C   UNL     1      -1.395   1.252  -4.457  1.00  0.00     0.003 C 
ATOM     19  C   UNL     1      -0.523   0.048  -4.058  1.00  0.00    -0.000 C 
ATOM     20  C   UNL     1      -2.825   1.056  -3.949  1.00  0.00     0.080 C 
ATOM     21  C   UNL     1      -0.957  -1.259  -4.797  1.00  0.00    -0.020 C 
ATOM     22  C   UNL     1      -3.325  -0.272  -4.493  1.00  0.00     0.136 C 
ATOM     23  C   UNL     1      -2.444  -1.516  -4.353  1.00  0.00     0.065 C 
ATOM     24  C   UNL     1      -0.064  -2.465  -4.344  1.00  0.00     0.010 C 
ATOM     25  C   UNL     1      -0.851  -1.101  -6.343  1.00  0.00     0.012 C 
ATOM     26  O   UNL     1      -4.448  -0.347  -4.970  1.00  0.00    -0.299 OA
ATOM     27  C   UNL     1      -3.024  -2.779  -5.027  1.00  0.00     0.043 C 
ATOM     28  C   UNL     1      -0.849  -3.762  -4.030  1.00  0.00     0.032 C 
ATOM     29  C   UNL     1      -2.064  -3.999  -4.954  1.00  0.00     0.115 C 
ATOM     30  H   UNL     1       4.471   3.738  -2.939  1.00  0.00     0.348 HD
ENDROOT
BRANCH   6  31
ATOM     31  O   UNL     1       1.723   6.737  -2.759  1.00  0.00    -0.384 OA
ATOM     32  H   UNL     1       0.992   6.529  -2.119  1.00  0.00     0.211 HD
ENDBRANCH   6  31
BRANCH  29  33
ATOM     33  O   UNL     1      -1.630  -4.344  -6.245  1.00  0.00    -0.393 OA
ATOM     34  H   UNL     1      -2.428  -4.662  -6.744  1.00  0.00     0.210 HD
ENDBRANCH  29  33
TORSDOF 2
ENDMDL
MODEL 5
REMARK VINA RESULT:    -7.685      4.214      6.920
REMARK INTER + INTRA:          -8.134
REMARK INTER:                  -8.134
REMARK INTRA:                   0.000
REMARK UNBOUND:                 0.000
REMARK SMILES C[C@H]1CC[C@@H]2[N@@H+](C1)C[C@H]1[C@@H]3C[C@H]4[C@@H](CC(=O)[C@H]5C[C@@H](O)CC[C@@]54C)[C@H]3CC[C@H]1[C@@]2(C)O
REMARK SMILES IDX 5 1 6 2 8 3 7 4 4 5 29 6 3 7 28 8 30 9 2 10 27 11 9 12 1 13
REMARK SMILES IDX 26 14 10 15 25 16 11 17 13 18 12 19 14 20 23 21 15 22 17 23
REMARK SMILES IDX 22 24 24 25 16 26 18 27 21 28 19 29 31 31 20 33
REMARK H PARENT 6 30 31 32 20 34
REMARK Flexibility Score: inf
ROOT
ATOM      1  C   UNL     1       0.010   4.669  -3.997  1.00  0.00     0.216 C 
ATOM      2  N   UNL     1       0.691   3.573  -3.252  1.00  0.00    -0.330 N 
ATOM      3  C   UNL     1      -0.269   2.498  -2.921  1.00  0.00     0.266 C 
ATOM      4  C   UNL     1       1.270   4.063  -1.971  1.00  0.00     0.265 C 
ATOM      5  C   UNL     1       0.967   5.869  -4.234  1.00  0.00     0.069 C 
ATOM      6  C   UNL     1      -0.623   4.171  -5.343  1.00  0.00     0.117 C 
ATOM      7  C   UNL     1       1.561   6.375  -2.924  1.00  0.00     0.015 C 
ATOM      8  C   UNL     1      -1.580   2.958  -5.090  1.00  0.00     0.036 C 
ATOM      9  C   UNL     1       0.464   3.752  -6.378  1.00  0.00     0.049 C 
ATOM     10  C   UNL     1       2.245   5.241  -2.151  1.00  0.00     0.041 C 
ATOM     11  C   UNL     1      -3.030   3.329  -4.625  1.00  0.00     0.007 C 
ATOM     12  C   UNL     1      -0.948   1.865  -4.158  1.00  0.00     0.054 C 
ATOM     13  C   UNL     1       3.576   4.808  -2.788  1.00  0.00     0.013 C 
ATOM     14  C   UNL     1      -4.000   2.099  -4.629  1.00  0.00     0.004 C 
ATOM     15  C   UNL     1      -2.051   0.882  -3.662  1.00  0.00     0.002 C 
ATOM     16  C   UNL     1      -3.210   0.776  -4.651  1.00  0.00    -0.004 C 
ATOM     17  C   UNL     1      -1.681  -0.568  -3.342  1.00  0.00     0.009 C 
ATOM     18  C   UNL     1      -3.895  -0.570  -4.332  1.00  0.00     0.003 C 
ATOM     19  C   UNL     1      -3.085  -1.162  -3.165  1.00  0.00    -0.000 C 
ATOM     20  C   UNL     1      -5.391  -0.636  -4.020  1.00  0.00     0.080 C 
ATOM     21  C   UNL     1      -3.319  -2.699  -3.010  1.00  0.00    -0.020 C 
ATOM     22  C   UNL     1      -5.729  -2.084  -3.709  1.00  0.00     0.136 C 
ATOM     23  C   UNL     1      -4.857  -2.860  -2.719  1.00  0.00     0.065 C 
ATOM     24  C   UNL     1      -2.500  -3.258  -1.797  1.00  0.00     0.010 C 
ATOM     25  C   UNL     1      -2.908  -3.471  -4.299  1.00  0.00     0.012 C 
ATOM     26  O   UNL     1      -6.730  -2.591  -4.196  1.00  0.00    -0.299 OA
ATOM     27  C   UNL     1      -5.249  -4.346  -2.561  1.00  0.00     0.043 C 
ATOM     28  C   UNL     1      -3.291  -4.217  -0.875  1.00  0.00     0.032 C 
ATOM     29  C   UNL     1      -4.287  -5.130  -1.626  1.00  0.00     0.115 C 
ATOM     30  H   UNL     1       1.463   3.162  -3.821  1.00  0.00     0.348 HD
ENDROOT
BRANCH   6  31
ATOM     31  O   UNL     1      -1.355   5.245  -5.894  1.00  0.00    -0.384 OA
ATOM     32  H   UNL     1      -0.719   5.843  -6.370  1.00  0.00     0.211 HD
ENDBRANCH   6  31
BRANCH  29  33
ATOM     33  O   UNL     1      -3.590  -6.101  -2.364  1.00  0.00    -0.393 OA
ATOM     34  H   UNL     1      -3.844  -5.980  -3.316  1.00  0.00     0.210 HD
ENDBRANCH  29  33
TORSDOF 2
ENDMDL
MODEL 6
REMARK VINA RESULT:    -7.666      3.948      9.494
REMARK INTER + INTRA:          -8.114
REMARK INTER:                  -8.114
REMARK INTRA:                   0.000
REMARK UNBOUND:                 0.000
REMARK SMILES C[C@H]1CC[C@@H]2[N@@H+](C1)C[C@H]1[C@@H]3C[C@H]4[C@@H](CC(=O)[C@H]5C[C@@H](O)CC[C@@]54C)[C@H]3CC[C@H]1[C@@]2(C)O
REMARK SMILES IDX 5 1 6 2 8 3 7 4 4 5 29 6 3 7 28 8 30 9 2 10 27 11 9 12 1 13
REMARK SMILES IDX 26 14 10 15 25 16 11 17 13 18 12 19 14 20 23 21 15 22 17 23
REMARK SMILES IDX 22 24 24 25 16 26 18 27 21 28 19 29 31 31 20 33
REMARK H PARENT 6 30 31 32 20 34
REMARK Flexibility Score: inf
ROOT
ATOM      1  C   UNL     1      -3.818  -5.215  -2.244  1.00  0.00     0.216 C 
ATOM      2  N   UNL     1      -4.124  -3.900  -1.613  1.00  0.00    -0.330 N 
ATOM      3  C   UNL     1      -2.989  -2.968  -1.780  1.00  0.00     0.266 C 
ATOM      4  C   UNL     1      -4.374  -4.040  -0.152  1.00  0.00     0.265 C 
ATOM      5  C   UNL     1      -4.940  -6.250  -1.961  1.00  0.00     0.069 C 
ATOM      6  C   UNL     1      -3.535  -5.087  -3.781  1.00  0.00     0.117 C 
ATOM      7  C   UNL     1      -5.198  -6.399  -0.465  1.00  0.00     0.015 C 
ATOM      8  C   UNL     1      -2.408  -4.035  -4.051  1.00  0.00     0.036 C 
ATOM      9  C   UNL     1      -4.812  -4.677  -4.576  1.00  0.00     0.049 C 
ATOM     10  C   UNL     1      -5.494  -5.042   0.184  1.00  0.00     0.041 C 
ATOM     11  C   UNL     1      -0.940  -4.565  -3.895  1.00  0.00     0.007 C 
ATOM     12  C   UNL     1      -2.614  -2.698  -3.256  1.00  0.00     0.054 C 
ATOM     13  C   UNL     1      -6.888  -4.504  -0.178  1.00  0.00     0.013 C 
ATOM     14  C   UNL     1       0.130  -3.545  -4.415  1.00  0.00     0.004 C 
ATOM     15  C   UNL     1      -1.307  -1.851  -3.283  1.00  0.00     0.002 C 
ATOM     16  C   UNL     1      -0.469  -2.130  -4.530  1.00  0.00    -0.004 C 
ATOM     17  C   UNL     1      -1.395  -0.324  -3.210  1.00  0.00     0.009 C 
ATOM     18  C   UNL     1       0.434  -0.891  -4.700  1.00  0.00     0.003 C 
ATOM     19  C   UNL     1       0.063   0.035  -3.528  1.00  0.00    -0.000 C 
ATOM     20  C   UNL     1       1.954  -1.033  -4.796  1.00  0.00     0.080 C 
ATOM     21  C   UNL     1       0.515   1.510  -3.780  1.00  0.00    -0.020 C 
ATOM     22  C   UNL     1       2.537   0.365  -4.908  1.00  0.00     0.136 C 
ATOM     23  C   UNL     1       2.080   1.448  -3.928  1.00  0.00     0.065 C 
ATOM     24  C   UNL     1       0.144   2.414  -2.555  1.00  0.00     0.010 C 
ATOM     25  C   UNL     1      -0.148   2.096  -5.063  1.00  0.00     0.012 C 
ATOM     26  O   UNL     1       3.413   0.592  -5.730  1.00  0.00    -0.299 OA
ATOM     27  C   UNL     1       2.676   2.845  -4.206  1.00  0.00     0.043 C 
ATOM     28  C   UNL     1       1.272   3.369  -2.098  1.00  0.00     0.032 C 
ATOM     29  C   UNL     1       2.118   3.942  -3.257  1.00  0.00     0.115 C 
ATOM     30  H   UNL     1      -4.971  -3.468  -2.046  1.00  0.00     0.348 HD
ENDROOT
BRANCH   6  31
ATOM     31  O   UNL     1      -3.123  -6.353  -4.247  1.00  0.00    -0.384 OA
ATOM     32  H   UNL     1      -3.633  -7.048  -3.751  1.00  0.00     0.211 HD
ENDBRANCH   6  31
BRANCH  29  33
ATOM     33  O   UNL     1       1.364   4.871  -3.992  1.00  0.00    -0.393 OA
ATOM     34  H   UNL     1       0.931   5.478  -3.335  1.00  0.00     0.210 HD
ENDBRANCH  29  33
TORSDOF 2
ENDMDL
MODEL 7
REMARK VINA RESULT:    -7.604      2.885      4.619
REMARK INTER + INTRA:          -8.048
REMARK INTER:                  -8.048
REMARK INTRA:                   0.000
REMARK UNBOUND:                 0.000
REMARK SMILES C[C@H]1CC[C@@H]2[N@@H+](C1)C[C@H]1[C@@H]3C[C@H]4[C@@H](CC(=O)[C@H]5C[C@@H](O)CC[C@@]54C)[C@H]3CC[C@H]1[C@@]2(C)O
REMARK SMILES IDX 5 1 6 2 8 3 7 4 4 5 29 6 3 7 28 8 30 9 2 10 27 11 9 12 1 13
REMARK SMILES IDX 26 14 10 15 25 16 11 17 13 18 12 19 14 20 23 21 15 22 17 23
REMARK SMILES IDX 22 24 24 25 16 26 18 27 21 28 19 29 31 31 20 33
REMARK H PARENT 6 30 31 32 20 34
REMARK Flexibility Score: inf
ROOT
ATOM      1  C   UNL     1       0.069   0.083  -6.041  1.00  0.00     0.216 C 
ATOM      2  N   UNL     1      -0.388   0.609  -4.724  1.00  0.00    -0.330 N 
ATOM      3  C   UNL     1      -1.417  -0.279  -4.141  1.00  0.00     0.266 C 
ATOM      4  C   UNL     1      -0.992   1.962  -4.857  1.00  0.00     0.265 C 
ATOM      5  C   UNL     1       1.048   1.071  -6.733  1.00  0.00     0.069 C 
ATOM      6  C   UNL     1       0.694  -1.351  -5.927  1.00  0.00     0.117 C 
ATOM      7  C   UNL     1       0.432   2.459  -6.872  1.00  0.00     0.015 C 
ATOM      8  C   UNL     1      -0.301  -2.333  -5.221  1.00  0.00     0.036 C 
ATOM      9  C   UNL     1       2.039  -1.339  -5.139  1.00  0.00     0.049 C 
ATOM     10  C   UNL     1      -0.054   2.989  -5.518  1.00  0.00     0.041 C 
ATOM     11  C   UNL     1      -1.398  -2.961  -6.149  1.00  0.00     0.007 C 
ATOM     12  C   UNL     1      -0.935  -1.732  -3.919  1.00  0.00     0.054 C 
ATOM     13  C   UNL     1       1.102   3.406  -4.595  1.00  0.00     0.013 C 
ATOM     14  C   UNL     1      -2.197  -4.111  -5.447  1.00  0.00     0.004 C 
ATOM     15  C   UNL     1      -2.156  -2.591  -3.472  1.00  0.00     0.002 C 
ATOM     16  C   UNL     1      -2.026  -4.046  -3.917  1.00  0.00    -0.004 C 
ATOM     17  C   UNL     1      -2.520  -2.670  -1.987  1.00  0.00     0.009 C 
ATOM     18  C   UNL     1      -2.950  -4.844  -2.974  1.00  0.00     0.003 C 
ATOM     19  C   UNL     1      -3.567  -3.791  -2.036  1.00  0.00    -0.000 C 
ATOM     20  C   UNL     1      -4.045  -5.756  -3.532  1.00  0.00     0.080 C 
ATOM     21  C   UNL     1      -4.152  -4.433  -0.737  1.00  0.00    -0.020 C 
ATOM     22  C   UNL     1      -4.793  -6.348  -2.350  1.00  0.00     0.136 C 
ATOM     23  C   UNL     1      -5.273  -5.423  -1.229  1.00  0.00     0.065 C 
ATOM     24  C   UNL     1      -4.794  -3.334   0.176  1.00  0.00     0.010 C 
ATOM     25  C   UNL     1      -3.053  -5.186   0.070  1.00  0.00     0.012 C 
ATOM     26  O   UNL     1      -5.065  -7.539  -2.340  1.00  0.00    -0.299 OA
ATOM     27  C   UNL     1      -5.937  -6.157  -0.043  1.00  0.00     0.043 C 
ATOM     28  C   UNL     1      -6.180  -3.709   0.755  1.00  0.00     0.032 C 
ATOM     29  C   UNL     1      -6.323  -5.203   1.120  1.00  0.00     0.115 C 
ATOM     30  H   UNL     1       0.409   0.674  -4.053  1.00  0.00     0.348 HD
ENDROOT
BRANCH   6  31
ATOM     31  O   UNL     1       0.962  -1.806  -7.235  1.00  0.00    -0.384 OA
ATOM     32  H   UNL     1       0.667  -2.753  -7.301  1.00  0.00     0.211 HD
ENDBRANCH   6  31
BRANCH  29  33
ATOM     33  O   UNL     1      -5.553  -5.499   2.257  1.00  0.00    -0.393 OA
ATOM     34  H   UNL     1      -4.759  -6.007   1.945  1.00  0.00     0.210 HD
ENDBRANCH  29  33
TORSDOF 2
ENDMDL
MODEL 8
REMARK VINA RESULT:    -7.534      4.690     10.552
REMARK INTER + INTRA:          -7.974
REMARK INTER:                  -7.974
REMARK INTRA:                   0.000
REMARK UNBOUND:                 0.000
REMARK SMILES C[C@H]1CC[C@@H]2[N@@H+](C1)C[C@H]1[C@@H]3C[C@H]4[C@@H](CC(=O)[C@H]5C[C@@H](O)CC[C@@]54C)[C@H]3CC[C@H]1[C@@]2(C)O
REMARK SMILES IDX 5 1 6 2 8 3 7 4 4 5 29 6 3 7 28 8 30 9 2 10 27 11 9 12 1 13
REMARK SMILES IDX 26 14 10 15 25 16 11 17 13 18 12 19 14 20 23 21 15 22 17 23
REMARK SMILES IDX 22 24 24 25 16 26 18 27 21 28 19 29 31 31 20 33
REMARK H PARENT 6 30 31 32 20 34
REMARK Flexibility Score: inf
ROOT
ATOM      1  C   UNL     1      -3.605  -1.450  -4.030  1.00  0.00     0.216 C 
ATOM      2  N   UNL     1      -2.265  -1.663  -3.412  1.00  0.00    -0.330 N 
ATOM      3  C   UNL     1      -1.385  -0.504  -3.671  1.00  0.00     0.266 C 
ATOM      4  C   UNL     1      -1.593  -2.867  -3.972  1.00  0.00     0.265 C 
ATOM      5  C   UNL     1      -4.499  -2.711  -3.888  1.00  0.00     0.069 C 
ATOM      6  C   UNL     1      -4.325  -0.175  -3.466  1.00  0.00     0.117 C 
ATOM      7  C   UNL     1      -3.814  -3.947  -4.462  1.00  0.00     0.015 C 
ATOM      8  C   UNL     1      -3.409   1.087  -3.609  1.00  0.00     0.036 C 
ATOM      9  C   UNL     1      -4.723  -0.346  -1.969  1.00  0.00     0.049 C 
ATOM     10  C   UNL     1      -2.428  -4.154  -3.838  1.00  0.00     0.041 C 
ATOM     11  C   UNL     1      -3.433   1.780  -5.016  1.00  0.00     0.007 C 
ATOM     12  C   UNL     1      -1.938   0.834  -3.127  1.00  0.00     0.054 C 
ATOM     13  C   UNL     1      -2.501  -4.656  -2.387  1.00  0.00     0.013 C 
ATOM     14  C   UNL     1      -2.699   3.164  -5.020  1.00  0.00     0.004 C 
ATOM     15  C   UNL     1      -1.008   1.984  -3.618  1.00  0.00     0.002 C 
ATOM     16  C   UNL     1      -1.768   3.297  -3.799  1.00  0.00    -0.004 C 
ATOM     17  C   UNL     1       0.225   2.361  -2.794  1.00  0.00     0.009 C 
ATOM     18  C   UNL     1      -0.694   4.402  -3.728  1.00  0.00     0.003 C 
ATOM     19  C   UNL     1       0.633   3.654  -3.513  1.00  0.00    -0.000 C 
ATOM     20  C   UNL     1      -0.544   5.425  -4.856  1.00  0.00     0.080 C 
ATOM     21  C   UNL     1       1.752   4.593  -2.957  1.00  0.00    -0.020 C 
ATOM     22  C   UNL     1       0.622   6.331  -4.498  1.00  0.00     0.136 C 
ATOM     23  C   UNL     1       1.946   5.706  -4.052  1.00  0.00     0.065 C 
ATOM     24  C   UNL     1       3.092   3.801  -2.778  1.00  0.00     0.010 C 
ATOM     25  C   UNL     1       1.344   5.215  -1.588  1.00  0.00     0.012 C 
ATOM     26  O   UNL     1       0.514   7.541  -4.637  1.00  0.00    -0.299 OA
ATOM     27  C   UNL     1       3.019   6.733  -3.628  1.00  0.00     0.043 C 
ATOM     28  C   UNL     1       4.348   4.538  -3.304  1.00  0.00     0.032 C 
ATOM     29  C   UNL     1       4.314   6.067  -3.087  1.00  0.00     0.115 C 
ATOM     30  H   UNL     1      -2.349  -1.789  -2.379  1.00  0.00     0.348 HD
ENDROOT
BRANCH   6  31
ATOM     31  O   UNL     1      -5.509   0.011  -4.210  1.00  0.00    -0.384 OA
ATOM     32  H   UNL     1      -5.611  -0.759  -4.830  1.00  0.00     0.211 HD
ENDBRANCH   6  31
BRANCH  29  33
ATOM     33  O   UNL     1       4.472   6.365  -1.724  1.00  0.00    -0.393 OA
ATOM     34  H   UNL     1       3.630   6.098  -1.269  1.00  0.00     0.210 HD
ENDBRANCH  29  33
TORSDOF 2
ENDMDL
MODEL 9
REMARK VINA RESULT:    -7.469      2.689      9.019
REMARK INTER + INTRA:          -7.906
REMARK INTER:                  -7.906
REMARK INTRA:                   0.000
REMARK UNBOUND:                 0.000
REMARK SMILES C[C@H]1CC[C@@H]2[N@@H+](C1)C[C@H]1[C@@H]3C[C@H]4[C@@H](CC(=O)[C@H]5C[C@@H](O)CC[C@@]54C)[C@H]3CC[C@H]1[C@@]2(C)O
REMARK SMILES IDX 5 1 6 2 8 3 7 4 4 5 29 6 3 7 28 8 30 9 2 10 27 11 9 12 1 13
REMARK SMILES IDX 26 14 10 15 25 16 11 17 13 18 12 19 14 20 23 21 15 22 17 23
REMARK SMILES IDX 22 24 24 25 16 26 18 27 21 28 19 29 31 31 20 33
REMARK H PARENT 6 30 31 32 20 34
REMARK Flexibility Score: inf
ROOT
ATOM      1  C   UNL     1      -6.189  -4.460   0.307  1.00  0.00     0.216 C 
ATOM      2  N   UNL     1      -5.968  -2.998   0.493  1.00  0.00    -0.330 N 
ATOM      3  C   UNL     1      -4.691  -2.583  -0.126  1.00  0.00     0.266 C 
ATOM      4  C   UNL     1      -5.901  -2.636   1.935  1.00  0.00     0.265 C 
ATOM      5  C   UNL     1      -7.454  -4.941   1.067  1.00  0.00     0.069 C 
ATOM      6  C   UNL     1      -6.245  -4.866  -1.207  1.00  0.00     0.117 C 
ATOM      7  C   UNL     1      -7.389  -4.573   2.546  1.00  0.00     0.015 C 
ATOM      8  C   UNL     1      -4.967  -4.369  -1.962  1.00  0.00     0.036 C 
ATOM      9  C   UNL     1      -7.508  -4.292  -1.917  1.00  0.00     0.049 C 
ATOM     10  C   UNL     1      -7.144  -3.072   2.734  1.00  0.00     0.041 C 
ATOM     11  C   UNL     1      -3.706  -5.293  -1.833  1.00  0.00     0.007 C 
ATOM     12  C   UNL     1      -4.610  -2.875  -1.643  1.00  0.00     0.054 C 
ATOM     13  C   UNL     1      -8.381  -2.223   2.401  1.00  0.00     0.013 C 
ATOM     14  C   UNL     1      -2.548  -4.875  -2.801  1.00  0.00     0.004 C 
ATOM     15  C   UNL     1      -3.163  -2.555  -2.126  1.00  0.00     0.002 C 
ATOM     16  C   UNL     1      -2.746  -3.432  -3.305  1.00  0.00    -0.004 C 
ATOM     17  C   UNL     1      -2.810  -1.130  -2.559  1.00  0.00     0.009 C 
ATOM     18  C   UNL     1      -1.603  -2.663  -4.000  1.00  0.00     0.003 C 
ATOM     19  C   UNL     1      -1.424  -1.380  -3.170  1.00  0.00    -0.000 C 
ATOM     20  C   UNL     1      -0.245  -3.325  -4.243  1.00  0.00     0.080 C 
ATOM     21  C   UNL     1      -0.657  -0.272  -3.961  1.00  0.00    -0.020 C 
ATOM     22  C   UNL     1       0.657  -2.291  -4.896  1.00  0.00     0.136 C 
ATOM     23  C   UNL     1       0.753  -0.891  -4.285  1.00  0.00     0.065 C 
ATOM     24  C   UNL     1      -0.471   1.006  -3.074  1.00  0.00     0.010 C 
ATOM     25  C   UNL     1      -1.411   0.121  -5.266  1.00  0.00     0.012 C 
ATOM     26  O   UNL     1       1.346  -2.607  -5.854  1.00  0.00    -0.299 OA
ATOM     27  C   UNL     1       1.628   0.093  -5.093  1.00  0.00     0.043 C 
ATOM     28  C   UNL     1       0.950   1.618  -3.118  1.00  0.00     0.032 C 
ATOM     29  C   UNL     1       1.627   1.530  -4.504  1.00  0.00     0.115 C 
ATOM     30  H   UNL     1      -6.740  -2.447   0.056  1.00  0.00     0.348 HD
ENDROOT
BRANCH   6  31
ATOM     31  O   UNL     1      -6.315  -6.274  -1.270  1.00  0.00    -0.384 OA
ATOM     32  H   UNL     1      -6.371  -6.624  -0.341  1.00  0.00     0.211 HD
ENDBRANCH   6  31
BRANCH  29  33
ATOM     33  O   UNL     1       1.008   2.415  -5.401  1.00  0.00    -0.393 OA
ATOM     34  H   UNL     1       0.081   2.085  -5.541  1.00  0.00     0.210 HD
ENDBRANCH  29  33
TORSDOF 2
ENDMDL
