MODEL 1
REMARK VINA RESULT:    -5.921      0.000      0.000
REMARK INTER + INTRA:          -7.248
REMARK INTER:                  -6.959
REMARK INTRA:                  -0.288
REMARK UNBOUND:                -0.288
REMARK SMILES O=c1c(O)c(-c2ccc(O)cc2)oc2cc(O)cc(O)c12
REMARK SMILES IDX 5 1 3 2 2 3 1 4 21 5 19 6 18 7 16 8 15 9 14 10 13 11 6 12
REMARK SMILES IDX 7 13 8 14 9 15 12 16 11 17 10 18 4 20 20 22 17 24
REMARK H PARENT 10 19 4 21 20 23 17 25
REMARK Flexibility Score: inf
ROOT
ATOM      1  C   UNL     1       0.966   4.379  -5.321  1.00  0.00     0.180 A 
ATOM      2  C   UNL     1       1.598   5.615  -5.542  1.00  0.00     0.208 A 
ATOM      3  C   UNL     1       2.143   5.886  -6.807  1.00  0.00     0.238 A 
ATOM      4  O   UNL     1       2.640   7.022  -7.019  1.00  0.00    -0.285 OA
ATOM      5  C   UNL     1       2.101   4.896  -7.819  1.00  0.00     0.111 A 
ATOM      6  C   UNL     1       2.663   5.044  -9.124  1.00  0.00     0.134 A 
ATOM      7  C   UNL     1       2.466   4.038 -10.078  1.00  0.00     0.093 A 
ATOM      8  C   UNL     1       1.786   2.862  -9.756  1.00  0.00     0.123 A 
ATOM      9  C   UNL     1       1.282   2.684  -8.470  1.00  0.00     0.094 A 
ATOM     10  C   UNL     1       1.427   3.686  -7.507  1.00  0.00     0.146 A 
ATOM     11  O   UNL     1       0.913   3.484  -6.300  1.00  0.00    -0.452 OA
ENDROOT
BRANCH   1  12
ATOM     12  C   UNL     1       0.355   4.027  -4.020  1.00  0.00     0.021 A 
ATOM     13  C   UNL     1      -0.975   4.397  -3.759  1.00  0.00     0.016 A 
ATOM     14  C   UNL     1      -1.566   4.095  -2.528  1.00  0.00     0.047 A 
ATOM     15  C   UNL     1      -0.829   3.432  -1.537  1.00  0.00     0.115 A 
ATOM     16  C   UNL     1       1.094   3.378  -3.013  1.00  0.00     0.016 A 
ATOM     17  C   UNL     1       0.501   3.079  -1.783  1.00  0.00     0.047 A 
BRANCH  15  18
ATOM     18  O   UNL     1      -1.407   3.125  -0.308  1.00  0.00    -0.508 OA
ATOM     19  H   UNL     1      -0.940   2.524   0.362  1.00  0.00     0.293 HD
ENDBRANCH  15  18
ENDBRANCH   1  12
BRANCH   2  20
ATOM     20  O   UNL     1       1.697   6.549  -4.507  1.00  0.00    -0.502 OA
ATOM     21  H   UNL     1       1.538   6.305  -3.537  1.00  0.00     0.293 HD
ENDBRANCH   2  20
BRANCH   6  22
ATOM     22  O   UNL     1       3.436   6.138  -9.525  1.00  0.00    -0.507 OA
ATOM     23  H   UNL     1       4.229   6.502  -9.018  1.00  0.00     0.293 HD
ENDBRANCH   6  22
BRANCH   8  24
ATOM     24  O   UNL     1       1.610   1.858 -10.706  1.00  0.00    -0.508 OA
ATOM     25  H   UNL     1       2.362   1.226 -10.955  1.00  0.00     0.293 HD
ENDBRANCH   8  24
TORSDOF 5
ENDMDL
MODEL 2
REMARK VINA RESULT:    -5.497      1.514      6.478
REMARK INTER + INTRA:          -6.749
REMARK INTER:                  -7.104
REMARK INTRA:                   0.355
REMARK UNBOUND:                -0.288
REMARK SMILES O=c1c(O)c(-c2ccc(O)cc2)oc2cc(O)cc(O)c12
REMARK SMILES IDX 5 1 3 2 2 3 1 4 21 5 19 6 18 7 16 8 15 9 14 10 13 11 6 12
REMARK SMILES IDX 7 13 8 14 9 15 12 16 11 17 10 18 4 20 20 22 17 24
REMARK H PARENT 10 19 4 21 20 23 17 25
REMARK Flexibility Score: inf
ROOT
ATOM      1  C   UNL     1       1.496   4.599  -6.183  1.00  0.00     0.180 A 
ATOM      2  C   UNL     1       1.495   5.718  -5.331  1.00  0.00     0.208 A 
ATOM      3  C   UNL     1       1.113   5.553  -3.989  1.00  0.00     0.238 A 
ATOM      4  O   UNL     1       1.187   6.542  -3.216  1.00  0.00    -0.285 OA
ATOM      5  C   UNL     1       0.683   4.284  -3.531  1.00  0.00     0.111 A 
ATOM      6  C   UNL     1       0.229   4.011  -2.204  1.00  0.00     0.134 A 
ATOM      7  C   UNL     1      -0.071   2.695  -1.834  1.00  0.00     0.093 A 
ATOM      8  C   UNL     1       0.002   1.651  -2.760  1.00  0.00     0.123 A 
ATOM      9  C   UNL     1       0.389   1.916  -4.071  1.00  0.00     0.094 A 
ATOM     10  C   UNL     1       0.733   3.213  -4.461  1.00  0.00     0.146 A 
ATOM     11  O   UNL     1       1.118   3.416  -5.715  1.00  0.00    -0.452 OA
ENDROOT
BRANCH   1  12
ATOM     12  C   UNL     1       1.900   4.691  -7.604  1.00  0.00     0.021 A 
ATOM     13  C   UNL     1       1.488   3.694  -8.504  1.00  0.00     0.016 A 
ATOM     14  C   UNL     1       1.877   3.748  -9.847  1.00  0.00     0.047 A 
ATOM     15  C   UNL     1       2.694   4.791 -10.301  1.00  0.00     0.115 A 
ATOM     16  C   UNL     1       2.736   5.725  -8.064  1.00  0.00     0.016 A 
ATOM     17  C   UNL     1       3.123   5.776  -9.407  1.00  0.00     0.047 A 
BRANCH  15  18
ATOM     18  O   UNL     1       3.086   4.856 -11.636  1.00  0.00    -0.508 OA
ATOM     19  H   UNL     1       4.050   5.029 -11.897  1.00  0.00     0.293 HD
ENDBRANCH  15  18
ENDBRANCH   1  12
BRANCH   2  20
ATOM     20  O   UNL     1       1.851   6.977  -5.822  1.00  0.00    -0.502 OA
ATOM     21  H   UNL     1       2.758   7.393  -5.649  1.00  0.00     0.293 HD
ENDBRANCH   2  20
BRANCH   6  22
ATOM     22  O   UNL     1       0.035   4.991  -1.225  1.00  0.00    -0.507 OA
ATOM     23  H   UNL     1       0.740   5.306  -0.575  1.00  0.00     0.293 HD
ENDBRANCH   6  22
BRANCH   8  24
ATOM     24  O   UNL     1      -0.316   0.347  -2.388  1.00  0.00    -0.508 OA
ATOM     25  H   UNL     1       0.404  -0.345  -2.212  1.00  0.00     0.293 HD
ENDBRANCH   8  24
TORSDOF 5
ENDMDL
MODEL 3
REMARK VINA RESULT:    -5.393      2.065      6.554
REMARK INTER + INTRA:          -6.626
REMARK INTER:                  -6.416
REMARK INTRA:                  -0.210
REMARK UNBOUND:                -0.288
REMARK SMILES O=c1c(O)c(-c2ccc(O)cc2)oc2cc(O)cc(O)c12
REMARK SMILES IDX 5 1 3 2 2 3 1 4 21 5 19 6 18 7 16 8 15 9 14 10 13 11 6 12
REMARK SMILES IDX 7 13 8 14 9 15 12 16 11 17 10 18 4 20 20 22 17 24
REMARK H PARENT 10 19 4 21 20 23 17 25
REMARK Flexibility Score: inf
ROOT
ATOM      1  C   UNL     1       1.639   5.499  -7.700  1.00  0.00     0.180 A 
ATOM      2  C   UNL     1       1.792   6.277  -6.539  1.00  0.00     0.208 A 
ATOM      3  C   UNL     1       1.513   5.699  -5.289  1.00  0.00     0.238 A 
ATOM      4  O   UNL     1       1.724   6.377  -4.251  1.00  0.00    -0.285 OA
ATOM      5  C   UNL     1       1.031   4.369  -5.220  1.00  0.00     0.111 A 
ATOM      6  C   UNL     1       0.671   3.697  -4.012  1.00  0.00     0.134 A 
ATOM      7  C   UNL     1       0.308   2.346  -4.056  1.00  0.00     0.093 A 
ATOM      8  C   UNL     1       0.225   1.660  -5.270  1.00  0.00     0.123 A 
ATOM      9  C   UNL     1       0.519   2.322  -6.460  1.00  0.00     0.094 A 
ATOM     10  C   UNL     1       0.924   3.659  -6.445  1.00  0.00     0.146 A 
ATOM     11  O   UNL     1       1.216   4.245  -7.600  1.00  0.00    -0.452 OA
ENDROOT
BRANCH   1  12
ATOM     12  C   UNL     1       1.928   6.033  -9.050  1.00  0.00     0.021 A 
ATOM     13  C   UNL     1       3.103   5.640  -9.711  1.00  0.00     0.016 A 
ATOM     14  C   UNL     1       3.408   6.149 -10.977  1.00  0.00     0.047 A 
ATOM     15  C   UNL     1       2.547   7.069 -11.592  1.00  0.00     0.115 A 
ATOM     16  C   UNL     1       1.078   6.971  -9.665  1.00  0.00     0.016 A 
ATOM     17  C   UNL     1       1.386   7.480 -10.931  1.00  0.00     0.047 A 
BRANCH  15  18
ATOM     18  O   UNL     1       2.840   7.582 -12.853  1.00  0.00    -0.508 OA
ATOM     19  H   UNL     1       2.175   7.523 -13.616  1.00  0.00     0.293 HD
ENDBRANCH  15  18
ENDBRANCH   1  12
BRANCH   2  20
ATOM     20  O   UNL     1       2.197   7.611  -6.634  1.00  0.00    -0.502 OA
ATOM     21  H   UNL     1       3.100   7.930  -6.305  1.00  0.00     0.293 HD
ENDBRANCH   2  20
BRANCH   6  22
ATOM     22  O   UNL     1       0.633   4.310  -2.756  1.00  0.00    -0.507 OA
ATOM     23  H   UNL     1       0.548   3.822  -1.877  1.00  0.00     0.293 HD
ENDBRANCH   6  22
BRANCH   8  24
ATOM     24  O   UNL     1      -0.155   0.321  -5.306  1.00  0.00    -0.508 OA
ATOM     25  H   UNL     1       0.487  -0.420  -5.048  1.00  0.00     0.293 HD
ENDBRANCH   8  24
TORSDOF 5
ENDMDL
MODEL 4
REMARK VINA RESULT:    -5.386      3.232      6.683
REMARK INTER + INTRA:          -6.618
REMARK INTER:                  -6.348
REMARK INTRA:                  -0.271
REMARK UNBOUND:                -0.288
REMARK SMILES O=c1c(O)c(-c2ccc(O)cc2)oc2cc(O)cc(O)c12
REMARK SMILES IDX 5 1 3 2 2 3 1 4 21 5 19 6 18 7 16 8 15 9 14 10 13 11 6 12
REMARK SMILES IDX 7 13 8 14 9 15 12 16 11 17 10 18 4 20 20 22 17 24
REMARK H PARENT 10 19 4 21 20 23 17 25
REMARK Flexibility Score: inf
ROOT
ATOM      1  C   UNL     1       0.779   3.254  -3.917  1.00  0.00     0.180 A 
ATOM      2  C   UNL     1       0.086   4.360  -4.439  1.00  0.00     0.208 A 
ATOM      3  C   UNL     1      -0.124   5.482  -3.620  1.00  0.00     0.238 A 
ATOM      4  O   UNL     1      -0.678   6.496  -4.117  1.00  0.00    -0.285 OA
ATOM      5  C   UNL     1       0.311   5.461  -2.273  1.00  0.00     0.111 A 
ATOM      6  C   UNL     1       0.111   6.523  -1.338  1.00  0.00     0.134 A 
ATOM      7  C   UNL     1       0.680   6.436  -0.062  1.00  0.00     0.093 A 
ATOM      8  C   UNL     1       1.384   5.297   0.337  1.00  0.00     0.123 A 
ATOM      9  C   UNL     1       1.537   4.233  -0.547  1.00  0.00     0.094 A 
ATOM     10  C   UNL     1       1.015   4.306  -1.842  1.00  0.00     0.146 A 
ATOM     11  O   UNL     1       1.203   3.277  -2.659  1.00  0.00    -0.452 OA
ENDROOT
BRANCH   1  12
ATOM     12  C   UNL     1       1.051   2.042  -4.722  1.00  0.00     0.021 A 
ATOM     13  C   UNL     1       0.282   0.886  -4.512  1.00  0.00     0.016 A 
ATOM     14  C   UNL     1       0.537  -0.278  -5.245  1.00  0.00     0.047 A 
ATOM     15  C   UNL     1       1.574  -0.303  -6.187  1.00  0.00     0.115 A 
ATOM     16  C   UNL     1       2.103   2.003  -5.656  1.00  0.00     0.016 A 
ATOM     17  C   UNL     1       2.356   0.838  -6.387  1.00  0.00     0.047 A 
BRANCH  15  18
ATOM     18  O   UNL     1       1.837  -1.455  -6.924  1.00  0.00    -0.508 OA
ATOM     19  H   UNL     1       2.492  -1.452  -7.697  1.00  0.00     0.293 HD
ENDBRANCH  15  18
ENDBRANCH   1  12
BRANCH   2  20
ATOM     20  O   UNL     1      -0.403   4.330  -5.748  1.00  0.00    -0.502 OA
ATOM     21  H   UNL     1      -1.393   4.339  -5.959  1.00  0.00     0.293 HD
ENDBRANCH   2  20
BRANCH   6  22
ATOM     22  O   UNL     1      -0.650   7.666  -1.602  1.00  0.00    -0.507 OA
ATOM     23  H   UNL     1      -1.020   8.289  -0.900  1.00  0.00     0.293 HD
ENDBRANCH   6  22
BRANCH   8  24
ATOM     24  O   UNL     1       1.931   5.211   1.616  1.00  0.00    -0.508 OA
ATOM     25  H   UNL     1       2.565   5.919   1.970  1.00  0.00     0.293 HD
ENDBRANCH   8  24
TORSDOF 5
ENDMDL
MODEL 5
REMARK VINA RESULT:    -5.250      3.178      5.762
REMARK INTER + INTRA:          -6.459
REMARK INTER:                  -6.294
REMARK INTRA:                  -0.166
REMARK UNBOUND:                -0.288
REMARK SMILES O=c1c(O)c(-c2ccc(O)cc2)oc2cc(O)cc(O)c12
REMARK SMILES IDX 5 1 3 2 2 3 1 4 21 5 19 6 18 7 16 8 15 9 14 10 13 11 6 12
REMARK SMILES IDX 7 13 8 14 9 15 12 16 11 17 10 18 4 20 20 22 17 24
REMARK H PARENT 10 19 4 21 20 23 17 25
REMARK Flexibility Score: inf
ROOT
ATOM      1  C   UNL     1       1.631   2.045  -7.274  1.00  0.00     0.180 A 
ATOM      2  C   UNL     1       1.856   1.143  -6.219  1.00  0.00     0.208 A 
ATOM      3  C   UNL     1       1.734  -0.235  -6.463  1.00  0.00     0.238 A 
ATOM      4  O   UNL     1       2.010  -1.038  -5.535  1.00  0.00    -0.285 OA
ATOM      5  C   UNL     1       1.334  -0.691  -7.742  1.00  0.00     0.111 A 
ATOM      6  C   UNL     1       1.134  -2.062  -8.090  1.00  0.00     0.134 A 
ATOM      7  C   UNL     1       0.842  -2.403  -9.416  1.00  0.00     0.093 A 
ATOM      8  C   UNL     1       0.677  -1.419 -10.394  1.00  0.00     0.123 A 
ATOM      9  C   UNL     1       0.815  -0.075 -10.053  1.00  0.00     0.094 A 
ATOM     10  C   UNL     1       1.145   0.294  -8.747  1.00  0.00     0.146 A 
ATOM     11  O   UNL     1       1.288   1.585  -8.471  1.00  0.00    -0.452 OA
ENDROOT
BRANCH   1  12
ATOM     12  C   UNL     1       1.754   3.510  -7.099  1.00  0.00     0.021 A 
ATOM     13  C   UNL     1       2.824   4.189  -7.703  1.00  0.00     0.016 A 
ATOM     14  C   UNL     1       2.974   5.570  -7.532  1.00  0.00     0.047 A 
ATOM     15  C   UNL     1       2.063   6.284  -6.742  1.00  0.00     0.115 A 
ATOM     16  C   UNL     1       0.855   4.231  -6.291  1.00  0.00     0.016 A 
ATOM     17  C   UNL     1       1.008   5.610  -6.121  1.00  0.00     0.047 A 
BRANCH  15  18
ATOM     18  O   UNL     1       2.201   7.659  -6.566  1.00  0.00    -0.508 OA
ATOM     19  H   UNL     1       3.114   8.096  -6.506  1.00  0.00     0.293 HD
ENDBRANCH  15  18
ENDBRANCH   1  12
BRANCH   2  20
ATOM     20  O   UNL     1       2.175   1.617  -4.944  1.00  0.00    -0.502 OA
ATOM     21  H   UNL     1       2.803   1.123  -4.321  1.00  0.00     0.293 HD
ENDBRANCH   2  20
BRANCH   6  22
ATOM     22  O   UNL     1       1.186  -3.118  -7.175  1.00  0.00    -0.507 OA
ATOM     23  H   UNL     1       0.406  -3.708  -6.927  1.00  0.00     0.293 HD
ENDBRANCH   6  22
BRANCH   8  24
ATOM     24  O   UNL     1       0.368  -1.765 -11.707  1.00  0.00    -0.508 OA
ATOM     25  H   UNL     1       0.743  -1.248 -12.494  1.00  0.00     0.293 HD
ENDBRANCH   8  24
TORSDOF 5
ENDMDL
MODEL 6
REMARK VINA RESULT:    -5.195      2.382      3.635
REMARK INTER + INTRA:          -6.395
REMARK INTER:                  -6.096
REMARK INTRA:                  -0.299
REMARK UNBOUND:                -0.288
REMARK SMILES O=c1c(O)c(-c2ccc(O)cc2)oc2cc(O)cc(O)c12
REMARK SMILES IDX 5 1 3 2 2 3 1 4 21 5 19 6 18 7 16 8 15 9 14 10 13 11 6 12
REMARK SMILES IDX 7 13 8 14 9 15 12 16 11 17 10 18 4 20 20 22 17 24
REMARK H PARENT 10 19 4 21 20 23 17 25
REMARK Flexibility Score: inf
ROOT
ATOM      1  C   UNL     1       0.526   5.350  -3.740  1.00  0.00     0.180 A 
ATOM      2  C   UNL     1       0.577   3.945  -3.768  1.00  0.00     0.208 A 
ATOM      3  C   UNL     1       1.140   3.306  -4.885  1.00  0.00     0.238 A 
ATOM      4  O   UNL     1       1.250   2.053  -4.869  1.00  0.00    -0.285 OA
ATOM      5  C   UNL     1       1.594   4.076  -5.983  1.00  0.00     0.111 A 
ATOM      6  C   UNL     1       2.140   3.532  -7.186  1.00  0.00     0.134 A 
ATOM      7  C   UNL     1       2.655   4.394  -8.161  1.00  0.00     0.093 A 
ATOM      8  C   UNL     1       2.584   5.781  -8.009  1.00  0.00     0.123 A 
ATOM      9  C   UNL     1       2.002   6.322  -6.865  1.00  0.00     0.094 A 
ATOM     10  C   UNL     1       1.515   5.487  -5.855  1.00  0.00     0.146 A 
ATOM     11  O   UNL     1       0.989   6.046  -4.772  1.00  0.00    -0.452 OA
ENDROOT
BRANCH   1  12
ATOM     12  C   UNL     1      -0.039   6.096  -2.593  1.00  0.00     0.021 A 
ATOM     13  C   UNL     1      -1.380   6.512  -2.633  1.00  0.00     0.016 A 
ATOM     14  C   UNL     1      -1.929   7.238  -1.571  1.00  0.00     0.047 A 
ATOM     15  C   UNL     1      -1.138   7.569  -0.462  1.00  0.00     0.115 A 
ATOM     16  C   UNL     1       0.754   6.449  -1.486  1.00  0.00     0.016 A 
ATOM     17  C   UNL     1       0.203   7.176  -0.425  1.00  0.00     0.047 A 
BRANCH  15  18
ATOM     18  O   UNL     1      -1.673   8.290   0.602  1.00  0.00    -0.508 OA
ATOM     19  H   UNL     1      -2.657   8.231   0.841  1.00  0.00     0.293 HD
ENDBRANCH  15  18
ENDBRANCH   1  12
BRANCH   2  20
ATOM     20  O   UNL     1       0.054   3.201  -2.707  1.00  0.00    -0.502 OA
ATOM     21  H   UNL     1      -0.453   2.336  -2.848  1.00  0.00     0.293 HD
ENDBRANCH   2  20
BRANCH   6  22
ATOM     22  O   UNL     1       2.180   2.166  -7.481  1.00  0.00    -0.507 OA
ATOM     23  H   UNL     1       3.022   1.630  -7.627  1.00  0.00     0.293 HD
ENDBRANCH   6  22
BRANCH   8  24
ATOM     24  O   UNL     1       3.082   6.631  -8.993  1.00  0.00    -0.508 OA
ATOM     25  H   UNL     1       4.078   6.782  -9.109  1.00  0.00     0.293 HD
ENDBRANCH   8  24
TORSDOF 5
ENDMDL
MODEL 7
REMARK VINA RESULT:    -5.184      1.464      2.964
REMARK INTER + INTRA:          -6.381
REMARK INTER:                  -6.499
REMARK INTRA:                   0.118
REMARK UNBOUND:                -0.288
REMARK SMILES O=c1c(O)c(-c2ccc(O)cc2)oc2cc(O)cc(O)c12
REMARK SMILES IDX 5 1 3 2 2 3 1 4 21 5 19 6 18 7 16 8 15 9 14 10 13 11 6 12
REMARK SMILES IDX 7 13 8 14 9 15 12 16 11 17 10 18 4 20 20 22 17 24
REMARK H PARENT 10 19 4 21 20 23 17 25
REMARK Flexibility Score: inf
ROOT
ATOM      1  C   UNL     1       1.105   3.907  -5.390  1.00  0.00     0.180 A 
ATOM      2  C   UNL     1       0.613   2.727  -5.976  1.00  0.00     0.208 A 
ATOM      3  C   UNL     1       0.865   2.487  -7.337  1.00  0.00     0.238 A 
ATOM      4  O   UNL     1       0.487   1.395  -7.835  1.00  0.00    -0.285 OA
ATOM      5  C   UNL     1       1.554   3.454  -8.108  1.00  0.00     0.111 A 
ATOM      6  C   UNL     1       1.824   3.337  -9.505  1.00  0.00     0.134 A 
ATOM      7  C   UNL     1       2.608   4.307 -10.141  1.00  0.00     0.093 A 
ATOM      8  C   UNL     1       3.076   5.425  -9.446  1.00  0.00     0.123 A 
ATOM      9  C   UNL     1       2.771   5.577  -8.095  1.00  0.00     0.094 A 
ATOM     10  C   UNL     1       2.025   4.606  -7.423  1.00  0.00     0.146 A 
ATOM     11  O   UNL     1       1.775   4.780  -6.131  1.00  0.00    -0.452 OA
ENDROOT
BRANCH   1  12
ATOM     12  C   UNL     1       0.893   4.224  -3.959  1.00  0.00     0.021 A 
ATOM     13  C   UNL     1       0.602   5.545  -3.580  1.00  0.00     0.016 A 
ATOM     14  C   UNL     1       0.421   5.872  -2.232  1.00  0.00     0.047 A 
ATOM     15  C   UNL     1       0.545   4.884  -1.246  1.00  0.00     0.115 A 
ATOM     16  C   UNL     1       1.035   3.242  -2.961  1.00  0.00     0.016 A 
ATOM     17  C   UNL     1       0.854   3.572  -1.615  1.00  0.00     0.047 A 
BRANCH  15  18
ATOM     18  O   UNL     1       0.366   5.197   0.099  1.00  0.00    -0.508 OA
ATOM     19  H   UNL     1      -0.549   5.160   0.535  1.00  0.00     0.293 HD
ENDBRANCH  15  18
ENDBRANCH   1  12
BRANCH   2  20
ATOM     20  O   UNL     1      -0.131   1.821  -5.216  1.00  0.00    -0.502 OA
ATOM     21  H   UNL     1       0.036   1.674  -4.228  1.00  0.00     0.293 HD
ENDBRANCH   2  20
BRANCH   6  22
ATOM     22  O   UNL     1       1.332   2.308 -10.315  1.00  0.00    -0.507 OA
ATOM     23  H   UNL     1       1.851   1.487 -10.586  1.00  0.00     0.293 HD
ENDBRANCH   6  22
BRANCH   8  24
ATOM     24  O   UNL     1       3.840   6.394 -10.090  1.00  0.00    -0.508 OA
ATOM     25  H   UNL     1       3.881   7.349  -9.752  1.00  0.00     0.293 HD
ENDBRANCH   8  24
TORSDOF 5
ENDMDL
MODEL 8
REMARK VINA RESULT:    -5.166      3.077      4.611
REMARK INTER + INTRA:          -6.360
REMARK INTER:                  -6.099
REMARK INTRA:                  -0.261
REMARK UNBOUND:                -0.288
REMARK SMILES O=c1c(O)c(-c2ccc(O)cc2)oc2cc(O)cc(O)c12
REMARK SMILES IDX 5 1 3 2 2 3 1 4 21 5 19 6 18 7 16 8 15 9 14 10 13 11 6 12
REMARK SMILES IDX 7 13 8 14 9 15 12 16 11 17 10 18 4 20 20 22 17 24
REMARK H PARENT 10 19 4 21 20 23 17 25
REMARK Flexibility Score: inf
ROOT
ATOM      1  C   UNL     1       1.191   1.881  -6.421  1.00  0.00     0.180 A 
ATOM      2  C   UNL     1       0.868   2.690  -5.317  1.00  0.00     0.208 A 
ATOM      3  C   UNL     1       1.131   4.068  -5.381  1.00  0.00     0.238 A 
ATOM      4  O   UNL     1       0.771   4.795  -4.420  1.00  0.00    -0.285 OA
ATOM      5  C   UNL     1       1.765   4.611  -6.525  1.00  0.00     0.111 A 
ATOM      6  C   UNL     1       2.121   5.986  -6.680  1.00  0.00     0.134 A 
ATOM      7  C   UNL     1       2.648   6.429  -7.899  1.00  0.00     0.093 A 
ATOM      8  C   UNL     1       2.893   5.537  -8.946  1.00  0.00     0.123 A 
ATOM      9  C   UNL     1       2.601   4.185  -8.785  1.00  0.00     0.094 A 
ATOM     10  C   UNL     1       2.037   3.718  -7.594  1.00  0.00     0.146 A 
ATOM     11  O   UNL     1       1.755   2.425  -7.492  1.00  0.00    -0.452 OA
ENDROOT
BRANCH   1  12
ATOM     12  C   UNL     1       0.930   0.424  -6.434  1.00  0.00     0.021 A 
ATOM     13  C   UNL     1      -0.224  -0.065  -7.067  1.00  0.00     0.016 A 
ATOM     14  C   UNL     1      -0.503  -1.436  -7.073  1.00  0.00     0.047 A 
ATOM     15  C   UNL     1       0.363  -2.332  -6.431  1.00  0.00     0.115 A 
ATOM     16  C   UNL     1       1.784  -0.480  -5.775  1.00  0.00     0.016 A 
ATOM     17  C   UNL     1       1.503  -1.850  -5.781  1.00  0.00     0.047 A 
BRANCH  15  18
ATOM     18  O   UNL     1       0.096  -3.699  -6.430  1.00  0.00    -0.508 OA
ATOM     19  H   UNL     1       0.808  -4.377  -6.181  1.00  0.00     0.293 HD
ENDBRANCH  15  18
ENDBRANCH   1  12
BRANCH   2  20
ATOM     20  O   UNL     1       0.312   2.122  -4.167  1.00  0.00    -0.502 OA
ATOM     21  H   UNL     1      -0.504   1.522  -4.196  1.00  0.00     0.293 HD
ENDBRANCH   2  20
BRANCH   6  22
ATOM     22  O   UNL     1       2.002   6.945  -5.669  1.00  0.00    -0.507 OA
ATOM     23  H   UNL     1       1.455   7.790  -5.736  1.00  0.00     0.293 HD
ENDBRANCH   6  22
BRANCH   8  24
ATOM     24  O   UNL     1       3.434   5.984 -10.149  1.00  0.00    -0.508 OA
ATOM     25  H   UNL     1       3.858   5.344 -10.810  1.00  0.00     0.293 HD
ENDBRANCH   8  24
TORSDOF 5
ENDMDL
MODEL 9
REMARK VINA RESULT:    -5.069      4.622      8.214
REMARK INTER + INTRA:          -6.246
REMARK INTER:                  -5.958
REMARK INTRA:                  -0.288
REMARK UNBOUND:                -0.288
REMARK SMILES O=c1c(O)c(-c2ccc(O)cc2)oc2cc(O)cc(O)c12
REMARK SMILES IDX 5 1 3 2 2 3 1 4 21 5 19 6 18 7 16 8 15 9 14 10 13 11 6 12
REMARK SMILES IDX 7 13 8 14 9 15 12 16 11 17 10 18 4 20 20 22 17 24
REMARK H PARENT 10 19 4 21 20 23 17 25
REMARK Flexibility Score: inf
ROOT
ATOM      1  C   UNL     1      -0.372   6.511  -1.852  1.00  0.00     0.180 A 
ATOM      2  C   UNL     1      -1.745   6.695  -1.611  1.00  0.00     0.208 A 
ATOM      3  C   UNL     1      -2.167   7.836  -0.909  1.00  0.00     0.238 A 
ATOM      4  O   UNL     1      -3.401   8.031  -0.763  1.00  0.00    -0.285 OA
ATOM      5  C   UNL     1      -1.208   8.749  -0.408  1.00  0.00     0.111 A 
ATOM      6  C   UNL     1      -1.519   9.915   0.356  1.00  0.00     0.134 A 
ATOM      7  C   UNL     1      -0.495  10.804   0.707  1.00  0.00     0.093 A 
ATOM      8  C   UNL     1       0.836  10.535   0.380  1.00  0.00     0.123 A 
ATOM      9  C   UNL     1       1.156   9.373  -0.317  1.00  0.00     0.094 A 
ATOM     10  C   UNL     1       0.153   8.487  -0.716  1.00  0.00     0.146 A 
ATOM     11  O   UNL     1       0.500   7.402  -1.398  1.00  0.00    -0.452 OA
ENDROOT
BRANCH   1  12
ATOM     12  C   UNL     1       0.148   5.342  -2.597  1.00  0.00     0.021 A 
ATOM     13  C   UNL     1       0.238   5.400  -3.997  1.00  0.00     0.016 A 
ATOM     14  C   UNL     1       0.705   4.300  -4.724  1.00  0.00     0.047 A 
ATOM     15  C   UNL     1       1.073   3.123  -4.058  1.00  0.00     0.115 A 
ATOM     16  C   UNL     1       0.501   4.150  -1.938  1.00  0.00     0.016 A 
ATOM     17  C   UNL     1       0.967   3.051  -2.666  1.00  0.00     0.047 A 
BRANCH  15  18
ATOM     18  O   UNL     1       1.540   2.020  -4.771  1.00  0.00    -0.508 OA
ATOM     19  H   UNL     1       2.409   1.560  -4.524  1.00  0.00     0.293 HD
ENDBRANCH  15  18
ENDBRANCH   1  12
BRANCH   2  20
ATOM     20  O   UNL     1      -2.670   5.742  -2.048  1.00  0.00    -0.502 OA
ATOM     21  H   UNL     1      -3.302   5.268  -1.414  1.00  0.00     0.293 HD
ENDBRANCH   2  20
BRANCH   6  22
ATOM     22  O   UNL     1      -2.801  10.234   0.813  1.00  0.00    -0.507 OA
ATOM     23  H   UNL     1      -3.308  11.074   0.575  1.00  0.00     0.293 HD
ENDBRANCH   6  22
BRANCH   8  24
ATOM     24  O   UNL     1       1.850  11.416   0.749  1.00  0.00    -0.508 OA
ATOM     25  H   UNL     1       2.465  11.836   0.061  1.00  0.00     0.293 HD
ENDBRANCH   8  24
TORSDOF 5
ENDMDL
