MODEL 1
REMARK VINA RESULT:    -3.327      0.000      0.000
REMARK INTER + INTRA:          -3.864
REMARK INTER:                  -3.814
REMARK INTRA:                  -0.050
REMARK UNBOUND:                -0.050
REMARK SMILES CC(C)[C@H]([NH3+])C(=O)[O-]
REMARK SMILES IDX 4 1 5 2 6 6 7 7 8 8 2 9 1 10 3 11
REMARK H PARENT 5 3 5 4 5 5
REMARK Flexibility Score: inf
ROOT
ATOM      1  C   UNL     1     109.684 136.346 122.785  1.00  0.00     0.230 C 
ENDROOT
BRANCH   1   2
ATOM      2  N   UNL     1     109.624 137.510 121.888  1.00  0.00    -0.350 N 
ATOM      3  H   UNL     1     109.779 137.196 120.901  1.00  0.00     0.345 HD
ATOM      4  H   UNL     1     108.695 137.986 121.941  1.00  0.00     0.345 HD
ATOM      5  H   UNL     1     110.378 138.192 122.123  1.00  0.00     0.345 HD
ENDBRANCH   1   2
BRANCH   1   6
ATOM      6  C   UNL     1     110.623 136.602 123.940  1.00  0.00     0.099 C 
ATOM      7  O   UNL     1     111.124 137.743 124.126  1.00  0.00    -0.544 OA
ATOM      8  O   UNL     1     110.978 135.556 124.783  1.00  0.00    -0.544 OA
ENDBRANCH   1   6
BRANCH   1   9
ATOM      9  C   UNL     1     110.058 135.025 122.048  1.00  0.00     0.047 C 
ATOM     10  C   UNL     1     108.843 134.102 121.877  1.00  0.00     0.014 C 
ATOM     11  C   UNL     1     110.747 135.250 120.692  1.00  0.00     0.014 C 
ENDBRANCH   1   9
TORSDOF 3
ENDMDL
MODEL 2
REMARK VINA RESULT:    -3.215      8.753      9.441
REMARK INTER + INTRA:          -3.735
REMARK INTER:                  -3.682
REMARK INTRA:                  -0.053
REMARK UNBOUND:                -0.050
REMARK SMILES CC(C)[C@H]([NH3+])C(=O)[O-]
REMARK SMILES IDX 4 1 5 2 6 6 7 7 8 8 2 9 1 10 3 11
REMARK H PARENT 5 3 5 4 5 5
REMARK Flexibility Score: inf
ROOT
ATOM      1  C   UNL     1     106.615 128.250 122.028  1.00  0.00     0.230 C 
ENDROOT
BRANCH   1   2
ATOM      2  N   UNL     1     107.125 129.612 122.251  1.00  0.00    -0.350 N 
ATOM      3  H   UNL     1     107.127 130.134 121.344  1.00  0.00     0.345 HD
ATOM      4  H   UNL     1     106.530 130.136 122.932  1.00  0.00     0.345 HD
ATOM      5  H   UNL     1     108.108 129.581 122.599  1.00  0.00     0.345 HD
ENDBRANCH   1   2
BRANCH   1   6
ATOM      6  C   UNL     1     105.128 128.265 121.771  1.00  0.00     0.099 C 
ATOM      7  O   UNL     1     104.348 128.913 122.519  1.00  0.00    -0.544 OA
ATOM      8  O   UNL     1     104.603 127.515 120.725  1.00  0.00    -0.544 OA
ENDBRANCH   1   6
BRANCH   1   9
ATOM      9  C   UNL     1     106.969 127.269 123.186  1.00  0.00     0.047 C 
ATOM     10  C   UNL     1     107.345 125.875 122.660  1.00  0.00     0.014 C 
ATOM     11  C   UNL     1     108.067 127.794 124.125  1.00  0.00     0.014 C 
ENDBRANCH   1   9
TORSDOF 3
ENDMDL
MODEL 3
REMARK VINA RESULT:    -3.193      9.121      9.757
REMARK INTER + INTRA:          -3.710
REMARK INTER:                  -3.642
REMARK INTRA:                  -0.068
REMARK UNBOUND:                -0.050
REMARK SMILES CC(C)[C@H]([NH3+])C(=O)[O-]
REMARK SMILES IDX 4 1 5 2 6 6 7 7 8 8 2 9 1 10 3 11
REMARK H PARENT 5 3 5 4 5 5
REMARK Flexibility Score: inf
ROOT
ATOM      1  C   UNL     1     106.727 127.216 122.306  1.00  0.00     0.230 C 
ENDROOT
BRANCH   1   2
ATOM      2  N   UNL     1     107.110 125.926 121.710  1.00  0.00    -0.350 N 
ATOM      3  H   UNL     1     106.249 125.360 121.527  1.00  0.00     0.345 HD
ATOM      4  H   UNL     1     107.617 126.058 120.807  1.00  0.00     0.345 HD
ATOM      5  H   UNL     1     107.709 125.383 122.370  1.00  0.00     0.345 HD
ENDBRANCH   1   2
BRANCH   1   6
ATOM      6  C   UNL     1     107.107 127.271 123.766  1.00  0.00     0.099 C 
ATOM      7  O   UNL     1     108.160 127.854 124.140  1.00  0.00    -0.544 OA
ATOM      8  O   UNL     1     106.313 126.628 124.708  1.00  0.00    -0.544 OA
ENDBRANCH   1   6
BRANCH   1   9
ATOM      9  C   UNL     1     105.219 127.556 122.111  1.00  0.00     0.047 C 
ATOM     10  C   UNL     1     104.902 129.004 122.512  1.00  0.00     0.014 C 
ATOM     11  C   UNL     1     104.703 127.275 120.690  1.00  0.00     0.014 C 
ENDBRANCH   1   9
TORSDOF 3
ENDMDL
MODEL 4
REMARK VINA RESULT:    -3.101      8.811      9.542
REMARK INTER + INTRA:          -3.604
REMARK INTER:                  -3.553
REMARK INTRA:                  -0.051
REMARK UNBOUND:                -0.050
REMARK SMILES CC(C)[C@H]([NH3+])C(=O)[O-]
REMARK SMILES IDX 4 1 5 2 6 6 7 7 8 8 2 9 1 10 3 11
REMARK H PARENT 5 3 5 4 5 5
REMARK Flexibility Score: inf
ROOT
ATOM      1  C   UNL     1     106.355 128.147 122.907  1.00  0.00     0.230 C 
ENDROOT
BRANCH   1   2
ATOM      2  N   UNL     1     106.930 129.037 121.885  1.00  0.00    -0.350 N 
ATOM      3  H   UNL     1     107.672 128.524 121.356  1.00  0.00     0.345 HD
ATOM      4  H   UNL     1     106.203 129.359 121.207  1.00  0.00     0.345 HD
ATOM      5  H   UNL     1     107.378 129.866 122.334  1.00  0.00     0.345 HD
ENDBRANCH   1   2
BRANCH   1   6
ATOM      6  C   UNL     1     107.349 127.089 123.323  1.00  0.00     0.099 C 
ATOM      7  O   UNL     1     108.179 127.308 124.246  1.00  0.00    -0.544 OA
ATOM      8  O   UNL     1     107.384 125.875 122.647  1.00  0.00    -0.544 OA
ENDBRANCH   1   6
BRANCH   1   9
ATOM      9  C   UNL     1     105.008 127.501 122.466  1.00  0.00     0.047 C 
ATOM     10  C   UNL     1     103.830 127.991 123.322  1.00  0.00     0.014 C 
ATOM     11  C   UNL     1     104.692 127.691 120.973  1.00  0.00     0.014 C 
ENDBRANCH   1   9
TORSDOF 3
ENDMDL
MODEL 5
REMARK VINA RESULT:    -3.077      9.352      9.873
REMARK INTER + INTRA:          -3.577
REMARK INTER:                  -3.504
REMARK INTRA:                  -0.073
REMARK UNBOUND:                -0.050
REMARK SMILES CC(C)[C@H]([NH3+])C(=O)[O-]
REMARK SMILES IDX 4 1 5 2 6 6 7 7 8 8 2 9 1 10 3 11
REMARK H PARENT 5 3 5 4 5 5
REMARK Flexibility Score: inf
ROOT
ATOM      1  C   UNL     1     106.393 126.808 124.163  1.00  0.00     0.230 C 
ENDROOT
BRANCH   1   2
ATOM      2  N   UNL     1     105.899 127.007 125.535  1.00  0.00    -0.350 N 
ATOM      3  H   UNL     1     106.043 126.129 126.086  1.00  0.00     0.345 HD
ATOM      4  H   UNL     1     106.406 127.785 126.014  1.00  0.00     0.345 HD
ATOM      5  H   UNL     1     104.876 127.211 125.528  1.00  0.00     0.345 HD
ENDBRANCH   1   2
BRANCH   1   6
ATOM      6  C   UNL     1     107.897 126.918 124.108  1.00  0.00     0.099 C 
ATOM      7  O   UNL     1     108.612 125.906 123.878  1.00  0.00    -0.544 OA
ATOM      8  O   UNL     1     108.507 128.140 124.364  1.00  0.00    -0.544 OA
ENDBRANCH   1   6
BRANCH   1   9
ATOM      9  C   UNL     1     105.728 127.765 123.129  1.00  0.00     0.047 C 
ATOM     10  C   UNL     1     105.960 127.299 121.684  1.00  0.00     0.014 C 
ATOM     11  C   UNL     1     104.227 127.993 123.377  1.00  0.00     0.014 C 
ENDBRANCH   1   9
TORSDOF 3
ENDMDL
MODEL 6
REMARK VINA RESULT:    -3.071      2.134      3.303
REMARK INTER + INTRA:          -3.570
REMARK INTER:                  -3.618
REMARK INTRA:                   0.048
REMARK UNBOUND:                -0.050
REMARK SMILES CC(C)[C@H]([NH3+])C(=O)[O-]
REMARK SMILES IDX 4 1 5 2 6 6 7 7 8 8 2 9 1 10 3 11
REMARK H PARENT 5 3 5 4 5 5
REMARK Flexibility Score: inf
ROOT
ATOM      1  C   UNL     1     110.227 136.077 122.123  1.00  0.00     0.230 C 
ENDROOT
BRANCH   1   2
ATOM      2  N   UNL     1     108.909 136.714 121.967  1.00  0.00    -0.350 N 
ATOM      3  H   UNL     1     109.022 137.754 121.998  1.00  0.00     0.345 HD
ATOM      4  H   UNL     1     108.466 136.457 121.057  1.00  0.00     0.345 HD
ATOM      5  H   UNL     1     108.277 136.442 122.751  1.00  0.00     0.345 HD
ENDBRANCH   1   2
BRANCH   1   6
ATOM      6  C   UNL     1     110.101 134.572 122.130  1.00  0.00     0.099 C 
ATOM      7  O   UNL     1     111.125 133.838 122.158  1.00  0.00    -0.544 OA
ATOM      8  O   UNL     1     108.843 133.986 122.055  1.00  0.00    -0.544 OA
ENDBRANCH   1   6
BRANCH   1   9
ATOM      9  C   UNL     1     111.001 136.576 123.379  1.00  0.00     0.047 C 
ATOM     10  C   UNL     1     110.844 138.090 123.586  1.00  0.00     0.014 C 
ATOM     11  C   UNL     1     110.632 135.825 124.670  1.00  0.00     0.014 C 
ENDBRANCH   1   9
TORSDOF 3
ENDMDL
MODEL 7
REMARK VINA RESULT:    -3.035      8.911      9.721
REMARK INTER + INTRA:          -3.529
REMARK INTER:                  -3.478
REMARK INTRA:                  -0.051
REMARK UNBOUND:                -0.050
REMARK SMILES CC(C)[C@H]([NH3+])C(=O)[O-]
REMARK SMILES IDX 4 1 5 2 6 6 7 7 8 8 2 9 1 10 3 11
REMARK H PARENT 5 3 5 4 5 5
REMARK Flexibility Score: inf
ROOT
ATOM      1  C   UNL     1     106.305 127.042 122.817  1.00  0.00     0.230 C 
ENDROOT
BRANCH   1   2
ATOM      2  N   UNL     1     106.905 126.240 121.739  1.00  0.00    -0.350 N 
ATOM      3  H   UNL     1     106.257 126.224 120.917  1.00  0.00     0.345 HD
ATOM      4  H   UNL     1     107.820 126.639 121.430  1.00  0.00     0.345 HD
ATOM      5  H   UNL     1     107.043 125.254 122.051  1.00  0.00     0.345 HD
ENDBRANCH   1   2
BRANCH   1   6
ATOM      6  C   UNL     1     106.022 128.450 122.350  1.00  0.00     0.099 C 
ATOM      7  O   UNL     1     106.919 129.140 121.796  1.00  0.00    -0.544 OA
ATOM      8  O   UNL     1     104.772 129.012 122.577  1.00  0.00    -0.544 OA
ENDBRANCH   1   6
BRANCH   1   9
ATOM      9  C   UNL     1     107.159 127.050 124.120  1.00  0.00     0.047 C 
ATOM     10  C   UNL     1     106.296 126.830 125.372  1.00  0.00     0.014 C 
ATOM     11  C   UNL     1     108.325 126.047 124.099  1.00  0.00     0.014 C 
ENDBRANCH   1   9
TORSDOF 3
ENDMDL
MODEL 8
REMARK VINA RESULT:    -2.963      6.779      7.300
REMARK INTER + INTRA:          -3.446
REMARK INTER:                  -3.375
REMARK INTRA:                  -0.071
REMARK UNBOUND:                -0.050
REMARK SMILES CC(C)[C@H]([NH3+])C(=O)[O-]
REMARK SMILES IDX 4 1 5 2 6 6 7 7 8 8 2 9 1 10 3 11
REMARK H PARENT 5 3 5 4 5 5
REMARK Flexibility Score: inf
ROOT
ATOM      1  C   UNL     1     109.805 133.145 128.665  1.00  0.00     0.230 C 
ENDROOT
BRANCH   1   2
ATOM      2  N   UNL     1     110.415 134.166 127.797  1.00  0.00    -0.350 N 
ATOM      3  H   UNL     1     110.034 135.107 128.049  1.00  0.00     0.345 HD
ATOM      4  H   UNL     1     111.453 134.189 127.906  1.00  0.00     0.345 HD
ATOM      5  H   UNL     1     110.174 133.986 126.798  1.00  0.00     0.345 HD
ENDBRANCH   1   2
BRANCH   1   6
ATOM      6  C   UNL     1     110.043 131.758 128.117  1.00  0.00     0.099 C 
ATOM      7  O   UNL     1     109.352 131.311 127.164  1.00  0.00    -0.544 OA
ATOM      8  O   UNL     1     111.005 130.943 128.703  1.00  0.00    -0.544 OA
ENDBRANCH   1   6
BRANCH   1   9
ATOM      9  C   UNL     1     108.288 133.388 128.921  1.00  0.00     0.047 C 
ATOM     10  C   UNL     1     107.773 132.579 130.121  1.00  0.00     0.014 C 
ATOM     11  C   UNL     1     107.921 134.873 129.088  1.00  0.00     0.014 C 
ENDBRANCH   1   9
TORSDOF 3
ENDMDL
MODEL 9
REMARK VINA RESULT:    -2.934      5.757      6.686
REMARK INTER + INTRA:          -3.412
REMARK INTER:                  -3.358
REMARK INTRA:                  -0.055
REMARK UNBOUND:                -0.050
REMARK SMILES CC(C)[C@H]([NH3+])C(=O)[O-]
REMARK SMILES IDX 4 1 5 2 6 6 7 7 8 8 2 9 1 10 3 11
REMARK H PARENT 5 3 5 4 5 5
REMARK Flexibility Score: inf
ROOT
ATOM      1  C   UNL     1     109.813 133.948 128.302  1.00  0.00     0.230 C 
ENDROOT
BRANCH   1   2
ATOM      2  N   UNL     1     110.731 132.859 128.674  1.00  0.00    -0.350 N 
ATOM      3  H   UNL     1     110.762 132.154 127.901  1.00  0.00     0.345 HD
ATOM      4  H   UNL     1     111.700 133.215 128.836  1.00  0.00     0.345 HD
ATOM      5  H   UNL     1     110.391 132.372 129.532  1.00  0.00     0.345 HD
ENDBRANCH   1   2
BRANCH   1   6
ATOM      6  C   UNL     1     110.572 135.222 128.020  1.00  0.00     0.099 C 
ATOM      7  O   UNL     1     110.750 135.621 126.838  1.00  0.00    -0.544 OA
ATOM      8  O   UNL     1     111.125 135.941 129.072  1.00  0.00    -0.544 OA
ENDBRANCH   1   6
BRANCH   1   9
ATOM      9  C   UNL     1     108.694 134.191 129.359  1.00  0.00     0.047 C 
ATOM     10  C   UNL     1     107.736 135.313 128.932  1.00  0.00     0.014 C 
ATOM     11  C   UNL     1     107.898 132.924 129.716  1.00  0.00     0.014 C 
ENDBRANCH   1   9
TORSDOF 3
ENDMDL
