MODEL 1
REMARK VINA RESULT:    -3.230      0.000      0.000
REMARK INTER + INTRA:          -3.488
REMARK INTER:                  -3.419
REMARK INTRA:                  -0.070
REMARK UNBOUND:                -0.070
REMARK SMILES CC(=O)c1ccccc1
REMARK SMILES IDX 4 1 5 2 6 3 7 4 8 5 9 6 2 7 1 8 3 9
REMARK H PARENT
REMARK Flexibility Score: inf
ROOT
ATOM      1  C   UNL     1     138.099 127.635 130.428  1.00  0.00     0.017 A 
ATOM      2  C   UNL     1     138.410 127.706 131.800  1.00  0.00     0.012 A 
ATOM      3  C   UNL     1     139.683 128.101 132.221  1.00  0.00     0.001 A 
ATOM      4  C   UNL     1     140.661 128.432 131.282  1.00  0.00     0.000 A 
ATOM      5  C   UNL     1     140.368 128.367 129.918  1.00  0.00     0.001 A 
ATOM      6  C   UNL     1     139.097 127.972 129.490  1.00  0.00     0.012 A 
ENDROOT
BRANCH   1   7
ATOM      7  C   UNL     1     136.740 127.212 129.993  1.00  0.00     0.159 C 
ATOM      8  C   UNL     1     136.326 127.235 128.552  1.00  0.00     0.093 C 
ATOM      9  O   UNL     1     135.902 126.821 130.850  1.00  0.00    -0.295 OA
ENDBRANCH   1   7
TORSDOF 1
ENDMDL
MODEL 2
REMARK VINA RESULT:    -3.171      1.693      3.944
REMARK INTER + INTRA:          -3.427
REMARK INTER:                  -3.355
REMARK INTRA:                  -0.072
REMARK UNBOUND:                -0.070
REMARK SMILES CC(=O)c1ccccc1
REMARK SMILES IDX 4 1 5 2 6 3 7 4 8 5 9 6 2 7 1 8 3 9
REMARK H PARENT
REMARK Flexibility Score: inf
ROOT
ATOM      1  C   UNL     1     138.340 127.822 130.620  1.00  0.00     0.017 A 
ATOM      2  C   UNL     1     138.305 127.686 129.218  1.00  0.00     0.012 A 
ATOM      3  C   UNL     1     137.120 127.327 128.567  1.00  0.00     0.001 A 
ATOM      4  C   UNL     1     135.956 127.102 129.304  1.00  0.00     0.000 A 
ATOM      5  C   UNL     1     135.974 127.234 130.694  1.00  0.00     0.001 A 
ATOM      6  C   UNL     1     137.156 127.591 131.351  1.00  0.00     0.012 A 
ENDROOT
BRANCH   1   7
ATOM      7  C   UNL     1     139.607 128.204 131.299  1.00  0.00     0.159 C 
ATOM      8  C   UNL     1     140.909 128.286 130.560  1.00  0.00     0.093 C 
ATOM      9  O   UNL     1     139.601 128.468 132.533  1.00  0.00    -0.295 OA
ENDBRANCH   1   7
TORSDOF 1
ENDMDL
MODEL 3
REMARK VINA RESULT:    -3.171      1.690      3.608
REMARK INTER + INTRA:          -3.426
REMARK INTER:                  -3.356
REMARK INTRA:                  -0.070
REMARK UNBOUND:                -0.070
REMARK SMILES CC(=O)c1ccccc1
REMARK SMILES IDX 4 1 5 2 6 3 7 4 8 5 9 6 2 7 1 8 3 9
REMARK H PARENT
REMARK Flexibility Score: inf
ROOT
ATOM      1  C   UNL     1     138.343 127.838 130.598  1.00  0.00     0.017 A 
ATOM      2  C   UNL     1     137.174 127.592 131.346  1.00  0.00     0.012 A 
ATOM      3  C   UNL     1     135.983 127.234 130.707  1.00  0.00     0.001 A 
ATOM      4  C   UNL     1     135.942 127.114 129.317  1.00  0.00     0.000 A 
ATOM      5  C   UNL     1     137.092 127.353 128.562  1.00  0.00     0.001 A 
ATOM      6  C   UNL     1     138.286 127.713 129.195  1.00  0.00     0.012 A 
ENDROOT
BRANCH   1   7
ATOM      7  C   UNL     1     139.603 128.219 131.290  1.00  0.00     0.159 C 
ATOM      8  C   UNL     1     140.913 128.301 130.564  1.00  0.00     0.093 C 
ATOM      9  O   UNL     1     139.585 128.484 132.524  1.00  0.00    -0.295 OA
ENDBRANCH   1   7
TORSDOF 1
ENDMDL
