MODEL 1
REMARK VINA RESULT:    -4.251      0.000      0.000
REMARK INTER + INTRA:         -14.939
REMARK INTER:                 -10.712
REMARK INTRA:                  -4.226
REMARK UNBOUND:                -4.226
REMARK SMILES CCCCCCCCCCCCCCCCCCCCCCCCCCCC(=O)[O-]
REMARK SMILES IDX 15 1 16 2 17 3 18 4 19 5 20 6 21 7 22 8 23 9 24 10 25 11
REMARK SMILES IDX 26 12 27 13 28 14 29 15 30 16 14 17 13 18 12 19 11 20 10 21
REMARK SMILES IDX 9 22 8 23 7 24 6 25 5 26 4 27 3 28 2 29 1 30
REMARK H PARENT
REMARK Flexibility Score: inf
ROOT
ATOM      1  C   UNL     1       1.263  -1.509   5.230  1.00  0.00     0.000 C 
ENDROOT
BRANCH   1   2
ATOM      2  C   UNL     1       2.355  -2.429   5.798  1.00  0.00     0.000 C 
BRANCH   2   3
ATOM      3  C   UNL     1       3.768  -1.851   5.622  1.00  0.00     0.000 C 
BRANCH   3   4
ATOM      4  C   UNL     1       4.561  -1.938   6.934  1.00  0.00     0.000 C 
BRANCH   4   5
ATOM      5  C   UNL     1       3.687  -2.321   8.142  1.00  0.00     0.000 C 
BRANCH   5   6
ATOM      6  C   UNL     1       3.286  -1.146   9.053  1.00  0.00     0.000 C 
BRANCH   6   7
ATOM      7  C   UNL     1       1.769  -1.051   9.278  1.00  0.00     0.000 C 
BRANCH   7   8
ATOM      8  C   UNL     1       1.221   0.287   8.770  1.00  0.00     0.000 C 
BRANCH   8   9
ATOM      9  C   UNL     1       2.240   0.989   7.862  1.00  0.00     0.000 C 
BRANCH   9  10
ATOM     10  C   UNL     1       1.539   1.919   6.864  1.00  0.00     0.000 C 
BRANCH  10  11
ATOM     11  C   UNL     1       0.891   3.111   7.584  1.00  0.00     0.000 C 
BRANCH  11  12
ATOM     12  C   UNL     1       0.938   4.412   6.763  1.00  0.00     0.006 C 
BRANCH  12  13
ATOM     13  C   UNL     1       1.550   4.245   5.361  1.00  0.00     0.053 C 
BRANCH  13  14
ATOM     14  C   UNL     1       0.893   5.118   4.334  1.00  0.00     0.041 C 
ATOM     15  O   UNL     1      -0.333   5.392   4.421  1.00  0.00    -0.550 OA
ATOM     16  O   UNL     1       1.646   5.662   3.300  1.00  0.00    -0.550 OA
ENDBRANCH  13  14
ENDBRANCH  12  13
ENDBRANCH  11  12
ENDBRANCH  10  11
ENDBRANCH   9  10
ENDBRANCH   8   9
ENDBRANCH   7   8
ENDBRANCH   6   7
ENDBRANCH   5   6
ENDBRANCH   4   5
ENDBRANCH   3   4
ENDBRANCH   2   3
ENDBRANCH   1   2
BRANCH   1  17
ATOM     17  C   UNL     1      -0.121  -1.798   5.837  1.00  0.00     0.000 C 
BRANCH  17  18
ATOM     18  C   UNL     1      -0.104  -2.975   6.830  1.00  0.00     0.000 C 
BRANCH  18  19
ATOM     19  C   UNL     1      -1.017  -4.161   6.455  1.00  0.00     0.000 C 
BRANCH  19  20
ATOM     20  C   UNL     1      -2.435  -4.117   7.058  1.00  0.00     0.000 C 
BRANCH  20  21
ATOM     21  C   UNL     1      -2.833  -2.774   7.699  1.00  0.00     0.000 C 
BRANCH  21  22
ATOM     22  C   UNL     1      -4.062  -2.893   8.615  1.00  0.00    -0.000 C 
BRANCH  22  23
ATOM     23  C   UNL     1      -5.041  -1.714   8.465  1.00  0.00    -0.000 C 
BRANCH  23  24
ATOM     24  C   UNL     1      -6.026  -1.819   7.285  1.00  0.00    -0.000 C 
BRANCH  24  25
ATOM     25  C   UNL     1      -6.081  -0.542   6.430  1.00  0.00    -0.000 C 
BRANCH  25  26
ATOM     26  C   UNL     1      -4.853  -0.389   5.519  1.00  0.00    -0.000 C 
BRANCH  26  27
ATOM     27  C   UNL     1      -4.548  -1.662   4.712  1.00  0.00    -0.000 C 
BRANCH  27  28
ATOM     28  C   UNL     1      -3.229  -1.567   3.925  1.00  0.00    -0.000 C 
BRANCH  28  29
ATOM     29  C   UNL     1      -2.752  -2.920   3.358  1.00  0.00    -0.003 C 
ATOM     30  C   UNL     1      -3.767  -4.040   3.587  1.00  0.00     0.004 C 
ENDBRANCH  28  29
ENDBRANCH  27  28
ENDBRANCH  26  27
ENDBRANCH  25  26
ENDBRANCH  24  25
ENDBRANCH  23  24
ENDBRANCH  22  23
ENDBRANCH  21  22
ENDBRANCH  20  21
ENDBRANCH  19  20
ENDBRANCH  18  19
ENDBRANCH  17  18
ENDBRANCH   1  17
TORSDOF 26
ENDMDL
MODEL 2
REMARK VINA RESULT:    -4.121      1.394      3.341
REMARK INTER + INTRA:         -14.612
REMARK INTER:                 -11.253
REMARK INTRA:                  -3.358
REMARK UNBOUND:                -4.226
REMARK SMILES CCCCCCCCCCCCCCCCCCCCCCCCCCCC(=O)[O-]
REMARK SMILES IDX 15 1 16 2 17 3 18 4 19 5 20 6 21 7 22 8 23 9 24 10 25 11
REMARK SMILES IDX 26 12 27 13 28 14 29 15 30 16 14 17 13 18 12 19 11 20 10 21
REMARK SMILES IDX 9 22 8 23 7 24 6 25 5 26 4 27 3 28 2 29 1 30
REMARK H PARENT
REMARK Flexibility Score: inf
ROOT
ATOM      1  C   UNL     1       3.978  -2.809   7.176  1.00  0.00     0.000 C 
ENDROOT
BRANCH   1   2
ATOM      2  C   UNL     1       3.801  -1.857   5.983  1.00  0.00     0.000 C 
BRANCH   2   3
ATOM      3  C   UNL     1       2.497  -2.108   5.211  1.00  0.00     0.000 C 
BRANCH   3   4
ATOM      4  C   UNL     1       1.440  -1.052   5.566  1.00  0.00     0.000 C 
BRANCH   4   5
ATOM      5  C   UNL     1       1.910  -0.072   6.658  1.00  0.00     0.000 C 
BRANCH   5   6
ATOM      6  C   UNL     1       1.136  -0.159   7.986  1.00  0.00     0.000 C 
BRANCH   6   7
ATOM      7  C   UNL     1       1.926   0.400   9.179  1.00  0.00     0.000 C 
BRANCH   7   8
ATOM      8  C   UNL     1       1.992   1.930   9.125  1.00  0.00     0.000 C 
BRANCH   8   9
ATOM      9  C   UNL     1       0.618   2.549   9.411  1.00  0.00     0.000 C 
BRANCH   9  10
ATOM     10  C   UNL     1       0.241   3.573   8.333  1.00  0.00     0.000 C 
BRANCH  10  11
ATOM     11  C   UNL     1       1.068   3.359   7.056  1.00  0.00     0.000 C 
BRANCH  11  12
ATOM     12  C   UNL     1       1.546   4.676   6.417  1.00  0.00     0.006 C 
BRANCH  12  13
ATOM     13  C   UNL     1       0.435   5.726   6.243  1.00  0.00     0.053 C 
BRANCH  13  14
ATOM     14  C   UNL     1      -0.213   5.666   4.892  1.00  0.00     0.041 C 
ATOM     15  O   UNL     1       0.374   5.105   3.929  1.00  0.00    -0.550 OA
ATOM     16  O   UNL     1      -1.484   6.196   4.706  1.00  0.00    -0.550 OA
ENDBRANCH  13  14
ENDBRANCH  12  13
ENDBRANCH  11  12
ENDBRANCH  10  11
ENDBRANCH   9  10
ENDBRANCH   8   9
ENDBRANCH   7   8
ENDBRANCH   6   7
ENDBRANCH   5   6
ENDBRANCH   4   5
ENDBRANCH   3   4
ENDBRANCH   2   3
ENDBRANCH   1   2
BRANCH   1  17
ATOM     17  C   UNL     1       2.828  -3.824   7.292  1.00  0.00     0.000 C 
BRANCH  17  18
ATOM     18  C   UNL     1       2.035  -3.682   8.605  1.00  0.00     0.000 C 
BRANCH  18  19
ATOM     19  C   UNL     1       0.501  -3.732   8.451  1.00  0.00     0.000 C 
BRANCH  19  20
ATOM     20  C   UNL     1      -0.008  -4.127   7.050  1.00  0.00     0.000 C 
BRANCH  20  21
ATOM     21  C   UNL     1      -1.311  -3.437   6.608  1.00  0.00     0.000 C 
BRANCH  21  22
ATOM     22  C   UNL     1      -1.354  -3.157   5.097  1.00  0.00    -0.000 C 
BRANCH  22  23
ATOM     23  C   UNL     1      -1.974  -1.790   4.755  1.00  0.00    -0.000 C 
BRANCH  23  24
ATOM     24  C   UNL     1      -3.031  -1.806   3.635  1.00  0.00    -0.000 C 
BRANCH  24  25
ATOM     25  C   UNL     1      -4.470  -1.669   4.161  1.00  0.00    -0.000 C 
BRANCH  25  26
ATOM     26  C   UNL     1      -4.529  -1.561   5.693  1.00  0.00    -0.000 C 
BRANCH  26  27
ATOM     27  C   UNL     1      -5.227  -0.276   6.172  1.00  0.00    -0.000 C 
BRANCH  27  28
ATOM     28  C   UNL     1      -6.244  -0.535   7.297  1.00  0.00    -0.000 C 
BRANCH  28  29
ATOM     29  C   UNL     1      -7.163   0.670   7.585  1.00  0.00    -0.003 C 
ATOM     30  C   UNL     1      -8.640   0.344   7.361  1.00  0.00     0.004 C 
ENDBRANCH  28  29
ENDBRANCH  27  28
ENDBRANCH  26  27
ENDBRANCH  25  26
ENDBRANCH  24  25
ENDBRANCH  23  24
ENDBRANCH  22  23
ENDBRANCH  21  22
ENDBRANCH  20  21
ENDBRANCH  19  20
ENDBRANCH  18  19
ENDBRANCH  17  18
ENDBRANCH   1  17
TORSDOF 26
ENDMDL
MODEL 3
REMARK VINA RESULT:    -4.110      1.756      2.971
REMARK INTER + INTRA:         -14.584
REMARK INTER:                 -11.342
REMARK INTRA:                  -3.242
REMARK UNBOUND:                -4.226
REMARK SMILES CCCCCCCCCCCCCCCCCCCCCCCCCCCC(=O)[O-]
REMARK SMILES IDX 15 1 16 2 17 3 18 4 19 5 20 6 21 7 22 8 23 9 24 10 25 11
REMARK SMILES IDX 26 12 27 13 28 14 29 15 30 16 14 17 13 18 12 19 11 20 10 21
REMARK SMILES IDX 9 22 8 23 7 24 6 25 5 26 4 27 3 28 2 29 1 30
REMARK H PARENT
REMARK Flexibility Score: inf
ROOT
ATOM      1  C   UNL     1       1.445  -1.279   5.264  1.00  0.00     0.000 C 
ENDROOT
BRANCH   1   2
ATOM      2  C   UNL     1       2.629  -2.247   5.109  1.00  0.00     0.000 C 
BRANCH   2   3
ATOM      3  C   UNL     1       3.840  -1.844   5.963  1.00  0.00     0.000 C 
BRANCH   3   4
ATOM      4  C   UNL     1       3.733  -2.436   7.376  1.00  0.00     0.000 C 
BRANCH   4   5
ATOM      5  C   UNL     1       3.452  -1.373   8.455  1.00  0.00     0.000 C 
BRANCH   5   6
ATOM      6  C   UNL     1       2.029  -1.402   9.041  1.00  0.00     0.000 C 
BRANCH   6   7
ATOM      7  C   UNL     1       1.242  -0.110   8.771  1.00  0.00     0.000 C 
BRANCH   7   8
ATOM      8  C   UNL     1       2.155   0.978   8.195  1.00  0.00     0.000 C 
BRANCH   8   9
ATOM      9  C   UNL     1       1.477   1.699   7.022  1.00  0.00     0.000 C 
BRANCH   9  10
ATOM     10  C   UNL     1       1.782   3.202   7.049  1.00  0.00     0.000 C 
BRANCH  10  11
ATOM     11  C   UNL     1       0.564   4.002   7.536  1.00  0.00     0.000 C 
BRANCH  11  12
ATOM     12  C   UNL     1       0.562   5.460   7.043  1.00  0.00     0.006 C 
BRANCH  12  13
ATOM     13  C   UNL     1      -0.788   5.925   6.470  1.00  0.00     0.053 C 
BRANCH  13  14
ATOM     14  C   UNL     1      -0.746   6.143   4.988  1.00  0.00     0.041 C 
ATOM     15  O   UNL     1      -1.301   7.152   4.477  1.00  0.00    -0.550 OA
ATOM     16  O   UNL     1      -0.057   5.252   4.173  1.00  0.00    -0.550 OA
ENDBRANCH  13  14
ENDBRANCH  12  13
ENDBRANCH  11  12
ENDBRANCH  10  11
ENDBRANCH   9  10
ENDBRANCH   8   9
ENDBRANCH   7   8
ENDBRANCH   6   7
ENDBRANCH   5   6
ENDBRANCH   4   5
ENDBRANCH   3   4
ENDBRANCH   2   3
ENDBRANCH   1   2
BRANCH   1  17
ATOM     17  C   UNL     1       0.092  -2.008   5.312  1.00  0.00     0.000 C 
BRANCH  17  18
ATOM     18  C   UNL     1      -0.059  -2.907   6.554  1.00  0.00     0.000 C 
BRANCH  18  19
ATOM     19  C   UNL     1      -1.328  -2.656   7.393  1.00  0.00     0.000 C 
BRANCH  19  20
ATOM     20  C   UNL     1      -2.627  -3.256   6.817  1.00  0.00     0.000 C 
BRANCH  20  21
ATOM     21  C   UNL     1      -3.788  -2.260   6.643  1.00  0.00     0.000 C 
BRANCH  21  22
ATOM     22  C   UNL     1      -4.316  -2.207   5.200  1.00  0.00    -0.000 C 
BRANCH  22  23
ATOM     23  C   UNL     1      -3.319  -1.568   4.216  1.00  0.00    -0.000 C 
BRANCH  23  24
ATOM     24  C   UNL     1      -2.652  -2.541   3.226  1.00  0.00    -0.000 C 
BRANCH  24  25
ATOM     25  C   UNL     1      -3.179  -3.981   3.347  1.00  0.00    -0.000 C 
BRANCH  25  26
ATOM     26  C   UNL     1      -4.046  -4.395   2.148  1.00  0.00    -0.000 C 
BRANCH  26  27
ATOM     27  C   UNL     1      -3.866  -5.873   1.765  1.00  0.00    -0.000 C 
BRANCH  27  28
ATOM     28  C   UNL     1      -2.755  -6.087   0.722  1.00  0.00    -0.000 C 
BRANCH  28  29
ATOM     29  C   UNL     1      -2.411  -4.816  -0.080  1.00  0.00    -0.003 C 
ATOM     30  C   UNL     1      -1.624  -5.124  -1.354  1.00  0.00     0.004 C 
ENDBRANCH  28  29
ENDBRANCH  27  28
ENDBRANCH  26  27
ENDBRANCH  25  26
ENDBRANCH  24  25
ENDBRANCH  23  24
ENDBRANCH  22  23
ENDBRANCH  21  22
ENDBRANCH  20  21
ENDBRANCH  19  20
ENDBRANCH  18  19
ENDBRANCH  17  18
ENDBRANCH   1  17
TORSDOF 26
ENDMDL
MODEL 4
REMARK VINA RESULT:    -4.095      1.011      1.989
REMARK INTER + INTRA:         -14.546
REMARK INTER:                 -10.588
REMARK INTRA:                  -3.958
REMARK UNBOUND:                -4.226
REMARK SMILES CCCCCCCCCCCCCCCCCCCCCCCCCCCC(=O)[O-]
REMARK SMILES IDX 15 1 16 2 17 3 18 4 19 5 20 6 21 7 22 8 23 9 24 10 25 11
REMARK SMILES IDX 26 12 27 13 28 14 29 15 30 16 14 17 13 18 12 19 11 20 10 21
REMARK SMILES IDX 9 22 8 23 7 24 6 25 5 26 4 27 3 28 2 29 1 30
REMARK H PARENT
REMARK Flexibility Score: inf
ROOT
ATOM      1  C   UNL     1       0.084  -1.912   6.025  1.00  0.00     0.000 C 
ENDROOT
BRANCH   1   2
ATOM      2  C   UNL     1       1.356  -1.625   5.212  1.00  0.00     0.000 C 
BRANCH   2   3
ATOM      3  C   UNL     1       2.485  -2.625   5.504  1.00  0.00     0.000 C 
BRANCH   3   4
ATOM      4  C   UNL     1       3.851  -2.032   5.128  1.00  0.00     0.000 C 
BRANCH   4   5
ATOM      5  C   UNL     1       4.668  -1.576   6.352  1.00  0.00     0.000 C 
BRANCH   5   6
ATOM      6  C   UNL     1       3.994  -1.828   7.713  1.00  0.00     0.000 C 
BRANCH   6   7
ATOM      7  C   UNL     1       3.551  -0.533   8.412  1.00  0.00     0.000 C 
BRANCH   7   8
ATOM      8  C   UNL     1       2.098  -0.636   8.889  1.00  0.00     0.000 C 
BRANCH   8   9
ATOM      9  C   UNL     1       1.284   0.584   8.436  1.00  0.00     0.000 C 
BRANCH   9  10
ATOM     10  C   UNL     1       2.031   1.372   7.353  1.00  0.00     0.000 C 
BRANCH  10  11
ATOM     11  C   UNL     1       1.334   2.711   7.068  1.00  0.00     0.000 C 
BRANCH  11  12
ATOM     12  C   UNL     1       2.294   3.792   6.538  1.00  0.00     0.006 C 
BRANCH  12  13
ATOM     13  C   UNL     1       1.829   4.454   5.229  1.00  0.00     0.053 C 
BRANCH  13  14
ATOM     14  C   UNL     1       0.541   5.205   5.385  1.00  0.00     0.041 C 
ATOM     15  O   UNL     1      -0.302   5.224   4.449  1.00  0.00    -0.550 OA
ATOM     16  O   UNL     1       0.253   5.852   6.581  1.00  0.00    -0.550 OA
ENDBRANCH  13  14
ENDBRANCH  12  13
ENDBRANCH  11  12
ENDBRANCH  10  11
ENDBRANCH   9  10
ENDBRANCH   8   9
ENDBRANCH   7   8
ENDBRANCH   6   7
ENDBRANCH   5   6
ENDBRANCH   4   5
ENDBRANCH   3   4
ENDBRANCH   2   3
ENDBRANCH   1   2
BRANCH   1  17
ATOM     17  C   UNL     1       0.162  -3.247   6.785  1.00  0.00     0.000 C 
BRANCH  17  18
ATOM     18  C   UNL     1      -0.519  -3.191   8.165  1.00  0.00     0.000 C 
BRANCH  18  19
ATOM     19  C   UNL     1      -1.948  -2.609   8.167  1.00  0.00     0.000 C 
BRANCH  19  20
ATOM     20  C   UNL     1      -2.993  -3.429   7.384  1.00  0.00     0.000 C 
BRANCH  20  21
ATOM     21  C   UNL     1      -4.419  -3.397   7.965  1.00  0.00     0.000 C 
BRANCH  21  22
ATOM     22  C   UNL     1      -5.225  -2.175   7.496  1.00  0.00    -0.000 C 
BRANCH  22  23
ATOM     23  C   UNL     1      -5.372  -2.102   5.964  1.00  0.00    -0.000 C 
BRANCH  23  24
ATOM     24  C   UNL     1      -4.795  -0.836   5.304  1.00  0.00    -0.000 C 
BRANCH  24  25
ATOM     25  C   UNL     1      -4.132  -1.113   3.945  1.00  0.00    -0.000 C 
BRANCH  25  26
ATOM     26  C   UNL     1      -2.667  -1.556   4.083  1.00  0.00    -0.000 C 
BRANCH  26  27
ATOM     27  C   UNL     1      -2.345  -2.812   3.255  1.00  0.00    -0.000 C 
BRANCH  27  28
ATOM     28  C   UNL     1      -3.051  -4.072   3.786  1.00  0.00    -0.000 C 
BRANCH  28  29
ATOM     29  C   UNL     1      -3.752  -4.894   2.685  1.00  0.00    -0.003 C 
ATOM     30  C   UNL     1      -2.979  -4.883   1.366  1.00  0.00     0.004 C 
ENDBRANCH  28  29
ENDBRANCH  27  28
ENDBRANCH  26  27
ENDBRANCH  25  26
ENDBRANCH  24  25
ENDBRANCH  23  24
ENDBRANCH  22  23
ENDBRANCH  21  22
ENDBRANCH  20  21
ENDBRANCH  19  20
ENDBRANCH  18  19
ENDBRANCH  17  18
ENDBRANCH   1  17
TORSDOF 26
ENDMDL
MODEL 5
REMARK VINA RESULT:    -4.021      1.473      3.064
REMARK INTER + INTRA:         -14.360
REMARK INTER:                 -11.076
REMARK INTRA:                  -3.284
REMARK UNBOUND:                -4.226
REMARK SMILES CCCCCCCCCCCCCCCCCCCCCCCCCCCC(=O)[O-]
REMARK SMILES IDX 15 1 16 2 17 3 18 4 19 5 20 6 21 7 22 8 23 9 24 10 25 11
REMARK SMILES IDX 26 12 27 13 28 14 29 15 30 16 14 17 13 18 12 19 11 20 10 21
REMARK SMILES IDX 9 22 8 23 7 24 6 25 5 26 4 27 3 28 2 29 1 30
REMARK H PARENT
REMARK Flexibility Score: inf
ROOT
ATOM      1  C   UNL     1       2.063  -4.522   8.173  1.00  0.00     0.000 C 
ENDROOT
BRANCH   1   2
ATOM      2  C   UNL     1       2.826  -4.063   6.920  1.00  0.00     0.000 C 
BRANCH   2   3
ATOM      3  C   UNL     1       3.681  -2.812   7.172  1.00  0.00     0.000 C 
BRANCH   3   4
ATOM      4  C   UNL     1       3.545  -1.814   6.012  1.00  0.00     0.000 C 
BRANCH   4   5
ATOM      5  C   UNL     1       2.168  -1.874   5.325  1.00  0.00     0.000 C 
BRANCH   5   6
ATOM      6  C   UNL     1       1.270  -0.645   5.560  1.00  0.00     0.000 C 
BRANCH   6   7
ATOM      7  C   UNL     1       1.550   0.055   6.899  1.00  0.00     0.000 C 
BRANCH   7   8
ATOM      8  C   UNL     1       1.642   1.574   6.716  1.00  0.00     0.000 C 
BRANCH   8   9
ATOM      9  C   UNL     1       2.478   2.212   7.833  1.00  0.00     0.000 C 
BRANCH   9  10
ATOM     10  C   UNL     1       2.183   3.712   7.953  1.00  0.00     0.000 C 
BRANCH  10  11
ATOM     11  C   UNL     1       0.711   4.011   7.634  1.00  0.00     0.000 C 
BRANCH  11  12
ATOM     12  C   UNL     1       0.474   5.460   7.170  1.00  0.00     0.006 C 
BRANCH  12  13
ATOM     13  C   UNL     1      -0.838   5.661   6.391  1.00  0.00     0.053 C 
BRANCH  13  14
ATOM     14  C   UNL     1      -0.611   6.079   4.970  1.00  0.00     0.041 C 
ATOM     15  O   UNL     1      -0.931   7.236   4.588  1.00  0.00    -0.550 OA
ATOM     16  O   UNL     1      -0.008   5.203   4.075  1.00  0.00    -0.550 OA
ENDBRANCH  13  14
ENDBRANCH  12  13
ENDBRANCH  11  12
ENDBRANCH  10  11
ENDBRANCH   9  10
ENDBRANCH   8   9
ENDBRANCH   7   8
ENDBRANCH   6   7
ENDBRANCH   5   6
ENDBRANCH   4   5
ENDBRANCH   3   4
ENDBRANCH   2   3
ENDBRANCH   1   2
BRANCH   1  17
ATOM     17  C   UNL     1       1.514  -3.341   8.991  1.00  0.00     0.000 C 
BRANCH  17  18
ATOM     18  C   UNL     1       0.202  -2.774   8.417  1.00  0.00     0.000 C 
BRANCH  18  19
ATOM     19  C   UNL     1      -1.047  -3.649   8.648  1.00  0.00     0.000 C 
BRANCH  19  20
ATOM     20  C   UNL     1      -2.398  -2.931   8.457  1.00  0.00     0.000 C 
BRANCH  20  21
ATOM     21  C   UNL     1      -3.006  -3.043   7.047  1.00  0.00     0.000 C 
BRANCH  21  22
ATOM     22  C   UNL     1      -2.157  -3.907   6.100  1.00  0.00    -0.000 C 
BRANCH  22  23
ATOM     23  C   UNL     1      -1.435  -3.083   5.017  1.00  0.00    -0.000 C 
BRANCH  23  24
ATOM     24  C   UNL     1      -2.058  -1.710   4.707  1.00  0.00    -0.000 C 
BRANCH  24  25
ATOM     25  C   UNL     1      -3.176  -1.778   3.654  1.00  0.00    -0.000 C 
BRANCH  25  26
ATOM     26  C   UNL     1      -4.457  -1.060   4.106  1.00  0.00    -0.000 C 
BRANCH  26  27
ATOM     27  C   UNL     1      -5.575  -2.035   4.513  1.00  0.00    -0.000 C 
BRANCH  27  28
ATOM     28  C   UNL     1      -6.387  -1.540   5.722  1.00  0.00    -0.000 C 
BRANCH  28  29
ATOM     29  C   UNL     1      -5.559  -0.700   6.717  1.00  0.00    -0.003 C 
ATOM     30  C   UNL     1      -6.248   0.614   7.085  1.00  0.00     0.004 C 
ENDBRANCH  28  29
ENDBRANCH  27  28
ENDBRANCH  26  27
ENDBRANCH  25  26
ENDBRANCH  24  25
ENDBRANCH  23  24
ENDBRANCH  22  23
ENDBRANCH  21  22
ENDBRANCH  20  21
ENDBRANCH  19  20
ENDBRANCH  18  19
ENDBRANCH  17  18
ENDBRANCH   1  17
TORSDOF 26
ENDMDL
MODEL 6
REMARK VINA RESULT:    -4.008      1.367      3.331
REMARK INTER + INTRA:         -14.325
REMARK INTER:                 -10.608
REMARK INTRA:                  -3.718
REMARK UNBOUND:                -4.226
REMARK SMILES CCCCCCCCCCCCCCCCCCCCCCCCCCCC(=O)[O-]
REMARK SMILES IDX 15 1 16 2 17 3 18 4 19 5 20 6 21 7 22 8 23 9 24 10 25 11
REMARK SMILES IDX 26 12 27 13 28 14 29 15 30 16 14 17 13 18 12 19 11 20 10 21
REMARK SMILES IDX 9 22 8 23 7 24 6 25 5 26 4 27 3 28 2 29 1 30
REMARK H PARENT
REMARK Flexibility Score: inf
ROOT
ATOM      1  C   UNL     1       0.351  -2.962   9.083  1.00  0.00     0.000 C 
ENDROOT
BRANCH   1   2
ATOM      2  C   UNL     1       1.755  -3.302   8.556  1.00  0.00     0.000 C 
BRANCH   2   3
ATOM      3  C   UNL     1       1.737  -3.813   7.107  1.00  0.00     0.000 C 
BRANCH   3   4
ATOM      4  C   UNL     1       3.024  -3.412   6.371  1.00  0.00     0.000 C 
BRANCH   4   5
ATOM      5  C   UNL     1       2.808  -2.274   5.356  1.00  0.00     0.000 C 
BRANCH   5   6
ATOM      6  C   UNL     1       1.353  -1.790   5.222  1.00  0.00     0.000 C 
BRANCH   6   7
ATOM      7  C   UNL     1       1.165  -0.327   5.651  1.00  0.00     0.000 C 
BRANCH   7   8
ATOM      8  C   UNL     1       2.243   0.092   6.658  1.00  0.00     0.000 C 
BRANCH   8   9
ATOM      9  C   UNL     1       1.622   0.836   7.848  1.00  0.00     0.000 C 
BRANCH   9  10
ATOM     10  C   UNL     1       1.075   2.203   7.418  1.00  0.00     0.000 C 
BRANCH  10  11
ATOM     11  C   UNL     1       2.216   3.202   7.175  1.00  0.00     0.000 C 
BRANCH  11  12
ATOM     12  C   UNL     1       1.854   4.298   6.157  1.00  0.00     0.006 C 
BRANCH  12  13
ATOM     13  C   UNL     1       0.461   4.916   6.371  1.00  0.00     0.053 C 
BRANCH  13  14
ATOM     14  C   UNL     1      -0.171   5.377   5.093  1.00  0.00     0.041 C 
ATOM     15  O   UNL     1      -1.165   6.151   5.118  1.00  0.00    -0.550 OA
ATOM     16  O   UNL     1       0.362   4.984   3.871  1.00  0.00    -0.550 OA
ENDBRANCH  13  14
ENDBRANCH  12  13
ENDBRANCH  11  12
ENDBRANCH  10  11
ENDBRANCH   9  10
ENDBRANCH   8   9
ENDBRANCH   7   8
ENDBRANCH   6   7
ENDBRANCH   5   6
ENDBRANCH   4   5
ENDBRANCH   3   4
ENDBRANCH   2   3
ENDBRANCH   1   2
BRANCH   1  17
ATOM     17  C   UNL     1      -0.542  -2.326   8.004  1.00  0.00     0.000 C 
BRANCH  17  18
ATOM     18  C   UNL     1      -2.027  -2.704   8.158  1.00  0.00     0.000 C 
BRANCH  18  19
ATOM     19  C   UNL     1      -2.596  -3.598   7.038  1.00  0.00     0.000 C 
BRANCH  19  20
ATOM     20  C   UNL     1      -1.592  -3.985   5.932  1.00  0.00     0.000 C 
BRANCH  20  21
ATOM     21  C   UNL     1      -2.038  -3.650   4.497  1.00  0.00     0.000 C 
BRANCH  21  22
ATOM     22  C   UNL     1      -2.278  -2.147   4.284  1.00  0.00    -0.000 C 
BRANCH  22  23
ATOM     23  C   UNL     1      -3.752  -1.809   3.990  1.00  0.00    -0.000 C 
BRANCH  23  24
ATOM     24  C   UNL     1      -4.337  -0.641   4.806  1.00  0.00    -0.000 C 
BRANCH  24  25
ATOM     25  C   UNL     1      -5.469  -1.074   5.753  1.00  0.00    -0.000 C 
BRANCH  25  26
ATOM     26  C   UNL     1      -5.847   0.024   6.760  1.00  0.00    -0.000 C 
BRANCH  26  27
ATOM     27  C   UNL     1      -6.919  -0.433   7.763  1.00  0.00    -0.000 C 
BRANCH  27  28
ATOM     28  C   UNL     1      -6.430  -0.383   9.221  1.00  0.00    -0.000 C 
BRANCH  28  29
ATOM     29  C   UNL     1      -5.099  -1.129   9.450  1.00  0.00    -0.003 C 
ATOM     30  C   UNL     1      -5.309  -2.591   9.843  1.00  0.00     0.004 C 
ENDBRANCH  28  29
ENDBRANCH  27  28
ENDBRANCH  26  27
ENDBRANCH  25  26
ENDBRANCH  24  25
ENDBRANCH  23  24
ENDBRANCH  22  23
ENDBRANCH  21  22
ENDBRANCH  20  21
ENDBRANCH  19  20
ENDBRANCH  18  19
ENDBRANCH  17  18
ENDBRANCH   1  17
TORSDOF 26
ENDMDL
MODEL 7
REMARK VINA RESULT:    -3.992      1.775      3.646
REMARK INTER + INTRA:         -14.285
REMARK INTER:                 -10.337
REMARK INTRA:                  -3.948
REMARK UNBOUND:                -4.226
REMARK SMILES CCCCCCCCCCCCCCCCCCCCCCCCCCCC(=O)[O-]
REMARK SMILES IDX 15 1 16 2 17 3 18 4 19 5 20 6 21 7 22 8 23 9 24 10 25 11
REMARK SMILES IDX 26 12 27 13 28 14 29 15 30 16 14 17 13 18 12 19 11 20 10 21
REMARK SMILES IDX 9 22 8 23 7 24 6 25 5 26 4 27 3 28 2 29 1 30
REMARK H PARENT
REMARK Flexibility Score: inf
ROOT
ATOM      1  C   UNL     1       2.964  -3.607   6.447  1.00  0.00     0.000 C 
ENDROOT
BRANCH   1   2
ATOM      2  C   UNL     1       3.074  -2.304   5.638  1.00  0.00     0.000 C 
BRANCH   2   3
ATOM      3  C   UNL     1       1.735  -1.875   5.020  1.00  0.00     0.000 C 
BRANCH   3   4
ATOM      4  C   UNL     1       1.168  -0.645   5.745  1.00  0.00     0.000 C 
BRANCH   4   5
ATOM      5  C   UNL     1       2.124  -0.081   6.812  1.00  0.00     0.000 C 
BRANCH   5   6
ATOM      6  C   UNL     1       1.570   1.109   7.617  1.00  0.00     0.000 C 
BRANCH   6   7
ATOM      7  C   UNL     1       1.658   2.441   6.857  1.00  0.00     0.000 C 
BRANCH   7   8
ATOM      8  C   UNL     1       0.773   3.507   7.513  1.00  0.00     0.000 C 
BRANCH   8   9
ATOM      9  C   UNL     1       0.576   4.707   6.577  1.00  0.00     0.000 C 
BRANCH   9  10
ATOM     10  C   UNL     1       1.259   4.470   5.225  1.00  0.00     0.000 C 
BRANCH  10  11
ATOM     11  C   UNL     1       2.140   5.667   4.835  1.00  0.00     0.000 C 
BRANCH  11  12
ATOM     12  C   UNL     1       3.255   5.299   3.839  1.00  0.00     0.006 C 
BRANCH  12  13
ATOM     13  C   UNL     1       2.774   5.169   2.383  1.00  0.00     0.053 C 
BRANCH  13  14
ATOM     14  C   UNL     1       3.902   4.976   1.415  1.00  0.00     0.041 C 
ATOM     15  O   UNL     1       3.985   5.693   0.383  1.00  0.00    -0.550 OA
ATOM     16  O   UNL     1       4.886   4.028   1.674  1.00  0.00    -0.550 OA
ENDBRANCH  13  14
ENDBRANCH  12  13
ENDBRANCH  11  12
ENDBRANCH  10  11
ENDBRANCH   9  10
ENDBRANCH   8   9
ENDBRANCH   7   8
ENDBRANCH   6   7
ENDBRANCH   5   6
ENDBRANCH   4   5
ENDBRANCH   3   4
ENDBRANCH   2   3
ENDBRANCH   1   2
BRANCH   1  17
ATOM     17  C   UNL     1       3.354  -3.416   7.922  1.00  0.00     0.000 C 
BRANCH  17  18
ATOM     18  C   UNL     1       2.133  -3.232   8.844  1.00  0.00     0.000 C 
BRANCH  18  19
ATOM     19  C   UNL     1       0.775  -3.607   8.216  1.00  0.00     0.000 C 
BRANCH  19  20
ATOM     20  C   UNL     1      -0.345  -2.563   8.399  1.00  0.00     0.000 C 
BRANCH  20  21
ATOM     21  C   UNL     1      -1.435  -2.575   7.311  1.00  0.00     0.000 C 
BRANCH  21  22
ATOM     22  C   UNL     1      -1.368  -3.822   6.415  1.00  0.00    -0.000 C 
BRANCH  22  23
ATOM     23  C   UNL     1      -1.932  -3.579   5.003  1.00  0.00    -0.000 C 
BRANCH  23  24
ATOM     24  C   UNL     1      -1.918  -2.114   4.528  1.00  0.00    -0.000 C 
BRANCH  24  25
ATOM     25  C   UNL     1      -3.037  -1.794   3.524  1.00  0.00    -0.000 C 
BRANCH  25  26
ATOM     26  C   UNL     1      -4.428  -1.775   4.177  1.00  0.00    -0.000 C 
BRANCH  26  27
ATOM     27  C   UNL     1      -4.575  -0.666   5.232  1.00  0.00    -0.000 C 
BRANCH  27  28
ATOM     28  C   UNL     1      -5.277  -1.151   6.512  1.00  0.00    -0.000 C 
BRANCH  28  29
ATOM     29  C   UNL     1      -5.280  -2.685   6.669  1.00  0.00    -0.003 C 
ATOM     30  C   UNL     1      -4.891  -3.129   8.080  1.00  0.00     0.004 C 
ENDBRANCH  28  29
ENDBRANCH  27  28
ENDBRANCH  26  27
ENDBRANCH  25  26
ENDBRANCH  24  25
ENDBRANCH  23  24
ENDBRANCH  22  23
ENDBRANCH  21  22
ENDBRANCH  20  21
ENDBRANCH  19  20
ENDBRANCH  18  19
ENDBRANCH  17  18
ENDBRANCH   1  17
TORSDOF 26
ENDMDL
MODEL 8
REMARK VINA RESULT:    -3.988      4.569      8.686
REMARK INTER + INTRA:         -14.275
REMARK INTER:                 -10.411
REMARK INTRA:                  -3.864
REMARK UNBOUND:                -4.226
REMARK SMILES CCCCCCCCCCCCCCCCCCCCCCCCCCCC(=O)[O-]
REMARK SMILES IDX 15 1 16 2 17 3 18 4 19 5 20 6 21 7 22 8 23 9 24 10 25 11
REMARK SMILES IDX 26 12 27 13 28 14 29 15 30 16 14 17 13 18 12 19 11 20 10 21
REMARK SMILES IDX 9 22 8 23 7 24 6 25 5 26 4 27 3 28 2 29 1 30
REMARK H PARENT
REMARK Flexibility Score: inf
ROOT
ATOM      1  C   UNL     1      -2.747  -2.962   3.371  1.00  0.00     0.000 C 
ENDROOT
BRANCH   1   2
ATOM      2  C   UNL     1      -4.085  -3.658   3.072  1.00  0.00     0.000 C 
BRANCH   2   3
ATOM      3  C   UNL     1      -4.306  -4.912   3.930  1.00  0.00     0.000 C 
BRANCH   3   4
ATOM      4  C   UNL     1      -2.966  -5.487   4.413  1.00  0.00     0.000 C 
BRANCH   4   5
ATOM      5  C   UNL     1      -2.652  -6.869   3.810  1.00  0.00     0.000 C 
BRANCH   5   6
ATOM      6  C   UNL     1      -2.373  -6.870   2.296  1.00  0.00     0.000 C 
BRANCH   6   7
ATOM      7  C   UNL     1      -3.616  -7.207   1.458  1.00  0.00     0.000 C 
BRANCH   7   8
ATOM      8  C   UNL     1      -3.499  -6.626   0.044  1.00  0.00     0.000 C 
BRANCH   8   9
ATOM      9  C   UNL     1      -2.722  -5.303   0.057  1.00  0.00     0.000 C 
BRANCH   9  10
ATOM     10  C   UNL     1      -2.408  -4.836  -1.369  1.00  0.00     0.000 C 
BRANCH  10  11
ATOM     11  C   UNL     1      -0.951  -4.365  -1.487  1.00  0.00     0.000 C 
BRANCH  11  12
ATOM     12  C   UNL     1      -0.499  -4.149  -2.942  1.00  0.00     0.006 C 
BRANCH  12  13
ATOM     13  C   UNL     1      -0.802  -2.743  -3.489  1.00  0.00     0.053 C 
BRANCH  13  14
ATOM     14  C   UNL     1      -1.752  -2.764  -4.648  1.00  0.00     0.041 C 
ATOM     15  O   UNL     1      -1.638  -1.924  -5.580  1.00  0.00    -0.550 OA
ATOM     16  O   UNL     1      -2.742  -3.737  -4.719  1.00  0.00    -0.550 OA
ENDBRANCH  13  14
ENDBRANCH  12  13
ENDBRANCH  11  12
ENDBRANCH  10  11
ENDBRANCH   9  10
ENDBRANCH   8   9
ENDBRANCH   7   8
ENDBRANCH   6   7
ENDBRANCH   5   6
ENDBRANCH   4   5
ENDBRANCH   3   4
ENDBRANCH   2   3
ENDBRANCH   1   2
BRANCH   1  17
ATOM     17  C   UNL     1      -2.934  -1.510   3.841  1.00  0.00     0.000 C 
BRANCH  17  18
ATOM     18  C   UNL     1      -4.414  -1.128   4.031  1.00  0.00     0.000 C 
BRANCH  18  19
ATOM     19  C   UNL     1      -4.844  -0.885   5.492  1.00  0.00     0.000 C 
BRANCH  19  20
ATOM     20  C   UNL     1      -5.659  -2.025   6.137  1.00  0.00     0.000 C 
BRANCH  20  21
ATOM     21  C   UNL     1      -4.847  -2.997   7.012  1.00  0.00     0.000 C 
BRANCH  21  22
ATOM     22  C   UNL     1      -3.516  -2.396   7.491  1.00  0.00    -0.000 C 
BRANCH  22  23
ATOM     23  C   UNL     1      -2.318  -3.343   7.285  1.00  0.00    -0.000 C 
BRANCH  23  24
ATOM     24  C   UNL     1      -0.940  -2.660   7.218  1.00  0.00    -0.000 C 
BRANCH  24  25
ATOM     25  C   UNL     1      -0.249  -2.828   5.854  1.00  0.00    -0.000 C 
BRANCH  25  26
ATOM     26  C   UNL     1       0.467  -1.549   5.394  1.00  0.00    -0.000 C 
BRANCH  26  27
ATOM     27  C   UNL     1       1.999  -1.660   5.479  1.00  0.00    -0.000 C 
BRANCH  27  28
ATOM     28  C   UNL     1       2.606  -0.723   6.538  1.00  0.00    -0.000 C 
BRANCH  28  29
ATOM     29  C   UNL     1       1.554   0.111   7.297  1.00  0.00    -0.003 C 
ATOM     30  C   UNL     1       1.697   1.611   7.033  1.00  0.00     0.004 C 
ENDBRANCH  28  29
ENDBRANCH  27  28
ENDBRANCH  26  27
ENDBRANCH  25  26
ENDBRANCH  24  25
ENDBRANCH  23  24
ENDBRANCH  22  23
ENDBRANCH  21  22
ENDBRANCH  20  21
ENDBRANCH  19  20
ENDBRANCH  18  19
ENDBRANCH  17  18
ENDBRANCH   1  17
TORSDOF 26
ENDMDL
MODEL 9
REMARK VINA RESULT:    -3.959      3.523      7.939
REMARK INTER + INTRA:         -14.203
REMARK INTER:                  -9.088
REMARK INTRA:                  -5.115
REMARK UNBOUND:                -4.226
REMARK SMILES CCCCCCCCCCCCCCCCCCCCCCCCCCCC(=O)[O-]
REMARK SMILES IDX 15 1 16 2 17 3 18 4 19 5 20 6 21 7 22 8 23 9 24 10 25 11
REMARK SMILES IDX 26 12 27 13 28 14 29 15 30 16 14 17 13 18 12 19 11 20 10 21
REMARK SMILES IDX 9 22 8 23 7 24 6 25 5 26 4 27 3 28 2 29 1 30
REMARK H PARENT
REMARK Flexibility Score: inf
ROOT
ATOM      1  C   UNL     1      -0.756  -2.181   6.199  1.00  0.00     0.000 C 
ENDROOT
BRANCH   1   2
ATOM      2  C   UNL     1      -0.976  -3.690   6.393  1.00  0.00     0.000 C 
BRANCH   2   3
ATOM      3  C   UNL     1      -2.356  -4.016   6.984  1.00  0.00     0.000 C 
BRANCH   3   4
ATOM      4  C   UNL     1      -2.773  -2.956   8.015  1.00  0.00     0.000 C 
BRANCH   4   5
ATOM      5  C   UNL     1      -4.163  -2.356   7.734  1.00  0.00     0.000 C 
BRANCH   5   6
ATOM      6  C   UNL     1      -5.028  -3.155   6.743  1.00  0.00     0.000 C 
BRANCH   6   7
ATOM      7  C   UNL     1      -5.535  -2.305   5.568  1.00  0.00     0.000 C 
BRANCH   7   8
ATOM      8  C   UNL     1      -4.700  -1.029   5.414  1.00  0.00     0.000 C 
BRANCH   8   9
ATOM      9  C   UNL     1      -3.695  -1.166   4.263  1.00  0.00     0.000 C 
BRANCH   9  10
ATOM     10  C   UNL     1      -3.932  -2.462   3.477  1.00  0.00     0.000 C 
BRANCH  10  11
ATOM     11  C   UNL     1      -2.602  -3.155   3.144  1.00  0.00     0.000 C 
BRANCH  11  12
ATOM     12  C   UNL     1      -2.755  -4.666   2.889  1.00  0.00     0.006 C 
BRANCH  12  13
ATOM     13  C   UNL     1      -2.886  -5.040   1.403  1.00  0.00     0.053 C 
BRANCH  13  14
ATOM     14  C   UNL     1      -4.257  -5.529   1.046  1.00  0.00     0.041 C 
ATOM     15  O   UNL     1      -4.531  -6.757   1.109  1.00  0.00    -0.550 OA
ATOM     16  O   UNL     1      -5.246  -4.622   0.682  1.00  0.00    -0.550 OA
ENDBRANCH  13  14
ENDBRANCH  12  13
ENDBRANCH  11  12
ENDBRANCH  10  11
ENDBRANCH   9  10
ENDBRANCH   8   9
ENDBRANCH   7   8
ENDBRANCH   6   7
ENDBRANCH   5   6
ENDBRANCH   4   5
ENDBRANCH   3   4
ENDBRANCH   2   3
ENDBRANCH   1   2
BRANCH   1  17
ATOM     17  C   UNL     1       0.248  -1.875   5.074  1.00  0.00     0.000 C 
BRANCH  17  18
ATOM     18  C   UNL     1       1.580  -1.306   5.599  1.00  0.00     0.000 C 
BRANCH  18  19
ATOM     19  C   UNL     1       2.804  -2.223   5.408  1.00  0.00     0.000 C 
BRANCH  19  20
ATOM     20  C   UNL     1       3.277  -2.963   6.676  1.00  0.00     0.000 C 
BRANCH  20  21
ATOM     21  C   UNL     1       2.681  -4.369   6.874  1.00  0.00     0.000 C 
BRANCH  21  22
ATOM     22  C   UNL     1       1.947  -4.520   8.217  1.00  0.00    -0.000 C 
BRANCH  22  23
ATOM     23  C   UNL     1       2.020  -3.253   9.089  1.00  0.00    -0.000 C 
BRANCH  23  24
ATOM     24  C   UNL     1       0.706  -2.854   9.786  1.00  0.00    -0.000 C 
BRANCH  24  25
ATOM     25  C   UNL     1       0.288  -1.402   9.501  1.00  0.00    -0.000 C 
BRANCH  25  26
ATOM     26  C   UNL     1       1.468  -0.527   9.048  1.00  0.00    -0.000 C 
BRANCH  26  27
ATOM     27  C   UNL     1       1.081   0.952   8.878  1.00  0.00    -0.000 C 
BRANCH  27  28
ATOM     28  C   UNL     1       2.083   1.734   8.011  1.00  0.00    -0.000 C 
BRANCH  28  29
ATOM     29  C   UNL     1       1.465   2.302   6.717  1.00  0.00    -0.003 C 
ATOM     30  C   UNL     1       1.766   3.790   6.531  1.00  0.00     0.004 C 
ENDBRANCH  28  29
ENDBRANCH  27  28
ENDBRANCH  26  27
ENDBRANCH  25  26
ENDBRANCH  24  25
ENDBRANCH  23  24
ENDBRANCH  22  23
ENDBRANCH  21  22
ENDBRANCH  20  21
ENDBRANCH  19  20
ENDBRANCH  18  19
ENDBRANCH  17  18
ENDBRANCH   1  17
TORSDOF 26
ENDMDL
