MODEL 1
REMARK VINA RESULT:    -4.102      0.000      0.000
REMARK INTER + INTRA:          -4.222
REMARK INTER:                  -4.222
REMARK INTRA:                   0.000
REMARK UNBOUND:                 0.000
REMARK SMILES Cc1ccccc1O
REMARK SMILES IDX 1 1 2 2 3 3 4 4 5 5 6 6 7 7 8 8
REMARK H PARENT 8 9
REMARK Flexibility Score: inf
ROOT
ATOM      1  C   UNL     1      26.239 -41.476   0.509  1.00  0.00     0.048 C 
ATOM      2  C   UNL     1      26.449 -40.903  -0.865  1.00  0.00    -0.009 A 
ATOM      3  C   UNL     1      25.912 -39.649  -1.200  1.00  0.00     0.007 A 
ATOM      4  C   UNL     1      26.106 -39.116  -2.477  1.00  0.00     0.001 A 
ATOM      5  C   UNL     1      26.836 -39.830  -3.429  1.00  0.00     0.004 A 
ATOM      6  C   UNL     1      27.374 -41.078  -3.107  1.00  0.00     0.046 A 
ATOM      7  C   UNL     1      27.184 -41.621  -1.827  1.00  0.00     0.118 A 
ENDROOT
BRANCH   7   8
ATOM      8  O   UNL     1      27.724 -42.867  -1.510  1.00  0.00    -0.508 OA
ATOM      9  H   UNL     1      28.412 -42.976  -0.774  1.00  0.00     0.293 HD
ENDBRANCH   7   8
TORSDOF 1
ENDMDL
MODEL 2
REMARK VINA RESULT:    -3.924      1.950      2.342
REMARK INTER + INTRA:          -4.039
REMARK INTER:                  -4.039
REMARK INTRA:                   0.000
REMARK UNBOUND:                 0.000
REMARK SMILES Cc1ccccc1O
REMARK SMILES IDX 1 1 2 2 3 3 4 4 5 5 6 6 7 7 8 8
REMARK H PARENT 8 9
REMARK Flexibility Score: inf
ROOT
ATOM      1  C   UNL     1      25.875 -40.633   0.650  1.00  0.00     0.048 C 
ATOM      2  C   UNL     1      26.394 -40.386  -0.739  1.00  0.00    -0.009 A 
ATOM      3  C   UNL     1      26.153 -41.318  -1.762  1.00  0.00     0.007 A 
ATOM      4  C   UNL     1      26.636 -41.089  -3.053  1.00  0.00     0.001 A 
ATOM      5  C   UNL     1      27.363 -39.931  -3.334  1.00  0.00     0.004 A 
ATOM      6  C   UNL     1      27.609 -38.997  -2.323  1.00  0.00     0.046 A 
ATOM      7  C   UNL     1      27.128 -39.218  -1.024  1.00  0.00     0.118 A 
ENDROOT
BRANCH   7   8
ATOM      8  O   UNL     1      27.375 -38.284  -0.019  1.00  0.00    -0.508 OA
ATOM      9  H   UNL     1      26.670 -38.045   0.669  1.00  0.00     0.293 HD
ENDBRANCH   7   8
TORSDOF 1
ENDMDL
MODEL 3
REMARK VINA RESULT:    -3.852      1.885      2.779
REMARK INTER + INTRA:          -3.964
REMARK INTER:                  -3.964
REMARK INTRA:                   0.000
REMARK UNBOUND:                 0.000
REMARK SMILES Cc1ccccc1O
REMARK SMILES IDX 1 1 2 2 3 3 4 4 5 5 6 6 7 7 8 8
REMARK H PARENT 8 9
REMARK Flexibility Score: inf
ROOT
ATOM      1  C   UNL     1      26.946 -37.482  -0.777  1.00  0.00     0.048 C 
ATOM      2  C   UNL     1      26.916 -38.877  -1.337  1.00  0.00    -0.009 A 
ATOM      3  C   UNL     1      27.280 -39.112  -2.674  1.00  0.00     0.007 A 
ATOM      4  C   UNL     1      27.252 -40.409  -3.195  1.00  0.00     0.001 A 
ATOM      5  C   UNL     1      26.859 -41.479  -2.389  1.00  0.00     0.004 A 
ATOM      6  C   UNL     1      26.493 -41.256  -1.058  1.00  0.00     0.046 A 
ATOM      7  C   UNL     1      26.519 -39.957  -0.526  1.00  0.00     0.118 A 
ENDROOT
BRANCH   7   8
ATOM      8  O   UNL     1      26.155 -39.739   0.802  1.00  0.00    -0.508 OA
ATOM      9  H   UNL     1      26.382 -38.874   1.279  1.00  0.00     0.293 HD
ENDBRANCH   7   8
TORSDOF 1
ENDMDL
MODEL 4
REMARK VINA RESULT:    -3.810      2.337      3.587
REMARK INTER + INTRA:          -3.922
REMARK INTER:                  -3.922
REMARK INTRA:                   0.000
REMARK UNBOUND:                 0.000
REMARK SMILES Cc1ccccc1O
REMARK SMILES IDX 1 1 2 2 3 3 4 4 5 5 6 6 7 7 8 8
REMARK H PARENT 8 9
REMARK Flexibility Score: inf
ROOT
ATOM      1  C   UNL     1      27.375 -39.524  -2.338  1.00  0.00     0.048 C 
ATOM      2  C   UNL     1      26.891 -38.895  -1.061  1.00  0.00    -0.009 A 
ATOM      3  C   UNL     1      27.001 -37.507  -0.867  1.00  0.00     0.007 A 
ATOM      4  C   UNL     1      26.552 -36.923   0.320  1.00  0.00     0.001 A 
ATOM      5  C   UNL     1      25.990 -37.716   1.322  1.00  0.00     0.004 A 
ATOM      6  C   UNL     1      25.876 -39.097   1.140  1.00  0.00     0.046 A 
ATOM      7  C   UNL     1      26.324 -39.693  -0.048  1.00  0.00     0.118 A 
ENDROOT
BRANCH   7   8
ATOM      8  O   UNL     1      26.208 -41.071  -0.226  1.00  0.00    -0.508 OA
ATOM      9  H   UNL     1      25.530 -41.468  -0.867  1.00  0.00     0.293 HD
ENDBRANCH   7   8
TORSDOF 1
ENDMDL
MODEL 5
REMARK VINA RESULT:    -3.809      0.981      2.634
REMARK INTER + INTRA:          -3.920
REMARK INTER:                  -3.920
REMARK INTRA:                   0.000
REMARK UNBOUND:                 0.000
REMARK SMILES Cc1ccccc1O
REMARK SMILES IDX 1 1 2 2 3 3 4 4 5 5 6 6 7 7 8 8
REMARK H PARENT 8 9
REMARK Flexibility Score: inf
ROOT
ATOM      1  C   UNL     1      27.384 -40.062  -3.585  1.00  0.00     0.048 C 
ATOM      2  C   UNL     1      26.877 -40.058  -2.170  1.00  0.00    -0.009 A 
ATOM      3  C   UNL     1      26.347 -38.884  -1.609  1.00  0.00     0.007 A 
ATOM      4  C   UNL     1      25.875 -38.880  -0.294  1.00  0.00     0.001 A 
ATOM      5  C   UNL     1      25.930 -40.046   0.472  1.00  0.00     0.004 A 
ATOM      6  C   UNL     1      26.456 -41.219  -0.075  1.00  0.00     0.046 A 
ATOM      7  C   UNL     1      26.931 -41.233  -1.395  1.00  0.00     0.118 A 
ENDROOT
BRANCH   7   8
ATOM      8  O   UNL     1      27.454 -42.406  -1.937  1.00  0.00    -0.508 OA
ATOM      9  H   UNL     1      27.404 -42.600  -2.931  1.00  0.00     0.293 HD
ENDBRANCH   7   8
TORSDOF 1
ENDMDL
MODEL 6
REMARK VINA RESULT:    -3.796      2.549      3.423
REMARK INTER + INTRA:          -3.907
REMARK INTER:                  -3.907
REMARK INTRA:                   0.000
REMARK UNBOUND:                 0.000
REMARK SMILES Cc1ccccc1O
REMARK SMILES IDX 1 1 2 2 3 3 4 4 5 5 6 6 7 7 8 8
REMARK H PARENT 8 9
REMARK Flexibility Score: inf
ROOT
ATOM      1  C   UNL     1      26.707 -41.049  -0.546  1.00  0.00     0.048 C 
ATOM      2  C   UNL     1      26.600 -39.588  -0.209  1.00  0.00    -0.009 A 
ATOM      3  C   UNL     1      25.975 -39.178   0.981  1.00  0.00     0.007 A 
ATOM      4  C   UNL     1      25.875 -37.820   1.294  1.00  0.00     0.001 A 
ATOM      5  C   UNL     1      26.395 -36.861   0.423  1.00  0.00     0.004 A 
ATOM      6  C   UNL     1      27.017 -37.256  -0.764  1.00  0.00     0.046 A 
ATOM      7  C   UNL     1      27.123 -38.618  -1.086  1.00  0.00     0.118 A 
ENDROOT
BRANCH   7   8
ATOM      8  O   UNL     1      27.745 -39.009  -2.271  1.00  0.00    -0.508 OA
ATOM      9  H   UNL     1      27.538 -39.898  -2.711  1.00  0.00     0.293 HD
ENDBRANCH   7   8
TORSDOF 1
ENDMDL
MODEL 7
REMARK VINA RESULT:    -3.780     13.210     14.321
REMARK INTER + INTRA:          -3.891
REMARK INTER:                  -3.891
REMARK INTRA:                   0.000
REMARK UNBOUND:                 0.000
REMARK SMILES Cc1ccccc1O
REMARK SMILES IDX 1 1 2 2 3 3 4 4 5 5 6 6 7 7 8 8
REMARK H PARENT 8 9
REMARK Flexibility Score: inf
ROOT
ATOM      1  C   UNL     1      26.893 -37.497  12.006  1.00  0.00     0.048 C 
ATOM      2  C   UNL     1      28.069 -36.573  11.853  1.00  0.00    -0.009 A 
ATOM      3  C   UNL     1      28.673 -36.001  12.985  1.00  0.00     0.007 A 
ATOM      4  C   UNL     1      29.766 -35.142  12.843  1.00  0.00     0.001 A 
ATOM      5  C   UNL     1      30.264 -34.846  11.573  1.00  0.00     0.004 A 
ATOM      6  C   UNL     1      29.670 -35.410  10.440  1.00  0.00     0.046 A 
ATOM      7  C   UNL     1      28.573 -36.273  10.573  1.00  0.00     0.118 A 
ENDROOT
BRANCH   7   8
ATOM      8  O   UNL     1      27.984 -36.834   9.440  1.00  0.00    -0.508 OA
ATOM      9  H   UNL     1      28.384 -36.710   8.517  1.00  0.00     0.293 HD
ENDBRANCH   7   8
TORSDOF 1
ENDMDL
MODEL 8
REMARK VINA RESULT:    -3.765      1.413      2.256
REMARK INTER + INTRA:          -3.875
REMARK INTER:                  -3.875
REMARK INTRA:                   0.000
REMARK UNBOUND:                 0.000
REMARK SMILES Cc1ccccc1O
REMARK SMILES IDX 1 1 2 2 3 3 4 4 5 5 6 6 7 7 8 8
REMARK H PARENT 8 9
REMARK Flexibility Score: inf
ROOT
ATOM      1  C   UNL     1      27.769 -42.601  -0.751  1.00  0.00     0.048 C 
ATOM      2  C   UNL     1      27.178 -41.462  -1.533  1.00  0.00    -0.009 A 
ATOM      3  C   UNL     1      27.375 -41.378  -2.922  1.00  0.00     0.007 A 
ATOM      4  C   UNL     1      26.825 -40.319  -3.650  1.00  0.00     0.001 A 
ATOM      5  C   UNL     1      26.077 -39.336  -2.999  1.00  0.00     0.004 A 
ATOM      6  C   UNL     1      25.875 -39.409  -1.618  1.00  0.00     0.046 A 
ATOM      7  C   UNL     1      26.423 -40.469  -0.879  1.00  0.00     0.118 A 
ENDROOT
BRANCH   7   8
ATOM      8  O   UNL     1      26.218 -40.539   0.498  1.00  0.00    -0.508 OA
ATOM      9  H   UNL     1      25.514 -39.974   0.960  1.00  0.00     0.293 HD
ENDBRANCH   7   8
TORSDOF 1
ENDMDL
MODEL 9
REMARK VINA RESULT:    -3.719      2.085      2.933
REMARK INTER + INTRA:          -3.828
REMARK INTER:                  -3.828
REMARK INTRA:                   0.000
REMARK UNBOUND:                 0.000
REMARK SMILES Cc1ccccc1O
REMARK SMILES IDX 1 1 2 2 3 3 4 4 5 5 6 6 7 7 8 8
REMARK H PARENT 8 9
REMARK Flexibility Score: inf
ROOT
ATOM      1  C   UNL     1      26.220 -38.159   0.399  1.00  0.00     0.048 C 
ATOM      2  C   UNL     1      26.538 -39.555  -0.059  1.00  0.00    -0.009 A 
ATOM      3  C   UNL     1      25.944 -40.662   0.572  1.00  0.00     0.007 A 
ATOM      4  C   UNL     1      26.240 -41.959   0.147  1.00  0.00     0.001 A 
ATOM      5  C   UNL     1      27.129 -42.164  -0.909  1.00  0.00     0.004 A 
ATOM      6  C   UNL     1      27.726 -41.072  -1.545  1.00  0.00     0.046 A 
ATOM      7  C   UNL     1      27.435 -39.765  -1.124  1.00  0.00     0.118 A 
ENDROOT
BRANCH   7   8
ATOM      8  O   UNL     1      28.031 -38.677  -1.761  1.00  0.00    -0.508 OA
ATOM      9  H   UNL     1      27.501 -37.849  -2.007  1.00  0.00     0.293 HD
ENDBRANCH   7   8
TORSDOF 1
ENDMDL
