MODEL 1
REMARK VINA RESULT:    -5.059      0.000      0.000
REMARK INTER + INTRA:          -5.452
REMARK INTER:                  -5.354
REMARK INTRA:                  -0.098
REMARK UNBOUND:                -0.098
REMARK SMILES C=C(C)[C@H]1CC=C(C)C(=O)C1
REMARK SMILES IDX 8 1 7 2 6 3 5 4 4 5 11 6 9 7 10 8 2 9 1 10 3 11
REMARK H PARENT
REMARK Flexibility Score: inf
ROOT
ATOM      1  C   UNL     1      17.628 -17.137 -18.647  1.00  0.00     0.048 C 
ATOM      2  C   UNL     1      16.190 -17.479 -18.923  1.00  0.00    -0.012 C 
ATOM      3  C   UNL     1      15.381 -17.861 -17.920  1.00  0.00    -0.019 C 
ATOM      4  C   UNL     1      13.958 -18.290 -18.159  1.00  0.00     0.036 C 
ATOM      5  C   UNL     1      13.356 -17.567 -19.379  1.00  0.00     0.025 C 
ATOM      6  C   UNL     1      14.245 -17.776 -20.618  1.00  0.00     0.089 C 
ATOM      7  C   UNL     1      15.674 -17.419 -20.314  1.00  0.00     0.158 C 
ATOM      8  O   UNL     1      16.444 -17.109 -21.262  1.00  0.00    -0.295 OA
ENDROOT
BRANCH   5   9
ATOM      9  C   UNL     1      11.923 -18.012 -19.640  1.00  0.00    -0.077 C 
ATOM     10  C   UNL     1      11.659 -18.891 -20.619  1.00  0.00     0.008 C 
ATOM     11  C   UNL     1      10.774 -17.489 -18.814  1.00  0.00     0.039 C 
ENDBRANCH   5   9
TORSDOF 1
ENDMDL
MODEL 2
REMARK VINA RESULT:    -4.920      1.523      2.478
REMARK INTER + INTRA:          -5.306
REMARK INTER:                  -5.207
REMARK INTRA:                  -0.099
REMARK UNBOUND:                -0.098
REMARK SMILES C=C(C)[C@H]1CC=C(C)C(=O)C1
REMARK SMILES IDX 8 1 7 2 6 3 5 4 4 5 11 6 9 7 10 8 2 9 1 10 3 11
REMARK H PARENT
REMARK Flexibility Score: inf
ROOT
ATOM      1  C   UNL     1      16.750 -17.694 -20.767  1.00  0.00     0.048 C 
ATOM      2  C   UNL     1      15.267 -17.642 -20.524  1.00  0.00    -0.012 C 
ATOM      3  C   UNL     1      14.413 -17.606 -21.562  1.00  0.00    -0.019 C 
ATOM      4  C   UNL     1      12.925 -17.471 -21.369  1.00  0.00     0.036 C 
ATOM      5  C   UNL     1      12.475 -18.117 -20.044  1.00  0.00     0.025 C 
ATOM      6  C   UNL     1      13.272 -17.530 -18.865  1.00  0.00     0.089 C 
ATOM      7  C   UNL     1      14.750 -17.604 -19.133  1.00  0.00     0.158 C 
ATOM      8  O   UNL     1      15.552 -17.588 -18.160  1.00  0.00    -0.295 OA
ENDROOT
BRANCH   5   9
ATOM      9  C   UNL     1      10.975 -17.966 -19.833  1.00  0.00    -0.077 C 
ATOM     10  C   UNL     1      10.500 -17.562 -18.645  1.00  0.00     0.008 C 
ATOM     11  C   UNL     1       9.992 -18.259 -20.939  1.00  0.00     0.039 C 
ENDBRANCH   5   9
TORSDOF 1
ENDMDL
MODEL 3
REMARK VINA RESULT:    -4.876      7.573      8.125
REMARK INTER + INTRA:          -5.259
REMARK INTER:                  -5.162
REMARK INTRA:                  -0.098
REMARK UNBOUND:                -0.098
REMARK SMILES C=C(C)[C@H]1CC=C(C)C(=O)C1
REMARK SMILES IDX 8 1 7 2 6 3 5 4 4 5 11 6 9 7 10 8 2 9 1 10 3 11
REMARK H PARENT
REMARK Flexibility Score: inf
ROOT
ATOM      1  C   UNL     1      19.939 -26.023 -23.826  1.00  0.00     0.048 C 
ATOM      2  C   UNL     1      18.722 -25.145 -23.723  1.00  0.00    -0.012 C 
ATOM      3  C   UNL     1      17.762 -25.421 -22.824  1.00  0.00    -0.019 C 
ATOM      4  C   UNL     1      16.491 -24.619 -22.739  1.00  0.00     0.036 C 
ATOM      5  C   UNL     1      16.726 -23.157 -23.165  1.00  0.00     0.025 C 
ATOM      6  C   UNL     1      17.357 -23.103 -24.568  1.00  0.00     0.089 C 
ATOM      7  C   UNL     1      18.574 -23.984 -24.637  1.00  0.00     0.158 C 
ATOM      8  O   UNL     1      19.450 -23.753 -25.513  1.00  0.00    -0.295 OA
ENDROOT
BRANCH   5   9
ATOM      9  C   UNL     1      15.439 -22.345 -23.102  1.00  0.00    -0.077 C 
ATOM     10  C   UNL     1      14.702 -22.165 -24.209  1.00  0.00     0.008 C 
ATOM     11  C   UNL     1      14.959 -21.731 -21.810  1.00  0.00     0.039 C 
ENDBRANCH   5   9
TORSDOF 1
ENDMDL
MODEL 4
REMARK VINA RESULT:    -4.834      2.231      4.587
REMARK INTER + INTRA:          -5.214
REMARK INTER:                  -5.119
REMARK INTRA:                  -0.095
REMARK UNBOUND:                -0.098
REMARK SMILES C=C(C)[C@H]1CC=C(C)C(=O)C1
REMARK SMILES IDX 8 1 7 2 6 3 5 4 4 5 11 6 9 7 10 8 2 9 1 10 3 11
REMARK H PARENT
REMARK Flexibility Score: inf
ROOT
ATOM      1  C   UNL     1      11.079 -17.592 -22.768  1.00  0.00     0.048 C 
ATOM      2  C   UNL     1      12.101 -17.778 -21.681  1.00  0.00    -0.012 C 
ATOM      3  C   UNL     1      13.409 -17.613 -21.946  1.00  0.00    -0.019 C 
ATOM      4  C   UNL     1      14.473 -17.867 -20.911  1.00  0.00     0.036 C 
ATOM      5  C   UNL     1      13.949 -17.575 -19.491  1.00  0.00     0.025 C 
ATOM      6  C   UNL     1      12.665 -18.380 -19.218  1.00  0.00     0.089 C 
ATOM      7  C   UNL     1      11.661 -18.169 -20.317  1.00  0.00     0.158 C 
ATOM      8  O   UNL     1      10.440 -18.371 -20.081  1.00  0.00    -0.295 OA
ENDROOT
BRANCH   5   9
ATOM      9  C   UNL     1      15.013 -17.850 -18.438  1.00  0.00    -0.077 C 
ATOM     10  C   UNL     1      16.264 -17.394 -18.610  1.00  0.00     0.008 C 
ATOM     11  C   UNL     1      14.698 -18.629 -17.185  1.00  0.00     0.039 C 
ENDBRANCH   5   9
TORSDOF 1
ENDMDL
MODEL 5
REMARK VINA RESULT:    -4.775      2.098      4.688
REMARK INTER + INTRA:          -5.152
REMARK INTER:                  -5.054
REMARK INTRA:                  -0.098
REMARK UNBOUND:                -0.098
REMARK SMILES C=C(C)[C@H]1CC=C(C)C(=O)C1
REMARK SMILES IDX 8 1 7 2 6 3 5 4 4 5 11 6 9 7 10 8 2 9 1 10 3 11
REMARK H PARENT
REMARK Flexibility Score: inf
ROOT
ATOM      1  C   UNL     1       9.071 -18.385 -21.135  1.00  0.00     0.048 C 
ATOM      2  C   UNL     1      10.488 -18.089 -20.727  1.00  0.00    -0.012 C 
ATOM      3  C   UNL     1      10.804 -17.961 -19.427  1.00  0.00    -0.019 C 
ATOM      4  C   UNL     1      12.191 -17.585 -18.975  1.00  0.00     0.036 C 
ATOM      5  C   UNL     1      13.256 -18.099 -19.963  1.00  0.00     0.025 C 
ATOM      6  C   UNL     1      12.951 -17.598 -21.387  1.00  0.00     0.089 C 
ATOM      7  C   UNL     1      11.532 -17.914 -21.769  1.00  0.00     0.158 C 
ATOM      8  O   UNL     1      11.225 -17.986 -22.989  1.00  0.00    -0.295 OA
ENDROOT
BRANCH   5   9
ATOM      9  C   UNL     1      14.659 -17.705 -19.523  1.00  0.00    -0.077 C 
ATOM     10  C   UNL     1      15.621 -17.506 -20.438  1.00  0.00     0.008 C 
ATOM     11  C   UNL     1      15.005 -17.525 -18.066  1.00  0.00     0.039 C 
ENDBRANCH   5   9
TORSDOF 1
ENDMDL
MODEL 6
REMARK VINA RESULT:    -4.707      1.703      4.448
REMARK INTER + INTRA:          -5.080
REMARK INTER:                  -4.983
REMARK INTRA:                  -0.097
REMARK UNBOUND:                -0.098
REMARK SMILES C=C(C)[C@H]1CC=C(C)C(=O)C1
REMARK SMILES IDX 8 1 7 2 6 3 5 4 4 5 11 6 9 7 10 8 2 9 1 10 3 11
REMARK H PARENT
REMARK Flexibility Score: inf
ROOT
ATOM      1  C   UNL     1      10.713 -18.372 -20.142  1.00  0.00     0.048 C 
ATOM      2  C   UNL     1      12.179 -18.034 -20.140  1.00  0.00    -0.012 C 
ATOM      3  C   UNL     1      12.828 -17.849 -18.978  1.00  0.00    -0.019 C 
ATOM      4  C   UNL     1      14.274 -17.431 -18.927  1.00  0.00     0.036 C 
ATOM      5  C   UNL     1      15.050 -17.963 -20.148  1.00  0.00     0.025 C 
ATOM      6  C   UNL     1      14.361 -17.524 -21.453  1.00  0.00     0.089 C 
ATOM      7  C   UNL     1      12.900 -17.881 -21.429  1.00  0.00     0.158 C 
ATOM      8  O   UNL     1      12.280 -18.007 -22.519  1.00  0.00    -0.295 OA
ENDROOT
BRANCH   5   9
ATOM      9  C   UNL     1      16.508 -17.526 -20.115  1.00  0.00    -0.077 C 
ATOM     10  C   UNL     1      17.116 -17.301 -18.939  1.00  0.00     0.008 C 
ATOM     11  C   UNL     1      17.303 -17.339 -21.383  1.00  0.00     0.039 C 
ENDBRANCH   5   9
TORSDOF 1
ENDMDL
MODEL 7
REMARK VINA RESULT:    -4.637      7.882      8.618
REMARK INTER + INTRA:          -5.006
REMARK INTER:                  -4.908
REMARK INTRA:                  -0.099
REMARK UNBOUND:                -0.098
REMARK SMILES C=C(C)[C@H]1CC=C(C)C(=O)C1
REMARK SMILES IDX 8 1 7 2 6 3 5 4 4 5 11 6 9 7 10 8 2 9 1 10 3 11
REMARK H PARENT
REMARK Flexibility Score: inf
ROOT
ATOM      1  C   UNL     1      20.356 -25.991 -24.247  1.00  0.00     0.048 C 
ATOM      2  C   UNL     1      19.191 -25.076 -23.986  1.00  0.00    -0.012 C 
ATOM      3  C   UNL     1      18.773 -24.225 -24.939  1.00  0.00    -0.019 C 
ATOM      4  C   UNL     1      17.665 -23.235 -24.697  1.00  0.00     0.036 C 
ATOM      5  C   UNL     1      16.650 -23.776 -23.671  1.00  0.00     0.025 C 
ATOM      6  C   UNL     1      17.366 -24.180 -22.370  1.00  0.00     0.089 C 
ATOM      7  C   UNL     1      18.520 -25.099 -22.662  1.00  0.00     0.158 C 
ATOM      8  O   UNL     1      18.943 -25.862 -21.752  1.00  0.00    -0.295 OA
ENDROOT
BRANCH   5   9
ATOM      9  C   UNL     1      15.537 -22.771 -23.406  1.00  0.00    -0.077 C 
ATOM     10  C   UNL     1      15.275 -22.373 -22.151  1.00  0.00     0.008 C 
ATOM     11  C   UNL     1      14.710 -22.198 -24.530  1.00  0.00     0.039 C 
ENDBRANCH   5   9
TORSDOF 1
ENDMDL
MODEL 8
REMARK VINA RESULT:    -4.575      7.823      9.086
REMARK INTER + INTRA:          -4.940
REMARK INTER:                  -4.842
REMARK INTRA:                  -0.098
REMARK UNBOUND:                -0.098
REMARK SMILES C=C(C)[C@H]1CC=C(C)C(=O)C1
REMARK SMILES IDX 8 1 7 2 6 3 5 4 4 5 11 6 9 7 10 8 2 9 1 10 3 11
REMARK H PARENT
REMARK Flexibility Score: inf
ROOT
ATOM      1  C   UNL     1      14.705 -21.942 -24.483  1.00  0.00     0.048 C 
ATOM      2  C   UNL     1      15.875 -22.783 -24.053  1.00  0.00    -0.012 C 
ATOM      3  C   UNL     1      15.775 -23.581 -22.975  1.00  0.00    -0.019 C 
ATOM      4  C   UNL     1      16.944 -24.379 -22.459  1.00  0.00     0.036 C 
ATOM      5  C   UNL     1      17.896 -24.774 -23.605  1.00  0.00     0.025 C 
ATOM      6  C   UNL     1      18.342 -23.525 -24.386  1.00  0.00     0.089 C 
ATOM      7  C   UNL     1      17.152 -22.709 -24.808  1.00  0.00     0.158 C 
ATOM      8  O   UNL     1      17.261 -21.925 -25.789  1.00  0.00    -0.295 OA
ENDROOT
BRANCH   5   9
ATOM      9  C   UNL     1      19.091 -25.564 -23.087  1.00  0.00    -0.077 C 
ATOM     10  C   UNL     1      19.237 -25.778 -21.770  1.00  0.00     0.008 C 
ATOM     11  C   UNL     1      20.130 -26.124 -24.027  1.00  0.00     0.039 C 
ENDBRANCH   5   9
TORSDOF 1
ENDMDL
MODEL 9
REMARK VINA RESULT:    -4.498      2.792      3.829
REMARK INTER + INTRA:          -4.859
REMARK INTER:                  -4.761
REMARK INTRA:                  -0.098
REMARK UNBOUND:                -0.098
REMARK SMILES C=C(C)[C@H]1CC=C(C)C(=O)C1
REMARK SMILES IDX 8 1 7 2 6 3 5 4 4 5 11 6 9 7 10 8 2 9 1 10 3 11
REMARK H PARENT
REMARK Flexibility Score: inf
ROOT
ATOM      1  C   UNL     1      15.762 -22.414 -22.658  1.00  0.00     0.048 C 
ATOM      2  C   UNL     1      15.309 -21.233 -21.844  1.00  0.00    -0.012 C 
ATOM      3  C   UNL     1      14.057 -21.187 -21.357  1.00  0.00    -0.019 C 
ATOM      4  C   UNL     1      13.533 -19.991 -20.607  1.00  0.00     0.036 C 
ATOM      5  C   UNL     1      14.665 -19.273 -19.846  1.00  0.00     0.025 C 
ATOM      6  C   UNL     1      15.807 -18.903 -20.809  1.00  0.00     0.089 C 
ATOM      7  C   UNL     1      16.243 -20.104 -21.602  1.00  0.00     0.158 C 
ATOM      8  O   UNL     1      17.401 -20.124 -22.100  1.00  0.00    -0.295 OA
ENDROOT
BRANCH   5   9
ATOM      9  C   UNL     1      14.146 -18.050 -19.102  1.00  0.00    -0.077 C 
ATOM     10  C   UNL     1      12.945 -17.534 -19.409  1.00  0.00     0.008 C 
ATOM     11  C   UNL     1      14.953 -17.393 -18.010  1.00  0.00     0.039 C 
ENDBRANCH   5   9
TORSDOF 1
ENDMDL
