MODEL 1
REMARK VINA RESULT:    -4.783      0.000      0.000
REMARK INTER + INTRA:          -4.922
REMARK INTER:                  -4.922
REMARK INTRA:                   0.000
REMARK UNBOUND:                 0.000
REMARK SMILES Nc1ncnc2nc[nH]c12
REMARK SMILES IDX 8 1 7 2 6 3 5 4 4 5 3 6 2 7 10 8 9 9 1 11
REMARK H PARENT 9 10 1 12 1 13
REMARK Flexibility Score: inf
ROOT
ATOM      1  C   UNL     1     -25.875  -6.410  -4.873  1.00  0.00     0.199 A 
ATOM      2  N   UNL     1     -26.942  -7.124  -5.326  1.00  0.00    -0.217 NA
ATOM      3  C   UNL     1     -27.939  -6.228  -5.250  1.00  0.00     0.182 A 
ATOM      4  N   UNL     1     -29.235  -6.430  -5.587  1.00  0.00    -0.215 NA
ATOM      5  C   UNL     1     -30.111  -5.390  -5.440  1.00  0.00     0.226 A 
ATOM      6  N   UNL     1     -29.678  -4.179  -4.961  1.00  0.00    -0.217 NA
ATOM      7  C   UNL     1     -28.372  -3.973  -4.620  1.00  0.00     0.152 A 
ATOM      8  C   UNL     1     -27.493  -5.041  -4.776  1.00  0.00     0.127 A 
ATOM      9  N   UNL     1     -26.180  -5.133  -4.529  1.00  0.00    -0.340 N 
ATOM     10  H   UNL     1     -25.533  -4.402  -4.159  1.00  0.00     0.168 HD
ENDROOT
BRANCH   7  11
ATOM     11  N   UNL     1     -27.945  -2.704  -4.124  1.00  0.00    -0.382 N 
ATOM     12  H   UNL     1     -28.327  -2.309  -3.238  1.00  0.00     0.158 HD
ATOM     13  H   UNL     1     -27.233  -2.149  -4.651  1.00  0.00     0.158 HD
ENDBRANCH   7  11
TORSDOF 1
ENDMDL
MODEL 2
REMARK VINA RESULT:    -4.605     15.485     16.749
REMARK INTER + INTRA:          -4.739
REMARK INTER:                  -4.739
REMARK INTRA:                   0.000
REMARK UNBOUND:                 0.000
REMARK SMILES Nc1ncnc2nc[nH]c12
REMARK SMILES IDX 8 1 7 2 6 3 5 4 4 5 3 6 2 7 10 8 9 9 1 11
REMARK H PARENT 9 10 1 12 1 13
REMARK Flexibility Score: inf
ROOT
ATOM      1  C   UNL     1     -25.030   6.714 -12.983  1.00  0.00     0.199 A 
ATOM      2  N   UNL     1     -24.531   7.086 -14.194  1.00  0.00    -0.217 NA
ATOM      3  C   UNL     1     -23.656   8.049 -13.859  1.00  0.00     0.182 A 
ATOM      4  N   UNL     1     -22.878   8.763 -14.706  1.00  0.00    -0.215 NA
ATOM      5  C   UNL     1     -22.043   9.707 -14.175  1.00  0.00     0.226 A 
ATOM      6  N   UNL     1     -22.005   9.919 -12.820  1.00  0.00    -0.217 NA
ATOM      7  C   UNL     1     -22.790   9.200 -11.964  1.00  0.00     0.152 A 
ATOM      8  C   UNL     1     -23.634   8.242 -12.520  1.00  0.00     0.127 A 
ATOM      9  N   UNL     1     -24.500   7.403 -11.941  1.00  0.00    -0.340 N 
ATOM     10  H   UNL     1     -24.726   7.294 -10.927  1.00  0.00     0.168 HD
ENDROOT
BRANCH   7  11
ATOM     11  N   UNL     1     -22.733   9.438 -10.557  1.00  0.00    -0.382 N 
ATOM     12  H   UNL     1     -23.542   9.220  -9.935  1.00  0.00     0.158 HD
ATOM     13  H   UNL     1     -21.868   9.837 -10.129  1.00  0.00     0.158 HD
ENDBRANCH   7  11
TORSDOF 1
ENDMDL
MODEL 3
REMARK VINA RESULT:    -4.522     15.257     15.951
REMARK INTER + INTRA:          -4.654
REMARK INTER:                  -4.654
REMARK INTRA:                   0.000
REMARK UNBOUND:                 0.000
REMARK SMILES Nc1ncnc2nc[nH]c12
REMARK SMILES IDX 8 1 7 2 6 3 5 4 4 5 3 6 2 7 10 8 9 9 1 11
REMARK H PARENT 9 10 1 12 1 13
REMARK Flexibility Score: inf
ROOT
ATOM      1  C   UNL     1     -28.730  -3.161 -21.897  1.00  0.00     0.199 A 
ATOM      2  N   UNL     1     -28.331  -2.653 -20.698  1.00  0.00    -0.217 NA
ATOM      3  C   UNL     1     -27.698  -3.699 -20.142  1.00  0.00     0.182 A 
ATOM      4  N   UNL     1     -27.103  -3.730 -18.926  1.00  0.00    -0.215 NA
ATOM      5  C   UNL     1     -26.505  -4.894 -18.529  1.00  0.00     0.226 A 
ATOM      6  N   UNL     1     -26.514  -5.995 -19.347  1.00  0.00    -0.217 NA
ATOM      7  C   UNL     1     -27.114  -5.966 -20.574  1.00  0.00     0.152 A 
ATOM      8  C   UNL     1     -27.718  -4.774 -20.964  1.00  0.00     0.127 A 
ATOM      9  N   UNL     1     -28.370  -4.455 -22.089  1.00  0.00    -0.340 N 
ATOM     10  H   UNL     1     -28.563  -5.052 -22.923  1.00  0.00     0.168 HD
ENDROOT
BRANCH   7  11
ATOM     11  N   UNL     1     -27.111  -7.125 -21.408  1.00  0.00    -0.382 N 
ATOM     12  H   UNL     1     -27.451  -8.048 -21.060  1.00  0.00     0.158 HD
ATOM     13  H   UNL     1     -26.763  -7.060 -22.391  1.00  0.00     0.158 HD
ENDBRANCH   7  11
TORSDOF 1
ENDMDL
MODEL 4
REMARK VINA RESULT:    -4.486      1.735      2.832
REMARK INTER + INTRA:          -4.617
REMARK INTER:                  -4.617
REMARK INTRA:                   0.000
REMARK UNBOUND:                 0.000
REMARK SMILES Nc1ncnc2nc[nH]c12
REMARK SMILES IDX 8 1 7 2 6 3 5 4 4 5 3 6 2 7 10 8 9 9 1 11
REMARK H PARENT 9 10 1 12 1 13
REMARK Flexibility Score: inf
ROOT
ATOM      1  C   UNL     1     -27.768  -3.256  -4.869  1.00  0.00     0.199 A 
ATOM      2  N   UNL     1     -28.863  -3.405  -5.665  1.00  0.00    -0.217 NA
ATOM      3  C   UNL     1     -29.287  -4.637  -5.337  1.00  0.00     0.182 A 
ATOM      4  N   UNL     1     -30.361  -5.284  -5.848  1.00  0.00    -0.215 NA
ATOM      5  C   UNL     1     -30.637  -6.542  -5.388  1.00  0.00     0.226 A 
ATOM      6  N   UNL     1     -29.839  -7.124  -4.436  1.00  0.00    -0.217 NA
ATOM      7  C   UNL     1     -28.755  -6.474  -3.919  1.00  0.00     0.152 A 
ATOM      8  C   UNL     1     -28.488  -5.194  -4.397  1.00  0.00     0.127 A 
ATOM      9  N   UNL     1     -27.513  -4.332  -4.083  1.00  0.00    -0.340 N 
ATOM     10  H   UNL     1     -26.734  -4.449  -3.398  1.00  0.00     0.168 HD
ENDROOT
BRANCH   7  11
ATOM     11  N   UNL     1     -27.939  -7.100  -2.928  1.00  0.00    -0.382 N 
ATOM     12  H   UNL     1     -27.015  -6.701  -2.652  1.00  0.00     0.158 HD
ATOM     13  H   UNL     1     -28.264  -7.976  -2.462  1.00  0.00     0.158 HD
ENDBRANCH   7  11
TORSDOF 1
ENDMDL
MODEL 5
REMARK VINA RESULT:    -4.479     14.883     15.630
REMARK INTER + INTRA:          -4.610
REMARK INTER:                  -4.610
REMARK INTRA:                   0.000
REMARK UNBOUND:                 0.000
REMARK SMILES Nc1ncnc2nc[nH]c12
REMARK SMILES IDX 8 1 7 2 6 3 5 4 4 5 3 6 2 7 10 8 9 9 1 11
REMARK H PARENT 9 10 1 12 1 13
REMARK Flexibility Score: inf
ROOT
ATOM      1  C   UNL     1     -30.358  -4.590 -19.497  1.00  0.00     0.199 A 
ATOM      2  N   UNL     1     -29.811  -3.527 -20.148  1.00  0.00    -0.217 NA
ATOM      3  C   UNL     1     -28.555  -3.945 -20.372  1.00  0.00     0.182 A 
ATOM      4  N   UNL     1     -27.573  -3.254 -20.998  1.00  0.00    -0.215 NA
ATOM      5  C   UNL     1     -26.349  -3.850 -21.133  1.00  0.00     0.226 A 
ATOM      6  N   UNL     1     -26.132  -5.112 -20.643  1.00  0.00    -0.217 NA
ATOM      7  C   UNL     1     -27.121  -5.811 -20.010  1.00  0.00     0.152 A 
ATOM      8  C   UNL     1     -28.361  -5.191 -19.881  1.00  0.00     0.127 A 
ATOM      9  N   UNL     1     -29.497  -5.623 -19.319  1.00  0.00    -0.340 N 
ATOM     10  H   UNL     1     -29.687  -6.537 -18.851  1.00  0.00     0.168 HD
ENDROOT
BRANCH   7  11
ATOM     11  N   UNL     1     -26.872  -7.124 -19.508  1.00  0.00    -0.382 N 
ATOM     12  H   UNL     1     -25.935  -7.574 -19.602  1.00  0.00     0.158 HD
ATOM     13  H   UNL     1     -27.636  -7.656 -19.034  1.00  0.00     0.158 HD
ENDBRANCH   7  11
TORSDOF 1
ENDMDL
MODEL 6
REMARK VINA RESULT:    -4.458     14.267     14.689
REMARK INTER + INTRA:          -4.589
REMARK INTER:                  -4.589
REMARK INTRA:                   0.000
REMARK UNBOUND:                 0.000
REMARK SMILES Nc1ncnc2nc[nH]c12
REMARK SMILES IDX 8 1 7 2 6 3 5 4 4 5 3 6 2 7 10 8 9 9 1 11
REMARK H PARENT 9 10 1 12 1 13
REMARK Flexibility Score: inf
ROOT
ATOM      1  C   UNL     1     -26.055  -4.445 -17.692  1.00  0.00     0.199 A 
ATOM      2  N   UNL     1     -25.701  -5.590 -18.338  1.00  0.00    -0.217 NA
ATOM      3  C   UNL     1     -26.669  -5.708 -19.261  1.00  0.00     0.182 A 
ATOM      4  N   UNL     1     -26.792  -6.694 -20.181  1.00  0.00    -0.215 NA
ATOM      5  C   UNL     1     -27.853  -6.644 -21.043  1.00  0.00     0.226 A 
ATOM      6  N   UNL     1     -28.762  -5.620 -20.969  1.00  0.00    -0.217 NA
ATOM      7  C   UNL     1     -28.639  -4.624 -20.042  1.00  0.00     0.152 A 
ATOM      8  C   UNL     1     -27.555  -4.689 -19.172  1.00  0.00     0.127 A 
ATOM      9  N   UNL     1     -27.184  -3.871 -18.179  1.00  0.00    -0.340 N 
ATOM     10  H   UNL     1     -27.646  -2.995 -17.848  1.00  0.00     0.168 HD
ENDROOT
BRANCH   7  11
ATOM     11  N   UNL     1     -29.598  -3.567 -19.984  1.00  0.00    -0.382 N 
ATOM     12  H   UNL     1     -30.543  -3.711 -19.565  1.00  0.00     0.158 HD
ATOM     13  H   UNL     1     -29.360  -2.624 -20.365  1.00  0.00     0.158 HD
ENDBRANCH   7  11
TORSDOF 1
ENDMDL
MODEL 7
REMARK VINA RESULT:    -4.457     15.319     16.501
REMARK INTER + INTRA:          -4.587
REMARK INTER:                  -4.587
REMARK INTRA:                   0.000
REMARK UNBOUND:                 0.000
REMARK SMILES Nc1ncnc2nc[nH]c12
REMARK SMILES IDX 8 1 7 2 6 3 5 4 4 5 3 6 2 7 10 8 9 9 1 11
REMARK H PARENT 9 10 1 12 1 13
REMARK Flexibility Score: inf
ROOT
ATOM      1  C   UNL     1     -24.518   7.123 -12.046  1.00  0.00     0.199 A 
ATOM      2  N   UNL     1     -23.557   7.896 -12.623  1.00  0.00    -0.217 NA
ATOM      3  C   UNL     1     -23.957   7.939 -13.905  1.00  0.00     0.182 A 
ATOM      4  N   UNL     1     -23.342   8.587 -14.922  1.00  0.00    -0.215 NA
ATOM      5  C   UNL     1     -23.902   8.516 -16.167  1.00  0.00     0.226 A 
ATOM      6  N   UNL     1     -25.056   7.802 -16.370  1.00  0.00    -0.217 NA
ATOM      7  C   UNL     1     -25.678   7.146 -15.346  1.00  0.00     0.152 A 
ATOM      8  C   UNL     1     -25.096   7.230 -14.084  1.00  0.00     0.127 A 
ATOM      9  N   UNL     1     -25.473   6.701 -12.914  1.00  0.00    -0.340 N 
ATOM     10  H   UNL     1     -26.302   6.102 -12.705  1.00  0.00     0.168 HD
ENDROOT
BRANCH   7  11
ATOM     11  N   UNL     1     -26.879   6.410 -15.582  1.00  0.00    -0.382 N 
ATOM     12  H   UNL     1     -27.328   6.387 -16.523  1.00  0.00     0.158 HD
ATOM     13  H   UNL     1     -27.326   5.877 -14.802  1.00  0.00     0.158 HD
ENDBRANCH   7  11
TORSDOF 1
ENDMDL
MODEL 8
REMARK VINA RESULT:    -4.454     14.555     15.081
REMARK INTER + INTRA:          -4.584
REMARK INTER:                  -4.584
REMARK INTRA:                   0.000
REMARK UNBOUND:                 0.000
REMARK SMILES Nc1ncnc2nc[nH]c12
REMARK SMILES IDX 8 1 7 2 6 3 5 4 4 5 3 6 2 7 10 8 9 9 1 11
REMARK H PARENT 9 10 1 12 1 13
REMARK Flexibility Score: inf
ROOT
ATOM      1  C   UNL     1     -25.939  -4.761 -18.087  1.00  0.00     0.199 A 
ATOM      2  N   UNL     1     -26.899  -3.796 -18.125  1.00  0.00    -0.217 NA
ATOM      3  C   UNL     1     -27.664  -4.196 -19.154  1.00  0.00     0.182 A 
ATOM      4  N   UNL     1     -28.773  -3.577 -19.623  1.00  0.00    -0.215 NA
ATOM      5  C   UNL     1     -29.424  -4.138 -20.687  1.00  0.00     0.226 A 
ATOM      6  N   UNL     1     -28.957  -5.295 -21.257  1.00  0.00    -0.217 NA
ATOM      7  C   UNL     1     -27.838  -5.921 -20.785  1.00  0.00     0.152 A 
ATOM      8  C   UNL     1     -27.187  -5.338 -19.701  1.00  0.00     0.127 A 
ATOM      9  N   UNL     1     -26.088  -5.717 -19.038  1.00  0.00    -0.340 N 
ATOM     10  H   UNL     1     -25.481  -6.550 -19.204  1.00  0.00     0.168 HD
ENDROOT
BRANCH   7  11
ATOM     11  N   UNL     1     -27.371  -7.125 -21.394  1.00  0.00    -0.382 N 
ATOM     12  H   UNL     1     -27.360  -8.030 -20.874  1.00  0.00     0.158 HD
ATOM     13  H   UNL     1     -27.031  -7.113 -22.382  1.00  0.00     0.158 HD
ENDBRANCH   7  11
TORSDOF 1
ENDMDL
MODEL 9
REMARK VINA RESULT:    -4.336     15.151     15.668
REMARK INTER + INTRA:          -4.462
REMARK INTER:                  -4.462
REMARK INTRA:                   0.000
REMARK UNBOUND:                 0.000
REMARK SMILES Nc1ncnc2nc[nH]c12
REMARK SMILES IDX 8 1 7 2 6 3 5 4 4 5 3 6 2 7 10 8 9 9 1 11
REMARK H PARENT 9 10 1 12 1 13
REMARK Flexibility Score: inf
ROOT
ATOM      1  C   UNL     1     -26.093  -3.328 -21.388  1.00  0.00     0.199 A 
ATOM      2  N   UNL     1     -27.357  -2.828 -21.320  1.00  0.00    -0.217 NA
ATOM      3  C   UNL     1     -28.027  -3.824 -20.718  1.00  0.00     0.182 A 
ATOM      4  N   UNL     1     -29.345  -3.840 -20.407  1.00  0.00    -0.215 NA
ATOM      5  C   UNL     1     -29.850  -4.952 -19.791  1.00  0.00     0.226 A 
ATOM      6  N   UNL     1     -29.036  -6.017 -19.502  1.00  0.00    -0.217 NA
ATOM      7  C   UNL     1     -27.706  -6.004 -19.815  1.00  0.00     0.152 A 
ATOM      8  C   UNL     1     -27.207  -4.865 -20.441  1.00  0.00     0.127 A 
ATOM      9  N   UNL     1     -25.969  -4.572 -20.859  1.00  0.00    -0.340 N 
ATOM     10  H   UNL     1     -25.105  -5.154 -20.798  1.00  0.00     0.168 HD
ENDROOT
BRANCH   7  11
ATOM     11  N   UNL     1     -26.878  -7.125 -19.505  1.00  0.00    -0.382 N 
ATOM     12  H   UNL     1     -27.176  -7.847 -18.813  1.00  0.00     0.158 HD
ATOM     13  H   UNL     1     -25.952  -7.237 -19.974  1.00  0.00     0.158 HD
ENDBRANCH   7  11
TORSDOF 1
ENDMDL
