MODEL 1
REMARK VINA RESULT:    -6.695      0.000      0.000
REMARK INTER + INTRA:          -7.409
REMARK INTER:                  -7.087
REMARK INTRA:                  -0.323
REMARK UNBOUND:                -0.323
REMARK SMILES CC1=CC[C@@]23[C@@H]([C@@H]12)[C@H](C(C)C)CC[C@H]3C
REMARK SMILES IDX 15 1 14 2 13 3 12 4 8 5 6 6 5 7 7 8 2 9 3 10 4 11 1 12 9 13
REMARK SMILES IDX 10 14 11 15
REMARK H PARENT
REMARK Flexibility Score: inf
ROOT
ATOM      1  C   UNL     1     113.279 112.125 111.022  1.00  0.00     0.008 C 
ATOM      2  C   UNL     1     112.646 112.019 112.418  1.00  0.00    -0.007 C 
ATOM      3  C   UNL     1     113.470 111.057 113.296  1.00  0.00     0.004 C 
ATOM      4  C   UNL     1     112.743 110.736 114.598  1.00  0.00     0.004 C 
ATOM      5  C   UNL     1     111.472 109.908 114.312  1.00  0.00    -0.004 C 
ATOM      6  C   UNL     1     110.531 110.638 113.320  1.00  0.00     0.007 C 
ATOM      7  C   UNL     1     111.137 111.656 112.340  1.00  0.00    -0.013 C 
ATOM      8  C   UNL     1     110.769 110.258 111.850  1.00  0.00     0.025 C 
ATOM      9  C   UNL     1     109.633 110.503 110.914  1.00  0.00    -0.073 C 
ATOM     10  C   UNL     1     109.305 111.786 110.820  1.00  0.00    -0.027 C 
ATOM     11  C   UNL     1     110.145 112.642 111.702  1.00  0.00     0.035 C 
ATOM     12  C   UNL     1     108.927 109.414 110.167  1.00  0.00     0.039 C 
ENDROOT
BRANCH   5  13
ATOM     13  C   UNL     1     110.697 109.512 115.605  1.00  0.00    -0.014 C 
ATOM     14  C   UNL     1     111.267 110.199 116.856  1.00  0.00     0.007 C 
ATOM     15  C   UNL     1     109.180 109.757 115.510  1.00  0.00     0.007 C 
ENDBRANCH   5  13
TORSDOF 1
ENDMDL
MODEL 2
REMARK VINA RESULT:    -6.691      3.573      6.010
REMARK INTER + INTRA:          -7.404
REMARK INTER:                  -7.082
REMARK INTRA:                  -0.322
REMARK UNBOUND:                -0.323
REMARK SMILES CC1=CC[C@@]23[C@@H]([C@@H]12)[C@H](C(C)C)CC[C@H]3C
REMARK SMILES IDX 15 1 14 2 13 3 12 4 8 5 6 6 5 7 7 8 2 9 3 10 4 11 1 12 9 13
REMARK SMILES IDX 10 14 11 15
REMARK H PARENT
REMARK Flexibility Score: inf
ROOT
ATOM      1  C   UNL     1     108.905 110.195 106.208  1.00  0.00     0.008 C 
ATOM      2  C   UNL     1     109.590 110.257 107.581  1.00  0.00    -0.007 C 
ATOM      3  C   UNL     1     108.805 111.195 108.518  1.00  0.00     0.004 C 
ATOM      4  C   UNL     1     109.583 111.473 109.802  1.00  0.00     0.004 C 
ATOM      5  C   UNL     1     110.846 112.303 109.492  1.00  0.00    -0.004 C 
ATOM      6  C   UNL     1     111.745 111.600 108.444  1.00  0.00     0.007 C 
ATOM      7  C   UNL     1     111.098 110.615 107.457  1.00  0.00    -0.013 C 
ATOM      8  C   UNL     1     111.454 112.025 106.996  1.00  0.00     0.025 C 
ATOM      9  C   UNL     1     112.553 111.804 106.011  1.00  0.00    -0.073 C 
ATOM     10  C   UNL     1     112.870 110.523 105.865  1.00  0.00    -0.027 C 
ATOM     11  C   UNL     1     112.060 109.645 106.753  1.00  0.00     0.035 C 
ATOM     12  C   UNL     1     113.235 112.912 105.270  1.00  0.00     0.039 C 
ENDROOT
BRANCH   5  13
ATOM     13  C   UNL     1     111.672 112.657 110.766  1.00  0.00    -0.014 C 
ATOM     14  C   UNL     1     111.251 111.816 111.981  1.00  0.00     0.007 C 
ATOM     15  C   UNL     1     113.194 112.562 110.557  1.00  0.00     0.007 C 
ENDBRANCH   5  13
TORSDOF 1
ENDMDL
MODEL 3
REMARK VINA RESULT:    -6.688      1.479      3.501
REMARK INTER + INTRA:          -7.402
REMARK INTER:                  -7.080
REMARK INTRA:                  -0.322
REMARK UNBOUND:                -0.323
REMARK SMILES CC1=CC[C@@]23[C@@H]([C@@H]12)[C@H](C(C)C)CC[C@H]3C
REMARK SMILES IDX 15 1 14 2 13 3 12 4 8 5 6 6 5 7 7 8 2 9 3 10 4 11 1 12 9 13
REMARK SMILES IDX 10 14 11 15
REMARK H PARENT
REMARK Flexibility Score: inf
ROOT
ATOM      1  C   UNL     1     108.860 110.248 111.038  1.00  0.00     0.008 C 
ATOM      2  C   UNL     1     109.564 110.250 112.404  1.00  0.00    -0.007 C 
ATOM      3  C   UNL     1     108.816 111.181 113.378  1.00  0.00     0.004 C 
ATOM      4  C   UNL     1     109.618 111.399 114.658  1.00  0.00     0.004 C 
ATOM      5  C   UNL     1     110.899 112.205 114.357  1.00  0.00    -0.004 C 
ATOM      6  C   UNL     1     111.765 111.509 113.277  1.00  0.00     0.007 C 
ATOM      7  C   UNL     1     111.079 110.572 112.270  1.00  0.00    -0.013 C 
ATOM      8  C   UNL     1     111.468 111.985 111.846  1.00  0.00     0.025 C 
ATOM      9  C   UNL     1     112.548 111.764 110.840  1.00  0.00    -0.073 C 
ATOM     10  C   UNL     1     112.828 110.479 110.652  1.00  0.00    -0.027 C 
ATOM     11  C   UNL     1     112.005 109.597 111.525  1.00  0.00     0.035 C 
ATOM     12  C   UNL     1     113.251 112.875 110.123  1.00  0.00     0.039 C 
ENDROOT
BRANCH   5  13
ATOM     13  C   UNL     1     111.750 112.498 115.629  1.00  0.00    -0.014 C 
ATOM     14  C   UNL     1     111.410 111.545 116.786  1.00  0.00     0.007 C 
ATOM     15  C   UNL     1     113.267 112.495 115.368  1.00  0.00     0.007 C 
ENDBRANCH   5  13
TORSDOF 1
ENDMDL
MODEL 4
REMARK VINA RESULT:    -6.676      3.367      4.806
REMARK INTER + INTRA:          -7.388
REMARK INTER:                  -7.067
REMARK INTRA:                  -0.322
REMARK UNBOUND:                -0.323
REMARK SMILES CC1=CC[C@@]23[C@@H]([C@@H]12)[C@H](C(C)C)CC[C@H]3C
REMARK SMILES IDX 15 1 14 2 13 3 12 4 8 5 6 6 5 7 7 8 2 9 3 10 4 11 1 12 9 13
REMARK SMILES IDX 10 14 11 15
REMARK H PARENT
REMARK Flexibility Score: inf
ROOT
ATOM      1  C   UNL     1     113.257 112.213 106.229  1.00  0.00     0.008 C 
ATOM      2  C   UNL     1     112.602 112.108 107.615  1.00  0.00    -0.007 C 
ATOM      3  C   UNL     1     113.448 111.197 108.527  1.00  0.00     0.004 C 
ATOM      4  C   UNL     1     112.709 110.872 109.822  1.00  0.00     0.004 C 
ATOM      5  C   UNL     1     111.479 109.988 109.529  1.00  0.00    -0.004 C 
ATOM      6  C   UNL     1     110.528 110.659 108.505  1.00  0.00     0.007 C 
ATOM      7  C   UNL     1     111.111 111.682 107.516  1.00  0.00    -0.013 C 
ATOM      8  C   UNL     1     110.809 110.261 107.048  1.00  0.00     0.025 C 
ATOM      9  C   UNL     1     109.682 110.441 106.086  1.00  0.00    -0.073 C 
ATOM     10  C   UNL     1     109.305 111.708 105.960  1.00  0.00    -0.027 C 
ATOM     11  C   UNL     1     110.092 112.614 106.841  1.00  0.00     0.035 C 
ATOM     12  C   UNL     1     109.036 109.310 105.347  1.00  0.00     0.039 C 
ENDROOT
BRANCH   5  13
ATOM     13  C   UNL     1     110.695 109.585 110.814  1.00  0.00    -0.014 C 
ATOM     14  C   UNL     1     111.286 110.228 112.079  1.00  0.00     0.007 C 
ATOM     15  C   UNL     1     109.185 109.873 110.729  1.00  0.00     0.007 C 
ENDBRANCH   5  13
TORSDOF 1
ENDMDL
MODEL 5
REMARK VINA RESULT:    -6.644      2.679      5.782
REMARK INTER + INTRA:          -7.355
REMARK INTER:                  -7.045
REMARK INTRA:                  -0.310
REMARK UNBOUND:                -0.323
REMARK SMILES CC1=CC[C@@]23[C@@H]([C@@H]12)[C@H](C(C)C)CC[C@H]3C
REMARK SMILES IDX 15 1 14 2 13 3 12 4 8 5 6 6 5 7 7 8 2 9 3 10 4 11 1 12 9 13
REMARK SMILES IDX 10 14 11 15
REMARK H PARENT
REMARK Flexibility Score: inf
ROOT
ATOM      1  C   UNL     1     109.491 112.828 111.576  1.00  0.00     0.008 C 
ATOM      2  C   UNL     1     110.239 112.652 110.245  1.00  0.00    -0.007 C 
ATOM      3  C   UNL     1     109.330 111.945 109.222  1.00  0.00     0.004 C 
ATOM      4  C   UNL     1     110.113 111.534 107.977  1.00  0.00     0.004 C 
ATOM      5  C   UNL     1     111.131 110.428 108.327  1.00  0.00    -0.004 C 
ATOM      6  C   UNL     1     112.090 110.877 109.459  1.00  0.00     0.007 C 
ATOM      7  C   UNL     1     111.614 111.954 110.446  1.00  0.00    -0.013 C 
ATOM      8  C   UNL     1     111.610 110.487 110.866  1.00  0.00     0.025 C 
ATOM      9  C   UNL     1     112.658 110.423 111.925  1.00  0.00    -0.073 C 
ATOM     10  C   UNL     1     113.245 111.593 112.147  1.00  0.00    -0.027 C 
ATOM     11  C   UNL     1     112.719 112.659 111.251  1.00  0.00     0.035 C 
ATOM     12  C   UNL     1     113.018 109.167 112.657  1.00  0.00     0.039 C 
ENDROOT
BRANCH   5  13
ATOM     13  C   UNL     1     111.943 109.933 107.092  1.00  0.00    -0.014 C 
ATOM     14  C   UNL     1     112.261 111.073 106.112  1.00  0.00     0.007 C 
ATOM     15  C   UNL     1     113.233 109.180 107.467  1.00  0.00     0.007 C 
ENDBRANCH   5  13
TORSDOF 1
ENDMDL
MODEL 6
REMARK VINA RESULT:    -6.566      1.580      4.784
REMARK INTER + INTRA:          -7.273
REMARK INTER:                  -6.968
REMARK INTRA:                  -0.305
REMARK UNBOUND:                -0.323
REMARK SMILES CC1=CC[C@@]23[C@@H]([C@@H]12)[C@H](C(C)C)CC[C@H]3C
REMARK SMILES IDX 15 1 14 2 13 3 12 4 8 5 6 6 5 7 7 8 2 9 3 10 4 11 1 12 9 13
REMARK SMILES IDX 10 14 11 15
REMARK H PARENT
REMARK Flexibility Score: inf
ROOT
ATOM      1  C   UNL     1     112.686 109.285 116.420  1.00  0.00     0.008 C 
ATOM      2  C   UNL     1     111.955 109.503 115.086  1.00  0.00    -0.007 C 
ATOM      3  C   UNL     1     112.896 110.187 114.077  1.00  0.00     0.004 C 
ATOM      4  C   UNL     1     112.138 110.640 112.832  1.00  0.00     0.004 C 
ATOM      5  C   UNL     1     111.159 111.778 113.187  1.00  0.00    -0.004 C 
ATOM      6  C   UNL     1     110.175 111.352 114.307  1.00  0.00     0.007 C 
ATOM      7  C   UNL     1     110.605 110.247 115.286  1.00  0.00    -0.013 C 
ATOM      8  C   UNL     1     110.659 111.708 115.722  1.00  0.00     0.025 C 
ATOM      9  C   UNL     1     109.606 111.799 116.775  1.00  0.00    -0.073 C 
ATOM     10  C   UNL     1     108.975 110.648 116.979  1.00  0.00    -0.027 C 
ATOM     11  C   UNL     1     109.469 109.574 116.074  1.00  0.00     0.035 C 
ATOM     12  C   UNL     1     109.285 113.059 117.518  1.00  0.00     0.039 C 
ENDROOT
BRANCH   5  13
ATOM     13  C   UNL     1     110.374 112.317 111.952  1.00  0.00    -0.014 C 
ATOM     14  C   UNL     1     109.912 111.185 111.021  1.00  0.00     0.007 C 
ATOM     15  C   UNL     1     109.182 113.216 112.326  1.00  0.00     0.007 C 
ENDBRANCH   5  13
TORSDOF 1
ENDMDL
MODEL 7
REMARK VINA RESULT:    -6.562      1.940      5.035
REMARK INTER + INTRA:          -7.268
REMARK INTER:                  -6.962
REMARK INTRA:                  -0.305
REMARK UNBOUND:                -0.323
REMARK SMILES CC1=CC[C@@]23[C@@H]([C@@H]12)[C@H](C(C)C)CC[C@H]3C
REMARK SMILES IDX 15 1 14 2 13 3 12 4 8 5 6 6 5 7 7 8 2 9 3 10 4 11 1 12 9 13
REMARK SMILES IDX 10 14 11 15
REMARK H PARENT
REMARK Flexibility Score: inf
ROOT
ATOM      1  C   UNL     1     109.557 113.027 116.388  1.00  0.00     0.008 C 
ATOM      2  C   UNL     1     110.262 112.818 115.039  1.00  0.00    -0.007 C 
ATOM      3  C   UNL     1     109.285 112.185 114.029  1.00  0.00     0.004 C 
ATOM      4  C   UNL     1     110.010 111.738 112.763  1.00  0.00     0.004 C 
ATOM      5  C   UNL     1     110.960 110.563 113.077  1.00  0.00    -0.004 C 
ATOM      6  C   UNL     1     111.973 110.935 114.190  1.00  0.00     0.007 C 
ATOM      7  C   UNL     1     111.592 112.029 115.200  1.00  0.00    -0.013 C 
ATOM      8  C   UNL     1     111.500 110.561 115.604  1.00  0.00     0.025 C 
ATOM      9  C   UNL     1     112.566 110.415 116.638  1.00  0.00    -0.073 C 
ATOM     10  C   UNL     1     113.234 111.542 116.858  1.00  0.00    -0.027 C 
ATOM     11  C   UNL     1     112.759 112.650 115.985  1.00  0.00     0.035 C 
ATOM     12  C   UNL     1     112.859 109.130 117.348  1.00  0.00     0.039 C 
ENDROOT
BRANCH   5  13
ATOM     13  C   UNL     1     111.709 110.030 111.818  1.00  0.00    -0.014 C 
ATOM     14  C   UNL     1     112.170 111.167 110.893  1.00  0.00     0.007 C 
ATOM     15  C   UNL     1     112.895 109.107 112.154  1.00  0.00     0.007 C 
ENDBRANCH   5  13
TORSDOF 1
ENDMDL
MODEL 8
REMARK VINA RESULT:    -6.470      2.640      5.599
REMARK INTER + INTRA:          -7.170
REMARK INTER:                  -6.953
REMARK INTRA:                  -0.217
REMARK UNBOUND:                -0.323
REMARK SMILES CC1=CC[C@@]23[C@@H]([C@@H]12)[C@H](C(C)C)CC[C@H]3C
REMARK SMILES IDX 15 1 14 2 13 3 12 4 8 5 6 6 5 7 7 8 2 9 3 10 4 11 1 12 9 13
REMARK SMILES IDX 10 14 11 15
REMARK H PARENT
REMARK Flexibility Score: inf
ROOT
ATOM      1  C   UNL     1     112.872 109.753 111.544  1.00  0.00     0.008 C 
ATOM      2  C   UNL     1     111.952 109.636 110.319  1.00  0.00    -0.007 C 
ATOM      3  C   UNL     1     112.650 110.227 109.079  1.00  0.00     0.004 C 
ATOM      4  C   UNL     1     111.682 110.352 107.906  1.00  0.00     0.004 C 
ATOM      5  C   UNL     1     110.607 111.416 108.211  1.00  0.00    -0.004 C 
ATOM      6  C   UNL     1     109.846 111.093 109.522  1.00  0.00     0.007 C 
ATOM      7  C   UNL     1     110.548 110.244 110.594  1.00  0.00    -0.013 C 
ATOM      8  C   UNL     1     110.453 111.757 110.768  1.00  0.00     0.025 C 
ATOM      9  C   UNL     1     109.542 111.918 111.939  1.00  0.00    -0.073 C 
ATOM     10  C   UNL     1     109.110 110.760 112.424  1.00  0.00    -0.027 C 
ATOM     11  C   UNL     1     109.628 109.602 111.646  1.00  0.00     0.035 C 
ATOM     12  C   UNL     1     109.147 113.248 112.503  1.00  0.00     0.039 C 
ENDROOT
BRANCH   5  13
ATOM     13  C   UNL     1     109.602 111.624 107.038  1.00  0.00    -0.014 C 
ATOM     14  C   UNL     1     110.180 112.524 105.934  1.00  0.00     0.007 C 
ATOM     15  C   UNL     1     109.084 110.308 106.431  1.00  0.00     0.007 C 
ENDBRANCH   5  13
TORSDOF 1
ENDMDL
MODEL 9
REMARK VINA RESULT:    -6.350      3.497      5.938
REMARK INTER + INTRA:          -7.044
REMARK INTER:                  -6.722
REMARK INTRA:                  -0.322
REMARK UNBOUND:                -0.323
REMARK SMILES CC1=CC[C@@]23[C@@H]([C@@H]12)[C@H](C(C)C)CC[C@H]3C
REMARK SMILES IDX 15 1 14 2 13 3 12 4 8 5 6 6 5 7 7 8 2 9 3 10 4 11 1 12 9 13
REMARK SMILES IDX 10 14 11 15
REMARK H PARENT
REMARK Flexibility Score: inf
ROOT
ATOM      1  C   UNL     1     108.860 110.241 115.833  1.00  0.00     0.008 C 
ATOM      2  C   UNL     1     109.539 110.236 117.211  1.00  0.00    -0.007 C 
ATOM      3  C   UNL     1     108.789 111.182 118.169  1.00  0.00     0.004 C 
ATOM      4  C   UNL     1     109.570 111.392 119.463  1.00  0.00     0.004 C 
ATOM      5  C   UNL     1     110.869 112.176 119.183  1.00  0.00    -0.004 C 
ATOM      6  C   UNL     1     111.744 111.463 118.121  1.00  0.00     0.007 C 
ATOM      7  C   UNL     1     111.061 110.534 117.105  1.00  0.00    -0.013 C 
ATOM      8  C   UNL     1     111.481 111.939 116.683  1.00  0.00     0.025 C 
ATOM      9  C   UNL     1     112.575 111.697 115.698  1.00  0.00    -0.073 C 
ATOM     10  C   UNL     1     112.838 110.408 115.520  1.00  0.00    -0.027 C 
ATOM     11  C   UNL     1     111.986 109.542 116.380  1.00  0.00     0.035 C 
ATOM     12  C   UNL     1     113.309 112.794 114.991  1.00  0.00     0.039 C 
ENDROOT
BRANCH   5  13
ATOM     13  C   UNL     1     111.702 112.460 120.470  1.00  0.00    -0.014 C 
ATOM     14  C   UNL     1     111.288 111.553 121.639  1.00  0.00     0.007 C 
ATOM     15  C   UNL     1     113.223 112.379 120.248  1.00  0.00     0.007 C 
ENDBRANCH   5  13
TORSDOF 1
ENDMDL
