MODEL 1
REMARK VINA RESULT:    -5.157      0.000      0.000
REMARK INTER + INTRA:          -7.309
REMARK INTER:                  -6.966
REMARK INTRA:                  -0.343
REMARK UNBOUND:                -0.343
REMARK SMILES CCCCCCC=CC(=O)[O-]
REMARK SMILES IDX 5 1 6 2 7 3 8 4 9 5 10 6 11 7 4 8 3 9 2 10 1 11
REMARK H PARENT
REMARK Flexibility Score: inf
ROOT
ATOM      1  C   UNL     1     125.120 132.499 126.996  1.00  0.00     0.004 C 
ENDROOT
BRANCH   1   2
ATOM      2  C   UNL     1     124.922 133.971 127.380  1.00  0.00     0.027 C 
BRANCH   2   3
ATOM      3  C   UNL     1     123.465 134.334 127.410  1.00  0.00    -0.025 C 
ATOM      4  C   UNL     1     123.016 135.363 128.137  1.00  0.00     0.020 C 
BRANCH   4   5
ATOM      5  C   UNL     1     121.592 135.728 128.193  1.00  0.00     0.064 C 
ATOM      6  O   UNL     1     120.875 135.406 129.178  1.00  0.00    -0.545 OA
ATOM      7  O   UNL     1     121.027 136.437 127.140  1.00  0.00    -0.545 OA
ENDBRANCH   4   5
ENDBRANCH   2   3
ENDBRANCH   1   2
BRANCH   1   8
ATOM      8  C   UNL     1     126.010 132.372 125.750  1.00  0.00     0.000 C 
BRANCH   8   9
ATOM      9  C   UNL     1     125.764 133.495 124.731  1.00  0.00    -0.000 C 
BRANCH   9  10
ATOM     10  C   UNL     1     125.346 132.962 123.352  1.00  0.00    -0.003 C 
ATOM     11  C   UNL     1     124.650 131.609 123.474  1.00  0.00     0.004 C 
ENDBRANCH   9  10
ENDBRANCH   8   9
ENDBRANCH   1   8
TORSDOF 6
ENDMDL
MODEL 2
REMARK VINA RESULT:    -5.088      3.430      5.771
REMARK INTER + INTRA:          -7.215
REMARK INTER:                  -7.003
REMARK INTRA:                  -0.212
REMARK UNBOUND:                -0.343
REMARK SMILES CCCCCCC=CC(=O)[O-]
REMARK SMILES IDX 5 1 6 2 7 3 8 4 9 5 10 6 11 7 4 8 3 9 2 10 1 11
REMARK H PARENT
REMARK Flexibility Score: inf
ROOT
ATOM      1  C   UNL     1     124.168 134.279 127.480  1.00  0.00     0.004 C 
ENDROOT
BRANCH   1   2
ATOM      2  C   UNL     1     124.601 132.818 127.296  1.00  0.00     0.027 C 
BRANCH   2   3
ATOM      3  C   UNL     1     125.207 132.597 125.941  1.00  0.00    -0.025 C 
ATOM      4  C   UNL     1     124.467 132.192 124.902  1.00  0.00     0.020 C 
BRANCH   4   5
ATOM      5  C   UNL     1     125.043 131.955 123.568  1.00  0.00     0.064 C 
ATOM      6  O   UNL     1     124.819 130.883 122.944  1.00  0.00    -0.545 OA
ATOM      7  O   UNL     1     125.847 132.928 122.989  1.00  0.00    -0.545 OA
ENDBRANCH   4   5
ENDBRANCH   2   3
ENDBRANCH   1   2
BRANCH   1   8
ATOM      8  C   UNL     1     123.104 134.401 128.581  1.00  0.00     0.000 C 
BRANCH   8   9
ATOM      9  C   UNL     1     122.458 135.794 128.628  1.00  0.00    -0.000 C 
BRANCH   9  10
ATOM     10  C   UNL     1     121.025 135.801 128.076  1.00  0.00    -0.003 C 
ATOM     11  C   UNL     1     120.875 136.822 126.951  1.00  0.00     0.004 C 
ENDBRANCH   9  10
ENDBRANCH   8   9
ENDBRANCH   1   8
TORSDOF 6
ENDMDL
MODEL 3
REMARK VINA RESULT:    -4.663      1.237      2.034
REMARK INTER + INTRA:          -6.641
REMARK INTER:                  -6.225
REMARK INTRA:                  -0.416
REMARK UNBOUND:                -0.343
REMARK SMILES CCCCCCC=CC(=O)[O-]
REMARK SMILES IDX 5 1 6 2 7 3 8 4 9 5 10 6 11 7 4 8 3 9 2 10 1 11
REMARK H PARENT
REMARK Flexibility Score: inf
ROOT
ATOM      1  C   UNL     1     125.904 132.496 125.494  1.00  0.00     0.004 C 
ENDROOT
BRANCH   1   2
ATOM      2  C   UNL     1     125.656 132.056 126.942  1.00  0.00     0.027 C 
BRANCH   2   3
ATOM      3  C   UNL     1     124.424 132.705 127.504  1.00  0.00    -0.025 C 
ATOM      4  C   UNL     1     124.306 134.035 127.580  1.00  0.00     0.020 C 
BRANCH   4   5
ATOM      5  C   UNL     1     123.114 134.692 128.140  1.00  0.00     0.064 C 
ATOM      6  O   UNL     1     122.693 134.403 129.292  1.00  0.00    -0.545 OA
ATOM      7  O   UNL     1     122.441 135.643 127.385  1.00  0.00    -0.545 OA
ENDBRANCH   4   5
ENDBRANCH   2   3
ENDBRANCH   1   2
BRANCH   1   8
ATOM      8  C   UNL     1     124.862 131.878 124.547  1.00  0.00     0.000 C 
BRANCH   8   9
ATOM      9  C   UNL     1     124.823 132.572 123.177  1.00  0.00    -0.000 C 
BRANCH   9  10
ATOM     10  C   UNL     1     125.714 133.821 123.120  1.00  0.00    -0.003 C 
ATOM     11  C   UNL     1     124.884 135.078 122.875  1.00  0.00     0.004 C 
ENDBRANCH   9  10
ENDBRANCH   8   9
ENDBRANCH   1   8
TORSDOF 6
ENDMDL
MODEL 4
REMARK VINA RESULT:    -4.211      3.201      5.632
REMARK INTER + INTRA:          -6.030
REMARK INTER:                  -5.763
REMARK INTRA:                  -0.267
REMARK UNBOUND:                -0.343
REMARK SMILES CCCCCCC=CC(=O)[O-]
REMARK SMILES IDX 5 1 6 2 7 3 8 4 9 5 10 6 11 7 4 8 3 9 2 10 1 11
REMARK H PARENT
REMARK Flexibility Score: inf
ROOT
ATOM      1  C   UNL     1     123.121 134.605 128.541  1.00  0.00     0.004 C 
ENDROOT
BRANCH   1   2
ATOM      2  C   UNL     1     124.563 134.656 128.021  1.00  0.00     0.027 C 
BRANCH   2   3
ATOM      3  C   UNL     1     124.849 133.509 127.095  1.00  0.00    -0.025 C 
ATOM      4  C   UNL     1     125.244 133.711 125.833  1.00  0.00     0.020 C 
BRANCH   4   5
ATOM      5  C   UNL     1     125.515 132.602 124.904  1.00  0.00     0.064 C 
ATOM      6  O   UNL     1     126.621 131.999 124.916  1.00  0.00    -0.545 OA
ATOM      7  O   UNL     1     124.536 132.215 123.999  1.00  0.00    -0.545 OA
ENDBRANCH   4   5
ENDBRANCH   2   3
ENDBRANCH   1   2
BRANCH   1   8
ATOM      8  C   UNL     1     122.133 135.083 127.466  1.00  0.00     0.000 C 
BRANCH   8   9
ATOM      9  C   UNL     1     120.898 135.775 128.062  1.00  0.00    -0.000 C 
BRANCH   9  10
ATOM     10  C   UNL     1     120.911 137.296 127.846  1.00  0.00    -0.003 C 
ATOM     11  C   UNL     1     120.907 137.640 126.360  1.00  0.00     0.004 C 
ENDBRANCH   9  10
ENDBRANCH   8   9
ENDBRANCH   1   8
TORSDOF 6
ENDMDL
MODEL 5
REMARK VINA RESULT:    -2.549      3.701      5.509
REMARK INTER + INTRA:          -3.786
REMARK INTER:                  -3.499
REMARK INTRA:                  -0.287
REMARK UNBOUND:                -0.343
REMARK SMILES CCCCCCC=CC(=O)[O-]
REMARK SMILES IDX 5 1 6 2 7 3 8 4 9 5 10 6 11 7 4 8 3 9 2 10 1 11
REMARK H PARENT
REMARK Flexibility Score: inf
ROOT
ATOM      1  C   UNL     1     124.273 134.441 127.754  1.00  0.00     0.004 C 
ENDROOT
BRANCH   1   2
ATOM      2  C   UNL     1     125.410 133.568 127.205  1.00  0.00     0.027 C 
BRANCH   2   3
ATOM      3  C   UNL     1     125.355 133.483 125.707  1.00  0.00    -0.025 C 
ATOM      4  C   UNL     1     125.328 132.305 125.074  1.00  0.00     0.020 C 
BRANCH   4   5
ATOM      5  C   UNL     1     125.289 132.198 123.607  1.00  0.00     0.064 C 
ATOM      6  O   UNL     1     125.751 133.114 122.875  1.00  0.00    -0.545 OA
ATOM      7  O   UNL     1     124.731 131.071 123.019  1.00  0.00    -0.545 OA
ENDBRANCH   4   5
ENDBRANCH   2   3
ENDBRANCH   1   2
BRANCH   1   8
ATOM      8  C   UNL     1     123.179 133.576 128.398  1.00  0.00     0.000 C 
BRANCH   8   9
ATOM      9  C   UNL     1     123.465 132.071 128.275  1.00  0.00    -0.000 C 
BRANCH   9  10
ATOM     10  C   UNL     1     123.014 131.281 129.512  1.00  0.00    -0.003 C 
ATOM     11  C   UNL     1     122.821 129.804 129.179  1.00  0.00     0.004 C 
ENDBRANCH   9  10
ENDBRANCH   8   9
ENDBRANCH   1   8
TORSDOF 6
ENDMDL
