MODEL 1
REMARK VINA RESULT:    -4.307      0.000      0.000
REMARK INTER + INTRA:          -6.954
REMARK INTER:                  -6.573
REMARK INTRA:                  -0.381
REMARK UNBOUND:                -0.381
REMARK SMILES CCCCCCCCCCC(=O)[O-]
REMARK SMILES IDX 7 1 8 2 9 3 10 4 11 5 12 6 13 7 6 8 5 9 4 10 3 11 2 12 1 13
REMARK H PARENT
REMARK Flexibility Score: inf
ROOT
ATOM      1  C   UNL     1       1.144   2.785   8.436  1.00  0.00     0.000 C 
ENDROOT
BRANCH   1   2
ATOM      2  C   UNL     1       0.271   4.013   8.148  1.00  0.00     0.000 C 
BRANCH   2   3
ATOM      3  C   UNL     1       0.423   4.467   6.688  1.00  0.00     0.006 C 
BRANCH   3   4
ATOM      4  C   UNL     1      -0.350   5.760   6.397  1.00  0.00     0.053 C 
BRANCH   4   5
ATOM      5  C   UNL     1      -0.513   5.992   4.926  1.00  0.00     0.041 C 
ATOM      6  O   UNL     1       0.044   5.223   4.099  1.00  0.00    -0.550 OA
ATOM      7  O   UNL     1      -1.251   7.076   4.469  1.00  0.00    -0.550 OA
ENDBRANCH   4   5
ENDBRANCH   3   4
ENDBRANCH   2   3
ENDBRANCH   1   2
BRANCH   1   8
ATOM      8  C   UNL     1       1.677   2.116   7.157  1.00  0.00     0.000 C 
BRANCH   8   9
ATOM      9  C   UNL     1       1.818   0.583   7.273  1.00  0.00    -0.000 C 
BRANCH   9  10
ATOM     10  C   UNL     1       1.365  -0.142   5.993  1.00  0.00    -0.000 C 
BRANCH  10  11
ATOM     11  C   UNL     1       1.579  -1.669   6.078  1.00  0.00    -0.000 C 
BRANCH  11  12
ATOM     12  C   UNL     1       2.583  -2.208   5.045  1.00  0.00    -0.003 C 
ATOM     13  C   UNL     1       4.031  -1.857   5.379  1.00  0.00     0.004 C 
ENDBRANCH  11  12
ENDBRANCH  10  11
ENDBRANCH   9  10
ENDBRANCH   8   9
ENDBRANCH   1   8
TORSDOF 9
ENDMDL
MODEL 2
REMARK VINA RESULT:    -4.119      5.232      7.528
REMARK INTER + INTRA:          -6.667
REMARK INTER:                  -5.950
REMARK INTRA:                  -0.717
REMARK UNBOUND:                -0.381
REMARK SMILES CCCCCCCCCCC(=O)[O-]
REMARK SMILES IDX 7 1 8 2 9 3 10 4 11 5 12 6 13 7 6 8 5 9 4 10 3 11 2 12 1 13
REMARK H PARENT
REMARK Flexibility Score: inf
ROOT
ATOM      1  C   UNL     1      -1.708  -3.258   6.302  1.00  0.00     0.000 C 
ENDROOT
BRANCH   1   2
ATOM      2  C   UNL     1      -0.365  -2.556   6.546  1.00  0.00     0.000 C 
BRANCH   2   3
ATOM      3  C   UNL     1       0.131  -1.859   5.272  1.00  0.00     0.006 C 
BRANCH   3   4
ATOM      4  C   UNL     1       1.226  -0.824   5.564  1.00  0.00     0.053 C 
BRANCH   4   5
ATOM      5  C   UNL     1       2.582  -1.456   5.641  1.00  0.00     0.041 C 
ATOM      6  O   UNL     1       3.293  -1.307   6.670  1.00  0.00    -0.550 OA
ATOM      7  O   UNL     1       3.075  -2.182   4.563  1.00  0.00    -0.550 OA
ENDBRANCH   4   5
ENDBRANCH   3   4
ENDBRANCH   2   3
ENDBRANCH   1   2
BRANCH   1   8
ATOM      8  C   UNL     1      -1.951  -3.586   4.818  1.00  0.00     0.000 C 
BRANCH   8   9
ATOM      9  C   UNL     1      -3.306  -3.073   4.285  1.00  0.00    -0.000 C 
BRANCH   9  10
ATOM     10  C   UNL     1      -3.258  -1.580   3.913  1.00  0.00    -0.000 C 
BRANCH  10  11
ATOM     11  C   UNL     1      -4.464  -0.797   4.476  1.00  0.00    -0.000 C 
BRANCH  11  12
ATOM     12  C   UNL     1      -4.834  -1.187   5.916  1.00  0.00    -0.003 C 
ATOM     13  C   UNL     1      -5.674  -0.128   6.626  1.00  0.00     0.004 C 
ENDBRANCH  11  12
ENDBRANCH  10  11
ENDBRANCH   9  10
ENDBRANCH   8   9
ENDBRANCH   1   8
TORSDOF 9
ENDMDL
MODEL 3
REMARK VINA RESULT:    -4.094      0.998      1.626
REMARK INTER + INTRA:          -6.629
REMARK INTER:                  -6.232
REMARK INTRA:                  -0.397
REMARK UNBOUND:                -0.381
REMARK SMILES CCCCCCCCCCC(=O)[O-]
REMARK SMILES IDX 7 1 8 2 9 3 10 4 11 5 12 6 13 7 6 8 5 9 4 10 3 11 2 12 1 13
REMARK H PARENT
REMARK Flexibility Score: inf
ROOT
ATOM      1  C   UNL     1       0.919   2.377   8.259  1.00  0.00     0.000 C 
ENDROOT
BRANCH   1   2
ATOM      2  C   UNL     1       0.817   3.899   8.093  1.00  0.00     0.000 C 
BRANCH   2   3
ATOM      3  C   UNL     1       0.659   4.282   6.614  1.00  0.00     0.006 C 
BRANCH   3   4
ATOM      4  C   UNL     1      -0.186   5.550   6.428  1.00  0.00     0.053 C 
BRANCH   4   5
ATOM      5  C   UNL     1      -0.431   5.847   4.981  1.00  0.00     0.041 C 
ATOM      6  O   UNL     1       0.083   5.122   4.089  1.00  0.00    -0.550 OA
ATOM      7  O   UNL     1      -1.200   6.947   4.616  1.00  0.00    -0.550 OA
ENDBRANCH   4   5
ENDBRANCH   3   4
ENDBRANCH   2   3
ENDBRANCH   1   2
BRANCH   1   8
ATOM      8  C   UNL     1       1.627   1.692   7.077  1.00  0.00     0.000 C 
BRANCH   8   9
ATOM      9  C   UNL     1       2.406   0.420   7.475  1.00  0.00    -0.000 C 
BRANCH   9  10
ATOM     10  C   UNL     1       2.431  -0.626   6.345  1.00  0.00    -0.000 C 
BRANCH  10  11
ATOM     11  C   UNL     1       1.086  -0.703   5.590  1.00  0.00    -0.000 C 
BRANCH  11  12
ATOM     12  C   UNL     1       0.438  -2.097   5.627  1.00  0.00    -0.003 C 
ATOM     13  C   UNL     1      -0.959  -2.124   5.012  1.00  0.00     0.004 C 
ENDBRANCH  11  12
ENDBRANCH  10  11
ENDBRANCH   9  10
ENDBRANCH   8   9
ENDBRANCH   1   8
TORSDOF 9
ENDMDL
MODEL 4
REMARK VINA RESULT:    -3.973      8.304     11.032
REMARK INTER + INTRA:          -6.444
REMARK INTER:                  -5.974
REMARK INTRA:                  -0.470
REMARK UNBOUND:                -0.381
REMARK SMILES CCCCCCCCCCC(=O)[O-]
REMARK SMILES IDX 7 1 8 2 9 3 10 4 11 5 12 6 13 7 6 8 5 9 4 10 3 11 2 12 1 13
REMARK H PARENT
REMARK Flexibility Score: inf
ROOT
ATOM      1  C   UNL     1      -3.246  -5.343  -0.109  1.00  0.00     0.000 C 
ENDROOT
BRANCH   1   2
ATOM      2  C   UNL     1      -2.219  -5.402  -1.248  1.00  0.00     0.000 C 
BRANCH   2   3
ATOM      3  C   UNL     1      -1.221  -4.238  -1.150  1.00  0.00     0.006 C 
BRANCH   3   4
ATOM      4  C   UNL     1      -0.408  -4.059  -2.440  1.00  0.00     0.053 C 
BRANCH   4   5
ATOM      5  C   UNL     1       0.591  -5.160  -2.623  1.00  0.00     0.041 C 
ATOM      6  O   UNL     1       1.585  -5.249  -1.854  1.00  0.00    -0.550 OA
ATOM      7  O   UNL     1       0.444  -6.068  -3.665  1.00  0.00    -0.550 OA
ENDBRANCH   4   5
ENDBRANCH   3   4
ENDBRANCH   2   3
ENDBRANCH   1   2
BRANCH   1   8
ATOM      8  C   UNL     1      -2.678  -4.719   1.177  1.00  0.00     0.000 C 
BRANCH   8   9
ATOM      9  C   UNL     1      -3.438  -5.135   2.455  1.00  0.00    -0.000 C 
BRANCH   9  10
ATOM     10  C   UNL     1      -3.591  -3.968   3.448  1.00  0.00    -0.000 C 
BRANCH  10  11
ATOM     11  C   UNL     1      -2.466  -2.921   3.299  1.00  0.00    -0.000 C 
BRANCH  11  12
ATOM     12  C   UNL     1      -2.699  -1.644   4.122  1.00  0.00    -0.003 C 
ATOM     13  C   UNL     1      -4.142  -1.149   4.063  1.00  0.00     0.004 C 
ENDBRANCH  11  12
ENDBRANCH  10  11
ENDBRANCH   9  10
ENDBRANCH   8   9
ENDBRANCH   1   8
TORSDOF 9
ENDMDL
MODEL 5
REMARK VINA RESULT:    -3.807      5.538      6.808
REMARK INTER + INTRA:          -6.191
REMARK INTER:                  -5.648
REMARK INTRA:                  -0.542
REMARK UNBOUND:                -0.381
REMARK SMILES CCCCCCCCCCC(=O)[O-]
REMARK SMILES IDX 7 1 8 2 9 3 10 4 11 5 12 6 13 7 6 8 5 9 4 10 3 11 2 12 1 13
REMARK H PARENT
REMARK Flexibility Score: inf
ROOT
ATOM      1  C   UNL     1      -2.235  -1.844   4.091  1.00  0.00     0.000 C 
ENDROOT
BRANCH   1   2
ATOM      2  C   UNL     1      -3.759  -1.813   3.915  1.00  0.00     0.000 C 
BRANCH   2   3
ATOM      3  C   UNL     1      -4.400  -0.780   4.853  1.00  0.00     0.006 C 
BRANCH   3   4
ATOM      4  C   UNL     1      -5.631  -1.340   5.580  1.00  0.00     0.053 C 
BRANCH   4   5
ATOM      5  C   UNL     1      -5.268  -1.949   6.899  1.00  0.00     0.041 C 
ATOM      6  O   UNL     1      -4.938  -3.163   6.967  1.00  0.00    -0.550 OA
ATOM      7  O   UNL     1      -5.328  -1.186   8.059  1.00  0.00    -0.550 OA
ENDBRANCH   4   5
ENDBRANCH   3   4
ENDBRANCH   2   3
ENDBRANCH   1   2
BRANCH   1   8
ATOM      8  C   UNL     1      -1.795  -2.570   5.375  1.00  0.00     0.000 C 
BRANCH   8   9
ATOM      9  C   UNL     1      -0.268  -2.558   5.601  1.00  0.00    -0.000 C 
BRANCH   9  10
ATOM     10  C   UNL     1       0.368  -1.211   5.211  1.00  0.00    -0.000 C 
BRANCH  10  11
ATOM     11  C   UNL     1       1.827  -1.089   5.702  1.00  0.00    -0.000 C 
BRANCH  11  12
ATOM     12  C   UNL     1       2.610  -2.411   5.645  1.00  0.00    -0.003 C 
ATOM     13  C   UNL     1       3.712  -2.409   4.589  1.00  0.00     0.004 C 
ENDBRANCH  11  12
ENDBRANCH  10  11
ENDBRANCH   9  10
ENDBRANCH   8   9
ENDBRANCH   1   8
TORSDOF 9
ENDMDL
MODEL 6
REMARK VINA RESULT:    -3.779      5.414      7.154
REMARK INTER + INTRA:          -6.148
REMARK INTER:                  -5.172
REMARK INTRA:                  -0.976
REMARK UNBOUND:                -0.381
REMARK SMILES CCCCCCCCCCC(=O)[O-]
REMARK SMILES IDX 7 1 8 2 9 3 10 4 11 5 12 6 13 7 6 8 5 9 4 10 3 11 2 12 1 13
REMARK H PARENT
REMARK Flexibility Score: inf
ROOT
ATOM      1  C   UNL     1       0.273  -3.273   6.895  1.00  0.00     0.000 C 
ENDROOT
BRANCH   1   2
ATOM      2  C   UNL     1      -0.049  -1.818   6.530  1.00  0.00     0.000 C 
BRANCH   2   3
ATOM      3  C   UNL     1       0.853  -1.323   5.390  1.00  0.00     0.006 C 
BRANCH   3   4
ATOM      4  C   UNL     1       2.022  -2.279   5.117  1.00  0.00     0.053 C 
BRANCH   4   5
ATOM      5  C   UNL     1       3.337  -1.674   5.503  1.00  0.00     0.041 C 
ATOM      6  O   UNL     1       3.431  -0.978   6.548  1.00  0.00    -0.550 OA
ATOM      7  O   UNL     1       4.450  -1.849   4.689  1.00  0.00    -0.550 OA
ENDBRANCH   4   5
ENDBRANCH   3   4
ENDBRANCH   2   3
ENDBRANCH   1   2
BRANCH   1   8
ATOM      8  C   UNL     1      -0.913  -4.225   6.663  1.00  0.00     0.000 C 
BRANCH   8   9
ATOM      9  C   UNL     1      -2.072  -3.588   5.867  1.00  0.00    -0.000 C 
BRANCH   9  10
ATOM     10  C   UNL     1      -2.111  -4.075   4.407  1.00  0.00    -0.000 C 
BRANCH  10  11
ATOM     11  C   UNL     1      -2.786  -3.052   3.467  1.00  0.00    -0.000 C 
BRANCH  11  12
ATOM     12  C   UNL     1      -2.782  -1.615   4.014  1.00  0.00    -0.003 C 
ATOM     13  C   UNL     1      -4.181  -1.016   4.135  1.00  0.00     0.004 C 
ENDBRANCH  11  12
ENDBRANCH  10  11
ENDBRANCH   9  10
ENDBRANCH   8   9
ENDBRANCH   1   8
TORSDOF 9
ENDMDL
MODEL 7
REMARK VINA RESULT:    -3.727      5.611      7.702
REMARK INTER + INTRA:          -6.069
REMARK INTER:                  -5.436
REMARK INTRA:                  -0.634
REMARK UNBOUND:                -0.381
REMARK SMILES CCCCCCCCCCC(=O)[O-]
REMARK SMILES IDX 7 1 8 2 9 3 10 4 11 5 12 6 13 7 6 8 5 9 4 10 3 11 2 12 1 13
REMARK H PARENT
REMARK Flexibility Score: inf
ROOT
ATOM      1  C   UNL     1      -1.810  -2.920   5.484  1.00  0.00     0.000 C 
ENDROOT
BRANCH   1   2
ATOM      2  C   UNL     1      -0.451  -2.537   6.084  1.00  0.00     0.000 C 
BRANCH   2   3
ATOM      3  C   UNL     1       0.321  -1.599   5.144  1.00  0.00     0.006 C 
BRANCH   3   4
ATOM      4  C   UNL     1       1.443  -0.844   5.869  1.00  0.00     0.053 C 
BRANCH   4   5
ATOM      5  C   UNL     1       2.781  -1.473   5.631  1.00  0.00     0.041 C 
ATOM      6  O   UNL     1       3.753  -1.198   6.383  1.00  0.00    -0.550 OA
ATOM      7  O   UNL     1       2.964  -2.336   4.557  1.00  0.00    -0.550 OA
ENDBRANCH   4   5
ENDBRANCH   3   4
ENDBRANCH   2   3
ENDBRANCH   1   2
BRANCH   1   8
ATOM      8  C   UNL     1      -1.978  -2.445   4.030  1.00  0.00     0.000 C 
BRANCH   8   9
ATOM      9  C   UNL     1      -3.196  -1.519   3.818  1.00  0.00    -0.000 C 
BRANCH   9  10
ATOM     10  C   UNL     1      -4.083  -1.428   5.073  1.00  0.00    -0.000 C 
BRANCH  10  11
ATOM     11  C   UNL     1      -5.569  -1.714   4.761  1.00  0.00    -0.000 C 
BRANCH  11  12
ATOM     12  C   UNL     1      -5.857  -3.189   4.438  1.00  0.00    -0.003 C 
ATOM     13  C   UNL     1      -6.077  -3.443   2.949  1.00  0.00     0.004 C 
ENDBRANCH  11  12
ENDBRANCH  10  11
ENDBRANCH   9  10
ENDBRANCH   8   9
ENDBRANCH   1   8
TORSDOF 9
ENDMDL
MODEL 8
REMARK VINA RESULT:    -3.637      6.277      7.600
REMARK INTER + INTRA:          -5.932
REMARK INTER:                  -5.080
REMARK INTRA:                  -0.851
REMARK UNBOUND:                -0.381
REMARK SMILES CCCCCCCCCCC(=O)[O-]
REMARK SMILES IDX 7 1 8 2 9 3 10 4 11 5 12 6 13 7 6 8 5 9 4 10 3 11 2 12 1 13
REMARK H PARENT
REMARK Flexibility Score: inf
ROOT
ATOM      1  C   UNL     1      -2.902  -1.536   3.949  1.00  0.00     0.000 C 
ENDROOT
BRANCH   1   2
ATOM      2  C   UNL     1      -4.367  -1.102   4.084  1.00  0.00     0.000 C 
BRANCH   2   3
ATOM      3  C   UNL     1      -4.718  -0.796   5.548  1.00  0.00     0.006 C 
BRANCH   3   4
ATOM      4  C   UNL     1      -6.097  -1.343   5.942  1.00  0.00     0.053 C 
BRANCH   4   5
ATOM      5  C   UNL     1      -6.276  -2.765   5.508  1.00  0.00     0.041 C 
ATOM      6  O   UNL     1      -7.175  -3.065   4.678  1.00  0.00    -0.550 OA
ATOM      7  O   UNL     1      -5.473  -3.764   6.045  1.00  0.00    -0.550 OA
ENDBRANCH   4   5
ENDBRANCH   3   4
ENDBRANCH   2   3
ENDBRANCH   1   2
BRANCH   1   8
ATOM      8  C   UNL     1      -2.734  -3.064   3.872  1.00  0.00     0.000 C 
BRANCH   8   9
ATOM      9  C   UNL     1      -1.894  -3.653   5.025  1.00  0.00    -0.000 C 
BRANCH   9  10
ATOM     10  C   UNL     1      -1.355  -2.563   5.969  1.00  0.00    -0.000 C 
BRANCH  10  11
ATOM     11  C   UNL     1       0.156  -2.723   6.245  1.00  0.00    -0.000 C 
BRANCH  11  12
ATOM     12  C   UNL     1       1.047  -1.935   5.271  1.00  0.00    -0.003 C 
ATOM     13  C   UNL     1       1.135  -0.449   5.608  1.00  0.00     0.004 C 
ENDBRANCH  11  12
ENDBRANCH  10  11
ENDBRANCH   9  10
ENDBRANCH   8   9
ENDBRANCH   1   8
TORSDOF 9
ENDMDL
MODEL 9
REMARK VINA RESULT:    -3.619      5.063      6.250
REMARK INTER + INTRA:          -5.904
REMARK INTER:                  -5.204
REMARK INTRA:                  -0.700
REMARK UNBOUND:                -0.381
REMARK SMILES CCCCCCCCCCC(=O)[O-]
REMARK SMILES IDX 7 1 8 2 9 3 10 4 11 5 12 6 13 7 6 8 5 9 4 10 3 11 2 12 1 13
REMARK H PARENT
REMARK Flexibility Score: inf
ROOT
ATOM      1  C   UNL     1      -0.822  -2.608   6.355  1.00  0.00     0.000 C 
ENDROOT
BRANCH   1   2
ATOM      2  C   UNL     1      -2.280  -2.719   5.890  1.00  0.00     0.000 C 
BRANCH   2   3
ATOM      3  C   UNL     1      -2.378  -2.637   4.360  1.00  0.00     0.006 C 
BRANCH   3   4
ATOM      4  C   UNL     1      -3.219  -1.441   3.894  1.00  0.00     0.053 C 
BRANCH   4   5
ATOM      5  C   UNL     1      -4.584  -1.447   4.511  1.00  0.00     0.041 C 
ATOM      6  O   UNL     1      -5.474  -2.223   4.072  1.00  0.00    -0.550 OA
ATOM      7  O   UNL     1      -4.884  -0.572   5.548  1.00  0.00    -0.550 OA
ENDBRANCH   4   5
ENDBRANCH   3   4
ENDBRANCH   2   3
ENDBRANCH   1   2
BRANCH   1   8
ATOM      8  C   UNL     1       0.139  -2.208   5.222  1.00  0.00     0.000 C 
BRANCH   8   9
ATOM      9  C   UNL     1       0.865  -0.868   5.470  1.00  0.00    -0.000 C 
BRANCH   9  10
ATOM     10  C   UNL     1       2.325  -1.070   5.915  1.00  0.00    -0.000 C 
BRANCH  10  11
ATOM     11  C   UNL     1       2.849  -2.484   5.578  1.00  0.00    -0.000 C 
BRANCH  11  12
ATOM     12  C   UNL     1       3.285  -3.289   6.813  1.00  0.00    -0.003 C 
ATOM     13  C   UNL     1       2.475  -4.568   7.011  1.00  0.00     0.004 C 
ENDBRANCH  11  12
ENDBRANCH  10  11
ENDBRANCH   9  10
ENDBRANCH   8   9
ENDBRANCH   1   8
TORSDOF 9
ENDMDL
