MODEL 1
REMARK VINA RESULT:    -6.810      0.000      0.000
REMARK INTER + INTRA:          -7.244
REMARK INTER:                  -7.208
REMARK INTRA:                  -0.036
REMARK UNBOUND:                -0.036
REMARK SMILES COc1ccc2ccc(=O)oc2c1
REMARK SMILES IDX 3 1 13 2 12 3 6 4 5 5 4 6 7 7 8 8 9 9 10 10 11 11 2 12 1 13
REMARK H PARENT
REMARK Flexibility Score: inf
ROOT
ATOM      1  C   UNL     1       9.550  69.830   2.244  1.00  0.00     0.122 A 
ATOM      2  C   UNL     1       9.697  70.472   1.007  1.00  0.00     0.094 A 
ATOM      3  C   UNL     1       9.658  69.739  -0.183  1.00  0.00     0.142 A 
ATOM      4  C   UNL     1       9.468  68.341  -0.140  1.00  0.00     0.018 A 
ATOM      5  C   UNL     1       9.320  67.695   1.093  1.00  0.00     0.016 A 
ATOM      6  C   UNL     1       9.360  68.434   2.280  1.00  0.00     0.047 A 
ATOM      7  C   UNL     1       9.433  67.635  -1.346  1.00  0.00     0.019 A 
ATOM      8  C   UNL     1       9.585  68.327  -2.549  1.00  0.00     0.094 A 
ATOM      9  C   UNL     1       9.770  69.714  -2.515  1.00  0.00     0.336 A 
ATOM     10  O   UNL     1       9.909  70.356  -3.588  1.00  0.00    -0.246 OA
ATOM     11  O   UNL     1       9.799  70.360  -1.351  1.00  0.00    -0.423 OA
ENDROOT
BRANCH   1  12
ATOM     12  O   UNL     1       9.597  70.612   3.408  1.00  0.00    -0.497 OA
ATOM     13  C   UNL     1       8.646  71.619   3.739  1.00  0.00     0.278 C 
ENDBRANCH   1  12
TORSDOF 1
ENDMDL
MODEL 2
REMARK VINA RESULT:    -6.798      1.059      4.625
REMARK INTER + INTRA:          -7.231
REMARK INTER:                  -7.194
REMARK INTRA:                  -0.037
REMARK UNBOUND:                -0.036
REMARK SMILES COc1ccc2ccc(=O)oc2c1
REMARK SMILES IDX 3 1 13 2 12 3 6 4 5 5 4 6 7 7 8 8 9 9 10 10 11 11 2 12 1 13
REMARK H PARENT
REMARK Flexibility Score: inf
ROOT
ATOM      1  C   UNL     1       9.928  69.390  -1.892  1.00  0.00     0.122 A 
ATOM      2  C   UNL     1       9.987  70.149  -0.717  1.00  0.00     0.094 A 
ATOM      3  C   UNL     1       9.800  69.544   0.530  1.00  0.00     0.142 A 
ATOM      4  C   UNL     1       9.551  68.157   0.606  1.00  0.00     0.018 A 
ATOM      5  C   UNL     1       9.492  67.393  -0.566  1.00  0.00     0.016 A 
ATOM      6  C   UNL     1       9.679  68.005  -1.810  1.00  0.00     0.047 A 
ATOM      7  C   UNL     1       9.369  67.579   1.866  1.00  0.00     0.019 A 
ATOM      8  C   UNL     1       9.438  68.384   3.004  1.00  0.00     0.094 A 
ATOM      9  C   UNL     1       9.688  69.752   2.853  1.00  0.00     0.336 A 
ATOM     10  O   UNL     1       9.754  70.496   3.866  1.00  0.00    -0.246 OA
ATOM     11  O   UNL     1       9.858  70.275   1.640  1.00  0.00    -0.423 OA
ENDROOT
BRANCH   1  12
ATOM     12  O   UNL     1      10.122  70.046  -3.118  1.00  0.00    -0.497 OA
ATOM     13  C   UNL     1      11.250  70.859  -3.424  1.00  0.00     0.278 C 
ENDBRANCH   1  12
TORSDOF 1
ENDMDL
MODEL 3
REMARK VINA RESULT:    -6.494      1.479      2.472
REMARK INTER + INTRA:          -6.909
REMARK INTER:                  -6.876
REMARK INTRA:                  -0.033
REMARK UNBOUND:                -0.036
REMARK SMILES COc1ccc2ccc(=O)oc2c1
REMARK SMILES IDX 3 1 13 2 12 3 6 4 5 5 4 6 7 7 8 8 9 9 10 10 11 11 2 12 1 13
REMARK H PARENT
REMARK Flexibility Score: inf
ROOT
ATOM      1  C   UNL     1       9.770  71.134   1.728  1.00  0.00     0.122 A 
ATOM      2  C   UNL     1       9.526  69.912   1.089  1.00  0.00     0.094 A 
ATOM      3  C   UNL     1       9.637  69.802  -0.301  1.00  0.00     0.142 A 
ATOM      4  C   UNL     1       9.999  70.930  -1.067  1.00  0.00     0.018 A 
ATOM      5  C   UNL     1      10.245  72.155  -0.433  1.00  0.00     0.016 A 
ATOM      6  C   UNL     1      10.131  72.257   0.957  1.00  0.00     0.047 A 
ATOM      7  C   UNL     1      10.103  70.790  -2.454  1.00  0.00     0.019 A 
ATOM      8  C   UNL     1       9.848  69.549  -3.037  1.00  0.00     0.094 A 
ATOM      9  C   UNL     1       9.494  68.473  -2.215  1.00  0.00     0.336 A 
ATOM     10  O   UNL     1       9.260  67.345  -2.721  1.00  0.00    -0.246 OA
ATOM     11  O   UNL     1       9.403  68.635  -0.897  1.00  0.00    -0.423 OA
ENDROOT
BRANCH   1  12
ATOM     12  O   UNL     1       9.644  71.190   3.125  1.00  0.00    -0.497 OA
ATOM     13  C   UNL     1       8.444  71.530   3.810  1.00  0.00     0.278 C 
ENDBRANCH   1  12
TORSDOF 1
ENDMDL
MODEL 4
REMARK VINA RESULT:    -6.462      1.787      5.070
REMARK INTER + INTRA:          -6.875
REMARK INTER:                  -6.842
REMARK INTRA:                  -0.033
REMARK UNBOUND:                -0.036
REMARK SMILES COc1ccc2ccc(=O)oc2c1
REMARK SMILES IDX 3 1 13 2 12 3 6 4 5 5 4 6 7 7 8 8 9 9 10 10 11 11 2 12 1 13
REMARK H PARENT
REMARK Flexibility Score: inf
ROOT
ATOM      1  C   UNL     1      10.132  70.959  -1.496  1.00  0.00     0.122 A 
ATOM      2  C   UNL     1      10.029  69.766  -0.769  1.00  0.00     0.094 A 
ATOM      3  C   UNL     1       9.873  69.792   0.620  1.00  0.00     0.142 A 
ATOM      4  C   UNL     1       9.817  71.030   1.297  1.00  0.00     0.018 A 
ATOM      5  C   UNL     1       9.918  72.225   0.574  1.00  0.00     0.016 A 
ATOM      6  C   UNL     1      10.076  72.191  -0.815  1.00  0.00     0.047 A 
ATOM      7  C   UNL     1       9.660  71.025   2.686  1.00  0.00     0.019 A 
ATOM      8  C   UNL     1       9.563  69.806   3.359  1.00  0.00     0.094 A 
ATOM      9  C   UNL     1       9.626  68.618   2.623  1.00  0.00     0.336 A 
ATOM     10  O   UNL     1       9.541  67.509   3.211  1.00  0.00    -0.246 OA
ATOM     11  O   UNL     1       9.777  68.653   1.300  1.00  0.00    -0.423 OA
ENDROOT
BRANCH   1  12
ATOM     12  O   UNL     1      10.288  70.877  -2.889  1.00  0.00    -0.497 OA
ATOM     13  C   UNL     1      11.545  70.859  -3.557  1.00  0.00     0.278 C 
ENDBRANCH   1  12
TORSDOF 1
ENDMDL
MODEL 5
REMARK VINA RESULT:    -6.355      1.819      4.396
REMARK INTER + INTRA:          -6.762
REMARK INTER:                  -6.722
REMARK INTRA:                  -0.040
REMARK UNBOUND:                -0.036
REMARK SMILES COc1ccc2ccc(=O)oc2c1
REMARK SMILES IDX 3 1 13 2 12 3 6 4 5 5 4 6 7 7 8 8 9 9 10 10 11 11 2 12 1 13
REMARK H PARENT
REMARK Flexibility Score: inf
ROOT
ATOM      1  C   UNL     1       9.650  67.540  -0.359  1.00  0.00     0.122 A 
ATOM      2  C   UNL     1       9.890  68.916  -0.468  1.00  0.00     0.094 A 
ATOM      3  C   UNL     1       9.852  69.736   0.664  1.00  0.00     0.142 A 
ATOM      4  C   UNL     1       9.570  69.175   1.928  1.00  0.00     0.018 A 
ATOM      5  C   UNL     1       9.330  67.800   2.043  1.00  0.00     0.016 A 
ATOM      6  C   UNL     1       9.370  66.986   0.906  1.00  0.00     0.047 A 
ATOM      7  C   UNL     1       9.538  70.020   3.041  1.00  0.00     0.019 A 
ATOM      8  C   UNL     1       9.785  71.383   2.873  1.00  0.00     0.094 A 
ATOM      9  C   UNL     1      10.057  71.869   1.590  1.00  0.00     0.336 A 
ATOM     10  O   UNL     1      10.282  73.095   1.417  1.00  0.00    -0.246 OA
ATOM     11  O   UNL     1      10.081  71.042   0.547  1.00  0.00    -0.423 OA
ENDROOT
BRANCH   1  12
ATOM     12  O   UNL     1       9.701  66.762  -1.526  1.00  0.00    -0.497 OA
ATOM     13  C   UNL     1       9.210  67.183  -2.794  1.00  0.00     0.278 C 
ENDBRANCH   1  12
TORSDOF 1
ENDMDL
MODEL 6
REMARK VINA RESULT:    -6.238      1.997      2.751
REMARK INTER + INTRA:          -6.639
REMARK INTER:                  -6.600
REMARK INTRA:                  -0.038
REMARK UNBOUND:                -0.036
REMARK SMILES COc1ccc2ccc(=O)oc2c1
REMARK SMILES IDX 3 1 13 2 12 3 6 4 5 5 4 6 7 7 8 8 9 9 10 10 11 11 2 12 1 13
REMARK H PARENT
REMARK Flexibility Score: inf
ROOT
ATOM      1  C   UNL     1       9.300  67.707   0.941  1.00  0.00     0.122 A 
ATOM      2  C   UNL     1       9.445  69.100   0.967  1.00  0.00     0.094 A 
ATOM      3  C   UNL     1       9.727  69.807  -0.206  1.00  0.00     0.142 A 
ATOM      4  C   UNL     1       9.865  69.113  -1.427  1.00  0.00     0.018 A 
ATOM      5  C   UNL     1       9.721  67.721  -1.459  1.00  0.00     0.016 A 
ATOM      6  C   UNL     1       9.439  67.020  -0.282  1.00  0.00     0.047 A 
ATOM      7  C   UNL     1      10.148  69.847  -2.584  1.00  0.00     0.019 A 
ATOM      8  C   UNL     1      10.282  71.233  -2.498  1.00  0.00     0.094 A 
ATOM      9  C   UNL     1      10.131  71.854  -1.254  1.00  0.00     0.336 A 
ATOM     10  O   UNL     1      10.248  73.103  -1.156  1.00  0.00    -0.246 OA
ATOM     11  O   UNL     1       9.863  71.130  -0.169  1.00  0.00    -0.423 OA
ENDROOT
BRANCH   1  12
ATOM     12  O   UNL     1       9.017  67.046   2.146  1.00  0.00    -0.497 OA
ATOM     13  C   UNL     1       9.708  67.274   3.369  1.00  0.00     0.278 C 
ENDBRANCH   1  12
TORSDOF 1
ENDMDL
MODEL 7
REMARK VINA RESULT:    -6.225      1.963      4.673
REMARK INTER + INTRA:          -6.625
REMARK INTER:                  -6.585
REMARK INTRA:                  -0.039
REMARK UNBOUND:                -0.036
REMARK SMILES COc1ccc2ccc(=O)oc2c1
REMARK SMILES IDX 3 1 13 2 12 3 6 4 5 5 4 6 7 7 8 8 9 9 10 10 11 11 2 12 1 13
REMARK H PARENT
REMARK Flexibility Score: inf
ROOT
ATOM      1  C   UNL     1       9.821  70.779  -0.894  1.00  0.00     0.122 A 
ATOM      2  C   UNL     1       9.436  69.451  -0.668  1.00  0.00     0.094 A 
ATOM      3  C   UNL     1       9.450  68.917   0.625  1.00  0.00     0.142 A 
ATOM      4  C   UNL     1       9.854  69.722   1.712  1.00  0.00     0.018 A 
ATOM      5  C   UNL     1      10.239  71.050   1.492  1.00  0.00     0.016 A 
ATOM      6  C   UNL     1      10.222  71.577   0.196  1.00  0.00     0.047 A 
ATOM      7  C   UNL     1       9.858  69.161   2.992  1.00  0.00     0.019 A 
ATOM      8  C   UNL     1       9.465  67.832   3.158  1.00  0.00     0.094 A 
ATOM      9  C   UNL     1       9.077  67.094   2.034  1.00  0.00     0.336 A 
ATOM     10  O   UNL     1       8.720  65.894   2.163  1.00  0.00    -0.246 OA
ATOM     11  O   UNL     1       9.084  67.654   0.827  1.00  0.00    -0.423 OA
ENDROOT
BRANCH   1  12
ATOM     12  O   UNL     1       9.788  71.265  -2.210  1.00  0.00    -0.497 OA
ATOM     13  C   UNL     1      10.184  70.515  -3.353  1.00  0.00     0.278 C 
ENDBRANCH   1  12
TORSDOF 1
ENDMDL
MODEL 8
REMARK VINA RESULT:    -6.213      1.691      4.996
REMARK INTER + INTRA:          -6.612
REMARK INTER:                  -6.571
REMARK INTRA:                  -0.041
REMARK UNBOUND:                -0.036
REMARK SMILES COc1ccc2ccc(=O)oc2c1
REMARK SMILES IDX 3 1 13 2 12 3 6 4 5 5 4 6 7 7 8 8 9 9 10 10 11 11 2 12 1 13
REMARK H PARENT
REMARK Flexibility Score: inf
ROOT
ATOM      1  C   UNL     1       9.545  68.508  -1.636  1.00  0.00     0.122 A 
ATOM      2  C   UNL     1       9.449  68.559  -0.239  1.00  0.00     0.094 A 
ATOM      3  C   UNL     1       9.643  69.764   0.443  1.00  0.00     0.142 A 
ATOM      4  C   UNL     1       9.937  70.940  -0.280  1.00  0.00     0.018 A 
ATOM      5  C   UNL     1      10.034  70.895  -1.676  1.00  0.00     0.016 A 
ATOM      6  C   UNL     1       9.840  69.686  -2.352  1.00  0.00     0.047 A 
ATOM      7  C   UNL     1      10.126  72.129   0.430  1.00  0.00     0.019 A 
ATOM      8  C   UNL     1      10.018  72.121   1.821  1.00  0.00     0.094 A 
ATOM      9  C   UNL     1       9.723  70.917   2.471  1.00  0.00     0.336 A 
ATOM     10  O   UNL     1       9.622  70.888   3.725  1.00  0.00    -0.246 OA
ATOM     11  O   UNL     1       9.549  69.799   1.770  1.00  0.00    -0.423 OA
ENDROOT
BRANCH   1  12
ATOM     12  O   UNL     1       9.342  67.274  -2.272  1.00  0.00    -0.497 OA
ATOM     13  C   UNL     1       9.684  66.013  -1.707  1.00  0.00     0.278 C 
ENDBRANCH   1  12
TORSDOF 1
ENDMDL
MODEL 9
REMARK VINA RESULT:    -6.192      1.555      2.875
REMARK INTER + INTRA:          -6.590
REMARK INTER:                  -6.549
REMARK INTRA:                  -0.040
REMARK UNBOUND:                -0.036
REMARK SMILES COc1ccc2ccc(=O)oc2c1
REMARK SMILES IDX 3 1 13 2 12 3 6 4 5 5 4 6 7 7 8 8 9 9 10 10 11 11 2 12 1 13
REMARK H PARENT
REMARK Flexibility Score: inf
ROOT
ATOM      1  C   UNL     1       9.567  68.464   2.060  1.00  0.00     0.122 A 
ATOM      2  C   UNL     1       9.659  68.428   0.663  1.00  0.00     0.094 A 
ATOM      3  C   UNL     1       9.830  69.607  -0.069  1.00  0.00     0.142 A 
ATOM      4  C   UNL     1       9.914  70.844   0.605  1.00  0.00     0.018 A 
ATOM      5  C   UNL     1       9.824  70.886   2.002  1.00  0.00     0.016 A 
ATOM      6  C   UNL     1       9.651  69.702   2.727  1.00  0.00     0.047 A 
ATOM      7  C   UNL     1      10.086  72.007  -0.153  1.00  0.00     0.019 A 
ATOM      8  C   UNL     1      10.170  71.911  -1.542  1.00  0.00     0.094 A 
ATOM      9  C   UNL     1      10.080  70.650  -2.142  1.00  0.00     0.336 A 
ATOM     10  O   UNL     1      10.153  70.543  -3.394  1.00  0.00    -0.246 OA
ATOM     11  O   UNL     1       9.916  69.560  -1.396  1.00  0.00    -0.423 OA
ENDROOT
BRANCH   1  12
ATOM     12  O   UNL     1       9.395  67.251   2.746  1.00  0.00    -0.497 OA
ATOM     13  C   UNL     1       8.649  66.146   2.248  1.00  0.00     0.278 C 
ENDBRANCH   1  12
TORSDOF 1
ENDMDL
