MODEL 1
REMARK VINA RESULT:     1.481      0.000      0.000
REMARK INTER + INTRA:           1.861
REMARK INTER:                   2.780
REMARK INTRA:                  -0.919
REMARK UNBOUND:                -0.919
REMARK SMILES O=C([O-])CCCCCCCCCCCCCCC(=O)[O-]
REMARK SMILES IDX 10 1 9 2 8 3 7 4 6 5 5 6 4 7 2 8 1 9 3 10 11 11 12 12 13 13
REMARK SMILES IDX 14 14 15 15 16 16 17 17 18 18 19 19 20 20
REMARK H PARENT
REMARK Flexibility Score: inf
ROOT
ATOM      1  C   UNL     1     104.664 104.762 102.411  1.00  0.00     0.000 C 
ENDROOT
BRANCH   1   2
ATOM      2  C   UNL     1     104.334 106.263 102.406  1.00  0.00     0.000 C 
BRANCH   2   3
ATOM      3  C   UNL     1     104.558 106.911 101.029  1.00  0.00     0.000 C 
BRANCH   3   4
ATOM      4  C   UNL     1     104.760 105.870  99.915  1.00  0.00     0.000 C 
BRANCH   4   5
ATOM      5  C   UNL     1     104.570 106.470  98.512  1.00  0.00     0.000 C 
BRANCH   5   6
ATOM      6  C   UNL     1     104.071 105.438  97.486  1.00  0.00     0.006 C 
BRANCH   6   7
ATOM      7  C   UNL     1     104.624 104.030  97.743  1.00  0.00     0.053 C 
BRANCH   7   8
ATOM      8  C   UNL     1     103.517 103.025  97.745  1.00  0.00     0.041 C 
ATOM      9  O   UNL     1     102.316 103.403  97.771  1.00  0.00    -0.550 OA
ATOM     10  O   UNL     1     103.811 101.668  97.768  1.00  0.00    -0.550 OA
ENDBRANCH   7   8
ENDBRANCH   6   7
ENDBRANCH   5   6
ENDBRANCH   4   5
ENDBRANCH   3   4
ENDBRANCH   2   3
ENDBRANCH   1   2
BRANCH   1  11
ATOM     11  C   UNL     1     103.405 103.877 102.363  1.00  0.00     0.000 C 
BRANCH  11  12
ATOM     12  C   UNL     1     103.740 102.370 102.385  1.00  0.00     0.000 C 
BRANCH  12  13
ATOM     13  C   UNL     1     103.395 101.676 103.717  1.00  0.00     0.000 C 
BRANCH  13  14
ATOM     14  C   UNL     1     103.239 102.619 104.924  1.00  0.00     0.000 C 
BRANCH  14  15
ATOM     15  C   UNL     1     103.502 101.966 106.294  1.00  0.00     0.000 C 
BRANCH  15  16
ATOM     16  C   UNL     1     103.726 102.996 107.413  1.00  0.00     0.006 C 
BRANCH  16  17
ATOM     17  C   UNL     1     103.449 104.430 106.945  1.00  0.00     0.053 C 
BRANCH  17  18
ATOM     18  C   UNL     1     104.589 105.347 107.271  1.00  0.00     0.041 C 
ATOM     19  O   UNL     1     105.772 104.912 107.279  1.00  0.00    -0.550 OA
ATOM     20  O   UNL     1     104.347 106.690 107.529  1.00  0.00    -0.550 OA
ENDBRANCH  17  18
ENDBRANCH  16  17
ENDBRANCH  15  16
ENDBRANCH  14  15
ENDBRANCH  13  14
ENDBRANCH  12  13
ENDBRANCH  11  12
ENDBRANCH   1  11
TORSDOF 15
ENDMDL
MODEL 2
REMARK VINA RESULT:     1.611      3.318      6.004
REMARK INTER + INTRA:           2.105
REMARK INTER:                   2.998
REMARK INTRA:                  -0.893
REMARK UNBOUND:                -0.919
REMARK SMILES O=C([O-])CCCCCCCCCCCCCCC(=O)[O-]
REMARK SMILES IDX 10 1 9 2 8 3 7 4 6 5 5 6 4 7 2 8 1 9 3 10 11 11 12 12 13 13
REMARK SMILES IDX 14 14 15 15 16 16 17 17 18 18 19 19 20 20
REMARK H PARENT
REMARK Flexibility Score: inf
ROOT
ATOM      1  C   UNL     1     103.367 103.599 107.179  1.00  0.00     0.000 C 
ENDROOT
BRANCH   1   2
ATOM      2  C   UNL     1     103.691 102.098 107.129  1.00  0.00     0.000 C 
BRANCH   2   3
ATOM      3  C   UNL     1     103.340 101.463 105.773  1.00  0.00     0.000 C 
BRANCH   3   4
ATOM      4  C   UNL     1     103.230 102.505 104.647  1.00  0.00     0.000 C 
BRANCH   4   5
ATOM      5  C   UNL     1     103.409 101.882 103.253  1.00  0.00     0.000 C 
BRANCH   5   6
ATOM      6  C   UNL     1     103.927 102.889 102.212  1.00  0.00     0.006 C 
BRANCH   6   7
ATOM      7  C   UNL     1     103.387 104.307 102.439  1.00  0.00     0.053 C 
BRANCH   7   8
ATOM      8  C   UNL     1     104.510 105.293 102.489  1.00  0.00     0.041 C 
ATOM      9  O   UNL     1     105.705 104.895 102.486  1.00  0.00    -0.550 OA
ATOM     10  O   UNL     1     104.238 106.651 102.591  1.00  0.00    -0.550 OA
ENDBRANCH   7   8
ENDBRANCH   6   7
ENDBRANCH   5   6
ENDBRANCH   4   5
ENDBRANCH   3   4
ENDBRANCH   2   3
ENDBRANCH   1   2
BRANCH   1  11
ATOM     11  C   UNL     1     104.627 104.481 107.120  1.00  0.00     0.000 C 
BRANCH  11  12
ATOM     12  C   UNL     1     104.296 105.989 107.167  1.00  0.00     0.000 C 
BRANCH  12  13
ATOM     13  C   UNL     1     104.639 106.659 108.512  1.00  0.00     0.000 C 
BRANCH  13  14
ATOM     14  C   UNL     1     104.689 105.708 109.722  1.00  0.00     0.000 C 
BRANCH  14  15
ATOM     15  C   UNL     1     104.346 106.362 111.073  1.00  0.00     0.000 C 
BRANCH  15  16
ATOM     16  C   UNL     1     104.311 105.353 112.232  1.00  0.00     0.006 C 
BRANCH  16  17
ATOM     17  C   UNL     1     104.630 103.926 111.769  1.00  0.00     0.053 C 
BRANCH  17  18
ATOM     18  C   UNL     1     103.479 102.997 112.011  1.00  0.00     0.041 C 
ATOM     19  O   UNL     1     102.310 103.452 112.131  1.00  0.00    -0.550 OA
ATOM     20  O   UNL     1     103.694 101.625 112.067  1.00  0.00    -0.550 OA
ENDBRANCH  17  18
ENDBRANCH  16  17
ENDBRANCH  15  16
ENDBRANCH  14  15
ENDBRANCH  13  14
ENDBRANCH  12  13
ENDBRANCH  11  12
ENDBRANCH   1  11
TORSDOF 15
ENDMDL
MODEL 3
REMARK VINA RESULT:     1.620      3.112      9.508
REMARK INTER + INTRA:           2.122
REMARK INTER:                   3.086
REMARK INTRA:                  -0.964
REMARK UNBOUND:                -0.919
REMARK SMILES O=C([O-])CCCCCCCCCCCCCCC(=O)[O-]
REMARK SMILES IDX 10 1 9 2 8 3 7 4 6 5 5 6 4 7 2 8 1 9 3 10 11 11 12 12 13 13
REMARK SMILES IDX 14 14 15 15 16 16 17 17 18 18 19 19 20 20
REMARK H PARENT
REMARK Flexibility Score: inf
ROOT
ATOM      1  C   UNL     1     103.378 103.885 107.124  1.00  0.00     0.000 C 
ENDROOT
BRANCH   1   2
ATOM      2  C   UNL     1     103.643 102.372 107.119  1.00  0.00     0.000 C 
BRANCH   2   3
ATOM      3  C   UNL     1     103.315 101.712 108.470  1.00  0.00     0.000 C 
BRANCH   3   4
ATOM      4  C   UNL     1     103.200 102.736 109.611  1.00  0.00     0.000 C 
BRANCH   4   5
ATOM      5  C   UNL     1     103.430 102.100 110.993  1.00  0.00     0.000 C 
BRANCH   5   6
ATOM      6  C   UNL     1     103.691 103.144 112.092  1.00  0.00     0.006 C 
BRANCH   6   7
ATOM      7  C   UNL     1     103.458 104.582 111.613  1.00  0.00     0.053 C 
BRANCH   7   8
ATOM      8  C   UNL     1     104.601 105.459 112.011  1.00  0.00     0.041 C 
ATOM      9  O   UNL     1     104.397 106.657 112.341  1.00  0.00    -0.550 OA
ATOM     10  O   UNL     1     105.900 104.968 111.970  1.00  0.00    -0.550 OA
ENDBRANCH   7   8
ENDBRANCH   6   7
ENDBRANCH   5   6
ENDBRANCH   4   5
ENDBRANCH   3   4
ENDBRANCH   2   3
ENDBRANCH   1   2
BRANCH   1  11
ATOM     11  C   UNL     1     104.675 104.715 107.136  1.00  0.00     0.000 C 
BRANCH  11  12
ATOM     12  C   UNL     1     104.405 106.235 107.131  1.00  0.00     0.000 C 
BRANCH  12  13
ATOM     13  C   UNL     1     104.506 106.880 105.735  1.00  0.00     0.000 C 
BRANCH  13  14
ATOM     14  C   UNL     1     104.808 105.903 104.584  1.00  0.00     0.000 C 
BRANCH  14  15
ATOM     15  C   UNL     1     104.551 106.465 103.174  1.00  0.00     0.000 C 
BRANCH  15  16
ATOM     16  C   UNL     1     104.128 105.382 102.168  1.00  0.00     0.006 C 
BRANCH  16  17
ATOM     17  C   UNL     1     104.586 103.982 102.596  1.00  0.00     0.053 C 
BRANCH  17  18
ATOM     18  C   UNL     1     103.463 102.992 102.539  1.00  0.00     0.041 C 
ATOM     19  O   UNL     1     102.268 103.389 102.476  1.00  0.00    -0.550 OA
ATOM     20  O   UNL     1     103.738 101.630 102.519  1.00  0.00    -0.550 OA
ENDBRANCH  17  18
ENDBRANCH  16  17
ENDBRANCH  15  16
ENDBRANCH  14  15
ENDBRANCH  13  14
ENDBRANCH  12  13
ENDBRANCH  11  12
ENDBRANCH   1  11
TORSDOF 15
ENDMDL
MODEL 4
REMARK VINA RESULT:     1.622      0.107      8.271
REMARK INTER + INTRA:           2.124
REMARK INTER:                   3.072
REMARK INTRA:                  -0.948
REMARK UNBOUND:                -0.919
REMARK SMILES O=C([O-])CCCCCCCCCCCCCCC(=O)[O-]
REMARK SMILES IDX 10 1 9 2 8 3 7 4 6 5 5 6 4 7 2 8 1 9 3 10 11 11 12 12 13 13
REMARK SMILES IDX 14 14 15 15 16 16 17 17 18 18 19 19 20 20
REMARK H PARENT
REMARK Flexibility Score: inf
ROOT
ATOM      1  C   UNL     1     103.381 103.900 102.465  1.00  0.00     0.000 C 
ENDROOT
BRANCH   1   2
ATOM      2  C   UNL     1     103.727 102.402 102.478  1.00  0.00     0.000 C 
BRANCH   2   3
ATOM      3  C   UNL     1     103.363 101.725 103.811  1.00  0.00     0.000 C 
BRANCH   3   4
ATOM      4  C   UNL     1     103.270 102.727 104.974  1.00  0.00     0.000 C 
BRANCH   4   5
ATOM      5  C   UNL     1     103.632 102.089 106.326  1.00  0.00     0.000 C 
BRANCH   5   6
ATOM      6  C   UNL     1     103.611 103.100 107.485  1.00  0.00     0.006 C 
BRANCH   6   7
ATOM      7  C   UNL     1     103.344 104.536 107.016  1.00  0.00     0.053 C 
BRANCH   7   8
ATOM      8  C   UNL     1     104.534 105.402 107.278  1.00  0.00     0.041 C 
ATOM      9  O   UNL     1     104.390 106.639 107.467  1.00  0.00    -0.550 OA
ATOM     10  O   UNL     1     105.810 104.853 107.264  1.00  0.00    -0.550 OA
ENDBRANCH   7   8
ENDBRANCH   6   7
ENDBRANCH   5   6
ENDBRANCH   4   5
ENDBRANCH   3   4
ENDBRANCH   2   3
ENDBRANCH   1   2
BRANCH   1  11
ATOM     11  C   UNL     1     104.632 104.798 102.470  1.00  0.00     0.000 C 
BRANCH  11  12
ATOM     12  C   UNL     1     104.283 106.297 102.344  1.00  0.00     0.000 C 
BRANCH  12  13
ATOM     13  C   UNL     1     104.635 106.904 100.973  1.00  0.00     0.000 C 
BRANCH  13  14
ATOM     14  C   UNL     1     104.734 105.893  99.816  1.00  0.00     0.000 C 
BRANCH  14  15
ATOM     15  C   UNL     1     104.476 106.483  98.417  1.00  0.00     0.000 C 
BRANCH  15  16
ATOM     16  C   UNL     1     104.099 105.414  97.379  1.00  0.00     0.006 C 
BRANCH  16  17
ATOM     17  C   UNL     1     104.610 104.021  97.770  1.00  0.00     0.053 C 
BRANCH  17  18
ATOM     18  C   UNL     1     103.502 103.011  97.785  1.00  0.00     0.041 C 
ATOM     19  O   UNL     1     102.300 103.387  97.759  1.00  0.00    -0.550 OA
ATOM     20  O   UNL     1     103.800 101.654  97.790  1.00  0.00    -0.550 OA
ENDBRANCH  17  18
ENDBRANCH  16  17
ENDBRANCH  15  16
ENDBRANCH  14  15
ENDBRANCH  13  14
ENDBRANCH  12  13
ENDBRANCH  11  12
ENDBRANCH   1  11
TORSDOF 15
ENDMDL
MODEL 5
REMARK VINA RESULT:     1.625      2.012      3.674
REMARK INTER + INTRA:           2.132
REMARK INTER:                   3.129
REMARK INTRA:                  -0.997
REMARK UNBOUND:                -0.919
REMARK SMILES O=C([O-])CCCCCCCCCCCCCCC(=O)[O-]
REMARK SMILES IDX 10 1 9 2 8 3 7 4 6 5 5 6 4 7 2 8 1 9 3 10 11 11 12 12 13 13
REMARK SMILES IDX 14 14 15 15 16 16 17 17 18 18 19 19 20 20
REMARK H PARENT
REMARK Flexibility Score: inf
ROOT
ATOM      1  C   UNL     1     103.347 103.555 102.280  1.00  0.00     0.000 C 
ENDROOT
BRANCH   1   2
ATOM      2  C   UNL     1     103.638 102.045 102.276  1.00  0.00     0.000 C 
BRANCH   2   3
ATOM      3  C   UNL     1     103.353 101.395 100.911  1.00  0.00     0.000 C 
BRANCH   3   4
ATOM      4  C   UNL     1     103.260 102.427  99.775  1.00  0.00     0.000 C 
BRANCH   4   5
ATOM      5  C   UNL     1     103.613 101.824  98.405  1.00  0.00     0.000 C 
BRANCH   5   6
ATOM      6  C   UNL     1     103.827 102.894  97.321  1.00  0.00     0.006 C 
BRANCH   6   7
ATOM      7  C   UNL     1     103.370 104.289  97.765  1.00  0.00     0.053 C 
BRANCH   7   8
ATOM      8  C   UNL     1     104.519 105.245  97.753  1.00  0.00     0.041 C 
ATOM      9  O   UNL     1     105.703 104.815  97.752  1.00  0.00    -0.550 OA
ATOM     10  O   UNL     1     104.285 106.614  97.795  1.00  0.00    -0.550 OA
ENDBRANCH   7   8
ENDBRANCH   6   7
ENDBRANCH   5   6
ENDBRANCH   4   5
ENDBRANCH   3   4
ENDBRANCH   2   3
ENDBRANCH   1   2
BRANCH   1  11
ATOM     11  C   UNL     1     104.619 104.404 102.458  1.00  0.00     0.000 C 
BRANCH  11  12
ATOM     12  C   UNL     1     104.323 105.919 102.456  1.00  0.00     0.000 C 
BRANCH  12  13
ATOM     13  C   UNL     1     104.667 106.621 103.784  1.00  0.00     0.000 C 
BRANCH  13  14
ATOM     14  C   UNL     1     104.753 105.694 105.010  1.00  0.00     0.000 C 
BRANCH  14  15
ATOM     15  C   UNL     1     104.451 106.375 106.358  1.00  0.00     0.000 C 
BRANCH  15  16
ATOM     16  C   UNL     1     104.225 105.368 107.498  1.00  0.00     0.006 C 
BRANCH  16  17
ATOM     17  C   UNL     1     104.627 103.942 107.100  1.00  0.00     0.053 C 
BRANCH  17  18
ATOM     18  C   UNL     1     103.485 102.983 107.253  1.00  0.00     0.041 C 
ATOM     19  O   UNL     1     102.298 103.406 107.266  1.00  0.00    -0.550 OA
ATOM     20  O   UNL     1     103.731 101.619 107.343  1.00  0.00    -0.550 OA
ENDBRANCH  17  18
ENDBRANCH  16  17
ENDBRANCH  15  16
ENDBRANCH  14  15
ENDBRANCH  13  14
ENDBRANCH  12  13
ENDBRANCH  11  12
ENDBRANCH   1  11
TORSDOF 15
ENDMDL
MODEL 6
REMARK VINA RESULT:     1.627      3.329      8.847
REMARK INTER + INTRA:           2.135
REMARK INTER:                   3.013
REMARK INTRA:                  -0.878
REMARK UNBOUND:                -0.919
REMARK SMILES O=C([O-])CCCCCCCCCCCCCCC(=O)[O-]
REMARK SMILES IDX 10 1 9 2 8 3 7 4 6 5 5 6 4 7 2 8 1 9 3 10 11 11 12 12 13 13
REMARK SMILES IDX 14 14 15 15 16 16 17 17 18 18 19 19 20 20
REMARK H PARENT
REMARK Flexibility Score: inf
ROOT
ATOM      1  C   UNL     1     104.617 104.456 107.133  1.00  0.00     0.000 C 
ENDROOT
BRANCH   1   2
ATOM      2  C   UNL     1     104.352 105.970 107.146  1.00  0.00     0.000 C 
BRANCH   2   3
ATOM      3  C   UNL     1     104.710 106.619 108.494  1.00  0.00     0.000 C 
BRANCH   3   4
ATOM      4  C   UNL     1     104.793 105.594 109.637  1.00  0.00     0.000 C 
BRANCH   4   5
ATOM      5  C   UNL     1     104.540 106.230 111.014  1.00  0.00     0.000 C 
BRANCH   5   6
ATOM      6  C   UNL     1     104.297 105.186 112.117  1.00  0.00     0.006 C 
BRANCH   6   7
ATOM      7  C   UNL     1     104.592 103.754 111.654  1.00  0.00     0.053 C 
BRANCH   7   8
ATOM      8  C   UNL     1     103.464 102.843 112.019  1.00  0.00     0.041 C 
ATOM      9  O   UNL     1     103.677 101.617 112.216  1.00  0.00    -0.550 OA
ATOM     10  O   UNL     1     102.168 103.336 112.091  1.00  0.00    -0.550 OA
ENDBRANCH   7   8
ENDBRANCH   6   7
ENDBRANCH   5   6
ENDBRANCH   4   5
ENDBRANCH   3   4
ENDBRANCH   2   3
ENDBRANCH   1   2
BRANCH   1  11
ATOM     11  C   UNL     1     103.321 103.626 107.176  1.00  0.00     0.000 C 
BRANCH  11  12
ATOM     12  C   UNL     1     103.592 102.105 107.153  1.00  0.00     0.000 C 
BRANCH  12  13
ATOM     13  C   UNL     1     103.510 101.480 105.748  1.00  0.00     0.000 C 
BRANCH  13  14
ATOM     14  C   UNL     1     103.235 102.475 104.605  1.00  0.00     0.000 C 
BRANCH  14  15
ATOM     15  C   UNL     1     103.355 101.882 103.189  1.00  0.00     0.000 C 
BRANCH  15  16
ATOM     16  C   UNL     1     103.978 102.863 102.182  1.00  0.00     0.006 C 
BRANCH  16  17
ATOM     17  C   UNL     1     103.439 104.290 102.354  1.00  0.00     0.053 C 
BRANCH  17  18
ATOM     18  C   UNL     1     104.549 105.282 102.522  1.00  0.00     0.041 C 
ATOM     19  O   UNL     1     105.748 104.895 102.559  1.00  0.00    -0.550 OA
ATOM     20  O   UNL     1     104.261 106.639 102.600  1.00  0.00    -0.550 OA
ENDBRANCH  17  18
ENDBRANCH  16  17
ENDBRANCH  15  16
ENDBRANCH  14  15
ENDBRANCH  13  14
ENDBRANCH  12  13
ENDBRANCH  11  12
ENDBRANCH   1  11
TORSDOF 15
ENDMDL
MODEL 7
REMARK VINA RESULT:     1.642      2.012      7.461
REMARK INTER + INTRA:           2.163
REMARK INTER:                   3.162
REMARK INTRA:                  -1.000
REMARK UNBOUND:                -0.919
REMARK SMILES O=C([O-])CCCCCCCCCCCCCCC(=O)[O-]
REMARK SMILES IDX 10 1 9 2 8 3 7 4 6 5 5 6 4 7 2 8 1 9 3 10 11 11 12 12 13 13
REMARK SMILES IDX 14 14 15 15 16 16 17 17 18 18 19 19 20 20
REMARK H PARENT
REMARK Flexibility Score: inf
ROOT
ATOM      1  C   UNL     1     104.616 104.600 102.525  1.00  0.00     0.000 C 
ENDROOT
BRANCH   1   2
ATOM      2  C   UNL     1     104.347 106.113 102.550  1.00  0.00     0.000 C 
BRANCH   2   3
ATOM      3  C   UNL     1     104.707 106.754 103.901  1.00  0.00     0.000 C 
BRANCH   3   4
ATOM      4  C   UNL     1     104.730 105.731 105.049  1.00  0.00     0.000 C 
BRANCH   4   5
ATOM      5  C   UNL     1     104.360 106.362 106.403  1.00  0.00     0.000 C 
BRANCH   5   6
ATOM      6  C   UNL     1     104.276 105.327 107.538  1.00  0.00     0.006 C 
BRANCH   6   7
ATOM      7  C   UNL     1     104.637 103.909 107.078  1.00  0.00     0.053 C 
BRANCH   7   8
ATOM      8  C   UNL     1     103.470 102.990 107.247  1.00  0.00     0.041 C 
ATOM      9  O   UNL     1     102.295 103.442 107.205  1.00  0.00    -0.550 OA
ATOM     10  O   UNL     1     103.680 101.641 107.504  1.00  0.00    -0.550 OA
ENDBRANCH   7   8
ENDBRANCH   6   7
ENDBRANCH   5   6
ENDBRANCH   4   5
ENDBRANCH   3   4
ENDBRANCH   2   3
ENDBRANCH   1   2
BRANCH   1  11
ATOM     11  C   UNL     1     103.329 103.771 102.359  1.00  0.00     0.000 C 
BRANCH  11  12
ATOM     12  C   UNL     1     103.594 102.250 102.421  1.00  0.00     0.000 C 
BRANCH  12  13
ATOM     13  C   UNL     1     103.572 101.559 101.044  1.00  0.00     0.000 C 
BRANCH  13  14
ATOM     14  C   UNL     1     103.188 102.469  99.862  1.00  0.00     0.000 C 
BRANCH  14  15
ATOM     15  C   UNL     1     103.421 101.853  98.470  1.00  0.00     0.000 C 
BRANCH  15  16
ATOM     16  C   UNL     1     103.951 102.873  97.448  1.00  0.00     0.006 C 
BRANCH  16  17
ATOM     17  C   UNL     1     103.418 104.287  97.711  1.00  0.00     0.053 C 
BRANCH  17  18
ATOM     18  C   UNL     1     104.528 105.292  97.776  1.00  0.00     0.041 C 
ATOM     19  O   UNL     1     105.730 104.912  97.774  1.00  0.00    -0.550 OA
ATOM     20  O   UNL     1     104.235 106.649  97.801  1.00  0.00    -0.550 OA
ENDBRANCH  17  18
ENDBRANCH  16  17
ENDBRANCH  15  16
ENDBRANCH  14  15
ENDBRANCH  13  14
ENDBRANCH  12  13
ENDBRANCH  11  12
ENDBRANCH   1  11
TORSDOF 15
ENDMDL
MODEL 8
REMARK VINA RESULT:     1.679      3.118      4.800
REMARK INTER + INTRA:           2.233
REMARK INTER:                   3.087
REMARK INTRA:                  -0.854
REMARK UNBOUND:                -0.919
REMARK SMILES O=C([O-])CCCCCCCCCCCCCCC(=O)[O-]
REMARK SMILES IDX 10 1 9 2 8 3 7 4 6 5 5 6 4 7 2 8 1 9 3 10 11 11 12 12 13 13
REMARK SMILES IDX 14 14 15 15 16 16 17 17 18 18 19 19 20 20
REMARK H PARENT
REMARK Flexibility Score: inf
ROOT
ATOM      1  C   UNL     1     104.650 104.774 107.182  1.00  0.00     0.000 C 
ENDROOT
BRANCH   1   2
ATOM      2  C   UNL     1     104.347 106.278 107.094  1.00  0.00     0.000 C 
BRANCH   2   3
ATOM      3  C   UNL     1     104.706 106.872 105.721  1.00  0.00     0.000 C 
BRANCH   3   4
ATOM      4  C   UNL     1     104.726 105.810 104.608  1.00  0.00     0.000 C 
BRANCH   4   5
ATOM      5  C   UNL     1     104.562 106.427 103.208  1.00  0.00     0.000 C 
BRANCH   5   6
ATOM      6  C   UNL     1     104.048 105.416 102.169  1.00  0.00     0.006 C 
BRANCH   6   7
ATOM      7  C   UNL     1     104.595 104.001 102.397  1.00  0.00     0.053 C 
BRANCH   7   8
ATOM      8  C   UNL     1     103.475 103.014 102.486  1.00  0.00     0.041 C 
ATOM      9  O   UNL     1     102.279 103.407 102.451  1.00  0.00    -0.550 OA
ATOM     10  O   UNL     1     103.751 101.664 102.661  1.00  0.00    -0.550 OA
ENDBRANCH   7   8
ENDBRANCH   6   7
ENDBRANCH   5   6
ENDBRANCH   4   5
ENDBRANCH   3   4
ENDBRANCH   2   3
ENDBRANCH   1   2
BRANCH   1  11
ATOM     11  C   UNL     1     103.378 103.908 107.139  1.00  0.00     0.000 C 
BRANCH  11  12
ATOM     12  C   UNL     1     103.691 102.396 107.168  1.00  0.00     0.000 C 
BRANCH  12  13
ATOM     13  C   UNL     1     103.318 101.708 108.495  1.00  0.00     0.000 C 
BRANCH  13  14
ATOM     14  C   UNL     1     103.290 102.634 109.725  1.00  0.00     0.000 C 
BRANCH  14  15
ATOM     15  C   UNL     1     103.562 101.933 111.069  1.00  0.00     0.000 C 
BRANCH  15  16
ATOM     16  C   UNL     1     103.711 102.921 112.238  1.00  0.00     0.006 C 
BRANCH  16  17
ATOM     17  C   UNL     1     103.323 104.351 111.842  1.00  0.00     0.053 C 
BRANCH  17  18
ATOM     18  C   UNL     1     104.476 105.297 111.988  1.00  0.00     0.041 C 
ATOM     19  O   UNL     1     104.276 106.539 112.054  1.00  0.00    -0.550 OA
ATOM     20  O   UNL     1     105.771 104.802 112.088  1.00  0.00    -0.550 OA
ENDBRANCH  17  18
ENDBRANCH  16  17
ENDBRANCH  15  16
ENDBRANCH  14  15
ENDBRANCH  13  14
ENDBRANCH  12  13
ENDBRANCH  11  12
ENDBRANCH   1  11
TORSDOF 15
ENDMDL
MODEL 9
REMARK VINA RESULT:     2.791      3.109      8.585
REMARK INTER + INTRA:           4.320
REMARK INTER:                   5.168
REMARK INTRA:                  -0.848
REMARK UNBOUND:                -0.919
REMARK SMILES O=C([O-])CCCCCCCCCCCCCCC(=O)[O-]
REMARK SMILES IDX 10 1 9 2 8 3 7 4 6 5 5 6 4 7 2 8 1 9 3 10 11 11 12 12 13 13
REMARK SMILES IDX 14 14 15 15 16 16 17 17 18 18 19 19 20 20
REMARK H PARENT
REMARK Flexibility Score: inf
ROOT
ATOM      1  C   UNL     1     103.338 103.443 107.178  1.00  0.00     0.000 C 
ENDROOT
BRANCH   1   2
ATOM      2  C   UNL     1     104.611 104.302 107.225  1.00  0.00     0.000 C 
BRANCH   2   3
ATOM      3  C   UNL     1     104.352 105.762 106.812  1.00  0.00     0.000 C 
BRANCH   3   4
ATOM      4  C   UNL     1     104.545 106.746 107.978  1.00  0.00     0.000 C 
BRANCH   4   5
ATOM      5  C   UNL     1     104.705 106.028 109.329  1.00  0.00     0.000 C 
BRANCH   5   6
ATOM      6  C   UNL     1     104.697 106.998 110.522  1.00  0.00     0.006 C 
BRANCH   6   7
ATOM      7  C   UNL     1     104.181 106.347 111.812  1.00  0.00     0.053 C 
BRANCH   7   8
ATOM      8  C   UNL     1     104.707 104.954 111.942  1.00  0.00     0.041 C 
ATOM      9  O   UNL     1     103.912 103.979 112.005  1.00  0.00    -0.550 OA
ATOM     10  O   UNL     1     106.075 104.733 112.045  1.00  0.00    -0.550 OA
ENDBRANCH   7   8
ENDBRANCH   6   7
ENDBRANCH   5   6
ENDBRANCH   4   5
ENDBRANCH   3   4
ENDBRANCH   2   3
ENDBRANCH   1   2
BRANCH   1  11
ATOM     11  C   UNL     1     103.639 101.933 107.198  1.00  0.00     0.000 C 
BRANCH  11  12
ATOM     12  C   UNL     1     103.298 101.244 105.858  1.00  0.00     0.000 C 
BRANCH  12  13
ATOM     13  C   UNL     1     103.285 102.203 104.652  1.00  0.00     0.000 C 
BRANCH  13  14
ATOM     14  C   UNL     1     103.312 101.518 103.273  1.00  0.00     0.000 C 
BRANCH  14  15
ATOM     15  C   UNL     1     103.726 102.432 102.105  1.00  0.00     0.000 C 
BRANCH  15  16
ATOM     16  C   UNL     1     103.475 103.921 102.395  1.00  0.00     0.006 C 
BRANCH  16  17
ATOM     17  C   UNL     1     104.781 104.720 102.493  1.00  0.00     0.053 C 
BRANCH  17  18
ATOM     18  C   UNL     1     104.544 106.189 102.316  1.00  0.00     0.041 C 
ATOM     19  O   UNL     1     104.410 106.677 101.162  1.00  0.00    -0.550 OA
ATOM     20  O   UNL     1     104.433 107.013 103.430  1.00  0.00    -0.550 OA
ENDBRANCH  17  18
ENDBRANCH  16  17
ENDBRANCH  15  16
ENDBRANCH  14  15
ENDBRANCH  13  14
ENDBRANCH  12  13
ENDBRANCH  11  12
ENDBRANCH   1  11
TORSDOF 15
ENDMDL
