MODEL 1
REMARK VINA RESULT:    78.690      0.000      0.000
REMARK INTER + INTRA:         165.986
REMARK INTER:                 166.094
REMARK INTRA:                  -0.108
REMARK UNBOUND:                -0.108
REMARK SMILES CCC(=O)CCCCC[C@@H]1NC(=O)[C@@H]2CCCCN2C(=O)[C@H]([C@@H](C)CC)NC(=O)[C@@H](Cc2cn(OC)c3ccccc23)NC1=O
REMARK SMILES IDX 9 1 10 2 44 3 43 4 45 6 30 7 28 8 27 9 29 11 22 12 23 14
REMARK SMILES IDX 24 15 25 16 26 17 31 18 32 19 33 20 42 21 34 22 37 23 41 24
REMARK SMILES IDX 38 25 40 26 39 27 35 28 36 29 11 30 12 31 13 33 14 34 19 35
REMARK SMILES IDX 15 36 18 37 16 38 17 39 20 40 21 41 8 43 7 44 6 45 5 46 3 47
REMARK SMILES IDX 4 48 2 49 1 50
REMARK H PARENT 43 5 27 10 11 32
REMARK Flexibility Score: 80.00
ROOT
ATOM      1  C   UNL     1      -4.975  23.982   7.733  1.00  0.00     0.035 C 
ENDROOT
BRANCH   1   2
ATOM      2  C   UNL     1      -4.340  22.852   6.899  1.00  0.00     0.171 C 
BRANCH   2   3
ATOM      3  C   UNL     1      -2.940  22.483   7.336  1.00  0.00     0.243 C 
ATOM      4  N   UNL     1      -2.372  23.045   8.542  1.00  0.00    -0.342 N 
ATOM      5  H   UNL     1      -2.780  23.936   8.919  1.00  0.00     0.164 HD
ATOM      6  O   UNL     1      -2.380  21.498   6.778  1.00  0.00    -0.273 OA
BRANCH   4   7
ATOM      7  C   UNL     1      -1.496  22.306   9.464  1.00  0.00     0.175 C 
BRANCH   7   8
ATOM      8  C   UNL     1      -1.499  20.818   9.204  1.00  0.00     0.243 C 
ATOM      9  N   UNL     1      -2.303  19.930   9.998  1.00  0.00    -0.342 N 
ATOM     10  H   UNL     1      -2.435  20.149  11.005  1.00  0.00     0.164 HD
ATOM     11  O   UNL     1      -0.797  20.323   8.287  1.00  0.00    -0.273 OA
BRANCH   9  12
ATOM     12  C   UNL     1      -2.650  18.620   9.412  1.00  0.00     0.174 CG0
ATOM     13  G   UNL     1      -4.165  18.418   9.520  1.00  0.00     0.000 G0
BRANCH  12  14
ATOM     14  C   UNL     1      -1.783  17.459   9.971  1.00  0.00     0.018 C 
ATOM     15  C   UNL     1      -0.822  16.885   8.892  1.00  0.00     0.010 C 
BRANCH  14  16
ATOM     16  C   UNL     1      -1.004  17.856  11.254  1.00  0.00     0.002 C 
ATOM     17  C   UNL     1      -1.606  17.285  12.539  1.00  0.00     0.004 C 
ENDBRANCH  14  16
ENDBRANCH  12  14
ENDBRANCH   9  12
ENDBRANCH   7   8
BRANCH   7  18
ATOM     18  C   UNL     1      -0.036  22.876   9.404  1.00  0.00     0.073 C 
BRANCH  18  19
ATOM     19  C   UNL     1      -0.025  24.250  10.013  1.00  0.00    -0.016 A 
ATOM     20  C   UNL     1       0.036  24.547  11.369  1.00  0.00     0.134 A 
ATOM     21  C   UNL     1      -0.498  25.387   9.403  1.00  0.00     0.006 A 
ATOM     22  N   UNL     1      -0.399  25.801  11.589  1.00  0.00    -0.191 N 
ATOM     23  C   UNL     1      -0.716  26.329  10.380  1.00  0.00     0.087 A 
ATOM     24  C   UNL     1      -0.848  25.594   8.066  1.00  0.00     0.011 A 
ATOM     25  C   UNL     1      -1.260  27.580  10.051  1.00  0.00     0.030 A 
ATOM     26  C   UNL     1      -1.395  26.843   7.723  1.00  0.00     0.001 A 
ATOM     27  C   UNL     1      -1.597  27.831   8.707  1.00  0.00     0.002 A 
BRANCH  22  28
ATOM     28  O   UNL     1      -0.575  26.314  12.867  1.00  0.00    -0.417 OA
ATOM     29  C   UNL     1      -1.580  27.257  13.218  1.00  0.00     0.313 C 
ENDBRANCH  22  28
ENDBRANCH  18  19
ENDBRANCH   7  18
ENDBRANCH   4   7
ENDBRANCH   2   3
BRANCH   2  30
ATOM     30  N   UNL     1      -5.196  21.642   6.851  1.00  0.00    -0.343 N 
ATOM     31  C   UNL     1      -5.310  20.749   7.979  1.00  0.00     0.243 C 
ATOM     32  H   UNL     1      -6.091  21.754   6.314  1.00  0.00     0.164 HD
ATOM     33  O   UNL     1      -5.025  21.177   9.128  1.00  0.00    -0.273 OA
BRANCH  31  34
ATOM     34  C   UNL     1      -5.840  19.353   7.774  1.00  0.00     0.174 C 
ATOM     35  N   UNL     1      -4.976  18.249   8.286  1.00  0.00    -0.329 N 
ATOM     36  C   UNL     1      -7.234  19.215   8.437  1.00  0.00     0.035 C 
ATOM     37  C   UNL     1      -5.461  16.904   7.926  1.00  0.00     0.120 C 
ATOM     38  C   UNL     1      -7.837  17.841   8.139  1.00  0.00     0.004 C 
ATOM     39  C   UNL     1      -6.879  16.695   8.531  1.00  0.00     0.022 C 
BRANCH  35  40
ATOM     40  C   UNL     1      -4.185  18.387   9.506  1.00  0.00     0.246 CG0
ATOM     41  O   UNL     1      -4.786  18.455  10.621  1.00  0.00    -0.272 OA
ATOM     42  G   UNL     1      -2.672  18.622   9.427  1.00  0.00     0.000 G0
ENDBRANCH  35  40
ENDBRANCH  31  34
ENDBRANCH   2  30
ENDBRANCH   1   2
BRANCH   1  43
ATOM     43  C   UNL     1      -5.856  24.905   6.870  1.00  0.00     0.003 C 
BRANCH  43  44
ATOM     44  C   UNL     1      -5.246  26.308   6.701  1.00  0.00     0.001 C 
BRANCH  44  45
ATOM     45  C   UNL     1      -6.234  27.384   6.171  1.00  0.00     0.008 C 
BRANCH  45  46
ATOM     46  C   UNL     1      -7.185  27.992   7.233  1.00  0.00     0.075 C 
BRANCH  46  47
ATOM     47  C   UNL     1      -6.751  29.372   7.660  1.00  0.00     0.132 C 
ATOM     48  O   UNL     1      -7.127  30.349   7.026  1.00  0.00    -0.300 OA
BRANCH  47  49
ATOM     49  C   UNL     1      -5.860  29.578   8.856  1.00  0.00     0.072 C 
ATOM     50  C   UNL     1      -6.078  30.948   9.491  1.00  0.00     0.012 C 
ENDBRANCH  47  49
ENDBRANCH  46  47
ENDBRANCH  45  46
ENDBRANCH  44  45
ENDBRANCH  43  44
ENDBRANCH   1  43
TORSDOF 12
ENDMDL
