MODEL 1
REMARK VINA RESULT:    -4.276      0.000      0.000
REMARK INTER + INTRA:          -6.933
REMARK INTER:                  -6.526
REMARK INTRA:                  -0.407
REMARK UNBOUND:                -0.407
REMARK SMILES CC1=CCC[C@H](C)C(=O)C[C@@H](C(C)C)C(=O)C1
REMARK SMILES IDX 8 1 9 2 6 3 7 4 5 5 4 6 3 7 2 8 1 9 10 11 11 12 15 13 16 14
REMARK SMILES IDX 17 15 12 17 13 18 14 19
REMARK H PARENT
REMARK Flexibility Score: 70.00
ROOT
ATOM      1  C   UNL     1     -11.010 -16.906  28.110  1.00  0.00     0.136 C 
ATOM      2  O   UNL     1     -10.125 -17.713  28.357  1.00  0.00    -0.299 OA
ENDROOT
BRANCH   1   3
ATOM      3  C   UNL     1     -11.884 -17.109  26.892  1.00  0.00     0.053 C 
ATOM      4  C   UNL     1     -11.001 -17.179  25.642  1.00  0.00     0.016 C 
BRANCH   3   5
ATOM      5  C   UNL     1     -12.764 -18.381  26.992  1.00  0.00     0.015 C 
BRANCH   5   6
ATOM      6  C   UNL     1     -13.623 -18.469  28.264  1.00  0.00     0.028 C 
BRANCH   6   7
ATOM      7  C   UNL     1     -13.162 -19.575  29.183  1.00  0.00    -0.028 C 
ATOM      8  C   UNL     1     -12.878 -19.441  30.502  1.00  0.00    -0.070 CG0
ATOM      9  C   UNL     1     -12.258 -20.626  31.207  1.00  0.00     0.039 C 
ATOM     10  G   UNL     1     -12.999 -18.132  31.262  1.00  0.00     0.000 G0
ENDBRANCH   6   7
ENDBRANCH   5   6
ENDBRANCH   3   5
ENDBRANCH   1   3
BRANCH   1  11
ATOM     11  C   UNL     1     -11.143 -15.671  28.978  1.00  0.00     0.087 C 
BRANCH  11  12
ATOM     12  C   UNL     1     -12.088 -15.807  30.220  1.00  0.00     0.066 C 
BRANCH  12  13
ATOM     13  C   UNL     1     -11.905 -17.115  30.994  1.00  0.00     0.140 C 
ATOM     14  O   UNL     1     -10.816 -17.300  31.521  1.00  0.00    -0.299 OA
BRANCH  13  15
ATOM     15  C   UNL     1     -12.982 -18.144  31.280  1.00  0.00     0.106 CG0
ATOM     16  G   UNL     1     -12.870 -19.445  30.506  1.00  0.00     0.000 G0
ENDBRANCH  13  15
ENDBRANCH  12  13
BRANCH  12  17
ATOM     17  C   UNL     1     -13.571 -15.343  29.979  1.00  0.00    -0.006 C 
ATOM     18  C   UNL     1     -14.166 -14.709  31.249  1.00  0.00     0.008 C 
ATOM     19  C   UNL     1     -13.770 -14.366  28.805  1.00  0.00     0.008 C 
ENDBRANCH  12  17
ENDBRANCH  11  12
ENDBRANCH   1  11
TORSDOF 1
ENDMDL
MODEL 2
REMARK VINA RESULT:    -3.783      1.767      3.603
REMARK INTER + INTRA:          -6.181
REMARK INTER:                  -6.128
REMARK INTRA:                  -0.053
REMARK UNBOUND:                -0.407
REMARK SMILES CC1=CCC[C@H](C)C(=O)C[C@@H](C(C)C)C(=O)C1
REMARK SMILES IDX 8 1 9 2 6 3 7 4 5 5 4 6 3 7 2 8 1 9 10 11 11 12 15 13 16 14
REMARK SMILES IDX 17 15 12 17 13 18 14 19
REMARK H PARENT
REMARK Flexibility Score: 70.00
ROOT
ATOM      1  C   UNL     1     -11.252 -18.300  30.773  1.00  0.00     0.136 C 
ATOM      2  O   UNL     1     -10.204 -18.351  30.145  1.00  0.00    -0.299 OA
ENDROOT
BRANCH   1   3
ATOM      3  C   UNL     1     -12.090 -19.552  30.926  1.00  0.00     0.053 C 
ATOM      4  C   UNL     1     -13.291 -19.248  31.826  1.00  0.00     0.016 C 
BRANCH   3   5
ATOM      5  C   UNL     1     -12.574 -20.117  29.566  1.00  0.00     0.015 C 
BRANCH   5   6
ATOM      6  C   UNL     1     -13.312 -19.104  28.676  1.00  0.00     0.028 C 
BRANCH   6   7
ATOM      7  C   UNL     1     -12.490 -18.703  27.475  1.00  0.00    -0.028 C 
ATOM      8  C   UNL     1     -12.297 -17.435  27.036  1.00  0.00    -0.070 CG0
ATOM      9  C   UNL     1     -11.591 -17.253  25.711  1.00  0.00     0.039 C 
ATOM     10  G   UNL     1     -12.883 -16.209  27.715  1.00  0.00     0.000 G0
ENDBRANCH   6   7
ENDBRANCH   5   6
ENDBRANCH   3   5
ENDBRANCH   1   3
BRANCH   1  11
ATOM     11  C   UNL     1     -11.733 -16.963  31.298  1.00  0.00     0.087 C 
BRANCH  11  12
ATOM     12  C   UNL     1     -12.799 -16.225  30.419  1.00  0.00     0.066 C 
BRANCH  12  13
ATOM     13  C   UNL     1     -12.281 -15.815  29.037  1.00  0.00     0.140 C 
ATOM     14  O   UNL     1     -11.218 -15.210  29.001  1.00  0.00    -0.299 OA
BRANCH  13  15
ATOM     15  C   UNL     1     -12.892 -16.199  27.703  1.00  0.00     0.106 CG0
ATOM     16  G   UNL     1     -12.303 -17.433  27.042  1.00  0.00     0.000 G0
ENDBRANCH  13  15
ENDBRANCH  12  13
BRANCH  12  17
ATOM     17  C   UNL     1     -13.665 -15.159  31.183  1.00  0.00    -0.006 C 
ATOM     18  C   UNL     1     -14.420 -14.250  30.196  1.00  0.00     0.008 C 
ATOM     19  C   UNL     1     -14.677 -15.735  32.191  1.00  0.00     0.008 C 
ENDBRANCH  12  17
ENDBRANCH  11  12
ENDBRANCH   1  11
TORSDOF 1
ENDMDL
MODEL 3
REMARK VINA RESULT:    -3.574      1.685      3.810
REMARK INTER + INTRA:          -5.861
REMARK INTER:                  -5.860
REMARK INTRA:                  -0.002
REMARK UNBOUND:                -0.407
REMARK SMILES CC1=CCC[C@H](C)C(=O)C[C@@H](C(C)C)C(=O)C1
REMARK SMILES IDX 8 1 9 2 6 3 7 4 5 5 4 6 3 7 2 8 1 9 10 11 11 12 15 13 16 14
REMARK SMILES IDX 17 15 12 17 13 18 14 19
REMARK H PARENT
REMARK Flexibility Score: 70.00
ROOT
ATOM      1  C   UNL     1     -12.886 -18.149  28.117  1.00  0.00     0.136 C 
ATOM      2  O   UNL     1     -13.998 -18.536  27.788  1.00  0.00    -0.299 OA
ENDROOT
BRANCH   1   3
ATOM      3  C   UNL     1     -12.265 -16.972  27.396  1.00  0.00     0.053 C 
ATOM      4  C   UNL     1     -11.997 -17.357  25.938  1.00  0.00     0.016 C 
BRANCH   3   5
ATOM      5  C   UNL     1     -13.147 -15.699  27.456  1.00  0.00     0.015 C 
BRANCH   5   6
ATOM      6  C   UNL     1     -12.824 -14.748  28.620  1.00  0.00     0.028 C 
BRANCH   6   7
ATOM      7  C   UNL     1     -13.752 -14.954  29.793  1.00  0.00    -0.028 C 
ATOM      8  C   UNL     1     -13.388 -15.394  31.023  1.00  0.00    -0.070 CG0
ATOM      9  C   UNL     1     -14.490 -15.707  32.009  1.00  0.00     0.039 C 
ATOM     10  G   UNL     1     -11.959 -15.737  31.406  1.00  0.00     0.000 G0
ENDBRANCH   6   7
ENDBRANCH   5   6
ENDBRANCH   3   5
ENDBRANCH   1   3
BRANCH   1  11
ATOM     11  C   UNL     1     -12.120 -18.919  29.173  1.00  0.00     0.087 C 
BRANCH  11  12
ATOM     12  C   UNL     1     -12.192 -18.343  30.628  1.00  0.00     0.066 C 
BRANCH  12  13
ATOM     13  C   UNL     1     -11.413 -17.038  30.814  1.00  0.00     0.140 C 
ATOM     14  O   UNL     1     -10.285 -16.994  30.343  1.00  0.00    -0.299 OA
BRANCH  13  15
ATOM     15  C   UNL     1     -11.952 -15.752  31.411  1.00  0.00     0.106 CG0
ATOM     16  G   UNL     1     -13.382 -15.404  31.038  1.00  0.00     0.000 G0
ENDBRANCH  13  15
ENDBRANCH  12  13
BRANCH  12  17
ATOM     17  C   UNL     1     -12.045 -19.411  31.772  1.00  0.00    -0.006 C 
ATOM     18  C   UNL     1     -12.422 -20.816  31.269  1.00  0.00     0.008 C 
ATOM     19  C   UNL     1     -10.653 -19.482  32.428  1.00  0.00     0.008 C 
ENDBRANCH  12  17
ENDBRANCH  11  12
ENDBRANCH   1  11
TORSDOF 1
ENDMDL
MODEL 4
REMARK VINA RESULT:    -3.406      1.471      3.526
REMARK INTER + INTRA:          -5.605
REMARK INTER:                  -5.883
REMARK INTRA:                   0.278
REMARK UNBOUND:                -0.407
REMARK SMILES CC1=CCC[C@H](C)C(=O)C[C@@H](C(C)C)C(=O)C1
REMARK SMILES IDX 8 1 9 2 6 3 7 4 5 5 4 6 3 7 2 8 1 9 10 11 11 12 15 13 16 14
REMARK SMILES IDX 17 15 12 17 13 18 14 19
REMARK H PARENT
REMARK Flexibility Score: 70.00
ROOT
ATOM      1  C   UNL     1     -10.987 -17.228  28.167  1.00  0.00     0.136 C 
ATOM      2  O   UNL     1      -9.914 -16.754  28.512  1.00  0.00    -0.299 OA
ENDROOT
BRANCH   1   3
ATOM      3  C   UNL     1     -11.812 -16.518  27.116  1.00  0.00     0.053 C 
ATOM      4  C   UNL     1     -12.118 -17.491  25.973  1.00  0.00     0.016 C 
BRANCH   3   5
ATOM      5  C   UNL     1     -13.130 -15.934  27.684  1.00  0.00     0.015 C 
BRANCH   5   6
ATOM      6  C   UNL     1     -12.942 -14.804  28.710  1.00  0.00     0.028 C 
BRANCH   6   7
ATOM      7  C   UNL     1     -13.859 -14.963  29.899  1.00  0.00    -0.028 C 
ATOM      8  C   UNL     1     -13.496 -15.424  31.122  1.00  0.00    -0.070 CG0
ATOM      9  C   UNL     1     -14.596 -15.680  32.127  1.00  0.00     0.039 C 
ATOM     10  G   UNL     1     -12.081 -15.843  31.479  1.00  0.00     0.000 G0
ENDBRANCH   6   7
ENDBRANCH   5   6
ENDBRANCH   3   5
ENDBRANCH   1   3
BRANCH   1  11
ATOM     11  C   UNL     1     -11.507 -18.464  28.874  1.00  0.00     0.087 C 
BRANCH  11  12
ATOM     12  C   UNL     1     -12.380 -18.206  30.149  1.00  0.00     0.066 C 
BRANCH  12  13
ATOM     13  C   UNL     1     -11.709 -17.295  31.181  1.00  0.00     0.140 C 
ATOM     14  O   UNL     1     -10.716 -17.733  31.746  1.00  0.00    -0.299 OA
BRANCH  13  15
ATOM     15  C   UNL     1     -12.081 -15.854  31.477  1.00  0.00     0.106 CG0
ATOM     16  G   UNL     1     -13.503 -15.457  31.121  1.00  0.00     0.000 G0
ENDBRANCH  13  15
ENDBRANCH  12  13
BRANCH  12  17
ATOM     17  C   UNL     1     -13.117 -19.474  30.715  1.00  0.00    -0.006 C 
ATOM     18  C   UNL     1     -13.507 -20.439  29.580  1.00  0.00     0.008 C 
ATOM     19  C   UNL     1     -12.339 -20.264  31.784  1.00  0.00     0.008 C 
ENDBRANCH  12  17
ENDBRANCH  11  12
ENDBRANCH   1  11
TORSDOF 1
ENDMDL
MODEL 5
REMARK VINA RESULT:    -3.380      2.194      3.819
REMARK INTER + INTRA:          -5.566
REMARK INTER:                  -6.205
REMARK INTRA:                   0.639
REMARK UNBOUND:                -0.407
REMARK SMILES CC1=CCC[C@H](C)C(=O)C[C@@H](C(C)C)C(=O)C1
REMARK SMILES IDX 8 1 9 2 6 3 7 4 5 5 4 6 3 7 2 8 1 9 10 11 11 12 15 13 16 14
REMARK SMILES IDX 17 15 12 17 13 18 14 19
REMARK H PARENT
REMARK Flexibility Score: 70.00
ROOT
ATOM      1  C   UNL     1     -12.487 -18.807  28.804  1.00  0.00     0.136 C 
ATOM      2  O   UNL     1     -13.267 -19.447  28.112  1.00  0.00    -0.299 OA
ENDROOT
BRANCH   1   3
ATOM      3  C   UNL     1     -12.457 -19.039  30.300  1.00  0.00     0.053 C 
ATOM      4  C   UNL     1     -13.624 -19.950  30.693  1.00  0.00     0.016 C 
BRANCH   3   5
ATOM      5  C   UNL     1     -11.118 -19.651  30.783  1.00  0.00     0.015 C 
BRANCH   5   6
ATOM      6  C   UNL     1      -9.915 -18.696  30.718  1.00  0.00     0.028 C 
BRANCH   6   7
ATOM      7  C   UNL     1      -9.917 -17.706  31.858  1.00  0.00    -0.028 C 
ATOM      8  C   UNL     1     -10.085 -16.365  31.741  1.00  0.00    -0.070 CG0
ATOM      9  C   UNL     1      -9.876 -15.523  32.979  1.00  0.00     0.039 C 
ATOM     10  G   UNL     1     -10.313 -15.656  30.417  1.00  0.00     0.000 G0
ENDBRANCH   6   7
ENDBRANCH   5   6
ENDBRANCH   3   5
ENDBRANCH   1   3
BRANCH   1  11
ATOM     11  C   UNL     1     -11.641 -17.730  28.157  1.00  0.00     0.087 C 
BRANCH  11  12
ATOM     12  C   UNL     1     -12.084 -16.253  28.434  1.00  0.00     0.066 C 
BRANCH  12  13
ATOM     13  C   UNL     1     -11.717 -15.752  29.833  1.00  0.00     0.140 C 
ATOM     14  O   UNL     1     -12.642 -15.515  30.598  1.00  0.00    -0.299 OA
BRANCH  13  15
ATOM     15  C   UNL     1     -10.316 -15.644  30.405  1.00  0.00     0.106 CG0
ATOM     16  G   UNL     1     -10.091 -16.355  31.728  1.00  0.00     0.000 G0
ENDBRANCH  13  15
ENDBRANCH  12  13
BRANCH  12  17
ATOM     17  C   UNL     1     -13.523 -15.885  27.917  1.00  0.00    -0.006 C 
ATOM     18  C   UNL     1     -13.866 -14.419  28.236  1.00  0.00     0.008 C 
ATOM     19  C   UNL     1     -13.763 -16.130  26.415  1.00  0.00     0.008 C 
ENDBRANCH  12  17
ENDBRANCH  11  12
ENDBRANCH   1  11
TORSDOF 1
ENDMDL
MODEL 6
REMARK VINA RESULT:    -3.324      1.834      4.365
REMARK INTER + INTRA:          -5.481
REMARK INTER:                  -6.215
REMARK INTRA:                   0.734
REMARK UNBOUND:                -0.407
REMARK SMILES CC1=CCC[C@H](C)C(=O)C[C@@H](C(C)C)C(=O)C1
REMARK SMILES IDX 8 1 9 2 6 3 7 4 5 5 4 6 3 7 2 8 1 9 10 11 11 12 15 13 16 14
REMARK SMILES IDX 17 15 12 17 13 18 14 19
REMARK H PARENT
REMARK Flexibility Score: 70.00
ROOT
ATOM      1  C   UNL     1     -11.609 -16.177  30.438  1.00  0.00     0.136 C 
ATOM      2  O   UNL     1     -10.982 -15.748  31.396  1.00  0.00    -0.299 OA
ENDROOT
BRANCH   1   3
ATOM      3  C   UNL     1     -13.045 -15.744  30.234  1.00  0.00     0.053 C 
ATOM      4  C   UNL     1     -13.584 -15.150  31.539  1.00  0.00     0.016 C 
BRANCH   3   5
ATOM      5  C   UNL     1     -13.204 -14.721  29.080  1.00  0.00     0.015 C 
BRANCH   5   6
ATOM      6  C   UNL     1     -13.897 -15.274  27.823  1.00  0.00     0.028 C 
BRANCH   6   7
ATOM      7  C   UNL     1     -12.928 -15.983  26.909  1.00  0.00    -0.028 C 
ATOM      8  C   UNL     1     -12.670 -17.314  26.909  1.00  0.00    -0.070 CG0
ATOM      9  C   UNL     1     -11.535 -17.807  26.040  1.00  0.00     0.039 C 
ATOM     10  G   UNL     1     -13.345 -18.304  27.842  1.00  0.00     0.000 G0
ENDBRANCH   6   7
ENDBRANCH   5   6
ENDBRANCH   3   5
ENDBRANCH   1   3
BRANCH   1  11
ATOM     11  C   UNL     1     -10.962 -17.207  29.535  1.00  0.00     0.087 C 
BRANCH  11  12
ATOM     12  C   UNL     1     -11.430 -18.688  29.740  1.00  0.00     0.066 C 
BRANCH  12  13
ATOM     13  C   UNL     1     -12.410 -19.179  28.671  1.00  0.00     0.140 C 
ATOM     14  O   UNL     1     -12.525 -20.389  28.537  1.00  0.00    -0.299 OA
BRANCH  13  15
ATOM     15  C   UNL     1     -13.347 -18.311  27.852  1.00  0.00     0.106 CG0
ATOM     16  G   UNL     1     -12.676 -17.332  26.905  1.00  0.00     0.000 G0
ENDBRANCH  13  15
ENDBRANCH  12  13
BRANCH  12  17
ATOM     17  C   UNL     1     -11.769 -19.075  31.226  1.00  0.00    -0.006 C 
ATOM     18  C   UNL     1     -12.493 -20.432  31.292  1.00  0.00     0.008 C 
ATOM     19  C   UNL     1     -10.564 -19.115  32.185  1.00  0.00     0.008 C 
ENDBRANCH  12  17
ENDBRANCH  11  12
ENDBRANCH   1  11
TORSDOF 1
ENDMDL
MODEL 7
REMARK VINA RESULT:    -3.183      1.737      3.676
REMARK INTER + INTRA:          -5.264
REMARK INTER:                  -5.703
REMARK INTRA:                   0.438
REMARK UNBOUND:                -0.407
REMARK SMILES CC1=CCC[C@H](C)C(=O)C[C@@H](C(C)C)C(=O)C1
REMARK SMILES IDX 8 1 9 2 6 3 7 4 5 5 4 6 3 7 2 8 1 9 10 11 11 12 15 13 16 14
REMARK SMILES IDX 17 15 12 17 13 18 14 19
REMARK H PARENT
REMARK Flexibility Score: 70.00
ROOT
ATOM      1  C   UNL     1     -11.469 -15.790  30.822  1.00  0.00     0.136 C 
ATOM      2  O   UNL     1     -12.510 -15.737  31.461  1.00  0.00    -0.299 OA
ENDROOT
BRANCH   1   3
ATOM      3  C   UNL     1     -10.188 -16.195  31.518  1.00  0.00     0.053 C 
ATOM      4  C   UNL     1     -10.164 -15.589  32.925  1.00  0.00     0.016 C 
BRANCH   3   5
ATOM      5  C   UNL     1     -10.010 -17.732  31.599  1.00  0.00     0.015 C 
BRANCH   5   6
ATOM      6  C   UNL     1     -10.302 -18.482  30.288  1.00  0.00     0.028 C 
BRANCH   6   7
ATOM      7  C   UNL     1     -11.649 -19.162  30.314  1.00  0.00    -0.028 C 
ATOM      8  C   UNL     1     -12.483 -19.309  29.255  1.00  0.00    -0.070 CG0
ATOM      9  C   UNL     1     -13.865 -19.859  29.523  1.00  0.00     0.039 C 
ATOM     10  G   UNL     1     -12.165 -18.808  27.857  1.00  0.00     0.000 G0
ENDBRANCH   6   7
ENDBRANCH   5   6
ENDBRANCH   3   5
ENDBRANCH   1   3
BRANCH   1  11
ATOM     11  C   UNL     1     -11.473 -15.356  29.370  1.00  0.00     0.087 C 
BRANCH  11  12
ATOM     12  C   UNL     1     -12.421 -16.161  28.418  1.00  0.00     0.066 C 
BRANCH  12  13
ATOM     13  C   UNL     1     -11.746 -17.362  27.749  1.00  0.00     0.140 C 
ATOM     14  O   UNL     1     -10.692 -17.153  27.166  1.00  0.00    -0.299 OA
BRANCH  13  15
ATOM     15  C   UNL     1     -12.193 -18.809  27.850  1.00  0.00     0.106 CG0
ATOM     16  G   UNL     1     -12.483 -19.310  29.254  1.00  0.00     0.000 G0
ENDBRANCH  13  15
ENDBRANCH  12  13
BRANCH  12  17
ATOM     17  C   UNL     1     -13.343 -15.279  27.499  1.00  0.00    -0.006 C 
ATOM     18  C   UNL     1     -14.211 -16.158  26.581  1.00  0.00     0.008 C 
ATOM     19  C   UNL     1     -14.260 -14.292  28.244  1.00  0.00     0.008 C 
ENDBRANCH  12  17
ENDBRANCH  11  12
ENDBRANCH   1  11
TORSDOF 1
ENDMDL
MODEL 8
REMARK VINA RESULT:    -2.935      2.013      2.535
REMARK INTER + INTRA:          -4.887
REMARK INTER:                  -5.294
REMARK INTRA:                   0.408
REMARK UNBOUND:                -0.407
REMARK SMILES CC1=CCC[C@H](C)C(=O)C[C@@H](C(C)C)C(=O)C1
REMARK SMILES IDX 8 1 9 2 6 3 7 4 5 5 4 6 3 7 2 8 1 9 10 11 11 12 15 13 16 14
REMARK SMILES IDX 17 15 12 17 13 18 14 19
REMARK H PARENT
REMARK Flexibility Score: 70.00
ROOT
ATOM      1  C   UNL     1     -13.064 -15.942  27.756  1.00  0.00     0.136 C 
ATOM      2  O   UNL     1     -13.974 -15.759  26.961  1.00  0.00    -0.299 OA
ENDROOT
BRANCH   1   3
ATOM      3  C   UNL     1     -12.423 -17.310  27.853  1.00  0.00     0.053 C 
ATOM      4  C   UNL     1     -13.275 -18.322  27.081  1.00  0.00     0.016 C 
BRANCH   3   5
ATOM      5  C   UNL     1     -10.967 -17.327  27.324  1.00  0.00     0.015 C 
BRANCH   5   6
ATOM      6  C   UNL     1      -9.890 -17.122  28.402  1.00  0.00     0.028 C 
BRANCH   6   7
ATOM      7  C   UNL     1     -10.019 -18.121  29.527  1.00  0.00    -0.028 C 
ATOM      8  C   UNL     1     -10.530 -17.867  30.757  1.00  0.00    -0.070 CG0
ATOM      9  C   UNL     1     -10.407 -18.951  31.803  1.00  0.00     0.039 C 
ATOM     10  G   UNL     1     -11.070 -16.513  31.182  1.00  0.00     0.000 G0
ENDBRANCH   6   7
ENDBRANCH   5   6
ENDBRANCH   3   5
ENDBRANCH   1   3
BRANCH   1  11
ATOM     11  C   UNL     1     -12.668 -14.819  28.693  1.00  0.00     0.087 C 
BRANCH  11  12
ATOM     12  C   UNL     1     -13.093 -14.995  30.191  1.00  0.00     0.066 C 
BRANCH  12  13
ATOM     13  C   UNL     1     -12.535 -16.262  30.845  1.00  0.00     0.140 C 
ATOM     14  O   UNL     1     -13.310 -17.195  31.000  1.00  0.00    -0.299 OA
BRANCH  13  15
ATOM     15  C   UNL     1     -11.082 -16.519  31.201  1.00  0.00     0.106 CG0
ATOM     16  G   UNL     1     -10.532 -17.870  30.779  1.00  0.00     0.000 G0
ENDBRANCH  13  15
ENDBRANCH  12  13
BRANCH  12  17
ATOM     17  C   UNL     1     -14.599 -14.659  30.497  1.00  0.00    -0.006 C 
ATOM     18  C   UNL     1     -14.805 -14.359  31.992  1.00  0.00     0.008 C 
ATOM     19  C   UNL     1     -15.192 -13.498  29.676  1.00  0.00     0.008 C 
ENDBRANCH  12  17
ENDBRANCH  11  12
ENDBRANCH   1  11
TORSDOF 1
ENDMDL
MODEL 9
REMARK VINA RESULT:    -2.770      1.716      3.770
REMARK INTER + INTRA:          -4.635
REMARK INTER:                  -5.110
REMARK INTRA:                   0.475
REMARK UNBOUND:                -0.407
REMARK SMILES CC1=CCC[C@H](C)C(=O)C[C@@H](C(C)C)C(=O)C1
REMARK SMILES IDX 8 1 9 2 6 3 7 4 5 5 4 6 3 7 2 8 1 9 10 11 11 12 15 13 16 14
REMARK SMILES IDX 17 15 12 17 13 18 14 19
REMARK H PARENT
REMARK Flexibility Score: 70.00
ROOT
ATOM      1  C   UNL     1     -13.555 -15.065  29.870  1.00  0.00     0.136 C 
ATOM      2  O   UNL     1     -14.464 -14.300  29.584  1.00  0.00    -0.299 OA
ENDROOT
BRANCH   1   3
ATOM      3  C   UNL     1     -13.428 -15.573  31.290  1.00  0.00     0.053 C 
ATOM      4  C   UNL     1     -14.138 -14.602  32.239  1.00  0.00     0.016 C 
BRANCH   3   5
ATOM      5  C   UNL     1     -14.000 -17.002  31.468  1.00  0.00     0.015 C 
BRANCH   5   6
ATOM      6  C   UNL     1     -12.939 -18.112  31.551  1.00  0.00     0.028 C 
BRANCH   6   7
ATOM      7  C   UNL     1     -13.301 -19.305  30.700  1.00  0.00    -0.028 C 
ATOM      8  C   UNL     1     -12.574 -19.787  29.661  1.00  0.00    -0.070 CG0
ATOM      9  C   UNL     1     -13.195 -20.879  28.820  1.00  0.00     0.039 C 
ATOM     10  G   UNL     1     -11.255 -19.188  29.207  1.00  0.00     0.000 G0
ENDBRANCH   6   7
ENDBRANCH   5   6
ENDBRANCH   3   5
ENDBRANCH   1   3
BRANCH   1  11
ATOM     11  C   UNL     1     -12.522 -15.409  28.816  1.00  0.00     0.087 C 
BRANCH  11  12
ATOM     12  C   UNL     1     -12.489 -16.905  28.353  1.00  0.00     0.066 C 
BRANCH  12  13
ATOM     13  C   UNL     1     -11.290 -17.691  28.892  1.00  0.00     0.140 C 
ATOM     14  O   UNL     1     -10.299 -17.046  29.204  1.00  0.00    -0.299 OA
BRANCH  13  15
ATOM     15  C   UNL     1     -11.260 -19.176  29.199  1.00  0.00     0.106 CG0
ATOM     16  G   UNL     1     -12.575 -19.778  29.662  1.00  0.00     0.000 G0
ENDBRANCH  13  15
ENDBRANCH  12  13
BRANCH  12  17
ATOM     17  C   UNL     1     -12.852 -17.139  26.841  1.00  0.00    -0.006 C 
ATOM     18  C   UNL     1     -13.826 -16.062  26.333  1.00  0.00     0.008 C 
ATOM     19  C   UNL     1     -11.649 -17.205  25.880  1.00  0.00     0.008 C 
ENDBRANCH  12  17
ENDBRANCH  11  12
ENDBRANCH   1  11
TORSDOF 1
ENDMDL
