MODEL 1
REMARK VINA RESULT:    -3.376      0.000      0.000
REMARK INTER + INTRA:          -4.423
REMARK INTER:                  -4.165
REMARK INTRA:                  -0.258
REMARK UNBOUND:                -0.258
REMARK SMILES CCCCCC(=O)[O-]
REMARK SMILES IDX 4 1 5 2 6 3 7 4 8 5 3 6 2 7 1 8
REMARK H PARENT
REMARK Flexibility Score: inf
ROOT
ATOM      1  C   UNL     1      14.436  41.471  29.093  1.00  0.00     0.006 C 
ENDROOT
BRANCH   1   2
ATOM      2  C   UNL     1      15.871  40.928  29.100  1.00  0.00     0.053 C 
BRANCH   2   3
ATOM      3  C   UNL     1      15.989  39.673  29.908  1.00  0.00     0.041 C 
ATOM      4  O   UNL     1      14.976  39.192  30.483  1.00  0.00    -0.550 OA
ATOM      5  O   UNL     1      17.222  39.049  30.052  1.00  0.00    -0.550 OA
ENDBRANCH   2   3
ENDBRANCH   1   2
BRANCH   1   6
ATOM      6  C   UNL     1      13.725  41.214  27.753  1.00  0.00     0.000 C 
BRANCH   6   7
ATOM      7  C   UNL     1      12.729  40.047  27.829  1.00  0.00    -0.003 C 
ATOM      8  C   UNL     1      13.307  38.739  27.287  1.00  0.00     0.004 C 
ENDBRANCH   6   7
ENDBRANCH   1   6
TORSDOF 4
ENDMDL
MODEL 2
REMARK VINA RESULT:    -3.309      2.169      3.531
REMARK INTER + INTRA:          -4.341
REMARK INTER:                  -4.103
REMARK INTRA:                  -0.238
REMARK UNBOUND:                -0.258
REMARK SMILES CCCCCC(=O)[O-]
REMARK SMILES IDX 4 1 5 2 6 3 7 4 8 5 3 6 2 7 1 8
REMARK H PARENT
REMARK Flexibility Score: inf
ROOT
ATOM      1  C   UNL     1      15.494  41.509  29.315  1.00  0.00     0.006 C 
ENDROOT
BRANCH   1   2
ATOM      2  C   UNL     1      14.100  41.762  28.724  1.00  0.00     0.053 C 
BRANCH   2   3
ATOM      3  C   UNL     1      13.654  40.634  27.845  1.00  0.00     0.041 C 
ATOM      4  O   UNL     1      12.468  40.215  27.906  1.00  0.00    -0.550 OA
ATOM      5  O   UNL     1      14.555  40.027  26.980  1.00  0.00    -0.550 OA
ENDBRANCH   2   3
ENDBRANCH   1   2
BRANCH   1   6
ATOM      6  C   UNL     1      15.511  40.300  30.267  1.00  0.00     0.000 C 
BRANCH   6   7
ATOM      7  C   UNL     1      16.649  39.318  29.951  1.00  0.00    -0.003 C 
ATOM      8  C   UNL     1      17.572  39.819  28.838  1.00  0.00     0.004 C 
ENDBRANCH   6   7
ENDBRANCH   1   6
TORSDOF 4
ENDMDL
MODEL 3
REMARK VINA RESULT:    -3.271      1.106      1.882
REMARK INTER + INTRA:          -4.294
REMARK INTER:                  -4.070
REMARK INTRA:                  -0.224
REMARK UNBOUND:                -0.258
REMARK SMILES CCCCCC(=O)[O-]
REMARK SMILES IDX 4 1 5 2 6 3 7 4 8 5 3 6 2 7 1 8
REMARK H PARENT
REMARK Flexibility Score: inf
ROOT
ATOM      1  C   UNL     1      13.835  41.137  27.667  1.00  0.00     0.006 C 
ENDROOT
BRANCH   1   2
ATOM      2  C   UNL     1      14.285  41.679  29.031  1.00  0.00     0.053 C 
BRANCH   2   3
ATOM      3  C   UNL     1      15.509  40.978  29.534  1.00  0.00     0.041 C 
ATOM      4  O   UNL     1      16.601  41.087  28.915  1.00  0.00    -0.550 OA
ATOM      5  O   UNL     1      15.438  40.181  30.669  1.00  0.00    -0.550 OA
ENDBRANCH   2   3
ENDBRANCH   1   2
BRANCH   1   6
ATOM      6  C   UNL     1      12.784  40.021  27.804  1.00  0.00     0.000 C 
BRANCH   6   7
ATOM      7  C   UNL     1      13.278  38.676  27.249  1.00  0.00    -0.003 C 
ATOM      8  C   UNL     1      14.672  38.768  26.626  1.00  0.00     0.004 C 
ENDBRANCH   6   7
ENDBRANCH   1   6
TORSDOF 4
ENDMDL
MODEL 4
REMARK VINA RESULT:    -3.237     11.301     12.394
REMARK INTER + INTRA:          -4.252
REMARK INTER:                  -4.149
REMARK INTRA:                  -0.103
REMARK UNBOUND:                -0.258
REMARK SMILES CCCCCC(=O)[O-]
REMARK SMILES IDX 4 1 5 2 6 3 7 4 8 5 3 6 2 7 1 8
REMARK H PARENT
REMARK Flexibility Score: inf
ROOT
ATOM      1  C   UNL     1      11.112  45.320  19.008  1.00  0.00     0.006 C 
ENDROOT
BRANCH   1   2
ATOM      2  C   UNL     1       9.848  44.983  19.812  1.00  0.00     0.053 C 
BRANCH   2   3
ATOM      3  C   UNL     1       9.507  43.527  19.729  1.00  0.00     0.041 C 
ATOM      4  O   UNL     1       8.309  43.165  19.588  1.00  0.00    -0.550 OA
ATOM      5  O   UNL     1      10.507  42.570  19.838  1.00  0.00    -0.550 OA
ENDBRANCH   2   3
ENDBRANCH   1   2
BRANCH   1   6
ATOM      6  C   UNL     1      11.206  46.820  18.677  1.00  0.00     0.000 C 
BRANCH   6   7
ATOM      7  C   UNL     1       9.908  47.577  18.996  1.00  0.00    -0.003 C 
ATOM      8  C   UNL     1       9.733  48.837  18.148  1.00  0.00     0.004 C 
ENDBRANCH   6   7
ENDBRANCH   1   6
TORSDOF 4
ENDMDL
MODEL 5
REMARK VINA RESULT:    -3.203      2.035      3.405
REMARK INTER + INTRA:          -4.210
REMARK INTER:                  -3.973
REMARK INTRA:                  -0.236
REMARK UNBOUND:                -0.258
REMARK SMILES CCCCCC(=O)[O-]
REMARK SMILES IDX 4 1 5 2 6 3 7 4 8 5 3 6 2 7 1 8
REMARK H PARENT
REMARK Flexibility Score: inf
ROOT
ATOM      1  C   UNL     1      13.634  41.184  27.544  1.00  0.00     0.006 C 
ENDROOT
BRANCH   1   2
ATOM      2  C   UNL     1      12.827  39.895  27.753  1.00  0.00     0.053 C 
BRANCH   2   3
ATOM      3  C   UNL     1      13.549  38.692  27.229  1.00  0.00     0.041 C 
ATOM      4  O   UNL     1      13.023  37.551  27.311  1.00  0.00    -0.550 OA
ATOM      5  O   UNL     1      14.817  38.828  26.676  1.00  0.00    -0.550 OA
ENDBRANCH   2   3
ENDBRANCH   1   2
BRANCH   1   6
ATOM      6  C   UNL     1      14.156  41.763  28.871  1.00  0.00     0.000 C 
BRANCH   6   7
ATOM      7  C   UNL     1      15.561  41.254  29.224  1.00  0.00    -0.003 C 
ATOM      8  C   UNL     1      15.547  40.202  30.335  1.00  0.00     0.004 C 
ENDBRANCH   6   7
ENDBRANCH   1   6
TORSDOF 4
ENDMDL
MODEL 6
REMARK VINA RESULT:    -3.163     11.992     13.031
REMARK INTER + INTRA:          -4.160
REMARK INTER:                  -4.034
REMARK INTRA:                  -0.126
REMARK UNBOUND:                -0.258
REMARK SMILES CCCCCC(=O)[O-]
REMARK SMILES IDX 4 1 5 2 6 3 7 4 8 5 3 6 2 7 1 8
REMARK H PARENT
REMARK Flexibility Score: inf
ROOT
ATOM      1  C   UNL     1      12.411  45.296  18.437  1.00  0.00     0.006 C 
ENDROOT
BRANCH   1   2
ATOM      2  C   UNL     1      11.743  46.455  19.190  1.00  0.00     0.053 C 
BRANCH   2   3
ATOM      3  C   UNL     1      10.280  46.213  19.402  1.00  0.00     0.041 C 
ATOM      4  O   UNL     1       9.431  47.021  18.940  1.00  0.00    -0.550 OA
ATOM      5  O   UNL     1       9.855  45.113  20.136  1.00  0.00    -0.550 OA
ENDBRANCH   2   3
ENDBRANCH   1   2
BRANCH   1   6
ATOM      6  C   UNL     1      12.735  45.662  16.978  1.00  0.00     0.000 C 
BRANCH   6   7
ATOM      7  C   UNL     1      13.351  47.063  16.845  1.00  0.00    -0.003 C 
ATOM      8  C   UNL     1      14.824  47.103  17.257  1.00  0.00     0.004 C 
ENDBRANCH   6   7
ENDBRANCH   1   6
TORSDOF 4
ENDMDL
MODEL 7
REMARK VINA RESULT:    -3.108     11.442     12.482
REMARK INTER + INTRA:          -4.093
REMARK INTER:                  -3.961
REMARK INTRA:                  -0.131
REMARK UNBOUND:                -0.258
REMARK SMILES CCCCCC(=O)[O-]
REMARK SMILES IDX 4 1 5 2 6 3 7 4 8 5 3 6 2 7 1 8
REMARK H PARENT
REMARK Flexibility Score: inf
ROOT
ATOM      1  C   UNL     1      11.282  46.411  19.458  1.00  0.00     0.006 C 
ENDROOT
BRANCH   1   2
ATOM      2  C   UNL     1       9.869  45.818  19.551  1.00  0.00     0.053 C 
BRANCH   2   3
ATOM      3  C   UNL     1       9.895  44.323  19.623  1.00  0.00     0.041 C 
ATOM      4  O   UNL     1       8.818  43.670  19.635  1.00  0.00    -0.550 OA
ATOM      5  O   UNL     1      11.108  43.650  19.706  1.00  0.00    -0.550 OA
ENDBRANCH   2   3
ENDBRANCH   1   2
BRANCH   1   6
ATOM      6  C   UNL     1      11.606  46.919  18.042  1.00  0.00     0.000 C 
BRANCH   6   7
ATOM      7  C   UNL     1      12.672  46.065  17.339  1.00  0.00    -0.003 C 
ATOM      8  C   UNL     1      13.571  46.885  16.412  1.00  0.00     0.004 C 
ENDBRANCH   6   7
ENDBRANCH   1   6
TORSDOF 4
ENDMDL
MODEL 8
REMARK VINA RESULT:    -3.104     11.923     12.934
REMARK INTER + INTRA:          -4.088
REMARK INTER:                  -4.038
REMARK INTRA:                  -0.049
REMARK UNBOUND:                -0.258
REMARK SMILES CCCCCC(=O)[O-]
REMARK SMILES IDX 4 1 5 2 6 3 7 4 8 5 3 6 2 7 1 8
REMARK H PARENT
REMARK Flexibility Score: inf
ROOT
ATOM      1  C   UNL     1      10.689  46.897  18.720  1.00  0.00     0.006 C 
ENDROOT
BRANCH   1   2
ATOM      2  C   UNL     1      10.364  45.670  19.582  1.00  0.00     0.053 C 
BRANCH   2   3
ATOM      3  C   UNL     1      11.353  44.564  19.375  1.00  0.00     0.041 C 
ATOM      4  O   UNL     1      11.099  43.402  19.790  1.00  0.00    -0.550 OA
ATOM      5  O   UNL     1      12.566  44.823  18.751  1.00  0.00    -0.550 OA
ENDBRANCH   2   3
ENDBRANCH   1   2
BRANCH   1   6
ATOM      6  C   UNL     1       9.936  48.154  19.191  1.00  0.00     0.000 C 
BRANCH   6   7
ATOM      7  C   UNL     1       9.168  48.841  18.051  1.00  0.00    -0.003 C 
ATOM      8  C   UNL     1       9.784  50.181  17.646  1.00  0.00     0.004 C 
ENDBRANCH   6   7
ENDBRANCH   1   6
TORSDOF 4
ENDMDL
MODEL 9
REMARK VINA RESULT:    -3.087     13.928     14.696
REMARK INTER + INTRA:          -4.067
REMARK INTER:                  -3.976
REMARK INTRA:                  -0.091
REMARK UNBOUND:                -0.258
REMARK SMILES CCCCCC(=O)[O-]
REMARK SMILES IDX 4 1 5 2 6 3 7 4 8 5 3 6 2 7 1 8
REMARK H PARENT
REMARK Flexibility Score: inf
ROOT
ATOM      1  C   UNL     1      19.785  50.525  19.405  1.00  0.00     0.006 C 
ENDROOT
BRANCH   1   2
ATOM      2  C   UNL     1      19.312  49.069  19.512  1.00  0.00     0.053 C 
BRANCH   2   3
ATOM      3  C   UNL     1      19.827  48.405  20.751  1.00  0.00     0.041 C 
ATOM      4  O   UNL     1      19.648  48.939  21.878  1.00  0.00    -0.550 OA
ATOM      5  O   UNL     1      20.531  47.211  20.660  1.00  0.00    -0.550 OA
ENDBRANCH   2   3
ENDBRANCH   1   2
BRANCH   1   6
ATOM      6  C   UNL     1      20.348  50.852  18.010  1.00  0.00     0.000 C 
BRANCH   6   7
ATOM      7  C   UNL     1      21.860  51.124  18.034  1.00  0.00    -0.003 C 
ATOM      8  C   UNL     1      22.563  50.457  19.218  1.00  0.00     0.004 C 
ENDBRANCH   6   7
ENDBRANCH   1   6
TORSDOF 4
ENDMDL
