MODEL 1
REMARK VINA RESULT:    -4.078      0.000      0.000
REMARK INTER + INTRA:          -7.787
REMARK INTER:                  -6.224
REMARK INTRA:                  -1.563
REMARK UNBOUND:                -1.563
REMARK SMILES OC[C@@H]1O[C@@H](O[C@@]2(CO)O[C@H](CO)[C@H](O)[C@@H]2O)[C@H](O)[C@H](O)[C@@H]1O
REMARK SMILES IDX 6 1 5 2 3 3 22 4 4 5 20 6 18 7 2 8 1 9 23 11 21 13 19 15
REMARK SMILES IDX 7 17 16 18 10 19 14 20 11 21 8 22 9 23 17 25 15 27 12 29
REMARK SMILES IDX 13 30
REMARK H PARENT 1 10 23 12 21 14 19 16 9 24 17 26 15 28 13 31
REMARK Flexibility Score: inf
ROOT
ATOM      1  O   UNL     1     108.811 104.007 101.568  1.00  0.00    -0.313 OA
ENDROOT
BRANCH   1   2
ATOM      2  C   UNL     1     110.076 103.545 102.039  1.00  0.00     0.285 C 
ATOM      3  C   UNL     1     111.976 103.996 103.381  1.00  0.00     0.178 C 
ATOM      4  C   UNL     1     112.687 102.860 102.582  1.00  0.00     0.177 C 
ATOM      5  O   UNL     1     110.828 104.537 102.727  1.00  0.00    -0.341 OA
ATOM      6  C   UNL     1     112.402 103.039 101.083  1.00  0.00     0.179 C 
ATOM      7  C   UNL     1     110.874 103.040 100.814  1.00  0.00     0.202 C 
BRANCH   3   8
ATOM      8  C   UNL     1     111.651 103.596 104.838  1.00  0.00     0.191 C 
BRANCH   8   9
ATOM      9  O   UNL     1     112.717 102.881 105.412  1.00  0.00    -0.394 OA
ATOM     10  H   UNL     1     112.314 102.166 105.970  1.00  0.00     0.210 HD
ENDBRANCH   8   9
ENDBRANCH   3   8
BRANCH   4  11
ATOM     11  O   UNL     1     112.252 101.588 103.004  1.00  0.00    -0.387 OA
ATOM     12  H   UNL     1     112.197 101.616 103.995  1.00  0.00     0.211 HD
ENDBRANCH   4  11
BRANCH   6  13
ATOM     13  O   UNL     1     113.038 102.032 100.338  1.00  0.00    -0.387 OA
ATOM     14  H   UNL     1     112.688 101.161 100.661  1.00  0.00     0.211 HD
ENDBRANCH   6  13
BRANCH   7  15
ATOM     15  O   UNL     1     110.417 101.751 100.476  1.00  0.00    -0.385 OA
ATOM     16  H   UNL     1     109.658 101.540 101.080  1.00  0.00     0.211 HD
ENDBRANCH   7  15
ENDBRANCH   1   2
BRANCH   1  17
ATOM     17  C   UNL     1     107.657 103.654 102.331  1.00  0.00     0.224 C 
ATOM     18  C   UNL     1     106.429 104.093 101.521  1.00  0.00     0.208 C 
ATOM     19  O   UNL     1     107.601 104.414 103.525  1.00  0.00    -0.337 OA
ATOM     20  C   UNL     1     106.387 105.585 101.813  1.00  0.00     0.180 C 
ATOM     21  C   UNL     1     107.108 105.696 103.174  1.00  0.00     0.179 C 
BRANCH  17  22
ATOM     22  C   UNL     1     107.628 102.135 102.636  1.00  0.00     0.225 C 
BRANCH  22  23
ATOM     23  O   UNL     1     106.888 101.864 103.796  1.00  0.00    -0.391 OA
ATOM     24  H   UNL     1     105.987 102.259 103.662  1.00  0.00     0.210 HD
ENDBRANCH  22  23
ENDBRANCH  17  22
BRANCH  18  25
ATOM     25  O   UNL     1     105.243 103.450 101.936  1.00  0.00    -0.385 OA
ATOM     26  H   UNL     1     104.509 104.127 101.963  1.00  0.00     0.211 HD
ENDBRANCH  18  25
BRANCH  20  27
ATOM     27  O   UNL     1     105.073 106.082 101.841  1.00  0.00    -0.387 OA
ATOM     28  H   UNL     1     104.686 105.796 102.720  1.00  0.00     0.211 HD
ENDBRANCH  20  27
BRANCH  21  29
ATOM     29  C   UNL     1     106.228 106.230 104.313  1.00  0.00     0.191 C 
BRANCH  29  30
ATOM     30  O   UNL     1     105.290 105.255 104.680  1.00  0.00    -0.394 OA
ATOM     31  H   UNL     1     105.795 104.548 105.161  1.00  0.00     0.210 HD
ENDBRANCH  29  30
ENDBRANCH  21  29
ENDBRANCH   1  17
TORSDOF 13
ENDMDL
MODEL 2
REMARK VINA RESULT:    -4.064      1.739      6.005
REMARK INTER + INTRA:          -7.765
REMARK INTER:                  -6.333
REMARK INTRA:                  -1.432
REMARK UNBOUND:                -1.563
REMARK SMILES OC[C@@H]1O[C@@H](O[C@@]2(CO)O[C@H](CO)[C@H](O)[C@@H]2O)[C@H](O)[C@H](O)[C@@H]1O
REMARK SMILES IDX 6 1 5 2 3 3 22 4 4 5 20 6 18 7 2 8 1 9 23 11 21 13 19 15
REMARK SMILES IDX 7 17 16 18 10 19 14 20 11 21 8 22 9 23 17 25 15 27 12 29
REMARK SMILES IDX 13 30
REMARK H PARENT 1 10 23 12 21 14 19 16 9 24 17 26 15 28 13 31
REMARK Flexibility Score: inf
ROOT
ATOM      1  O   UNL     1     109.422 102.813 100.479  1.00  0.00    -0.313 OA
ENDROOT
BRANCH   1   2
ATOM      2  C   UNL     1     108.219 103.118 101.183  1.00  0.00     0.285 C 
ATOM      3  C   UNL     1     106.817 102.610 103.025  1.00  0.00     0.178 C 
ATOM      4  C   UNL     1     105.703 103.398 102.268  1.00  0.00     0.177 C 
ATOM      5  O   UNL     1     107.888 102.169 102.189  1.00  0.00    -0.341 OA
ATOM      6  C   UNL     1     105.688 102.965 100.795  1.00  0.00     0.179 C 
ATOM      7  C   UNL     1     107.077 103.195 100.142  1.00  0.00     0.202 C 
BRANCH   3   8
ATOM      8  C   UNL     1     107.350 103.359 104.266  1.00  0.00     0.191 C 
BRANCH   8   9
ATOM      9  O   UNL     1     108.743 103.204 104.387  1.00  0.00    -0.394 OA
ATOM     10  H   UNL     1     109.094 104.056 104.756  1.00  0.00     0.210 HD
ENDBRANCH   8   9
ENDBRANCH   3   8
BRANCH   4  11
ATOM     11  O   UNL     1     105.911 104.789 102.358  1.00  0.00    -0.387 OA
ATOM     12  H   UNL     1     105.835 105.153 101.437  1.00  0.00     0.211 HD
ENDBRANCH   4  11
BRANCH   6  13
ATOM     13  O   UNL     1     104.686 103.656 100.090  1.00  0.00    -0.387 OA
ATOM     14  H   UNL     1     103.876 103.082 100.093  1.00  0.00     0.211 HD
ENDBRANCH   6  13
BRANCH   7  15
ATOM     15  O   UNL     1     107.135 104.447  99.499  1.00  0.00    -0.385 OA
ATOM     16  H   UNL     1     108.094 104.688  99.411  1.00  0.00     0.211 HD
ENDBRANCH   7  15
ENDBRANCH   1   2
BRANCH   1  17
ATOM     17  C   UNL     1     110.555 103.646 100.725  1.00  0.00     0.224 C 
ATOM     18  C   UNL     1     111.743 103.023  99.979  1.00  0.00     0.208 C 
ATOM     19  O   UNL     1     110.915 103.601 102.094  1.00  0.00    -0.337 OA
ATOM     20  C   UNL     1     112.141 101.898 100.922  1.00  0.00     0.180 C 
ATOM     21  C   UNL     1     111.627 102.391 102.292  1.00  0.00     0.179 C 
BRANCH  17  22
ATOM     22  C   UNL     1     110.292 105.103 100.266  1.00  0.00     0.225 C 
BRANCH  22  23
ATOM     23  O   UNL     1     110.077 105.167  98.881  1.00  0.00    -0.391 OA
ATOM     24  H   UNL     1     109.248 105.695  98.743  1.00  0.00     0.210 HD
ENDBRANCH  22  23
ENDBRANCH  17  22
BRANCH  18  25
ATOM     25  O   UNL     1     112.804 103.934  99.785  1.00  0.00    -0.385 OA
ATOM     26  H   UNL     1     113.513 103.483  99.245  1.00  0.00     0.211 HD
ENDBRANCH  18  25
BRANCH  20  27
ATOM     27  O   UNL     1     113.524 101.655 100.904  1.00  0.00    -0.387 OA
ATOM     28  H   UNL     1     113.965 102.551 100.985  1.00  0.00     0.211 HD
ENDBRANCH  20  27
BRANCH  21  29
ATOM     29  C   UNL     1     112.732 102.618 103.335  1.00  0.00     0.191 C 
BRANCH  29  30
ATOM     30  O   UNL     1     113.210 101.382 103.791  1.00  0.00    -0.394 OA
ATOM     31  H   UNL     1     113.915 101.101 103.151  1.00  0.00     0.210 HD
ENDBRANCH  29  30
ENDBRANCH  21  29
ENDBRANCH   1  17
TORSDOF 13
ENDMDL
MODEL 3
REMARK VINA RESULT:    -4.058      8.461      9.482
REMARK INTER + INTRA:          -7.756
REMARK INTER:                  -6.324
REMARK INTRA:                  -1.432
REMARK UNBOUND:                -1.563
REMARK SMILES OC[C@@H]1O[C@@H](O[C@@]2(CO)O[C@H](CO)[C@H](O)[C@@H]2O)[C@H](O)[C@H](O)[C@@H]1O
REMARK SMILES IDX 6 1 5 2 3 3 22 4 4 5 20 6 18 7 2 8 1 9 23 11 21 13 19 15
REMARK SMILES IDX 7 17 16 18 10 19 14 20 11 21 8 22 9 23 17 25 15 27 12 29
REMARK SMILES IDX 13 30
REMARK H PARENT 1 10 23 12 21 14 19 16 9 24 17 26 15 28 13 31
REMARK Flexibility Score: inf
ROOT
ATOM      1  O   UNL     1     113.184 112.188 100.462  1.00  0.00    -0.313 OA
ENDROOT
BRANCH   1   2
ATOM      2  C   UNL     1     113.525 111.004 101.183  1.00  0.00     0.285 C 
ATOM      3  C   UNL     1     114.674 110.074 103.034  1.00  0.00     0.178 C 
ATOM      4  C   UNL     1     114.544 108.703 102.299  1.00  0.00     0.177 C 
ATOM      5  O   UNL     1     114.517 111.208 102.181  1.00  0.00    -0.341 OA
ATOM      6  C   UNL     1     114.919 108.883 100.821  1.00  0.00     0.179 C 
ATOM      7  C   UNL     1     114.023 109.961 100.156  1.00  0.00     0.202 C 
BRANCH   3   8
ATOM      8  C   UNL     1     113.765 110.180 104.278  1.00  0.00     0.191 C 
BRANCH   8   9
ATOM      9  O   UNL     1     113.240 111.478 104.407  1.00  0.00    -0.394 OA
ATOM     10  H   UNL     1     112.294 111.377 104.688  1.00  0.00     0.210 HD
ENDBRANCH   8   9
ENDBRANCH   3   8
BRANCH   4  11
ATOM     11  O   UNL     1     113.236 108.190 102.404  1.00  0.00    -0.387 OA
ATOM     12  H   UNL     1     113.126 107.528 101.672  1.00  0.00     0.211 HD
ENDBRANCH   4  11
BRANCH   6  13
ATOM     13  O   UNL     1     114.818 107.659 100.136  1.00  0.00    -0.387 OA
ATOM     14  H   UNL     1     115.045 106.941 100.783  1.00  0.00     0.211 HD
ENDBRANCH   6  13
BRANCH   7  15
ATOM     15  O   UNL     1     112.906 109.376  99.527  1.00  0.00    -0.385 OA
ATOM     16  H   UNL     1     113.016 109.508  98.549  1.00  0.00     0.211 HD
ENDBRANCH   7  15
ENDBRANCH   1   2
BRANCH   1  17
ATOM     17  C   UNL     1     111.900 112.762 100.713  1.00  0.00     0.224 C 
ATOM     18  C   UNL     1     111.849 114.097  99.957  1.00  0.00     0.208 C 
ATOM     19  O   UNL     1     111.771 113.108 102.080  1.00  0.00    -0.337 OA
ATOM     20  C   UNL     1     112.637 115.007 100.888  1.00  0.00     0.180 C 
ATOM     21  C   UNL     1     112.471 114.327 102.264  1.00  0.00     0.179 C 
BRANCH  17  22
ATOM     22  C   UNL     1     110.762 111.810 100.269  1.00  0.00     0.225 C 
BRANCH  22  23
ATOM     23  O   UNL     1     110.823 111.555  98.890  1.00  0.00    -0.391 OA
ATOM     24  H   UNL     1     111.274 110.678  98.779  1.00  0.00     0.210 HD
ENDBRANCH  22  23
ENDBRANCH  17  22
BRANCH  18  25
ATOM     25  O   UNL     1     110.532 114.567  99.768  1.00  0.00    -0.385 OA
ATOM     26  H   UNL     1     109.905 113.958 100.252  1.00  0.00     0.211 HD
ENDBRANCH  18  25
BRANCH  20  27
ATOM     27  O   UNL     1     112.163 116.329 100.864  1.00  0.00    -0.387 OA
ATOM     28  H   UNL     1     111.224 116.295 101.213  1.00  0.00     0.211 HD
ENDBRANCH  20  27
BRANCH  21  29
ATOM     29  C   UNL     1     111.735 115.182 103.306  1.00  0.00     0.191 C 
BRANCH  29  30
ATOM     30  O   UNL     1     112.537 116.271 103.674  1.00  0.00    -0.394 OA
ATOM     31  H   UNL     1     112.720 116.778 102.839  1.00  0.00     0.210 HD
ENDBRANCH  29  30
ENDBRANCH  21  29
ENDBRANCH   1  17
TORSDOF 13
ENDMDL
MODEL 4
REMARK VINA RESULT:    -4.053      7.960      9.648
REMARK INTER + INTRA:          -7.749
REMARK INTER:                  -6.300
REMARK INTRA:                  -1.448
REMARK UNBOUND:                -1.563
REMARK SMILES OC[C@@H]1O[C@@H](O[C@@]2(CO)O[C@H](CO)[C@H](O)[C@@H]2O)[C@H](O)[C@H](O)[C@@H]1O
REMARK SMILES IDX 6 1 5 2 3 3 22 4 4 5 20 6 18 7 2 8 1 9 23 11 21 13 19 15
REMARK SMILES IDX 7 17 16 18 10 19 14 20 11 21 8 22 9 23 17 25 15 27 12 29
REMARK SMILES IDX 13 30
REMARK H PARENT 1 10 23 12 21 14 19 16 9 24 17 26 15 28 13 31
REMARK Flexibility Score: inf
ROOT
ATOM      1  O   UNL     1     103.285 110.793 100.429  1.00  0.00    -0.313 OA
ENDROOT
BRANCH   1   2
ATOM      2  C   UNL     1     104.128 111.684 101.159  1.00  0.00     0.285 C 
ATOM      3  C   UNL     1     104.339 113.129 103.025  1.00  0.00     0.178 C 
ATOM      4  C   UNL     1     105.584 113.726 102.296  1.00  0.00     0.177 C 
ATOM      5  O   UNL     1     103.445 112.422 102.165  1.00  0.00    -0.341 OA
ATOM      6  C   UNL     1     105.237 113.971 100.820  1.00  0.00     0.179 C 
ATOM      7  C   UNL     1     104.770 112.657 100.142  1.00  0.00     0.202 C 
BRANCH   3   8
ATOM      8  C   UNL     1     104.713 112.281 104.260  1.00  0.00     0.191 C 
BRANCH   8   9
ATOM      9  O   UNL     1     103.900 111.137 104.349  1.00  0.00    -0.394 OA
ATOM     10  H   UNL     1     103.370 111.097 103.511  1.00  0.00     0.210 HD
ENDBRANCH   8   9
ENDBRANCH   3   8
BRANCH   4  11
ATOM     11  O   UNL     1     106.694 112.864 102.392  1.00  0.00    -0.387 OA
ATOM     12  H   UNL     1     106.966 112.847 103.346  1.00  0.00     0.211 HD
ENDBRANCH   4  11
BRANCH   6  13
ATOM     13  O   UNL     1     106.340 114.517 100.140  1.00  0.00    -0.387 OA
ATOM     14  H   UNL     1     106.354 114.116  99.232  1.00  0.00     0.211 HD
ENDBRANCH   6  13
BRANCH   7  15
ATOM     15  O   UNL     1     105.843 112.003  99.506  1.00  0.00    -0.385 OA
ATOM     16  H   UNL     1     105.515 111.686  98.625  1.00  0.00     0.211 HD
ENDBRANCH   7  15
ENDBRANCH   1   2
BRANCH   1  17
ATOM     17  C   UNL     1     103.437 109.395 100.678  1.00  0.00     0.224 C 
ATOM     18  C   UNL     1     102.306 108.679  99.927  1.00  0.00     0.208 C 
ATOM     19  O   UNL     1     103.210 109.108 102.046  1.00  0.00    -0.337 OA
ATOM     20  C   UNL     1     101.128 108.900 100.864  1.00  0.00     0.180 C 
ATOM     21  C   UNL     1     101.806 109.099 102.237  1.00  0.00     0.179 C 
BRANCH  17  22
ATOM     22  C   UNL     1     104.831 108.892 100.227  1.00  0.00     0.225 C 
BRANCH  22  23
ATOM     23  O   UNL     1     105.013 109.071  98.847  1.00  0.00    -0.391 OA
ATOM     24  H   UNL     1     104.804 108.203  98.413  1.00  0.00     0.210 HD
ENDBRANCH  22  23
ENDBRANCH  17  22
BRANCH  18  25
ATOM     25  O   UNL     1     102.563 107.304  99.736  1.00  0.00    -0.385 OA
ATOM     26  H   UNL     1     101.820 106.915  99.194  1.00  0.00     0.211 HD
ENDBRANCH  18  25
BRANCH  20  27
ATOM     27  O   UNL     1     100.225 107.825 100.843  1.00  0.00    -0.387 OA
ATOM     28  H   UNL     1     100.286 107.427  99.925  1.00  0.00     0.211 HD
ENDBRANCH  20  27
BRANCH  21  29
ATOM     29  C   UNL     1     101.443 108.031 103.280  1.00  0.00     0.191 C 
BRANCH  29  30
ATOM     30  O   UNL     1     100.124 108.226 103.715  1.00  0.00    -0.394 OA
ATOM     31  H   UNL     1      99.567 108.294 102.896  1.00  0.00     0.210 HD
ENDBRANCH  29  30
ENDBRANCH  21  29
ENDBRANCH   1  17
TORSDOF 13
ENDMDL
MODEL 5
REMARK VINA RESULT:    -4.053      7.916     10.003
REMARK INTER + INTRA:          -7.748
REMARK INTER:                  -6.199
REMARK INTRA:                  -1.549
REMARK UNBOUND:                -1.563
REMARK SMILES OC[C@@H]1O[C@@H](O[C@@]2(CO)O[C@H](CO)[C@H](O)[C@@H]2O)[C@H](O)[C@H](O)[C@@H]1O
REMARK SMILES IDX 6 1 5 2 3 3 22 4 4 5 20 6 18 7 2 8 1 9 23 11 21 13 19 15
REMARK SMILES IDX 7 17 16 18 10 19 14 20 11 21 8 22 9 23 17 25 15 27 12 29
REMARK SMILES IDX 13 30
REMARK H PARENT 1 10 23 12 21 14 19 16 9 24 17 26 15 28 13 31
REMARK Flexibility Score: inf
ROOT
ATOM      1  O   UNL     1     112.444 111.079 101.568  1.00  0.00    -0.313 OA
ENDROOT
BRANCH   1   2
ATOM      2  C   UNL     1     112.194 112.406 102.032  1.00  0.00     0.285 C 
ATOM      3  C   UNL     1     110.845 113.812 103.380  1.00  0.00     0.178 C 
ATOM      4  C   UNL     1     111.440 115.001 102.563  1.00  0.00     0.177 C 
ATOM      5  O   UNL     1     110.965 112.544 102.735  1.00  0.00    -0.341 OA
ATOM      6  C   UNL     1     111.414 114.651 101.067  1.00  0.00     0.179 C 
ATOM      7  C   UNL     1     112.197 113.339 100.798  1.00  0.00     0.202 C 
BRANCH   3   8
ATOM      8  C   UNL     1     111.374 113.753 104.830  1.00  0.00     0.191 C 
BRANCH   8   9
ATOM      9  O   UNL     1     111.509 115.045 105.369  1.00  0.00    -0.394 OA
ATOM     10  H   UNL     1     110.708 115.204 105.934  1.00  0.00     0.210 HD
ENDBRANCH   8   9
ENDBRANCH   3   8
BRANCH   4  11
ATOM     11  O   UNL     1     112.760 115.288 102.965  1.00  0.00    -0.387 OA
ATOM     12  H   UNL     1     113.322 114.521 102.680  1.00  0.00     0.211 HD
ENDBRANCH   4  11
BRANCH   6  13
ATOM     13  O   UNL     1     111.938 115.709 100.305  1.00  0.00    -0.387 OA
ATOM     14  H   UNL     1     112.066 115.370  99.380  1.00  0.00     0.211 HD
ENDBRANCH   6  13
BRANCH   7  15
ATOM     15  O   UNL     1     113.533 113.610 100.440  1.00  0.00    -0.385 OA
ATOM     16  H   UNL     1     113.848 112.850  99.884  1.00  0.00     0.211 HD
ENDBRANCH   7  15
ENDBRANCH   1   2
BRANCH   1  17
ATOM     17  C   UNL     1     113.322 110.267 102.348  1.00  0.00     0.224 C 
ATOM     18  C   UNL     1     113.591 108.990 101.539  1.00  0.00     0.208 C 
ATOM     19  O   UNL     1     112.672 109.825 103.526  1.00  0.00    -0.337 OA
ATOM     20  C   UNL     1     112.326 108.189 101.801  1.00  0.00     0.180 C 
ATOM     21  C   UNL     1     111.832 108.746 103.153  1.00  0.00     0.179 C 
BRANCH  17  22
ATOM     22  C   UNL     1     114.635 111.019 102.684  1.00  0.00     0.225 C 
BRANCH  22  23
ATOM     23  O   UNL     1     115.216 110.524 103.861  1.00  0.00    -0.391 OA
ATOM     24  H   UNL     1     114.924 109.579 103.951  1.00  0.00     0.210 HD
ENDBRANCH  22  23
ENDBRANCH  17  22
BRANCH  18  25
ATOM     25  O   UNL     1     114.741 108.299 101.977  1.00  0.00    -0.385 OA
ATOM     26  H   UNL     1     114.472 107.378 102.253  1.00  0.00     0.211 HD
ENDBRANCH  18  25
BRANCH  20  27
ATOM     27  O   UNL     1     112.571 106.806 101.829  1.00  0.00    -0.387 OA
ATOM     28  H   UNL     1     111.672 106.363 101.832  1.00  0.00     0.211 HD
ENDBRANCH  20  27
BRANCH  21  29
ATOM     29  C   UNL     1     111.799 107.713 104.288  1.00  0.00     0.191 C 
BRANCH  29  30
ATOM     30  O   UNL     1     113.109 107.413 104.690  1.00  0.00    -0.394 OA
ATOM     31  H   UNL     1     113.502 106.854 103.969  1.00  0.00     0.210 HD
ENDBRANCH  29  30
ENDBRANCH  21  29
ENDBRANCH   1  17
TORSDOF 13
ENDMDL
MODEL 6
REMARK VINA RESULT:    -4.035      7.967     10.084
REMARK INTER + INTRA:          -7.721
REMARK INTER:                  -6.190
REMARK INTRA:                  -1.531
REMARK UNBOUND:                -1.563
REMARK SMILES OC[C@@H]1O[C@@H](O[C@@]2(CO)O[C@H](CO)[C@H](O)[C@@H]2O)[C@H](O)[C@H](O)[C@@H]1O
REMARK SMILES IDX 6 1 5 2 3 3 22 4 4 5 20 6 18 7 2 8 1 9 23 11 21 13 19 15
REMARK SMILES IDX 7 17 16 18 10 19 14 20 11 21 8 22 9 23 17 25 15 27 12 29
REMARK SMILES IDX 13 30
REMARK H PARENT 1 10 23 12 21 14 19 16 9 24 17 26 15 28 13 31
REMARK Flexibility Score: inf
ROOT
ATOM      1  O   UNL     1     104.320 110.889 101.307  1.00  0.00    -0.313 OA
ENDROOT
BRANCH   1   2
ATOM      2  C   UNL     1     103.368 109.976 101.853  1.00  0.00     0.285 C 
ATOM      3  C   UNL     1     103.002 108.085 103.233  1.00  0.00     0.178 C 
ATOM      4  C   UNL     1     101.612 107.968 102.534  1.00  0.00     0.177 C 
ATOM      5  O   UNL     1     103.957 108.857 102.503  1.00  0.00    -0.341 OA
ATOM      6  C   UNL     1     101.791 108.135 101.018  1.00  0.00     0.179 C 
ATOM      7  C   UNL     1     102.467 109.492 100.693  1.00  0.00     0.202 C 
BRANCH   3   8
ATOM      8  C   UNL     1     102.903 108.561 104.699  1.00  0.00     0.191 C 
BRANCH   8   9
ATOM      9  O   UNL     1     101.826 107.940 105.357  1.00  0.00    -0.394 OA
ATOM     10  H   UNL     1     101.593 108.517 106.130  1.00  0.00     0.210 HD
ENDBRANCH   8   9
ENDBRANCH   3   8
BRANCH   4  11
ATOM     11  O   UNL     1     100.712 108.937 103.021  1.00  0.00    -0.387 OA
ATOM     12  H   UNL     1     101.250 109.605 103.522  1.00  0.00     0.211 HD
ENDBRANCH   4  11
BRANCH   6  13
ATOM     13  O   UNL     1     100.552 108.026 100.362  1.00  0.00    -0.387 OA
ATOM     14  H   UNL     1     100.742 107.848  99.403  1.00  0.00     0.211 HD
ENDBRANCH   6  13
BRANCH   7  15
ATOM     15  O   UNL     1     101.507 110.487 100.421  1.00  0.00    -0.385 OA
ATOM     16  H   UNL     1     101.817 111.323 100.858  1.00  0.00     0.211 HD
ENDBRANCH   7  15
ENDBRANCH   1   2
BRANCH   1  17
ATOM     17  C   UNL     1     104.694 112.008 102.112  1.00  0.00     0.224 C 
ATOM     18  C   UNL     1     105.562 112.922 101.238  1.00  0.00     0.208 C 
ATOM     19  O   UNL     1     105.541 111.596 103.169  1.00  0.00    -0.337 OA
ATOM     20  C   UNL     1     106.905 112.210 101.288  1.00  0.00     0.180 C 
ATOM     21  C   UNL     1     106.835 111.426 102.616  1.00  0.00     0.179 C 
BRANCH  17  22
ATOM     22  C   UNL     1     103.446 112.750 102.655  1.00  0.00     0.225 C 
BRANCH  22  23
ATOM     23  O   UNL     1     103.757 113.487 103.808  1.00  0.00    -0.391 OA
ATOM     24  H   UNL     1     104.739 113.417 103.939  1.00  0.00     0.210 HD
ENDBRANCH  22  23
ENDBRANCH  17  22
BRANCH  18  25
ATOM     25  O   UNL     1     105.654 114.236 101.745  1.00  0.00    -0.385 OA
ATOM     26  H   UNL     1     106.425 114.693 101.305  1.00  0.00     0.211 HD
ENDBRANCH  18  25
BRANCH  20  27
ATOM     27  O   UNL     1     107.984 113.108 101.231  1.00  0.00    -0.387 OA
ATOM     28  H   UNL     1     107.715 113.824 100.584  1.00  0.00     0.211 HD
ENDBRANCH  20  27
BRANCH  21  29
ATOM     29  C   UNL     1     107.888 111.846 103.652  1.00  0.00     0.191 C 
BRANCH  29  30
ATOM     30  O   UNL     1     107.527 113.076 104.219  1.00  0.00    -0.394 OA
ATOM     31  H   UNL     1     108.333 113.655 104.166  1.00  0.00     0.210 HD
ENDBRANCH  29  30
ENDBRANCH  21  29
ENDBRANCH   1  17
TORSDOF 13
ENDMDL
MODEL 7
REMARK VINA RESULT:    -4.030      8.481     10.673
REMARK INTER + INTRA:          -7.713
REMARK INTER:                  -6.072
REMARK INTRA:                  -1.641
REMARK UNBOUND:                -1.563
REMARK SMILES OC[C@@H]1O[C@@H](O[C@@]2(CO)O[C@H](CO)[C@H](O)[C@@H]2O)[C@H](O)[C@H](O)[C@@H]1O
REMARK SMILES IDX 6 1 5 2 3 3 22 4 4 5 20 6 18 7 2 8 1 9 23 11 21 13 19 15
REMARK SMILES IDX 7 17 16 18 10 19 14 20 11 21 8 22 9 23 17 25 15 27 12 29
REMARK SMILES IDX 13 30
REMARK H PARENT 1 10 23 12 21 14 19 16 9 24 17 26 15 28 13 31
REMARK Flexibility Score: inf
ROOT
ATOM      1  O   UNL     1     113.173 112.122 102.913  1.00  0.00    -0.313 OA
ENDROOT
BRANCH   1   2
ATOM      2  C   UNL     1     112.798 113.070 101.913  1.00  0.00     0.285 C 
ATOM      3  C   UNL     1     113.400 114.175  99.906  1.00  0.00     0.178 C 
ATOM      4  C   UNL     1     112.278 115.203 100.252  1.00  0.00     0.177 C 
ATOM      5  O   UNL     1     113.853 113.410 101.023  1.00  0.00    -0.341 OA
ATOM      6  C   UNL     1     112.390 115.595 101.733  1.00  0.00     0.179 C 
ATOM      7  C   UNL     1     112.297 114.340 102.640  1.00  0.00     0.202 C 
BRANCH   3   8
ATOM      8  C   UNL     1     113.033 113.261  98.716  1.00  0.00     0.191 C 
BRANCH   8   9
ATOM      9  O   UNL     1     113.517 111.956  98.917  1.00  0.00    -0.394 OA
ATOM     10  H   UNL     1     114.497 112.032  99.049  1.00  0.00     0.210 HD
ENDBRANCH   8   9
ENDBRANCH   3   8
BRANCH   4  11
ATOM     11  O   UNL     1     111.000 114.672  99.992  1.00  0.00    -0.387 OA
ATOM     12  H   UNL     1     110.968 113.774 100.413  1.00  0.00     0.211 HD
ENDBRANCH   4  11
BRANCH   6  13
ATOM     13  O   UNL     1     111.395 116.529 102.072  1.00  0.00    -0.387 OA
ATOM     14  H   UNL     1     110.778 116.083 102.710  1.00  0.00     0.211 HD
ENDBRANCH   6  13
BRANCH   7  15
ATOM     15  O   UNL     1     110.974 114.122 103.072  1.00  0.00    -0.385 OA
ATOM     16  H   UNL     1     110.428 113.933 102.265  1.00  0.00     0.211 HD
ENDBRANCH   7  15
ENDBRANCH   1   2
BRANCH   1  17
ATOM     17  C   UNL     1     112.678 110.790 102.773  1.00  0.00     0.224 C 
ATOM     18  C   UNL     1     113.434 109.920 103.787  1.00  0.00     0.208 C 
ATOM     19  O   UNL     1     113.024 110.264 101.505  1.00  0.00    -0.337 OA
ATOM     20  C   UNL     1     114.757 109.695 103.071  1.00  0.00     0.180 C 
ATOM     21  C   UNL     1     114.383 109.865 101.582  1.00  0.00     0.179 C 
BRANCH  17  22
ATOM     22  C   UNL     1     111.146 110.734 103.001  1.00  0.00     0.225 C 
BRANCH  22  23
ATOM     23  O   UNL     1     110.805 111.212 104.275  1.00  0.00    -0.391 OA
ATOM     24  H   UNL     1     110.441 112.128 104.151  1.00  0.00     0.210 HD
ENDBRANCH  22  23
ENDBRANCH  17  22
BRANCH  18  25
ATOM     25  O   UNL     1     112.777 108.700 104.056  1.00  0.00    -0.385 OA
ATOM     26  H   UNL     1     112.281 108.790 104.918  1.00  0.00     0.211 HD
ENDBRANCH  18  25
BRANCH  20  27
ATOM     27  O   UNL     1     115.310 108.436 103.362  1.00  0.00    -0.387 OA
ATOM     28  H   UNL     1     116.304 108.555 103.331  1.00  0.00     0.211 HD
ENDBRANCH  20  27
BRANCH  21  29
ATOM     29  C   UNL     1     114.589 108.603 100.732  1.00  0.00     0.191 C 
BRANCH  29  30
ATOM     30  O   UNL     1     113.722 107.592 101.170  1.00  0.00    -0.394 OA
ATOM     31  H   UNL     1     113.324 107.914 102.021  1.00  0.00     0.210 HD
ENDBRANCH  29  30
ENDBRANCH  21  29
ENDBRANCH   1  17
TORSDOF 13
ENDMDL
MODEL 8
REMARK VINA RESULT:    -3.957      8.446     10.662
REMARK INTER + INTRA:          -7.602
REMARK INTER:                  -5.995
REMARK INTRA:                  -1.607
REMARK UNBOUND:                -1.563
REMARK SMILES OC[C@@H]1O[C@@H](O[C@@]2(CO)O[C@H](CO)[C@H](O)[C@@H]2O)[C@H](O)[C@H](O)[C@@H]1O
REMARK SMILES IDX 6 1 5 2 3 3 22 4 4 5 20 6 18 7 2 8 1 9 23 11 21 13 19 15
REMARK SMILES IDX 7 17 16 18 10 19 14 20 11 21 8 22 9 23 17 25 15 27 12 29
REMARK SMILES IDX 13 30
REMARK H PARENT 1 10 23 12 21 14 19 16 9 24 17 26 15 28 13 31
REMARK Flexibility Score: inf
ROOT
ATOM      1  O   UNL     1     113.920 111.697 101.940  1.00  0.00    -0.313 OA
ENDROOT
BRANCH   1   2
ATOM      2  C   UNL     1     112.921 112.715 101.981  1.00  0.00     0.285 C 
ATOM      3  C   UNL     1     112.329 114.935 101.400  1.00  0.00     0.178 C 
ATOM      4  C   UNL     1     111.185 114.800 102.454  1.00  0.00     0.177 C 
ATOM      5  O   UNL     1     113.389 113.993 101.568  1.00  0.00    -0.341 OA
ATOM      6  C   UNL     1     111.750 114.173 103.737  1.00  0.00     0.179 C 
ATOM      7  C   UNL     1     112.396 112.795 103.434  1.00  0.00     0.202 C 
BRANCH   3   8
ATOM      8  C   UNL     1     111.811 114.937  99.945  1.00  0.00     0.191 C 
BRANCH   8   9
ATOM      9  O   UNL     1     112.870 115.099  99.035  1.00  0.00    -0.394 OA
ATOM     10  H   UNL     1     112.697 115.943  98.542  1.00  0.00     0.210 HD
ENDBRANCH   8   9
ENDBRANCH   3   8
BRANCH   4  11
ATOM     11  O   UNL     1     110.126 114.013 101.961  1.00  0.00    -0.387 OA
ATOM     12  H   UNL     1     109.534 113.809 102.731  1.00  0.00     0.211 HD
ENDBRANCH   4  11
BRANCH   6  13
ATOM     13  O   UNL     1     110.741 114.047 104.708  1.00  0.00    -0.387 OA
ATOM     14  H   UNL     1     110.767 113.110 105.038  1.00  0.00     0.211 HD
ENDBRANCH   6  13
BRANCH   7  15
ATOM     15  O   UNL     1     111.478 111.747 103.642  1.00  0.00    -0.385 OA
ATOM     16  H   UNL     1     111.419 111.597 104.621  1.00  0.00     0.211 HD
ENDBRANCH   7  15
ENDBRANCH   1   2
BRANCH   1  17
ATOM     17  C   UNL     1     114.076 110.980 100.715  1.00  0.00     0.224 C 
ATOM     18  C   UNL     1     112.675 110.806 100.114  1.00  0.00     0.208 C 
ATOM     19  O   UNL     1     114.535 109.664 100.968  1.00  0.00    -0.337 OA
ATOM     20  C   UNL     1     112.132 109.645 100.932  1.00  0.00     0.180 C 
ATOM     21  C   UNL     1     113.411 108.910 101.390  1.00  0.00     0.179 C 
BRANCH  17  22
ATOM     22  C   UNL     1     115.028 111.725  99.745  1.00  0.00     0.225 C 
BRANCH  22  23
ATOM     23  O   UNL     1     114.343 112.716  99.026  1.00  0.00    -0.391 OA
ATOM     24  H   UNL     1     113.439 112.792  99.430  1.00  0.00     0.210 HD
ENDBRANCH  22  23
ENDBRANCH  17  22
BRANCH  18  25
ATOM     25  O   UNL     1     112.707 110.497  98.737  1.00  0.00    -0.385 OA
ATOM     26  H   UNL     1     112.713 109.504  98.635  1.00  0.00     0.211 HD
ENDBRANCH  18  25
BRANCH  20  27
ATOM     27  O   UNL     1     111.263 108.831 100.187  1.00  0.00    -0.387 OA
ATOM     28  H   UNL     1     111.697 107.930 100.139  1.00  0.00     0.211 HD
ENDBRANCH  20  27
BRANCH  21  29
ATOM     29  C   UNL     1     113.536 107.474 100.862  1.00  0.00     0.191 C 
BRANCH  29  30
ATOM     30  O   UNL     1     113.627 107.492  99.463  1.00  0.00    -0.394 OA
ATOM     31  H   UNL     1     112.773 107.875  99.132  1.00  0.00     0.210 HD
ENDBRANCH  29  30
ENDBRANCH  21  29
ENDBRANCH   1  17
TORSDOF 13
ENDMDL
MODEL 9
REMARK VINA RESULT:    -3.955      1.999      3.574
REMARK INTER + INTRA:          -7.598
REMARK INTER:                  -5.986
REMARK INTRA:                  -1.612
REMARK UNBOUND:                -1.563
REMARK SMILES OC[C@@H]1O[C@@H](O[C@@]2(CO)O[C@H](CO)[C@H](O)[C@@H]2O)[C@H](O)[C@H](O)[C@@H]1O
REMARK SMILES IDX 6 1 5 2 3 3 22 4 4 5 20 6 18 7 2 8 1 9 23 11 21 13 19 15
REMARK SMILES IDX 7 17 16 18 10 19 14 20 11 21 8 22 9 23 17 25 15 27 12 29
REMARK SMILES IDX 13 30
REMARK H PARENT 1 10 23 12 21 14 19 16 9 24 17 26 15 28 13 31
REMARK Flexibility Score: inf
ROOT
ATOM      1  O   UNL     1     108.676 102.510 101.911  1.00  0.00    -0.313 OA
ENDROOT
BRANCH   1   2
ATOM      2  C   UNL     1     110.055 102.876 101.928  1.00  0.00     0.285 C 
ATOM      3  C   UNL     1     112.270 102.282 101.332  1.00  0.00     0.178 C 
ATOM      4  C   UNL     1     112.731 103.363 102.358  1.00  0.00     0.177 C 
ATOM      5  O   UNL     1     110.930 101.829 101.525  1.00  0.00    -0.341 OA
ATOM      6  C   UNL     1     111.922 103.208 103.655  1.00  0.00     0.179 C 
ATOM      7  C   UNL     1     110.402 103.321 103.368  1.00  0.00     0.202 C 
BRANCH   3   8
ATOM      8  C   UNL     1     112.511 102.702  99.865  1.00  0.00     0.191 C 
BRANCH   8   9
ATOM      9  O   UNL     1     112.102 101.689  98.979  1.00  0.00    -0.394 OA
ATOM     10  H   UNL     1     111.135 101.833  98.807  1.00  0.00     0.210 HD
ENDBRANCH   8   9
ENDBRANCH   3   8
BRANCH   4  11
ATOM     11  O   UNL     1     112.564 104.663 101.841  1.00  0.00    -0.387 OA
ATOM     12  H   UNL     1     112.926 104.655 100.916  1.00  0.00     0.211 HD
ENDBRANCH   4  11
BRANCH   6  13
ATOM     13  O   UNL     1     112.323 104.166 104.602  1.00  0.00    -0.387 OA
ATOM     14  H   UNL     1     113.003 104.745 104.165  1.00  0.00     0.211 HD
ENDBRANCH   6  13
BRANCH   7  15
ATOM     15  O   UNL     1     109.947 104.641 103.555  1.00  0.00    -0.385 OA
ATOM     16  H   UNL     1     110.617 105.107 104.120  1.00  0.00     0.211 HD
ENDBRANCH   7  15
ENDBRANCH   1   2
BRANCH   1  17
ATOM     17  C   UNL     1     107.964 102.691 100.687  1.00  0.00     0.224 C 
ATOM     18  C   UNL     1     108.505 103.971 100.036  1.00  0.00     0.208 C 
ATOM     19  O   UNL     1     106.597 102.958 100.944  1.00  0.00    -0.337 OA
ATOM     20  C   UNL     1     107.778 105.048 100.826  1.00  0.00     0.180 C 
ATOM     21  C   UNL     1     106.509 104.322 101.321  1.00  0.00     0.179 C 
BRANCH  17  22
ATOM     22  C   UNL     1     108.126 101.463  99.755  1.00  0.00     0.225 C 
BRANCH  22  23
ATOM     23  O   UNL     1     109.309 101.548  99.006  1.00  0.00    -0.391 OA
ATOM     24  H   UNL     1     110.062 101.429  99.642  1.00  0.00     0.210 HD
ENDBRANCH  22  23
ENDBRANCH  17  22
BRANCH  18  25
ATOM     25  O   UNL     1     108.208 104.051  98.658  1.00  0.00    -0.385 OA
ATOM     26  H   UNL     1     108.282 103.137  98.264  1.00  0.00     0.211 HD
ENDBRANCH  18  25
BRANCH  20  27
ATOM     27  O   UNL     1     107.498 106.181 100.045  1.00  0.00    -0.387 OA
ATOM     28  H   UNL     1     106.698 106.616 100.461  1.00  0.00     0.211 HD
ENDBRANCH  20  27
BRANCH  21  29
ATOM     29  C   UNL     1     105.196 104.912 100.786  1.00  0.00     0.191 C 
BRANCH  29  30
ATOM     30  O   UNL     1     105.154 104.780  99.391  1.00  0.00    -0.394 OA
ATOM     31  H   UNL     1     104.602 105.534  99.056  1.00  0.00     0.210 HD
ENDBRANCH  29  30
ENDBRANCH  21  29
ENDBRANCH   1  17
TORSDOF 13
ENDMDL
