MODEL 1
REMARK VINA RESULT:    -3.439      0.000      0.000
REMARK INTER + INTRA:          -6.130
REMARK INTER:                  -5.449
REMARK INTRA:                  -0.681
REMARK UNBOUND:                -0.681
REMARK SMILES CCCCCCCCCCCC(=O)[O-]
REMARK SMILES IDX 7 1 8 2 9 3 10 4 11 5 12 6 13 7 14 8 6 9 5 10 4 11 3 12 2 13
REMARK SMILES IDX 1 14
REMARK H PARENT
REMARK Flexibility Score: inf
ROOT
ATOM      1  C   UNL     1     110.603  61.826 216.501  1.00  0.00     0.000 C 
ENDROOT
BRANCH   1   2
ATOM      2  C   UNL     1     110.919  62.522 215.167  1.00  0.00     0.000 C 
BRANCH   2   3
ATOM      3  C   UNL     1     111.590  63.891 215.357  1.00  0.00     0.000 C 
BRANCH   3   4
ATOM      4  C   UNL     1     111.599  64.296 216.839  1.00  0.00     0.006 C 
BRANCH   4   5
ATOM      5  C   UNL     1     112.968  64.823 217.288  1.00  0.00     0.053 C 
BRANCH   5   6
ATOM      6  C   UNL     1     113.201  66.228 216.827  1.00  0.00     0.041 C 
ATOM      7  O   UNL     1     114.121  66.481 216.004  1.00  0.00    -0.550 OA
ATOM      8  O   UNL     1     112.424  67.263 217.329  1.00  0.00    -0.550 OA
ENDBRANCH   5   6
ENDBRANCH   4   5
ENDBRANCH   3   4
ENDBRANCH   2   3
ENDBRANCH   1   2
BRANCH   1   9
ATOM      9  C   UNL     1     109.383  60.895 216.405  1.00  0.00     0.000 C 
BRANCH   9  10
ATOM     10  C   UNL     1     108.314  61.413 215.426  1.00  0.00    -0.000 C 
BRANCH  10  11
ATOM     11  C   UNL     1     106.884  61.400 216.008  1.00  0.00    -0.000 C 
BRANCH  11  12
ATOM     12  C   UNL     1     106.374  59.974 216.262  1.00  0.00    -0.000 C 
BRANCH  12  13
ATOM     13  C   UNL     1     106.061  59.758 217.747  1.00  0.00    -0.003 C 
ATOM     14  C   UNL     1     107.034  58.765 218.377  1.00  0.00     0.004 C 
ENDBRANCH  12  13
ENDBRANCH  11  12
ENDBRANCH  10  11
ENDBRANCH   9  10
ENDBRANCH   1   9
TORSDOF 10
ENDMDL
MODEL 2
REMARK VINA RESULT:    -3.360     15.966     17.916
REMARK INTER + INTRA:          -6.005
REMARK INTER:                  -4.808
REMARK INTRA:                  -1.197
REMARK UNBOUND:                -0.681
REMARK SMILES CCCCCCCCCCCC(=O)[O-]
REMARK SMILES IDX 7 1 8 2 9 3 10 4 11 5 12 6 13 7 14 8 6 9 5 10 4 11 3 12 2 13
REMARK SMILES IDX 1 14
REMARK H PARENT
REMARK Flexibility Score: inf
ROOT
ATOM      1  C   UNL     1     112.408  56.685 233.073  1.00  0.00     0.000 C 
ENDROOT
BRANCH   1   2
ATOM      2  C   UNL     1     111.889  56.058 231.768  1.00  0.00     0.000 C 
BRANCH   2   3
ATOM      3  C   UNL     1     112.823  56.312 230.575  1.00  0.00     0.000 C 
BRANCH   3   4
ATOM      4  C   UNL     1     113.323  54.988 229.979  1.00  0.00     0.006 C 
BRANCH   4   5
ATOM      5  C   UNL     1     113.579  55.090 228.470  1.00  0.00     0.053 C 
BRANCH   5   6
ATOM      6  C   UNL     1     113.641  53.740 227.824  1.00  0.00     0.041 C 
ATOM      7  O   UNL     1     114.658  53.011 227.974  1.00  0.00    -0.550 OA
ATOM      8  O   UNL     1     112.590  53.300 227.031  1.00  0.00    -0.550 OA
ENDBRANCH   5   6
ENDBRANCH   4   5
ENDBRANCH   3   4
ENDBRANCH   2   3
ENDBRANCH   1   2
BRANCH   1   9
ATOM      9  C   UNL     1     113.901  57.043 233.000  1.00  0.00     0.000 C 
BRANCH   9  10
ATOM     10  C   UNL     1     114.812  55.905 233.495  1.00  0.00    -0.000 C 
BRANCH  10  11
ATOM     11  C   UNL     1     114.139  54.980 234.531  1.00  0.00    -0.000 C 
BRANCH  11  12
ATOM     12  C   UNL     1     114.450  53.498 234.274  1.00  0.00    -0.000 C 
BRANCH  12  13
ATOM     13  C   UNL     1     113.595  52.947 233.128  1.00  0.00    -0.003 C 
ATOM     14  C   UNL     1     112.116  52.918 233.507  1.00  0.00     0.004 C 
ENDBRANCH  12  13
ENDBRANCH  11  12
ENDBRANCH  10  11
ENDBRANCH   9  10
ENDBRANCH   1   9
TORSDOF 10
ENDMDL
MODEL 3
REMARK VINA RESULT:    -3.291     13.841     16.228
REMARK INTER + INTRA:          -5.896
REMARK INTER:                  -4.364
REMARK INTRA:                  -1.532
REMARK UNBOUND:                -0.681
REMARK SMILES CCCCCCCCCCCC(=O)[O-]
REMARK SMILES IDX 7 1 8 2 9 3 10 4 11 5 12 6 13 7 14 8 6 9 5 10 4 11 3 12 2 13
REMARK SMILES IDX 1 14
REMARK H PARENT
REMARK Flexibility Score: inf
ROOT
ATOM      1  C   UNL     1      95.904  65.531 224.470  1.00  0.00     0.000 C 
ENDROOT
BRANCH   1   2
ATOM      2  C   UNL     1      97.400  65.184 224.538  1.00  0.00     0.000 C 
BRANCH   2   3
ATOM      3  C   UNL     1      97.750  64.305 225.749  1.00  0.00     0.000 C 
BRANCH   3   4
ATOM      4  C   UNL     1      99.192  64.561 226.213  1.00  0.00     0.006 C 
BRANCH   4   5
ATOM      5  C   UNL     1      99.767  65.859 225.631  1.00  0.00     0.053 C 
BRANCH   5   6
ATOM      6  C   UNL     1     101.003  65.605 224.824  1.00  0.00     0.041 C 
ATOM      7  O   UNL     1     101.895  66.490 224.735  1.00  0.00    -0.550 OA
ATOM      8  O   UNL     1     101.155  64.405 224.144  1.00  0.00    -0.550 OA
ENDBRANCH   5   6
ENDBRANCH   4   5
ENDBRANCH   3   4
ENDBRANCH   2   3
ENDBRANCH   1   2
BRANCH   1   9
ATOM      9  C   UNL     1      95.293  65.781 225.858  1.00  0.00     0.000 C 
BRANCH   9  10
ATOM     10  C   UNL     1      94.929  67.258 226.092  1.00  0.00    -0.000 C 
BRANCH  10  11
ATOM     11  C   UNL     1      95.630  67.882 227.317  1.00  0.00    -0.000 C 
BRANCH  11  12
ATOM     12  C   UNL     1      97.161  67.799 227.214  1.00  0.00    -0.000 C 
BRANCH  12  13
ATOM     13  C   UNL     1      97.780  67.371 228.550  1.00  0.00    -0.003 C 
ATOM     14  C   UNL     1      97.174  66.059 229.043  1.00  0.00     0.004 C 
ENDBRANCH  12  13
ENDBRANCH  11  12
ENDBRANCH  10  11
ENDBRANCH   9  10
ENDBRANCH   1   9
TORSDOF 10
ENDMDL
MODEL 4
REMARK VINA RESULT:    -3.284     13.780     15.811
REMARK INTER + INTRA:          -5.886
REMARK INTER:                  -4.922
REMARK INTRA:                  -0.964
REMARK UNBOUND:                -0.681
REMARK SMILES CCCCCCCCCCCC(=O)[O-]
REMARK SMILES IDX 7 1 8 2 9 3 10 4 11 5 12 6 13 7 14 8 6 9 5 10 4 11 3 12 2 13
REMARK SMILES IDX 1 14
REMARK H PARENT
REMARK Flexibility Score: inf
ROOT
ATOM      1  C   UNL     1     113.626  54.132 229.145  1.00  0.00     0.000 C 
ENDROOT
BRANCH   1   2
ATOM      2  C   UNL     1     114.063  53.606 227.768  1.00  0.00     0.000 C 
BRANCH   2   3
ATOM      3  C   UNL     1     113.965  54.673 226.666  1.00  0.00     0.000 C 
BRANCH   3   4
ATOM      4  C   UNL     1     112.609  54.596 225.949  1.00  0.00     0.006 C 
BRANCH   4   5
ATOM      5  C   UNL     1     111.840  55.923 226.018  1.00  0.00     0.053 C 
BRANCH   5   6
ATOM      6  C   UNL     1     110.664  55.834 226.941  1.00  0.00     0.041 C 
ATOM      7  O   UNL     1     109.559  55.396 226.521  1.00  0.00    -0.550 OA
ATOM      8  O   UNL     1     110.777  56.266 228.256  1.00  0.00    -0.550 OA
ENDBRANCH   5   6
ENDBRANCH   4   5
ENDBRANCH   3   4
ENDBRANCH   2   3
ENDBRANCH   1   2
BRANCH   1   9
ATOM      9  C   UNL     1     114.030  55.598 229.370  1.00  0.00     0.000 C 
BRANCH   9  10
ATOM     10  C   UNL     1     113.692  56.099 230.785  1.00  0.00    -0.000 C 
BRANCH  10  11
ATOM     11  C   UNL     1     112.346  55.568 231.324  1.00  0.00    -0.000 C 
BRANCH  11  12
ATOM     12  C   UNL     1     112.488  54.935 232.717  1.00  0.00    -0.000 C 
BRANCH  12  13
ATOM     13  C   UNL     1     112.742  53.427 232.613  1.00  0.00    -0.003 C 
ATOM     14  C   UNL     1     113.962  53.016 233.433  1.00  0.00     0.004 C 
ENDBRANCH  12  13
ENDBRANCH  11  12
ENDBRANCH  10  11
ENDBRANCH   9  10
ENDBRANCH   1   9
TORSDOF 10
ENDMDL
MODEL 5
REMARK VINA RESULT:    -3.225     14.876     16.761
REMARK INTER + INTRA:          -5.791
REMARK INTER:                  -4.630
REMARK INTRA:                  -1.162
REMARK UNBOUND:                -0.681
REMARK SMILES CCCCCCCCCCCC(=O)[O-]
REMARK SMILES IDX 7 1 8 2 9 3 10 4 11 5 12 6 13 7 14 8 6 9 5 10 4 11 3 12 2 13
REMARK SMILES IDX 1 14
REMARK H PARENT
REMARK Flexibility Score: inf
ROOT
ATOM      1  C   UNL     1     113.438  57.507 229.340  1.00  0.00     0.000 C 
ENDROOT
BRANCH   1   2
ATOM      2  C   UNL     1     113.884  56.309 230.195  1.00  0.00     0.000 C 
BRANCH   2   3
ATOM      3  C   UNL     1     113.486  56.455 231.672  1.00  0.00     0.000 C 
BRANCH   3   4
ATOM      4  C   UNL     1     112.562  55.308 232.106  1.00  0.00     0.006 C 
BRANCH   4   5
ATOM      5  C   UNL     1     113.160  53.930 231.791  1.00  0.00     0.053 C 
BRANCH   5   6
ATOM      6  C   UNL     1     113.106  53.018 232.978  1.00  0.00     0.041 C 
ATOM      7  O   UNL     1     114.171  52.625 233.525  1.00  0.00    -0.550 OA
ATOM      8  O   UNL     1     111.882  52.575 233.461  1.00  0.00    -0.550 OA
ENDBRANCH   5   6
ENDBRANCH   4   5
ENDBRANCH   3   4
ENDBRANCH   2   3
ENDBRANCH   1   2
BRANCH   1   9
ATOM      9  C   UNL     1     111.966  57.407 228.909  1.00  0.00     0.000 C 
BRANCH   9  10
ATOM     10  C   UNL     1     111.615  56.041 228.294  1.00  0.00    -0.000 C 
BRANCH  10  11
ATOM     11  C   UNL     1     112.104  55.874 226.839  1.00  0.00    -0.000 C 
BRANCH  11  12
ATOM     12  C   UNL     1     112.659  54.467 226.571  1.00  0.00    -0.000 C 
BRANCH  12  13
ATOM     13  C   UNL     1     114.124  54.361 227.009  1.00  0.00    -0.003 C 
ATOM     14  C   UNL     1     114.294  53.329 228.121  1.00  0.00     0.004 C 
ENDBRANCH  12  13
ENDBRANCH  11  12
ENDBRANCH  10  11
ENDBRANCH   9  10
ENDBRANCH   1   9
TORSDOF 10
ENDMDL
MODEL 6
REMARK VINA RESULT:    -3.224     14.041     16.441
REMARK INTER + INTRA:          -5.791
REMARK INTER:                  -4.146
REMARK INTRA:                  -1.645
REMARK UNBOUND:                -0.681
REMARK SMILES CCCCCCCCCCCC(=O)[O-]
REMARK SMILES IDX 7 1 8 2 9 3 10 4 11 5 12 6 13 7 14 8 6 9 5 10 4 11 3 12 2 13
REMARK SMILES IDX 1 14
REMARK H PARENT
REMARK Flexibility Score: inf
ROOT
ATOM      1  C   UNL     1      97.271  64.756 228.715  1.00  0.00     0.000 C 
ENDROOT
BRANCH   1   2
ATOM      2  C   UNL     1      98.486  64.697 227.774  1.00  0.00     0.000 C 
BRANCH   2   3
ATOM      3  C   UNL     1      98.181  63.965 226.458  1.00  0.00     0.000 C 
BRANCH   3   4
ATOM      4  C   UNL     1      98.533  64.843 225.248  1.00  0.00     0.006 C 
BRANCH   4   5
ATOM      5  C   UNL     1      99.636  65.860 225.570  1.00  0.00     0.053 C 
BRANCH   5   6
ATOM      6  C   UNL     1     100.893  65.577 224.806  1.00  0.00     0.041 C 
ATOM      7  O   UNL     1     101.798  66.450 224.727  1.00  0.00    -0.550 OA
ATOM      8  O   UNL     1     101.052  64.361 224.154  1.00  0.00    -0.550 OA
ENDBRANCH   5   6
ENDBRANCH   4   5
ENDBRANCH   3   4
ENDBRANCH   2   3
ENDBRANCH   1   2
BRANCH   1   9
ATOM      9  C   UNL     1      96.864  66.197 229.063  1.00  0.00     0.000 C 
BRANCH   9  10
ATOM     10  C   UNL     1      97.805  67.247 228.447  1.00  0.00    -0.000 C 
BRANCH  10  11
ATOM     11  C   UNL     1      97.148  68.088 227.332  1.00  0.00    -0.000 C 
BRANCH  11  12
ATOM     12  C   UNL     1      95.646  67.797 227.195  1.00  0.00    -0.000 C 
BRANCH  12  13
ATOM     13  C   UNL     1      95.322  67.212 225.816  1.00  0.00    -0.003 C 
ATOM     14  C   UNL     1      94.937  65.738 225.918  1.00  0.00     0.004 C 
ENDBRANCH  12  13
ENDBRANCH  11  12
ENDBRANCH  10  11
ENDBRANCH   9  10
ENDBRANCH   1   9
TORSDOF 10
ENDMDL
MODEL 7
REMARK VINA RESULT:    -3.219      1.550      2.917
REMARK INTER + INTRA:          -5.782
REMARK INTER:                  -4.999
REMARK INTRA:                  -0.783
REMARK UNBOUND:                -0.681
REMARK SMILES CCCCCCCCCCCC(=O)[O-]
REMARK SMILES IDX 7 1 8 2 9 3 10 4 11 5 12 6 13 7 14 8 6 9 5 10 4 11 3 12 2 13
REMARK SMILES IDX 1 14
REMARK H PARENT
REMARK Flexibility Score: inf
ROOT
ATOM      1  C   UNL     1     111.630  61.675 217.754  1.00  0.00     0.000 C 
ENDROOT
BRANCH   1   2
ATOM      2  C   UNL     1     112.668  62.707 218.226  1.00  0.00     0.000 C 
BRANCH   2   3
ATOM      3  C   UNL     1     112.103  63.682 219.270  1.00  0.00     0.000 C 
BRANCH   3   4
ATOM      4  C   UNL     1     112.479  65.130 218.927  1.00  0.00     0.006 C 
BRANCH   4   5
ATOM      5  C   UNL     1     112.225  65.462 217.451  1.00  0.00     0.053 C 
BRANCH   5   6
ATOM      6  C   UNL     1     113.082  66.597 216.982  1.00  0.00     0.041 C 
ATOM      7  O   UNL     1     112.857  67.770 217.382  1.00  0.00    -0.550 OA
ATOM      8  O   UNL     1     114.110  66.365 216.077  1.00  0.00    -0.550 OA
ENDBRANCH   5   6
ENDBRANCH   4   5
ENDBRANCH   3   4
ENDBRANCH   2   3
ENDBRANCH   1   2
BRANCH   1   9
ATOM      9  C   UNL     1     112.026  61.005 216.429  1.00  0.00     0.000 C 
BRANCH   9  10
ATOM     10  C   UNL     1     111.478  61.748 215.198  1.00  0.00    -0.000 C 
BRANCH  10  11
ATOM     11  C   UNL     1     110.368  62.767 215.533  1.00  0.00    -0.000 C 
BRANCH  11  12
ATOM     12  C   UNL     1     109.015  62.374 214.920  1.00  0.00    -0.000 C 
BRANCH  12  13
ATOM     13  C   UNL     1     108.376  61.216 215.695  1.00  0.00    -0.003 C 
ATOM     14  C   UNL     1     106.875  61.433 215.871  1.00  0.00     0.004 C 
ENDBRANCH  12  13
ENDBRANCH  11  12
ENDBRANCH  10  11
ENDBRANCH   9  10
ENDBRANCH   1   9
TORSDOF 10
ENDMDL
MODEL 8
REMARK VINA RESULT:    -3.133     14.723     17.294
REMARK INTER + INTRA:          -5.646
REMARK INTER:                  -4.034
REMARK INTRA:                  -1.612
REMARK UNBOUND:                -0.681
REMARK SMILES CCCCCCCCCCCC(=O)[O-]
REMARK SMILES IDX 7 1 8 2 9 3 10 4 11 5 12 6 13 7 14 8 6 9 5 10 4 11 3 12 2 13
REMARK SMILES IDX 1 14
REMARK H PARENT
REMARK Flexibility Score: inf
ROOT
ATOM      1  C   UNL     1      97.369  64.588 224.980  1.00  0.00     0.000 C 
ENDROOT
BRANCH   1   2
ATOM      2  C   UNL     1      96.337  65.689 225.274  1.00  0.00     0.000 C 
BRANCH   2   3
ATOM      3  C   UNL     1      95.742  65.583 226.686  1.00  0.00     0.000 C 
BRANCH   3   4
ATOM      4  C   UNL     1      96.047  66.846 227.505  1.00  0.00     0.006 C 
BRANCH   4   5
ATOM      5  C   UNL     1      97.099  66.593 228.594  1.00  0.00     0.053 C 
BRANCH   5   6
ATOM      6  C   UNL     1      96.606  65.630 229.629  1.00  0.00     0.041 C 
ATOM      7  O   UNL     1      95.533  65.860 230.250  1.00  0.00    -0.550 OA
ATOM      8  O   UNL     1      97.345  64.495 229.933  1.00  0.00    -0.550 OA
ENDBRANCH   5   6
ENDBRANCH   4   5
ENDBRANCH   3   4
ENDBRANCH   2   3
ENDBRANCH   1   2
BRANCH   1   9
ATOM      9  C   UNL     1      97.901  63.923 226.260  1.00  0.00     0.000 C 
BRANCH   9  10
ATOM     10  C   UNL     1      99.360  64.303 226.568  1.00  0.00    -0.000 C 
BRANCH  10  11
ATOM     11  C   UNL     1     100.204  64.587 225.308  1.00  0.00    -0.000 C 
BRANCH  11  12
ATOM     12  C   UNL     1     100.817  65.996 225.326  1.00  0.00    -0.000 C 
BRANCH  12  13
ATOM     13  C   UNL     1     100.060  66.913 226.292  1.00  0.00    -0.003 C 
ATOM     14  C   UNL     1      99.249  67.962 225.536  1.00  0.00     0.004 C 
ENDBRANCH  12  13
ENDBRANCH  11  12
ENDBRANCH  10  11
ENDBRANCH   9  10
ENDBRANCH   1   9
TORSDOF 10
ENDMDL
