MODEL 1
REMARK VINA RESULT:    -4.122      0.000      0.000
REMARK INTER + INTRA:          -4.492
REMARK INTER:                  -4.363
REMARK INTRA:                  -0.129
REMARK UNBOUND:                -0.129
REMARK SMILES C=C(C)[C@H]1CC=C(C)CC1
REMARK SMILES IDX 8 1 7 2 6 3 5 4 4 5 10 6 9 7 2 8 1 9 3 10
REMARK H PARENT
REMARK Flexibility Score: inf
ROOT
ATOM      1  C   UNL     1     140.875 137.875 136.368  1.00  0.00     0.039 C 
ATOM      2  C   UNL     1     139.798 138.501 135.524  1.00  0.00    -0.077 C 
ATOM      3  C   UNL     1     139.035 139.480 136.055  1.00  0.00    -0.027 C 
ATOM      4  C   UNL     1     137.898 140.132 135.308  1.00  0.00     0.035 C 
ATOM      5  C   UNL     1     138.045 139.989 133.784  1.00  0.00     0.018 C 
ATOM      6  C   UNL     1     138.362 138.530 133.425  1.00  0.00     0.013 C 
ATOM      7  C   UNL     1     139.691 138.105 134.064  1.00  0.00     0.031 C 
ENDROOT
BRANCH   5   8
ATOM      8  C   UNL     1     136.802 140.486 133.057  1.00  0.00    -0.077 C 
ATOM      9  C   UNL     1     135.584 140.083 133.454  1.00  0.00     0.008 C 
ATOM     10  C   UNL     1     136.902 141.422 131.878  1.00  0.00     0.039 C 
ENDBRANCH   5   8
TORSDOF 1
ENDMDL
MODEL 2
REMARK VINA RESULT:    -4.112      4.326      5.901
REMARK INTER + INTRA:          -4.481
REMARK INTER:                  -4.360
REMARK INTRA:                  -0.122
REMARK UNBOUND:                -0.129
REMARK SMILES C=C(C)[C@H]1CC=C(C)CC1
REMARK SMILES IDX 8 1 7 2 6 3 5 4 4 5 10 6 9 7 2 8 1 9 3 10
REMARK H PARENT
REMARK Flexibility Score: inf
ROOT
ATOM      1  C   UNL     1     137.887 131.772 136.366  1.00  0.00     0.039 C 
ATOM      2  C   UNL     1     138.518 132.849 135.526  1.00  0.00    -0.077 C 
ATOM      3  C   UNL     1     139.482 133.623 136.068  1.00  0.00    -0.027 C 
ATOM      4  C   UNL     1     140.137 134.761 135.326  1.00  0.00     0.035 C 
ATOM      5  C   UNL     1     140.019 134.605 133.800  1.00  0.00     0.018 C 
ATOM      6  C   UNL     1     138.569 134.274 133.420  1.00  0.00     0.013 C 
ATOM      7  C   UNL     1     138.145 132.945 134.059  1.00  0.00     0.031 C 
ENDROOT
BRANCH   5   8
ATOM      8  C   UNL     1     140.518 135.848 133.075  1.00  0.00    -0.077 C 
ATOM      9  C   UNL     1     141.357 135.729 132.034  1.00  0.00     0.008 C 
ATOM     10  C   UNL     1     140.097 137.232 133.505  1.00  0.00     0.039 C 
ENDBRANCH   5   8
TORSDOF 1
ENDMDL
MODEL 3
REMARK VINA RESULT:    -4.087      4.441      6.029
REMARK INTER + INTRA:          -4.456
REMARK INTER:                  -4.334
REMARK INTRA:                  -0.121
REMARK UNBOUND:                -0.129
REMARK SMILES C=C(C)[C@H]1CC=C(C)CC1
REMARK SMILES IDX 8 1 7 2 6 3 5 4 4 5 10 6 9 7 2 8 1 9 3 10
REMARK H PARENT
REMARK Flexibility Score: inf
ROOT
ATOM      1  C   UNL     1     134.618 140.857 136.337  1.00  0.00     0.039 C 
ATOM      2  C   UNL     1     134.016 139.765 135.496  1.00  0.00    -0.077 C 
ATOM      3  C   UNL     1     133.033 139.001 136.017  1.00  0.00    -0.027 C 
ATOM      4  C   UNL     1     132.403 137.850 135.273  1.00  0.00     0.035 C 
ATOM      5  C   UNL     1     132.575 137.979 133.750  1.00  0.00     0.018 C 
ATOM      6  C   UNL     1     134.038 138.303 133.415  1.00  0.00     0.013 C 
ATOM      7  C   UNL     1     134.440 139.643 134.044  1.00  0.00     0.031 C 
ENDROOT
BRANCH   5   8
ATOM      8  C   UNL     1     132.101 136.723 133.029  1.00  0.00    -0.077 C 
ATOM      9  C   UNL     1     131.264 136.822 131.984  1.00  0.00     0.008 C 
ATOM     10  C   UNL     1     132.543 135.350 133.470  1.00  0.00     0.039 C 
ENDBRANCH   5   8
TORSDOF 1
ENDMDL
MODEL 4
REMARK VINA RESULT:    -4.074      6.883      8.263
REMARK INTER + INTRA:          -4.441
REMARK INTER:                  -4.320
REMARK INTRA:                  -0.122
REMARK UNBOUND:                -0.129
REMARK SMILES C=C(C)[C@H]1CC=C(C)CC1
REMARK SMILES IDX 8 1 7 2 6 3 5 4 4 5 10 6 9 7 2 8 1 9 3 10
REMARK H PARENT
REMARK Flexibility Score: inf
ROOT
ATOM      1  C   UNL     1     131.779 134.745 136.399  1.00  0.00     0.039 C 
ATOM      2  C   UNL     1     132.869 134.134 135.561  1.00  0.00    -0.077 C 
ATOM      3  C   UNL     1     133.643 133.167 136.096  1.00  0.00    -0.027 C 
ATOM      4  C   UNL     1     134.794 132.531 135.355  1.00  0.00     0.035 C 
ATOM      5  C   UNL     1     134.651 132.671 133.829  1.00  0.00     0.018 C 
ATOM      6  C   UNL     1     134.314 134.125 133.468  1.00  0.00     0.013 C 
ATOM      7  C   UNL     1     132.977 134.530 134.100  1.00  0.00     0.031 C 
ENDROOT
BRANCH   5   8
ATOM      8  C   UNL     1     135.905 132.192 133.109  1.00  0.00    -0.077 C 
ATOM      9  C   UNL     1     135.801 131.368 132.053  1.00  0.00     0.008 C 
ATOM     10  C   UNL     1     137.281 132.613 133.561  1.00  0.00     0.039 C 
ENDBRANCH   5   8
TORSDOF 1
ENDMDL
MODEL 5
REMARK VINA RESULT:    -4.050      4.200      6.121
REMARK INTER + INTRA:          -4.416
REMARK INTER:                  -4.284
REMARK INTRA:                  -0.132
REMARK UNBOUND:                -0.129
REMARK SMILES C=C(C)[C@H]1CC=C(C)CC1
REMARK SMILES IDX 8 1 7 2 6 3 5 4 4 5 10 6 9 7 2 8 1 9 3 10
REMARK H PARENT
REMARK Flexibility Score: inf
ROOT
ATOM      1  C   UNL     1     140.886 138.035 136.212  1.00  0.00     0.039 C 
ATOM      2  C   UNL     1     140.212 136.711 135.974  1.00  0.00    -0.077 C 
ATOM      3  C   UNL     1     140.599 135.958 134.923  1.00  0.00    -0.027 C 
ATOM      4  C   UNL     1     139.950 134.642 134.571  1.00  0.00     0.035 C 
ATOM      5  C   UNL     1     139.237 134.004 135.776  1.00  0.00     0.018 C 
ATOM      6  C   UNL     1     138.352 135.049 136.472  1.00  0.00     0.013 C 
ATOM      7  C   UNL     1     139.213 136.205 136.997  1.00  0.00     0.031 C 
ENDROOT
BRANCH   5   8
ATOM      8  C   UNL     1     138.434 132.779 135.360  1.00  0.00    -0.077 C 
ATOM      9  C   UNL     1     138.135 132.577 134.067  1.00  0.00     0.008 C 
ATOM     10  C   UNL     1     137.947 131.775 136.377  1.00  0.00     0.039 C 
ENDBRANCH   5   8
TORSDOF 1
ENDMDL
MODEL 6
REMARK VINA RESULT:    -4.044      1.603      4.502
REMARK INTER + INTRA:          -4.410
REMARK INTER:                  -4.278
REMARK INTRA:                  -0.131
REMARK UNBOUND:                -0.129
REMARK SMILES C=C(C)[C@H]1CC=C(C)CC1
REMARK SMILES IDX 8 1 7 2 6 3 5 4 4 5 10 6 9 7 2 8 1 9 3 10
REMARK H PARENT
REMARK Flexibility Score: inf
ROOT
ATOM      1  C   UNL     1     134.631 140.875 136.217  1.00  0.00     0.039 C 
ATOM      2  C   UNL     1     135.952 140.193 135.988  1.00  0.00    -0.077 C 
ATOM      3  C   UNL     1     136.710 140.569 134.936  1.00  0.00    -0.027 C 
ATOM      4  C   UNL     1     138.023 139.910 134.592  1.00  0.00     0.035 C 
ATOM      5  C   UNL     1     138.654 139.202 135.804  1.00  0.00     0.018 C 
ATOM      6  C   UNL     1     137.602 138.327 136.502  1.00  0.00     0.013 C 
ATOM      7  C   UNL     1     136.449 139.198 137.019  1.00  0.00     0.031 C 
ENDROOT
BRANCH   5   8
ATOM      8  C   UNL     1     139.876 138.389 135.397  1.00  0.00    -0.077 C 
ATOM      9  C   UNL     1     140.088 138.093 134.105  1.00  0.00     0.008 C 
ATOM     10  C   UNL     1     140.865 137.889 136.422  1.00  0.00     0.039 C 
ENDBRANCH   5   8
TORSDOF 1
ENDMDL
MODEL 7
REMARK VINA RESULT:    -4.040      4.504      6.218
REMARK INTER + INTRA:          -4.405
REMARK INTER:                  -4.273
REMARK INTRA:                  -0.132
REMARK UNBOUND:                -0.129
REMARK SMILES C=C(C)[C@H]1CC=C(C)CC1
REMARK SMILES IDX 8 1 7 2 6 3 5 4 4 5 10 6 9 7 2 8 1 9 3 10
REMARK H PARENT
REMARK Flexibility Score: inf
ROOT
ATOM      1  C   UNL     1     131.785 134.638 136.306  1.00  0.00     0.039 C 
ATOM      2  C   UNL     1     132.465 135.957 136.057  1.00  0.00    -0.077 C 
ATOM      3  C   UNL     1     132.125 136.674 134.965  1.00  0.00    -0.027 C 
ATOM      4  C   UNL     1     132.787 137.980 134.601  1.00  0.00     0.035 C 
ATOM      5  C   UNL     1     133.440 138.660 135.816  1.00  0.00     0.018 C 
ATOM      6  C   UNL     1     134.294 137.642 136.586  1.00  0.00     0.013 C 
ATOM      7  C   UNL     1     133.413 136.500 137.109  1.00  0.00     0.031 C 
ENDROOT
BRANCH   5   8
ATOM      8  C   UNL     1     134.258 139.875 135.399  1.00  0.00    -0.077 C 
ATOM      9  C   UNL     1     134.565 140.068 134.106  1.00  0.00     0.008 C 
ATOM     10  C   UNL     1     134.751 140.878 136.413  1.00  0.00     0.039 C 
ENDBRANCH   5   8
TORSDOF 1
ENDMDL
MODEL 8
REMARK VINA RESULT:    -4.002      4.496      6.503
REMARK INTER + INTRA:          -4.365
REMARK INTER:                  -4.239
REMARK INTRA:                  -0.126
REMARK UNBOUND:                -0.129
REMARK SMILES C=C(C)[C@H]1CC=C(C)CC1
REMARK SMILES IDX 8 1 7 2 6 3 5 4 4 5 10 6 9 7 2 8 1 9 3 10
REMARK H PARENT
REMARK Flexibility Score: inf
ROOT
ATOM      1  C   UNL     1     131.857 136.742 131.890  1.00  0.00     0.039 C 
ATOM      2  C   UNL     1     132.458 137.477 133.057  1.00  0.00    -0.077 C 
ATOM      3  C   UNL     1     133.532 138.269 132.850  1.00  0.00    -0.027 C 
ATOM      4  C   UNL     1     134.237 139.004 133.963  1.00  0.00     0.035 C 
ATOM      5  C   UNL     1     133.330 139.211 135.189  1.00  0.00     0.018 C 
ATOM      6  C   UNL     1     132.644 137.889 135.560  1.00  0.00     0.013 C 
ATOM      7  C   UNL     1     131.759 137.410 134.401  1.00  0.00     0.031 C 
ENDROOT
BRANCH   5   8
ATOM      8  C   UNL     1     134.110 139.785 136.365  1.00  0.00    -0.077 C 
ATOM      9  C   UNL     1     134.807 140.924 136.219  1.00  0.00     0.008 C 
ATOM     10  C   UNL     1     134.132 139.095 137.706  1.00  0.00     0.039 C 
ENDBRANCH   5   8
TORSDOF 1
ENDMDL
MODEL 9
REMARK VINA RESULT:    -3.960      1.708      2.324
REMARK INTER + INTRA:          -4.321
REMARK INTER:                  -4.201
REMARK INTRA:                  -0.120
REMARK UNBOUND:                -0.129
REMARK SMILES C=C(C)[C@H]1CC=C(C)CC1
REMARK SMILES IDX 8 1 7 2 6 3 5 4 4 5 10 6 9 7 2 8 1 9 3 10
REMARK H PARENT
REMARK Flexibility Score: inf
ROOT
ATOM      1  C   UNL     1     140.878 137.870 136.381  1.00  0.00     0.039 C 
ATOM      2  C   UNL     1     139.516 138.451 136.114  1.00  0.00    -0.077 C 
ATOM      3  C   UNL     1     138.426 137.813 136.592  1.00  0.00    -0.027 C 
ATOM      4  C   UNL     1     137.017 138.288 136.334  1.00  0.00     0.035 C 
ATOM      5  C   UNL     1     136.962 139.784 135.983  1.00  0.00     0.018 C 
ATOM      6  C   UNL     1     138.009 140.107 134.907  1.00  0.00     0.013 C 
ATOM      7  C   UNL     1     139.418 139.803 135.433  1.00  0.00     0.031 C 
ENDROOT
BRANCH   5   8
ATOM      8  C   UNL     1     135.564 140.200 135.545  1.00  0.00    -0.077 C 
ATOM      9  C   UNL     1     134.789 140.925 136.368  1.00  0.00     0.008 C 
ATOM     10  C   UNL     1     135.012 139.806 134.197  1.00  0.00     0.039 C 
ENDBRANCH   5   8
TORSDOF 1
ENDMDL
