MODEL 1
REMARK VINA RESULT:     2.055      0.000      0.000
REMARK INTER + INTRA:           1.915
REMARK INTER:                   2.175
REMARK INTRA:                  -0.260
REMARK UNBOUND:                -0.260
REMARK SMILES CC1=CC[C@H]2[C@H]3[C@@H]1[C@]2(C)CC[C@H]3C(C)C
REMARK SMILES IDX 1 1 2 2 3 3 4 4 5 5 6 6 7 7 8 8 10 9 11 10 12 11 9 12 13 13
REMARK SMILES IDX 14 14 15 15
REMARK H PARENT
REMARK Flexibility Score: inf
ROOT
ATOM      1  C   UNL     1       2.931   8.532  14.259  1.00  0.00     0.039 C 
ATOM      2  C   UNL     1       3.990   8.108  13.286  1.00  0.00    -0.073 C 
ATOM      3  C   UNL     1       3.960   8.514  11.991  1.00  0.00    -0.027 C 
ATOM      4  C   UNL     1       5.056   8.027  11.036  1.00  0.00     0.031 C 
ATOM      5  C   UNL     1       6.083   7.130  11.798  1.00  0.00     0.003 C 
ATOM      6  C   UNL     1       6.443   7.855  13.123  1.00  0.00     0.004 C 
ATOM      7  C   UNL     1       5.162   7.217  13.709  1.00  0.00     0.024 C 
ATOM      8  C   UNL     1       5.372   6.076  12.685  1.00  0.00    -0.022 C 
ATOM      9  C   UNL     1       6.404   5.058  13.260  1.00  0.00     0.008 C 
ATOM     10  C   UNL     1       7.790   5.702  13.529  1.00  0.00     0.005 C 
ATOM     11  C   UNL     1       7.693   7.234  13.814  1.00  0.00    -0.005 C 
ATOM     12  C   UNL     1       4.126   5.346  12.131  1.00  0.00     0.012 C 
ENDROOT
BRANCH  11  13
ATOM     13  C   UNL     1       8.997   8.029  13.503  1.00  0.00    -0.014 C 
ATOM     14  C   UNL     1       8.704   9.299  12.691  1.00  0.00     0.007 C 
ATOM     15  C   UNL     1       9.840   8.370  14.744  1.00  0.00     0.007 C 
ENDBRANCH  11  13
TORSDOF 1
ENDMDL
