MODEL 1
REMARK VINA RESULT:    -4.886      0.000      0.000
REMARK INTER + INTRA:          -9.213
REMARK INTER:                  -7.457
REMARK INTRA:                  -1.756
REMARK UNBOUND:                -1.756
REMARK SMILES OC[C@@H]1O[C@H](O[C@@]2(CO)O[C@H](CO)[C@@H](O)[C@@H]2O)[C@H](O)[C@H](O)[C@@H]1O
REMARK SMILES IDX 6 1 5 2 3 3 22 4 4 5 20 6 18 7 2 8 1 9 23 11 21 13 19 15
REMARK SMILES IDX 7 17 16 18 10 19 14 20 11 21 8 22 9 23 17 25 15 27 12 29
REMARK SMILES IDX 13 30
REMARK H PARENT 1 10 23 12 21 14 19 16 9 24 17 26 15 28 13 31
REMARK Flexibility Score: inf
ROOT
ATOM      1  O   UNL     1     118.011 139.759 116.827  1.00  0.00    -0.313 OA
ENDROOT
BRANCH   1   2
ATOM      2  C   UNL     1     116.774 139.256 116.334  1.00  0.00     0.285 C 
ATOM      3  C   UNL     1     116.909 140.324 114.192  1.00  0.00     0.178 C 
ATOM      4  C   UNL     1     117.197 138.972 113.482  1.00  0.00     0.177 C 
ATOM      5  O   UNL     1     116.190 140.171 115.414  1.00  0.00    -0.341 OA
ATOM      6  C   UNL     1     117.815 137.939 114.430  1.00  0.00     0.179 C 
ATOM      7  C   UNL     1     116.970 137.859 115.709  1.00  0.00     0.202 C 
BRANCH   3   8
ATOM      8  C   UNL     1     118.132 141.255 114.330  1.00  0.00     0.191 C 
BRANCH   8   9
ATOM      9  O   UNL     1     118.402 141.873 113.101  1.00  0.00    -0.394 OA
ATOM     10  H   UNL     1     119.090 142.564 113.282  1.00  0.00     0.210 HD
ENDBRANCH   8   9
ENDBRANCH   3   8
BRANCH   4  11
ATOM     11  O   UNL     1     118.030 139.148 112.364  1.00  0.00    -0.387 OA
ATOM     12  H   UNL     1     117.538 138.785 111.581  1.00  0.00     0.211 HD
ENDBRANCH   4  11
BRANCH   6  13
ATOM     13  O   UNL     1     119.148 138.276 114.720  1.00  0.00    -0.387 OA
ATOM     14  H   UNL     1     119.702 137.955 113.961  1.00  0.00     0.211 HD
ENDBRANCH   6  13
BRANCH   7  15
ATOM     15  O   UNL     1     117.577 136.987 116.627  1.00  0.00    -0.385 OA
ATOM     16  H   UNL     1     117.548 136.081 116.224  1.00  0.00     0.211 HD
ENDBRANCH   7  15
ENDBRANCH   1   2
BRANCH   1  17
ATOM     17  C   UNL     1     118.108 139.845 118.248  1.00  0.00     0.224 C 
ATOM     18  C   UNL     1     116.754 139.528 118.953  1.00  0.00     0.208 C 
ATOM     19  O   UNL     1     118.430 141.196 118.544  1.00  0.00    -0.337 OA
ATOM     20  C   UNL     1     116.642 140.614 119.997  1.00  0.00     0.180 C 
ATOM     21  C   UNL     1     117.403 141.753 119.334  1.00  0.00     0.179 C 
BRANCH  17  22
ATOM     22  C   UNL     1     119.301 138.994 118.752  1.00  0.00     0.225 C 
BRANCH  22  23
ATOM     23  O   UNL     1     119.969 138.396 117.673  1.00  0.00    -0.391 OA
ATOM     24  H   UNL     1     120.835 138.872 117.585  1.00  0.00     0.210 HD
ENDBRANCH  22  23
ENDBRANCH  17  22
BRANCH  18  25
ATOM     25  O   UNL     1     116.663 138.229 119.493  1.00  0.00    -0.385 OA
ATOM     26  H   UNL     1     116.253 137.627 118.820  1.00  0.00     0.211 HD
ENDBRANCH  18  25
BRANCH  20  27
ATOM     27  O   UNL     1     115.306 140.948 120.297  1.00  0.00    -0.387 OA
ATOM     28  H   UNL     1     115.221 141.047 121.281  1.00  0.00     0.211 HD
ENDBRANCH  20  27
BRANCH  21  29
ATOM     29  C   UNL     1     117.998 142.717 120.368  1.00  0.00     0.191 C 
BRANCH  29  30
ATOM     30  O   UNL     1     116.979 143.434 121.012  1.00  0.00    -0.394 OA
ATOM     31  H   UNL     1     116.247 143.549 120.350  1.00  0.00     0.210 HD
ENDBRANCH  29  30
ENDBRANCH  21  29
ENDBRANCH   1  17
TORSDOF 13
ENDMDL
MODEL 2
REMARK VINA RESULT:    -4.786      7.417      9.017
REMARK INTER + INTRA:          -9.060
REMARK INTER:                  -7.333
REMARK INTRA:                  -1.728
REMARK UNBOUND:                -1.756
REMARK SMILES OC[C@@H]1O[C@H](O[C@@]2(CO)O[C@H](CO)[C@@H](O)[C@@H]2O)[C@H](O)[C@H](O)[C@@H]1O
REMARK SMILES IDX 6 1 5 2 3 3 22 4 4 5 20 6 18 7 2 8 1 9 23 11 21 13 19 15
REMARK SMILES IDX 7 17 16 18 10 19 14 20 11 21 8 22 9 23 17 25 15 27 12 29
REMARK SMILES IDX 13 30
REMARK H PARENT 1 10 23 12 21 14 19 16 9 24 17 26 15 28 13 31
REMARK Flexibility Score: inf
ROOT
ATOM      1  O   UNL     1     112.601 144.986 120.616  1.00  0.00    -0.313 OA
ENDROOT
BRANCH   1   2
ATOM      2  C   UNL     1     111.345 144.720 121.231  1.00  0.00     0.285 C 
ATOM      3  C   UNL     1     110.096 146.313 119.948  1.00  0.00     0.178 C 
ATOM      4  C   UNL     1     109.400 145.186 119.136  1.00  0.00     0.177 C 
ATOM      5  O   UNL     1     110.530 145.886 121.237  1.00  0.00    -0.341 OA
ATOM      6  C   UNL     1     110.227 143.896 119.107  1.00  0.00     0.179 C 
ATOM      7  C   UNL     1     110.645 143.533 120.539  1.00  0.00     0.202 C 
BRANCH   3   8
ATOM      8  C   UNL     1     111.186 147.086 119.175  1.00  0.00     0.191 C 
BRANCH   8   9
ATOM      9  O   UNL     1     111.850 147.967 120.041  1.00  0.00    -0.394 OA
ATOM     10  H   UNL     1     111.170 148.621 120.348  1.00  0.00     0.210 HD
ENDBRANCH   8   9
ENDBRANCH   3   8
BRANCH   4  11
ATOM     11  O   UNL     1     109.120 145.598 117.822  1.00  0.00    -0.387 OA
ATOM     12  H   UNL     1     109.164 146.591 117.819  1.00  0.00     0.211 HD
ENDBRANCH   4  11
BRANCH   6  13
ATOM     13  O   UNL     1     111.348 144.051 118.274  1.00  0.00    -0.387 OA
ATOM     14  H   UNL     1     111.608 143.144 117.962  1.00  0.00     0.211 HD
ENDBRANCH   6  13
BRANCH   7  15
ATOM     15  O   UNL     1     111.484 142.407 120.519  1.00  0.00    -0.385 OA
ATOM     16  H   UNL     1     112.026 142.467 119.690  1.00  0.00     0.211 HD
ENDBRANCH   7  15
ENDBRANCH   1   2
BRANCH   1  17
ATOM     17  C   UNL     1     113.682 145.218 121.517  1.00  0.00     0.224 C 
ATOM     18  C   UNL     1     113.321 144.835 122.984  1.00  0.00     0.208 C 
ATOM     19  O   UNL     1     113.927 146.616 121.494  1.00  0.00    -0.337 OA
ATOM     20  C   UNL     1     113.850 145.999 123.789  1.00  0.00     0.180 C 
ATOM     21  C   UNL     1     113.727 147.140 122.789  1.00  0.00     0.179 C 
BRANCH  17  22
ATOM     22  C   UNL     1     114.972 144.542 120.984  1.00  0.00     0.225 C 
BRANCH  22  23
ATOM     23  O   UNL     1     116.094 145.006 121.686  1.00  0.00    -0.391 OA
ATOM     24  H   UNL     1     115.794 145.161 122.619  1.00  0.00     0.210 HD
ENDBRANCH  22  23
ENDBRANCH  17  22
BRANCH  18  25
ATOM     25  O   UNL     1     113.830 143.591 123.410  1.00  0.00    -0.385 OA
ATOM     26  H   UNL     1     114.675 143.404 122.924  1.00  0.00     0.211 HD
ENDBRANCH  18  25
BRANCH  20  27
ATOM     27  O   UNL     1     113.117 146.224 124.971  1.00  0.00    -0.387 OA
ATOM     28  H   UNL     1     112.485 145.470 125.097  1.00  0.00     0.211 HD
ENDBRANCH  20  27
BRANCH  21  29
ATOM     29  C   UNL     1     114.744 148.253 123.069  1.00  0.00     0.191 C 
BRANCH  29  30
ATOM     30  O   UNL     1     116.037 147.833 122.723  1.00  0.00    -0.394 OA
ATOM     31  H   UNL     1     115.992 147.511 121.784  1.00  0.00     0.210 HD
ENDBRANCH  29  30
ENDBRANCH  21  29
ENDBRANCH   1  17
TORSDOF 13
ENDMDL
MODEL 3
REMARK VINA RESULT:    -4.689      6.022     10.241
REMARK INTER + INTRA:          -8.912
REMARK INTER:                  -7.177
REMARK INTRA:                  -1.735
REMARK UNBOUND:                -1.756
REMARK SMILES OC[C@@H]1O[C@H](O[C@@]2(CO)O[C@H](CO)[C@@H](O)[C@@H]2O)[C@H](O)[C@H](O)[C@@H]1O
REMARK SMILES IDX 6 1 5 2 3 3 22 4 4 5 20 6 18 7 2 8 1 9 23 11 21 13 19 15
REMARK SMILES IDX 7 17 16 18 10 19 14 20 11 21 8 22 9 23 17 25 15 27 12 29
REMARK SMILES IDX 13 30
REMARK H PARENT 1 10 23 12 21 14 19 16 9 24 17 26 15 28 13 31
REMARK Flexibility Score: inf
ROOT
ATOM      1  O   UNL     1     112.616 144.924 122.705  1.00  0.00    -0.313 OA
ENDROOT
BRANCH   1   2
ATOM      2  C   UNL     1     111.406 145.257 122.033  1.00  0.00     0.285 C 
ATOM      3  C   UNL     1     110.010 143.755 123.274  1.00  0.00     0.178 C 
ATOM      4  C   UNL     1     109.348 144.931 124.045  1.00  0.00     0.177 C 
ATOM      5  O   UNL     1     110.524 144.141 122.002  1.00  0.00    -0.341 OA
ATOM      6  C   UNL     1     110.249 146.170 124.099  1.00  0.00     0.179 C 
ATOM      7  C   UNL     1     110.749 146.491 122.684  1.00  0.00     0.202 C 
BRANCH   3   8
ATOM      8  C   UNL     1     111.017 142.927 124.101  1.00  0.00     0.191 C 
BRANCH   8   9
ATOM      9  O   UNL     1     111.707 142.040 123.262  1.00  0.00    -0.394 OA
ATOM     10  H   UNL     1     112.034 142.578 122.497  1.00  0.00     0.210 HD
ENDBRANCH   8   9
ENDBRANCH   3   8
BRANCH   4  11
ATOM     11  O   UNL     1     108.988 144.550 125.349  1.00  0.00    -0.387 OA
ATOM     12  H   UNL     1     108.046 144.839 125.481  1.00  0.00     0.211 HD
ENDBRANCH   4  11
BRANCH   6  13
ATOM     13  O   UNL     1     111.321 145.958 124.982  1.00  0.00    -0.387 OA
ATOM     14  H   UNL     1     111.147 146.508 125.791  1.00  0.00     0.211 HD
ENDBRANCH   6  13
BRANCH   7  15
ATOM     15  O   UNL     1     111.652 147.566 122.730  1.00  0.00    -0.385 OA
ATOM     16  H   UNL     1     112.292 147.434 121.984  1.00  0.00     0.211 HD
ENDBRANCH   7  15
ENDBRANCH   1   2
BRANCH   1  17
ATOM     17  C   UNL     1     113.742 144.710 121.857  1.00  0.00     0.224 C 
ATOM     18  C   UNL     1     113.435 145.050 120.367  1.00  0.00     0.208 C 
ATOM     19  O   UNL     1     114.031 143.322 121.920  1.00  0.00    -0.337 OA
ATOM     20  C   UNL     1     114.036 143.889 119.612  1.00  0.00     0.180 C 
ATOM     21  C   UNL     1     113.905 142.764 120.630  1.00  0.00     0.179 C 
BRANCH  17  22
ATOM     22  C   UNL     1     114.986 145.438 122.430  1.00  0.00     0.225 C 
BRANCH  22  23
ATOM     23  O   UNL     1     116.142 145.055 121.736  1.00  0.00    -0.391 OA
ATOM     24  H   UNL     1     115.838 144.491 120.978  1.00  0.00     0.210 HD
ENDBRANCH  22  23
ENDBRANCH  17  22
BRANCH  18  25
ATOM     25  O   UNL     1     113.922 146.302 119.937  1.00  0.00    -0.385 OA
ATOM     26  H   UNL     1     113.802 146.964 120.666  1.00  0.00     0.211 HD
ENDBRANCH  18  25
BRANCH  20  27
ATOM     27  O   UNL     1     113.363 143.615 118.404  1.00  0.00    -0.387 OA
ATOM     28  H   UNL     1     112.387 143.602 118.584  1.00  0.00     0.211 HD
ENDBRANCH  20  27
BRANCH  21  29
ATOM     29  C   UNL     1     114.969 141.680 120.418  1.00  0.00     0.191 C 
BRANCH  29  30
ATOM     30  O   UNL     1     116.215 142.119 120.890  1.00  0.00    -0.394 OA
ATOM     31  H   UNL     1     116.134 142.205 121.876  1.00  0.00     0.210 HD
ENDBRANCH  29  30
ENDBRANCH  21  29
ENDBRANCH   1  17
TORSDOF 13
ENDMDL
MODEL 4
REMARK VINA RESULT:    -4.688      2.323      5.301
REMARK INTER + INTRA:          -8.911
REMARK INTER:                  -7.480
REMARK INTRA:                  -1.431
REMARK UNBOUND:                -1.756
REMARK SMILES OC[C@@H]1O[C@H](O[C@@]2(CO)O[C@H](CO)[C@@H](O)[C@@H]2O)[C@H](O)[C@H](O)[C@@H]1O
REMARK SMILES IDX 6 1 5 2 3 3 22 4 4 5 20 6 18 7 2 8 1 9 23 11 21 13 19 15
REMARK SMILES IDX 7 17 16 18 10 19 14 20 11 21 8 22 9 23 17 25 15 27 12 29
REMARK SMILES IDX 13 30
REMARK H PARENT 1 10 23 12 21 14 19 16 9 24 17 26 15 28 13 31
REMARK Flexibility Score: inf
ROOT
ATOM      1  O   UNL     1     116.738 137.637 116.766  1.00  0.00    -0.313 OA
ENDROOT
BRANCH   1   2
ATOM      2  C   UNL     1     117.335 136.420 117.200  1.00  0.00     0.285 C 
ATOM      3  C   UNL     1     116.031 136.202 119.199  1.00  0.00     0.178 C 
ATOM      4  C   UNL     1     115.211 135.028 118.594  1.00  0.00     0.177 C 
ATOM      5  O   UNL     1     117.327 136.334 118.620  1.00  0.00    -0.341 OA
ATOM      6  C   UNL     1     115.197 135.061 117.061  1.00  0.00     0.179 C 
ATOM      7  C   UNL     1     116.635 135.211 116.547  1.00  0.00     0.202 C 
BRANCH   3   8
ATOM      8  C   UNL     1     115.273 137.543 119.283  1.00  0.00     0.191 C 
BRANCH   8   9
ATOM      9  O   UNL     1     116.147 138.561 119.689  1.00  0.00    -0.394 OA
ATOM     10  H   UNL     1     115.578 139.329 119.951  1.00  0.00     0.210 HD
ENDBRANCH   8   9
ENDBRANCH   3   8
BRANCH   4  11
ATOM     11  O   UNL     1     113.893 135.020 119.080  1.00  0.00    -0.387 OA
ATOM     12  H   UNL     1     113.296 134.955 118.289  1.00  0.00     0.211 HD
ENDBRANCH   4  11
BRANCH   6  13
ATOM     13  O   UNL     1     114.380 136.107 116.601  1.00  0.00    -0.387 OA
ATOM     14  H   UNL     1     113.744 135.714 115.947  1.00  0.00     0.211 HD
ENDBRANCH   6  13
BRANCH   7  15
ATOM     15  O   UNL     1     116.630 135.338 115.148  1.00  0.00    -0.385 OA
ATOM     16  H   UNL     1     115.818 134.871 114.821  1.00  0.00     0.211 HD
ENDBRANCH   7  15
ENDBRANCH   1   2
BRANCH   1  17
ATOM     17  C   UNL     1     117.632 138.573 116.168  1.00  0.00     0.224 C 
ATOM     18  C   UNL     1     117.636 139.944 116.909  1.00  0.00     0.208 C 
ATOM     19  O   UNL     1     117.145 138.806 114.855  1.00  0.00    -0.337 OA
ATOM     20  C   UNL     1     117.581 140.950 115.783  1.00  0.00     0.180 C 
ATOM     21  C   UNL     1     116.821 140.172 114.718  1.00  0.00     0.179 C 
BRANCH  17  22
ATOM     22  C   UNL     1     119.036 137.937 116.004  1.00  0.00     0.225 C 
BRANCH  22  23
ATOM     23  O   UNL     1     119.446 137.991 114.663  1.00  0.00    -0.391 OA
ATOM     24  H   UNL     1     119.637 137.056 114.393  1.00  0.00     0.210 HD
ENDBRANCH  22  23
ENDBRANCH  17  22
BRANCH  18  25
ATOM     25  O   UNL     1     118.731 140.142 117.775  1.00  0.00    -0.385 OA
ATOM     26  H   UNL     1     118.728 141.082 118.091  1.00  0.00     0.211 HD
ENDBRANCH  18  25
BRANCH  20  27
ATOM     27  O   UNL     1     116.936 142.148 116.151  1.00  0.00    -0.387 OA
ATOM     28  H   UNL     1     115.992 141.940 116.378  1.00  0.00     0.211 HD
ENDBRANCH  20  27
BRANCH  21  29
ATOM     29  C   UNL     1     117.168 140.657 113.305  1.00  0.00     0.191 C 
BRANCH  29  30
ATOM     30  O   UNL     1     118.052 139.761 112.684  1.00  0.00    -0.394 OA
ATOM     31  H   UNL     1     117.637 139.504 111.818  1.00  0.00     0.210 HD
ENDBRANCH  29  30
ENDBRANCH  21  29
ENDBRANCH   1  17
TORSDOF 13
ENDMDL
MODEL 5
REMARK VINA RESULT:    -4.580     13.794     16.109
REMARK INTER + INTRA:          -8.746
REMARK INTER:                  -7.316
REMARK INTRA:                  -1.430
REMARK UNBOUND:                -1.756
REMARK SMILES OC[C@@H]1O[C@H](O[C@@]2(CO)O[C@H](CO)[C@@H](O)[C@@H]2O)[C@H](O)[C@H](O)[C@@H]1O
REMARK SMILES IDX 6 1 5 2 3 3 22 4 4 5 20 6 18 7 2 8 1 9 23 11 21 13 19 15
REMARK SMILES IDX 7 17 16 18 10 19 14 20 11 21 8 22 9 23 17 25 15 27 12 29
REMARK SMILES IDX 13 30
REMARK H PARENT 1 10 23 12 21 14 19 16 9 24 17 26 15 28 13 31
REMARK Flexibility Score: inf
ROOT
ATOM      1  O   UNL     1     117.042 152.412 126.257  1.00  0.00    -0.313 OA
ENDROOT
BRANCH   1   2
ATOM      2  C   UNL     1     117.692 153.616 125.864  1.00  0.00     0.285 C 
ATOM      3  C   UNL     1     116.490 153.887 123.808  1.00  0.00     0.178 C 
ATOM      4  C   UNL     1     115.674 155.076 124.385  1.00  0.00     0.177 C 
ATOM      5  O   UNL     1     117.753 153.715 124.446  1.00  0.00    -0.341 OA
ATOM      6  C   UNL     1     115.585 155.031 125.915  1.00  0.00     0.179 C 
ATOM      7  C   UNL     1     116.993 154.838 126.495  1.00  0.00     0.202 C 
BRANCH   3   8
ATOM      8  C   UNL     1     115.701 152.567 123.675  1.00  0.00     0.191 C 
BRANCH   8   9
ATOM      9  O   UNL     1     116.563 151.535 123.278  1.00  0.00    -0.394 OA
ATOM     10  H   UNL     1     116.263 150.721 123.759  1.00  0.00     0.210 HD
ENDBRANCH   8   9
ENDBRANCH   3   8
BRANCH   4  11
ATOM     11  O   UNL     1     114.381 155.124 123.837  1.00  0.00    -0.387 OA
ATOM     12  H   UNL     1     113.790 154.614 124.451  1.00  0.00     0.211 HD
ENDBRANCH   4  11
BRANCH   6  13
ATOM     13  O   UNL     1     114.720 154.004 126.325  1.00  0.00    -0.387 OA
ATOM     14  H   UNL     1     113.900 154.438 126.681  1.00  0.00     0.211 HD
ENDBRANCH   6  13
BRANCH   7  15
ATOM     15  O   UNL     1     116.918 154.699 127.891  1.00  0.00    -0.385 OA
ATOM     16  H   UNL     1     117.001 153.730 128.087  1.00  0.00     0.211 HD
ENDBRANCH   7  15
ENDBRANCH   1   2
BRANCH   1  17
ATOM     17  C   UNL     1     117.832 151.525 127.046  1.00  0.00     0.224 C 
ATOM     18  C   UNL     1     117.878 150.085 126.452  1.00  0.00     0.208 C 
ATOM     19  O   UNL     1     117.192 151.439 128.310  1.00  0.00    -0.337 OA
ATOM     20  C   UNL     1     117.663 149.202 127.658  1.00  0.00     0.180 C 
ATOM     21  C   UNL     1     116.812 150.100 128.545  1.00  0.00     0.179 C 
BRANCH  17  22
ATOM     22  C   UNL     1     119.228 152.148 127.309  1.00  0.00     0.225 C 
BRANCH  22  23
ATOM     23  O   UNL     1     119.522 152.132 128.680  1.00  0.00    -0.391 OA
ATOM     24  H   UNL     1     119.504 153.077 128.980  1.00  0.00     0.210 HD
ENDBRANCH  22  23
ENDBRANCH  17  22
BRANCH  18  25
ATOM     25  O   UNL     1     119.058 149.779 125.743  1.00  0.00    -0.385 OA
ATOM     26  H   UNL     1     119.630 149.195 126.306  1.00  0.00     0.211 HD
ENDBRANCH  18  25
BRANCH  20  27
ATOM     27  O   UNL     1     117.028 147.985 127.339  1.00  0.00    -0.387 OA
ATOM     28  H   UNL     1     116.402 147.756 128.074  1.00  0.00     0.211 HD
ENDBRANCH  20  27
BRANCH  21  29
ATOM     29  C   UNL     1     116.981 149.757 130.030  1.00  0.00     0.191 C 
BRANCH  29  30
ATOM     30  O   UNL     1     117.931 150.601 130.622  1.00  0.00    -0.394 OA
ATOM     31  H   UNL     1     118.147 150.211 131.510  1.00  0.00     0.210 HD
ENDBRANCH  29  30
ENDBRANCH  21  29
ENDBRANCH   1  17
TORSDOF 13
ENDMDL
MODEL 6
REMARK VINA RESULT:    -4.491      4.843      7.953
REMARK INTER + INTRA:          -8.610
REMARK INTER:                  -7.072
REMARK INTRA:                  -1.538
REMARK UNBOUND:                -1.756
REMARK SMILES OC[C@@H]1O[C@H](O[C@@]2(CO)O[C@H](CO)[C@@H](O)[C@@H]2O)[C@H](O)[C@H](O)[C@@H]1O
REMARK SMILES IDX 6 1 5 2 3 3 22 4 4 5 20 6 18 7 2 8 1 9 23 11 21 13 19 15
REMARK SMILES IDX 7 17 16 18 10 19 14 20 11 21 8 22 9 23 17 25 15 27 12 29
REMARK SMILES IDX 13 30
REMARK H PARENT 1 10 23 12 21 14 19 16 9 24 17 26 15 28 13 31
REMARK Flexibility Score: inf
ROOT
ATOM      1  O   UNL     1     113.948 143.691 121.567  1.00  0.00    -0.313 OA
ENDROOT
BRANCH   1   2
ATOM      2  C   UNL     1     113.402 142.937 120.490  1.00  0.00     0.285 C 
ATOM      3  C   UNL     1     115.504 142.146 119.651  1.00  0.00     0.178 C 
ATOM      4  C   UNL     1     115.226 140.709 120.171  1.00  0.00     0.177 C 
ATOM      5  O   UNL     1     114.313 142.888 119.397  1.00  0.00    -0.341 OA
ATOM      6  C   UNL     1     114.237 140.697 121.342  1.00  0.00     0.179 C 
ATOM      7  C   UNL     1     113.001 141.526 120.966  1.00  0.00     0.202 C 
BRANCH   3   8
ATOM      8  C   UNL     1     116.541 142.941 120.472  1.00  0.00     0.191 C 
BRANCH   8   9
ATOM      9  O   UNL     1     117.832 142.467 120.195  1.00  0.00    -0.394 OA
ATOM     10  H   UNL     1     118.419 142.825 120.910  1.00  0.00     0.210 HD
ENDBRANCH   8   9
ENDBRANCH   3   8
BRANCH   4  11
ATOM     11  O   UNL     1     116.415 140.062 120.548  1.00  0.00    -0.387 OA
ATOM     12  H   UNL     1     117.054 140.177 119.797  1.00  0.00     0.211 HD
ENDBRANCH   4  11
BRANCH   6  13
ATOM     13  O   UNL     1     114.849 141.194 122.505  1.00  0.00    -0.387 OA
ATOM     14  H   UNL     1     115.031 142.158 122.349  1.00  0.00     0.211 HD
ENDBRANCH   6  13
BRANCH   7  15
ATOM     15  O   UNL     1     112.128 141.605 122.064  1.00  0.00    -0.385 OA
ATOM     16  H   UNL     1     111.373 140.990 121.873  1.00  0.00     0.211 HD
ENDBRANCH   7  15
ENDBRANCH   1   2
BRANCH   1  17
ATOM     17  C   UNL     1     113.241 144.887 121.890  1.00  0.00     0.224 C 
ATOM     18  C   UNL     1     114.039 145.799 122.870  1.00  0.00     0.208 C 
ATOM     19  O   UNL     1     112.058 144.481 122.561  1.00  0.00    -0.337 OA
ATOM     20  C   UNL     1     112.998 146.221 123.881  1.00  0.00     0.180 C 
ATOM     21  C   UNL     1     112.056 145.024 123.863  1.00  0.00     0.179 C 
BRANCH  17  22
ATOM     22  C   UNL     1     112.780 145.600 120.592  1.00  0.00     0.225 C 
BRANCH  22  23
ATOM     23  O   UNL     1     113.889 146.006 119.835  1.00  0.00    -0.391 OA
ATOM     24  H   UNL     1     114.171 146.883 120.204  1.00  0.00     0.210 HD
ENDBRANCH  22  23
ENDBRANCH  17  22
BRANCH  18  25
ATOM     25  O   UNL     1     114.691 146.890 122.259  1.00  0.00    -0.385 OA
ATOM     26  H   UNL     1     115.641 146.899 122.543  1.00  0.00     0.211 HD
ENDBRANCH  18  25
BRANCH  20  27
ATOM     27  O   UNL     1     113.544 146.470 125.155  1.00  0.00    -0.387 OA
ATOM     28  H   UNL     1     114.381 146.992 125.042  1.00  0.00     0.211 HD
ENDBRANCH  20  27
BRANCH  21  29
ATOM     29  C   UNL     1     110.631 145.418 124.268  1.00  0.00     0.191 C 
BRANCH  29  30
ATOM     30  O   UNL     1     110.609 146.727 124.773  1.00  0.00    -0.394 OA
ATOM     31  H   UNL     1     109.739 146.840 125.240  1.00  0.00     0.210 HD
ENDBRANCH  29  30
ENDBRANCH  21  29
ENDBRANCH   1  17
TORSDOF 13
ENDMDL
MODEL 7
REMARK VINA RESULT:    -4.476      8.370     10.866
REMARK INTER + INTRA:          -8.587
REMARK INTER:                  -7.162
REMARK INTRA:                  -1.425
REMARK UNBOUND:                -1.756
REMARK SMILES OC[C@@H]1O[C@H](O[C@@]2(CO)O[C@H](CO)[C@@H](O)[C@@H]2O)[C@H](O)[C@H](O)[C@@H]1O
REMARK SMILES IDX 6 1 5 2 3 3 22 4 4 5 20 6 18 7 2 8 1 9 23 11 21 13 19 15
REMARK SMILES IDX 7 17 16 18 10 19 14 20 11 21 8 22 9 23 17 25 15 27 12 29
REMARK SMILES IDX 13 30
REMARK H PARENT 1 10 23 12 21 14 19 16 9 24 17 26 15 28 13 31
REMARK Flexibility Score: inf
ROOT
ATOM      1  O   UNL     1     112.330 145.090 123.052  1.00  0.00    -0.313 OA
ENDROOT
BRANCH   1   2
ATOM      2  C   UNL     1     110.983 145.282 122.637  1.00  0.00     0.285 C 
ATOM      3  C   UNL     1     110.304 143.002 122.934  1.00  0.00     0.178 C 
ATOM      4  C   UNL     1     109.467 143.365 124.192  1.00  0.00     0.177 C 
ATOM      5  O   UNL     1     110.467 144.098 122.038  1.00  0.00    -0.341 OA
ATOM      6  C   UNL     1     109.968 144.643 124.874  1.00  0.00     0.179 C 
ATOM      7  C   UNL     1     110.113 145.751 123.821  1.00  0.00     0.202 C 
BRANCH   3   8
ATOM      8  C   UNL     1     111.629 142.268 123.230  1.00  0.00     0.191 C 
BRANCH   8   9
ATOM      9  O   UNL     1     111.363 140.963 123.670  1.00  0.00    -0.394 OA
ATOM     10  H   UNL     1     111.978 140.795 124.429  1.00  0.00     0.210 HD
ENDBRANCH   8   9
ENDBRANCH   3   8
BRANCH   4  11
ATOM     11  O   UNL     1     109.452 142.309 125.119  1.00  0.00    -0.387 OA
ATOM     12  H   UNL     1     109.816 142.669 125.970  1.00  0.00     0.211 HD
ENDBRANCH   4  11
BRANCH   6  13
ATOM     13  O   UNL     1     111.186 144.403 125.532  1.00  0.00    -0.387 OA
ATOM     14  H   UNL     1     111.444 145.248 125.985  1.00  0.00     0.211 HD
ENDBRANCH   6  13
BRANCH   7  15
ATOM     15  O   UNL     1     110.662 146.901 124.413  1.00  0.00    -0.385 OA
ATOM     16  H   UNL     1     110.791 147.563 123.685  1.00  0.00     0.211 HD
ENDBRANCH   7  15
ENDBRANCH   1   2
BRANCH   1  17
ATOM     17  C   UNL     1     113.303 145.834 122.321  1.00  0.00     0.224 C 
ATOM     18  C   UNL     1     114.692 145.848 123.028  1.00  0.00     0.208 C 
ATOM     19  O   UNL     1     112.835 147.173 122.284  1.00  0.00    -0.337 OA
ATOM     20  C   UNL     1     115.121 147.293 122.927  1.00  0.00     0.180 C 
ATOM     21  C   UNL     1     113.777 148.009 122.922  1.00  0.00     0.179 C 
BRANCH  17  22
ATOM     22  C   UNL     1     113.346 145.349 120.849  1.00  0.00     0.225 C 
BRANCH  22  23
ATOM     23  O   UNL     1     113.637 146.418 119.989  1.00  0.00    -0.391 OA
ATOM     24  H   UNL     1     113.412 146.108 119.074  1.00  0.00     0.210 HD
ENDBRANCH  22  23
ENDBRANCH  17  22
BRANCH  18  25
ATOM     25  O   UNL     1     115.636 144.951 122.488  1.00  0.00    -0.385 OA
ATOM     26  H   UNL     1     115.978 145.317 121.633  1.00  0.00     0.211 HD
ENDBRANCH  18  25
BRANCH  20  27
ATOM     27  O   UNL     1     115.951 147.693 123.993  1.00  0.00    -0.387 OA
ATOM     28  H   UNL     1     116.488 148.473 123.696  1.00  0.00     0.211 HD
ENDBRANCH  20  27
BRANCH  21  29
ATOM     29  C   UNL     1     113.856 149.359 122.200  1.00  0.00     0.191 C 
BRANCH  29  30
ATOM     30  O   UNL     1     114.407 149.199 120.920  1.00  0.00    -0.394 OA
ATOM     31  H   UNL     1     113.757 149.588 120.277  1.00  0.00     0.210 HD
ENDBRANCH  29  30
ENDBRANCH  21  29
ENDBRANCH   1  17
TORSDOF 13
ENDMDL
MODEL 8
REMARK VINA RESULT:    -4.465      2.319      4.886
REMARK INTER + INTRA:          -8.571
REMARK INTER:                  -6.489
REMARK INTRA:                  -2.082
REMARK UNBOUND:                -1.756
REMARK SMILES OC[C@@H]1O[C@H](O[C@@]2(CO)O[C@H](CO)[C@@H](O)[C@@H]2O)[C@H](O)[C@H](O)[C@@H]1O
REMARK SMILES IDX 6 1 5 2 3 3 22 4 4 5 20 6 18 7 2 8 1 9 23 11 21 13 19 15
REMARK SMILES IDX 7 17 16 18 10 19 14 20 11 21 8 22 9 23 17 25 15 27 12 29
REMARK SMILES IDX 13 30
REMARK H PARENT 1 10 23 12 21 14 19 16 9 24 17 26 15 28 13 31
REMARK Flexibility Score: inf
ROOT
ATOM      1  O   UNL     1     116.495 138.036 117.330  1.00  0.00    -0.313 OA
ENDROOT
BRANCH   1   2
ATOM      2  C   UNL     1     117.269 136.919 117.751  1.00  0.00     0.285 C 
ATOM      3  C   UNL     1     115.925 136.393 119.665  1.00  0.00     0.178 C 
ATOM      4  C   UNL     1     115.347 135.128 118.971  1.00  0.00     0.177 C 
ATOM      5  O   UNL     1     117.206 136.767 119.165  1.00  0.00    -0.341 OA
ATOM      6  C   UNL     1     115.402 135.227 117.443  1.00  0.00     0.179 C 
ATOM      7  C   UNL     1     116.818 135.640 117.016  1.00  0.00     0.202 C 
BRANCH   3   8
ATOM      8  C   UNL     1     114.946 137.583 119.755  1.00  0.00     0.191 C 
BRANCH   8   9
ATOM      9  O   UNL     1     115.651 138.758 120.049  1.00  0.00    -0.394 OA
ATOM     10  H   UNL     1     115.222 139.146 120.854  1.00  0.00     0.210 HD
ENDBRANCH   8   9
ENDBRANCH   3   8
BRANCH   4  11
ATOM     11  O   UNL     1     114.027 134.875 119.383  1.00  0.00    -0.387 OA
ATOM     12  H   UNL     1     114.057 134.070 119.963  1.00  0.00     0.211 HD
ENDBRANCH   4  11
BRANCH   6  13
ATOM     13  O   UNL     1     114.443 136.141 116.977  1.00  0.00    -0.387 OA
ATOM     14  H   UNL     1     113.877 135.659 116.317  1.00  0.00     0.211 HD
ENDBRANCH   6  13
BRANCH   7  15
ATOM     15  O   UNL     1     116.860 135.829 115.625  1.00  0.00    -0.385 OA
ATOM     16  H   UNL     1     117.674 135.367 115.298  1.00  0.00     0.211 HD
ENDBRANCH   7  15
ENDBRANCH   1   2
BRANCH   1  17
ATOM     17  C   UNL     1     117.247 139.153 116.858  1.00  0.00     0.224 C 
ATOM     18  C   UNL     1     118.778 138.863 116.825  1.00  0.00     0.208 C 
ATOM     19  O   UNL     1     117.037 140.199 117.794  1.00  0.00    -0.337 OA
ATOM     20  C   UNL     1     119.383 140.111 117.423  1.00  0.00     0.180 C 
ATOM     21  C   UNL     1     118.275 140.565 118.364  1.00  0.00     0.179 C 
BRANCH  17  22
ATOM     22  C   UNL     1     116.667 139.654 115.511  1.00  0.00     0.225 C 
BRANCH  22  23
ATOM     23  O   UNL     1     116.432 138.575 114.646  1.00  0.00    -0.391 OA
ATOM     24  H   UNL     1     117.301 138.108 114.542  1.00  0.00     0.210 HD
ENDBRANCH  22  23
ENDBRANCH  17  22
BRANCH  18  25
ATOM     25  O   UNL     1     119.291 138.557 115.548  1.00  0.00    -0.385 OA
ATOM     26  H   UNL     1     119.131 137.597 115.357  1.00  0.00     0.211 HD
ENDBRANCH  18  25
BRANCH  20  27
ATOM     27  O   UNL     1     120.600 139.864 118.089  1.00  0.00    -0.387 OA
ATOM     28  H   UNL     1     120.634 138.903 118.334  1.00  0.00     0.211 HD
ENDBRANCH  20  27
BRANCH  21  29
ATOM     29  C   UNL     1     118.318 142.079 118.603  1.00  0.00     0.191 C 
BRANCH  29  30
ATOM     30  O   UNL     1     119.486 142.629 118.055  1.00  0.00    -0.394 OA
ATOM     31  H   UNL     1     119.805 141.992 117.362  1.00  0.00     0.210 HD
ENDBRANCH  29  30
ENDBRANCH  21  29
ENDBRANCH   1  17
TORSDOF 13
ENDMDL
MODEL 9
REMARK VINA RESULT:    -4.432      6.708      9.955
REMARK INTER + INTRA:          -8.520
REMARK INTER:                  -6.534
REMARK INTRA:                  -1.986
REMARK UNBOUND:                -1.756
REMARK SMILES OC[C@@H]1O[C@H](O[C@@]2(CO)O[C@H](CO)[C@@H](O)[C@@H]2O)[C@H](O)[C@H](O)[C@@H]1O
REMARK SMILES IDX 6 1 5 2 3 3 22 4 4 5 20 6 18 7 2 8 1 9 23 11 21 13 19 15
REMARK SMILES IDX 7 17 16 18 10 19 14 20 11 21 8 22 9 23 17 25 15 27 12 29
REMARK SMILES IDX 13 30
REMARK H PARENT 1 10 23 12 21 14 19 16 9 24 17 26 15 28 13 31
REMARK Flexibility Score: inf
ROOT
ATOM      1  O   UNL     1     112.785 145.354 122.617  1.00  0.00    -0.313 OA
ENDROOT
BRANCH   1   2
ATOM      2  C   UNL     1     111.700 144.575 122.125  1.00  0.00     0.285 C 
ATOM      3  C   UNL     1     112.909 143.584 120.308  1.00  0.00     0.178 C 
ATOM      4  C   UNL     1     112.953 142.206 121.025  1.00  0.00     0.177 C 
ATOM      5  O   UNL     1     111.809 144.392 120.718  1.00  0.00    -0.341 OA
ATOM      6  C   UNL     1     112.825 142.339 122.546  1.00  0.00     0.179 C 
ATOM      7  C   UNL     1     111.619 143.229 122.875  1.00  0.00     0.202 C 
BRANCH   3   8
ATOM      8  C   UNL     1     114.248 144.352 120.305  1.00  0.00     0.191 C 
BRANCH   8   9
ATOM      9  O   UNL     1     114.019 145.708 120.034  1.00  0.00    -0.394 OA
ATOM     10  H   UNL     1     114.905 146.153 120.065  1.00  0.00     0.210 HD
ENDBRANCH   8   9
ENDBRANCH   3   8
BRANCH   4  11
ATOM     11  O   UNL     1     114.126 141.500 120.708  1.00  0.00    -0.387 OA
ATOM     12  H   UNL     1     114.429 141.832 119.822  1.00  0.00     0.211 HD
ENDBRANCH   4  11
BRANCH   6  13
ATOM     13  O   UNL     1     114.008 142.863 123.094  1.00  0.00    -0.387 OA
ATOM     14  H   UNL     1     114.723 142.739 122.415  1.00  0.00     0.211 HD
ENDBRANCH   6  13
BRANCH   7  15
ATOM     15  O   UNL     1     111.544 143.439 124.261  1.00  0.00    -0.385 OA
ATOM     16  H   UNL     1     111.794 142.582 124.695  1.00  0.00     0.211 HD
ENDBRANCH   7  15
ENDBRANCH   1   2
BRANCH   1  17
ATOM     17  C   UNL     1     112.418 146.596 123.215  1.00  0.00     0.224 C 
ATOM     18  C   UNL     1     110.874 146.747 123.367  1.00  0.00     0.208 C 
ATOM     19  O   UNL     1     112.855 147.612 122.325  1.00  0.00    -0.337 OA
ATOM     20  C   UNL     1     110.613 148.158 122.896  1.00  0.00     0.180 C 
ATOM     21  C   UNL     1     111.738 148.355 121.889  1.00  0.00     0.179 C 
BRANCH  17  22
ATOM     22  C   UNL     1     113.209 146.805 124.533  1.00  0.00     0.225 C 
BRANCH  22  23
ATOM     23  O   UNL     1     112.872 145.816 125.469  1.00  0.00    -0.391 OA
ATOM     24  H   UNL     1     112.094 146.166 125.975  1.00  0.00     0.210 HD
ENDBRANCH  22  23
ENDBRANCH  17  22
BRANCH  18  25
ATOM     25  O   UNL     1     110.384 146.496 124.665  1.00  0.00    -0.385 OA
ATOM     26  H   UNL     1     109.914 147.305 124.995  1.00  0.00     0.211 HD
ENDBRANCH  18  25
BRANCH  20  27
ATOM     27  O   UNL     1     109.334 148.316 122.326  1.00  0.00    -0.387 OA
ATOM     28  H   UNL     1     109.189 149.281 122.143  1.00  0.00     0.211 HD
ENDBRANCH  20  27
BRANCH  21  29
ATOM     29  C   UNL     1     112.115 149.834 121.741  1.00  0.00     0.191 C 
BRANCH  29  30
ATOM     30  O   UNL     1     111.267 150.636 122.519  1.00  0.00    -0.394 OA
ATOM     31  H   UNL     1     110.962 151.381 121.937  1.00  0.00     0.210 HD
ENDBRANCH  29  30
ENDBRANCH  21  29
ENDBRANCH   1  17
TORSDOF 13
ENDMDL
