MODEL 1
REMARK VINA RESULT:    -5.143      0.000      0.000
REMARK INTER + INTRA:          -5.717
REMARK INTER:                  -5.594
REMARK INTRA:                  -0.123
REMARK UNBOUND:                -0.123
REMARK SMILES C=C(C)[C@@H]1CC=C(C)[C@@H](O)C1
REMARK SMILES IDX 8 1 7 2 6 3 5 4 4 5 11 6 9 7 10 8 2 10 1 11 3 12
REMARK H PARENT 10 9
REMARK Flexibility Score: inf
ROOT
ATOM      1  C   UNL     1     122.353 119.664 120.683  1.00  0.00     0.042 C 
ATOM      2  C   UNL     1     123.521 120.587 120.445  1.00  0.00    -0.049 C 
ATOM      3  C   UNL     1     123.671 121.154 119.234  1.00  0.00    -0.025 C 
ATOM      4  C   UNL     1     124.835 122.071 118.979  1.00  0.00     0.035 C 
ATOM      5  C   UNL     1     126.142 121.444 119.518  1.00  0.00     0.021 C 
ATOM      6  C   UNL     1     125.981 120.773 120.920  1.00  0.00     0.044 C 
ATOM      7  C   UNL     1     124.558 120.897 121.513  1.00  0.00     0.140 C 
ENDROOT
BRANCH   7   8
ATOM      8  O   UNL     1     124.427 120.036 122.613  1.00  0.00    -0.389 OA
ATOM      9  H   UNL     1     123.748 120.442 123.215  1.00  0.00     0.211 HD
ENDBRANCH   7   8
BRANCH   5  10
ATOM     10  C   UNL     1     127.263 122.475 119.515  1.00  0.00    -0.077 C 
ATOM     11  C   UNL     1     126.981 123.786 119.558  1.00  0.00     0.008 C 
ATOM     12  C   UNL     1     128.707 122.041 119.491  1.00  0.00     0.039 C 
ENDBRANCH   5  10
TORSDOF 2
ENDMDL
MODEL 2
REMARK VINA RESULT:    -5.069     14.233     15.459
REMARK INTER + INTRA:          -5.636
REMARK INTER:                  -5.502
REMARK INTRA:                  -0.134
REMARK UNBOUND:                -0.123
REMARK SMILES C=C(C)[C@@H]1CC=C(C)[C@@H](O)C1
REMARK SMILES IDX 8 1 7 2 6 3 5 4 4 5 11 6 9 7 10 8 2 10 1 11 3 12
REMARK H PARENT 10 9
REMARK Flexibility Score: inf
ROOT
ATOM      1  C   UNL     1     113.001 122.483 126.740  1.00  0.00     0.042 C 
ATOM      2  C   UNL     1     113.609 122.221 128.094  1.00  0.00    -0.049 C 
ATOM      3  C   UNL     1     114.014 120.975 128.400  1.00  0.00    -0.025 C 
ATOM      4  C   UNL     1     114.615 120.697 129.750  1.00  0.00     0.035 C 
ATOM      5  C   UNL     1     113.761 121.345 130.864  1.00  0.00     0.021 C 
ATOM      6  C   UNL     1     113.276 122.790 130.518  1.00  0.00     0.044 C 
ATOM      7  C   UNL     1     113.773 123.305 129.148  1.00  0.00     0.140 C 
ENDROOT
BRANCH   7   8
ATOM      8  O   UNL     1     113.069 124.467 128.795  1.00  0.00    -0.389 OA
ATOM      9  H   UNL     1     112.404 124.200 128.107  1.00  0.00     0.211 HD
ENDBRANCH   7   8
BRANCH   5  10
ATOM     10  C   UNL     1     114.506 121.305 132.191  1.00  0.00    -0.077 C 
ATOM     11  C   UNL     1     115.509 122.163 132.434  1.00  0.00     0.008 C 
ATOM     12  C   UNL     1     114.111 120.324 133.266  1.00  0.00     0.039 C 
ENDBRANCH   5  10
TORSDOF 2
ENDMDL
MODEL 3
REMARK VINA RESULT:    -4.903     14.095     15.338
REMARK INTER + INTRA:          -5.456
REMARK INTER:                  -5.338
REMARK INTRA:                  -0.117
REMARK UNBOUND:                -0.123
REMARK SMILES C=C(C)[C@@H]1CC=C(C)[C@@H](O)C1
REMARK SMILES IDX 8 1 7 2 6 3 5 4 4 5 11 6 9 7 10 8 2 10 1 11 3 12
REMARK H PARENT 10 9
REMARK Flexibility Score: inf
ROOT
ATOM      1  C   UNL     1     114.820 121.502 133.160  1.00  0.00     0.042 C 
ATOM      2  C   UNL     1     114.283 121.440 131.753  1.00  0.00    -0.049 C 
ATOM      3  C   UNL     1     114.670 120.434 130.948  1.00  0.00    -0.025 C 
ATOM      4  C   UNL     1     114.150 120.364 129.540  1.00  0.00     0.035 C 
ATOM      5  C   UNL     1     114.245 121.750 128.861  1.00  0.00     0.021 C 
ATOM      6  C   UNL     1     113.807 122.930 129.787  1.00  0.00     0.044 C 
ATOM      7  C   UNL     1     113.330 122.482 131.187  1.00  0.00     0.140 C 
ENDROOT
BRANCH   7   8
ATOM      8  O   UNL     1     113.235 123.597 132.035  1.00  0.00    -0.389 OA
ATOM      9  H   UNL     1     114.095 124.089 131.956  1.00  0.00     0.211 HD
ENDBRANCH   7   8
BRANCH   5  10
ATOM     10  C   UNL     1     113.472 121.750 127.549  1.00  0.00    -0.077 C 
ATOM     11  C   UNL     1     112.878 122.870 127.109  1.00  0.00     0.008 C 
ATOM     12  C   UNL     1     113.384 120.502 126.707  1.00  0.00     0.039 C 
ENDBRANCH   5  10
TORSDOF 2
ENDMDL
MODEL 4
REMARK VINA RESULT:    -4.892     14.863     16.050
REMARK INTER + INTRA:          -5.443
REMARK INTER:                  -5.319
REMARK INTRA:                  -0.124
REMARK UNBOUND:                -0.123
REMARK SMILES C=C(C)[C@@H]1CC=C(C)[C@@H](O)C1
REMARK SMILES IDX 8 1 7 2 6 3 5 4 4 5 11 6 9 7 10 8 2 10 1 11 3 12
REMARK H PARENT 10 9
REMARK Flexibility Score: inf
ROOT
ATOM      1  C   UNL     1     121.880 135.021 129.332  1.00  0.00     0.042 C 
ATOM      2  C   UNL     1     121.311 133.710 129.811  1.00  0.00    -0.049 C 
ATOM      3  C   UNL     1     122.044 132.590 129.677  1.00  0.00    -0.025 C 
ATOM      4  C   UNL     1     121.486 131.274 130.144  1.00  0.00     0.035 C 
ATOM      5  C   UNL     1     120.029 131.104 129.656  1.00  0.00     0.021 C 
ATOM      6  C   UNL     1     119.168 132.400 129.798  1.00  0.00     0.044 C 
ATOM      7  C   UNL     1     119.927 133.589 130.430  1.00  0.00     0.140 C 
ENDROOT
BRANCH   7   8
ATOM      8  O   UNL     1     119.188 134.770 130.255  1.00  0.00    -0.389 OA
ATOM      9  H   UNL     1     119.843 135.491 130.060  1.00  0.00     0.211 HD
ENDBRANCH   7   8
BRANCH   5  10
ATOM     10  C   UNL     1     119.375 129.917 130.351  1.00  0.00    -0.077 C 
ATOM     11  C   UNL     1     119.670 128.662 129.976  1.00  0.00     0.008 C 
ATOM     12  C   UNL     1     118.407 130.128 131.488  1.00  0.00     0.039 C 
ENDBRANCH   5  10
TORSDOF 2
ENDMDL
MODEL 5
REMARK VINA RESULT:    -4.817     14.020     15.649
REMARK INTER + INTRA:          -5.362
REMARK INTER:                  -5.229
REMARK INTRA:                  -0.133
REMARK UNBOUND:                -0.123
REMARK SMILES C=C(C)[C@@H]1CC=C(C)[C@@H](O)C1
REMARK SMILES IDX 8 1 7 2 6 3 5 4 4 5 11 6 9 7 10 8 2 10 1 11 3 12
REMARK H PARENT 10 9
REMARK Flexibility Score: inf
ROOT
ATOM      1  C   UNL     1     115.960 119.820 134.751  1.00  0.00     0.042 C 
ATOM      2  C   UNL     1     115.415 120.326 133.439  1.00  0.00    -0.049 C 
ATOM      3  C   UNL     1     114.113 120.141 133.156  1.00  0.00    -0.025 C 
ATOM      4  C   UNL     1     113.557 120.633 131.850  1.00  0.00     0.035 C 
ATOM      5  C   UNL     1     114.491 120.236 130.683  1.00  0.00     0.021 C 
ATOM      6  C   UNL     1     116.008 120.437 131.001  1.00  0.00     0.044 C 
ATOM      7  C   UNL     1     116.279 121.028 132.403  1.00  0.00     0.140 C 
ENDROOT
BRANCH   7   8
ATOM      8  O   UNL     1     117.643 120.906 132.713  1.00  0.00    -0.389 OA
ATOM      9  H   UNL     1     117.766 120.004 133.111  1.00  0.00     0.211 HD
ENDBRANCH   7   8
BRANCH   5  10
ATOM     10  C   UNL     1     114.083 120.963 129.409  1.00  0.00    -0.077 C 
ATOM     11  C   UNL     1     113.771 122.268 129.440  1.00  0.00     0.008 C 
ATOM     12  C   UNL     1     114.051 120.238 128.086  1.00  0.00     0.039 C 
ENDBRANCH   5  10
TORSDOF 2
ENDMDL
MODEL 6
REMARK VINA RESULT:    -4.776     13.706     15.839
REMARK INTER + INTRA:          -5.317
REMARK INTER:                  -5.206
REMARK INTRA:                  -0.111
REMARK UNBOUND:                -0.123
REMARK SMILES C=C(C)[C@@H]1CC=C(C)[C@@H](O)C1
REMARK SMILES IDX 8 1 7 2 6 3 5 4 4 5 11 6 9 7 10 8 2 10 1 11 3 12
REMARK H PARENT 10 9
REMARK Flexibility Score: inf
ROOT
ATOM      1  C   UNL     1     115.294 120.305 134.544  1.00  0.00     0.042 C 
ATOM      2  C   UNL     1     115.177 120.881 133.155  1.00  0.00    -0.049 C 
ATOM      3  C   UNL     1     116.019 121.860 132.780  1.00  0.00    -0.025 C 
ATOM      4  C   UNL     1     115.909 122.450 131.402  1.00  0.00     0.035 C 
ATOM      5  C   UNL     1     114.433 122.762 131.065  1.00  0.00     0.021 C 
ATOM      6  C   UNL     1     113.441 121.636 131.504  1.00  0.00     0.044 C 
ATOM      7  C   UNL     1     114.131 120.415 132.155  1.00  0.00     0.140 C 
ENDROOT
BRANCH   7   8
ATOM      8  O   UNL     1     113.167 119.600 132.770  1.00  0.00    -0.389 OA
ATOM      9  H   UNL     1     112.907 120.053 133.615  1.00  0.00     0.211 HD
ENDBRANCH   7   8
BRANCH   5  10
ATOM     10  C   UNL     1     114.286 123.093 129.586  1.00  0.00    -0.077 C 
ATOM     11  C   UNL     1     113.074 123.325 129.058  1.00  0.00     0.008 C 
ATOM     12  C   UNL     1     115.499 123.196 128.696  1.00  0.00     0.039 C 
ENDBRANCH   5  10
TORSDOF 2
ENDMDL
MODEL 7
REMARK VINA RESULT:    -4.722      1.280      4.258
REMARK INTER + INTRA:          -5.259
REMARK INTER:                  -5.143
REMARK INTRA:                  -0.116
REMARK UNBOUND:                -0.123
REMARK SMILES C=C(C)[C@@H]1CC=C(C)[C@@H](O)C1
REMARK SMILES IDX 8 1 7 2 6 3 5 4 4 5 11 6 9 7 10 8 2 10 1 11 3 12
REMARK H PARENT 10 9
REMARK Flexibility Score: inf
ROOT
ATOM      1  C   UNL     1     127.194 123.272 119.388  1.00  0.00     0.042 C 
ATOM      2  C   UNL     1     126.111 122.255 119.646  1.00  0.00    -0.049 C 
ATOM      3  C   UNL     1     124.997 122.279 118.892  1.00  0.00    -0.025 C 
ATOM      4  C   UNL     1     123.905 121.277 119.143  1.00  0.00     0.035 C 
ATOM      5  C   UNL     1     123.607 121.173 120.657  1.00  0.00     0.021 C 
ATOM      6  C   UNL     1     124.892 121.153 121.546  1.00  0.00     0.044 C 
ATOM      7  C   UNL     1     126.210 121.204 120.741  1.00  0.00     0.140 C 
ENDROOT
BRANCH   7   8
ATOM      8  O   UNL     1     127.283 121.472 121.606  1.00  0.00    -0.389 OA
ATOM      9  H   UNL     1     127.811 122.204 121.189  1.00  0.00     0.211 HD
ENDBRANCH   7   8
BRANCH   5  10
ATOM     10  C   UNL     1     122.711 119.974 120.938  1.00  0.00    -0.077 C 
ATOM     11  C   UNL     1     121.904 119.965 122.010  1.00  0.00     0.008 C 
ATOM     12  C   UNL     1     122.694 118.790 120.004  1.00  0.00     0.039 C 
ENDBRANCH   5  10
TORSDOF 2
ENDMDL
MODEL 8
REMARK VINA RESULT:    -4.583     13.351     14.683
REMARK INTER + INTRA:          -5.108
REMARK INTER:                  -4.980
REMARK INTRA:                  -0.127
REMARK UNBOUND:                -0.123
REMARK SMILES C=C(C)[C@@H]1CC=C(C)[C@@H](O)C1
REMARK SMILES IDX 8 1 7 2 6 3 5 4 4 5 11 6 9 7 10 8 2 10 1 11 3 12
REMARK H PARENT 10 9
REMARK Flexibility Score: inf
ROOT
ATOM      1  C   UNL     1     116.336 125.784 131.383  1.00  0.00     0.042 C 
ATOM      2  C   UNL     1     115.814 124.714 130.458  1.00  0.00    -0.049 C 
ATOM      3  C   UNL     1     116.032 124.829 129.135  1.00  0.00    -0.025 C 
ATOM      4  C   UNL     1     115.510 123.774 128.200  1.00  0.00     0.035 C 
ATOM      5  C   UNL     1     114.042 123.429 128.543  1.00  0.00     0.021 C 
ATOM      6  C   UNL     1     113.773 123.301 130.077  1.00  0.00     0.044 C 
ATOM      7  C   UNL     1     115.030 123.509 130.951  1.00  0.00     0.140 C 
ENDROOT
BRANCH   7   8
ATOM      8  O   UNL     1     114.652 123.664 132.295  1.00  0.00    -0.389 OA
ATOM      9  H   UNL     1     115.176 123.003 132.818  1.00  0.00     0.211 HD
ENDBRANCH   7   8
BRANCH   5  10
ATOM     10  C   UNL     1     113.604 122.179 127.790  1.00  0.00    -0.077 C 
ATOM     11  C   UNL     1     112.858 122.282 126.679  1.00  0.00     0.008 C 
ATOM     12  C   UNL     1     114.022 120.810 128.262  1.00  0.00     0.039 C 
ENDBRANCH   5  10
TORSDOF 2
ENDMDL
MODEL 9
REMARK VINA RESULT:    -4.538     14.123     15.561
REMARK INTER + INTRA:          -5.059
REMARK INTER:                  -4.923
REMARK INTRA:                  -0.135
REMARK UNBOUND:                -0.123
REMARK SMILES C=C(C)[C@@H]1CC=C(C)[C@@H](O)C1
REMARK SMILES IDX 8 1 7 2 6 3 5 4 4 5 11 6 9 7 10 8 2 10 1 11 3 12
REMARK H PARENT 10 9
REMARK Flexibility Score: inf
ROOT
ATOM      1  C   UNL     1     113.551 122.516 127.662  1.00  0.00     0.042 C 
ATOM      2  C   UNL     1     113.731 122.091 129.097  1.00  0.00    -0.049 C 
ATOM      3  C   UNL     1     113.698 123.024 130.066  1.00  0.00    -0.025 C 
ATOM      4  C   UNL     1     113.884 122.616 131.501  1.00  0.00     0.035 C 
ATOM      5  C   UNL     1     115.083 121.649 131.634  1.00  0.00     0.021 C 
ATOM      6  C   UNL     1     115.140 120.565 130.510  1.00  0.00     0.044 C 
ATOM      7  C   UNL     1     113.968 120.645 129.506  1.00  0.00     0.140 C 
ENDROOT
BRANCH   7   8
ATOM      8  O   UNL     1     114.247 119.841 128.388  1.00  0.00    -0.389 OA
ATOM      9  H   UNL     1     115.188 120.028 128.129  1.00  0.00     0.211 HD
ENDBRANCH   7   8
BRANCH   5  10
ATOM     10  C   UNL     1     115.104 121.021 133.022  1.00  0.00    -0.077 C 
ATOM     11  C   UNL     1     114.039 120.343 133.477  1.00  0.00     0.008 C 
ATOM     12  C   UNL     1     116.328 121.125 133.896  1.00  0.00     0.039 C 
ENDBRANCH   5  10
TORSDOF 2
ENDMDL
