MODEL 1
REMARK VINA RESULT:    -2.692      0.000      0.000
REMARK INTER + INTRA:          -3.229
REMARK INTER:                  -3.164
REMARK INTRA:                  -0.066
REMARK UNBOUND:                -0.066
REMARK SMILES CCCCC(=O)[O-]
REMARK SMILES IDX 4 1 5 2 6 3 7 4 3 5 2 6 1 7
REMARK H PARENT
REMARK Flexibility Score: inf
ROOT
ATOM      1  C   UNL     1     -19.071  41.431  94.045  1.00  0.00     0.053 C 
ENDROOT
BRANCH   1   2
ATOM      2  C   UNL     1     -19.564  40.422  93.057  1.00  0.00     0.041 C 
ATOM      3  O   UNL     1     -20.767  40.437  92.683  1.00  0.00    -0.550 OA
ATOM      4  O   UNL     1     -18.684  39.498  92.509  1.00  0.00    -0.550 OA
ENDBRANCH   1   2
BRANCH   1   5
ATOM      5  C   UNL     1     -17.574  41.244  94.303  1.00  0.00     0.006 C 
BRANCH   5   6
ATOM      6  C   UNL     1     -17.287  41.107  95.803  1.00  0.00    -0.003 C 
ATOM      7  C   UNL     1     -18.468  41.595  96.638  1.00  0.00     0.004 C 
ENDBRANCH   5   6
ENDBRANCH   1   5
TORSDOF 3
ENDMDL
MODEL 2
REMARK VINA RESULT:    -2.679     19.868     20.859
REMARK INTER + INTRA:          -3.214
REMARK INTER:                  -3.118
REMARK INTRA:                  -0.096
REMARK UNBOUND:                -0.066
REMARK SMILES CCCCC(=O)[O-]
REMARK SMILES IDX 4 1 5 2 6 3 7 4 3 5 2 6 1 7
REMARK H PARENT
REMARK Flexibility Score: inf
ROOT
ATOM      1  C   UNL     1      -6.610  30.439 106.750  1.00  0.00     0.053 C 
ENDROOT
BRANCH   1   2
ATOM      2  C   UNL     1      -5.667  29.416 107.300  1.00  0.00     0.041 C 
ATOM      3  O   UNL     1      -6.099  28.482 108.027  1.00  0.00    -0.550 OA
ATOM      4  O   UNL     1      -4.319  29.463 106.970  1.00  0.00    -0.550 OA
ENDBRANCH   1   2
BRANCH   1   5
ATOM      5  C   UNL     1      -7.148  29.996 105.387  1.00  0.00     0.006 C 
BRANCH   5   6
ATOM      6  C   UNL     1      -6.797  31.018 104.299  1.00  0.00    -0.003 C 
ATOM      7  C   UNL     1      -5.341  30.880 103.861  1.00  0.00     0.004 C 
ENDBRANCH   5   6
ENDBRANCH   1   5
TORSDOF 3
ENDMDL
MODEL 3
REMARK VINA RESULT:    -2.663      2.463      3.603
REMARK INTER + INTRA:          -3.196
REMARK INTER:                  -3.121
REMARK INTRA:                  -0.075
REMARK UNBOUND:                -0.066
REMARK SMILES CCCCC(=O)[O-]
REMARK SMILES IDX 4 1 5 2 6 3 7 4 3 5 2 6 1 7
REMARK H PARENT
REMARK Flexibility Score: inf
ROOT
ATOM      1  C   UNL     1     -17.614  41.251  94.382  1.00  0.00     0.053 C 
ENDROOT
BRANCH   1   2
ATOM      2  C   UNL     1     -17.747  40.993  95.850  1.00  0.00     0.041 C 
ATOM      3  O   UNL     1     -18.403  41.786  96.576  1.00  0.00    -0.550 OA
ATOM      4  O   UNL     1     -17.190  39.849  96.408  1.00  0.00    -0.550 OA
ENDBRANCH   1   2
BRANCH   1   5
ATOM      5  C   UNL     1     -18.980  41.556  93.764  1.00  0.00     0.006 C 
BRANCH   5   6
ATOM      6  C   UNL     1     -19.805  40.275  93.593  1.00  0.00    -0.003 C 
ATOM      7  C   UNL     1     -21.071  40.537  92.782  1.00  0.00     0.004 C 
ENDBRANCH   5   6
ENDBRANCH   1   5
TORSDOF 3
ENDMDL
MODEL 4
REMARK VINA RESULT:    -2.602     19.238     20.407
REMARK INTER + INTRA:          -3.124
REMARK INTER:                  -3.095
REMARK INTRA:                  -0.030
REMARK UNBOUND:                -0.066
REMARK SMILES CCCCC(=O)[O-]
REMARK SMILES IDX 4 1 5 2 6 3 7 4 3 5 2 6 1 7
REMARK H PARENT
REMARK Flexibility Score: inf
ROOT
ATOM      1  C   UNL     1      -6.317  30.207 106.249  1.00  0.00     0.053 C 
ENDROOT
BRANCH   1   2
ATOM      2  C   UNL     1      -6.923  29.078 107.021  1.00  0.00     0.041 C 
ATOM      3  O   UNL     1      -7.987  28.536 106.621  1.00  0.00    -0.550 OA
ATOM      4  O   UNL     1      -6.287  28.592 108.156  1.00  0.00    -0.550 OA
ENDBRANCH   1   2
BRANCH   1   5
ATOM      5  C   UNL     1      -6.987  30.342 104.879  1.00  0.00     0.006 C 
BRANCH   5   6
ATOM      6  C   UNL     1      -6.243  31.353 103.999  1.00  0.00    -0.003 C 
ATOM      7  C   UNL     1      -4.837  30.865 103.665  1.00  0.00     0.004 C 
ENDBRANCH   5   6
ENDBRANCH   1   5
TORSDOF 3
ENDMDL
MODEL 5
REMARK VINA RESULT:    -2.583     19.690     20.837
REMARK INTER + INTRA:          -3.101
REMARK INTER:                  -3.001
REMARK INTRA:                  -0.101
REMARK UNBOUND:                -0.066
REMARK SMILES CCCCC(=O)[O-]
REMARK SMILES IDX 4 1 5 2 6 3 7 4 3 5 2 6 1 7
REMARK H PARENT
REMARK Flexibility Score: inf
ROOT
ATOM      1  C   UNL     1      -7.031  29.954 107.246  1.00  0.00     0.053 C 
ENDROOT
BRANCH   1   2
ATOM      2  C   UNL     1      -7.491  29.531 105.886  1.00  0.00     0.041 C 
ATOM      3  O   UNL     1      -7.197  30.222 104.875  1.00  0.00    -0.550 OA
ATOM      4  O   UNL     1      -8.200  28.347 105.729  1.00  0.00    -0.550 OA
ENDBRANCH   1   2
BRANCH   1   5
ATOM      5  C   UNL     1      -5.839  29.107 107.697  1.00  0.00     0.006 C 
BRANCH   5   6
ATOM      6  C   UNL     1      -4.540  29.591 107.042  1.00  0.00    -0.003 C 
ATOM      7  C   UNL     1      -4.275  31.060 107.362  1.00  0.00     0.004 C 
ENDBRANCH   5   6
ENDBRANCH   1   5
TORSDOF 3
ENDMDL
MODEL 6
REMARK VINA RESULT:    -2.521      1.221      1.613
REMARK INTER + INTRA:          -3.029
REMARK INTER:                  -2.923
REMARK INTRA:                  -0.105
REMARK UNBOUND:                -0.066
REMARK SMILES CCCCC(=O)[O-]
REMARK SMILES IDX 4 1 5 2 6 3 7 4 3 5 2 6 1 7
REMARK H PARENT
REMARK Flexibility Score: inf
ROOT
ATOM      1  C   UNL     1     -19.767  40.352  93.332  1.00  0.00     0.053 C 
ENDROOT
BRANCH   1   2
ATOM      2  C   UNL     1     -19.072  39.459  92.354  1.00  0.00     0.041 C 
ATOM      3  O   UNL     1     -19.557  39.279  91.205  1.00  0.00    -0.550 OA
ATOM      4  O   UNL     1     -17.864  38.864  92.692  1.00  0.00    -0.550 OA
ENDBRANCH   1   2
BRANCH   1   5
ATOM      5  C   UNL     1     -18.853  41.506  93.749  1.00  0.00     0.006 C 
BRANCH   5   6
ATOM      6  C   UNL     1     -18.374  41.334  95.196  1.00  0.00    -0.003 C 
ATOM      7  C   UNL     1     -16.859  41.161  95.259  1.00  0.00     0.004 C 
ENDBRANCH   5   6
ENDBRANCH   1   5
TORSDOF 3
ENDMDL
MODEL 7
REMARK VINA RESULT:    -2.500     19.594     20.756
REMARK INTER + INTRA:          -3.004
REMARK INTER:                  -2.904
REMARK INTRA:                  -0.100
REMARK UNBOUND:                -0.066
REMARK SMILES CCCCC(=O)[O-]
REMARK SMILES IDX 4 1 5 2 6 3 7 4 3 5 2 6 1 7
REMARK H PARENT
REMARK Flexibility Score: inf
ROOT
ATOM      1  C   UNL     1      -6.915  30.466 106.590  1.00  0.00     0.053 C 
ENDROOT
BRANCH   1   2
ATOM      2  C   UNL     1      -6.137  30.588 105.318  1.00  0.00     0.041 C 
ATOM      3  O   UNL     1      -4.879  30.529 105.337  1.00  0.00    -0.550 OA
ATOM      4  O   UNL     1      -6.802  30.716 104.106  1.00  0.00    -0.550 OA
ENDBRANCH   1   2
BRANCH   1   5
ATOM      5  C   UNL     1      -7.099  28.994 106.969  1.00  0.00     0.006 C 
BRANCH   5   6
ATOM      6  C   UNL     1      -6.249  28.631 108.192  1.00  0.00    -0.003 C 
ATOM      7  C   UNL     1      -5.981  29.856 109.061  1.00  0.00     0.004 C 
ENDBRANCH   5   6
ENDBRANCH   1   5
TORSDOF 3
ENDMDL
MODEL 8
REMARK VINA RESULT:    -2.429     20.044     21.285
REMARK INTER + INTRA:          -2.921
REMARK INTER:                  -2.805
REMARK INTRA:                  -0.116
REMARK UNBOUND:                -0.066
REMARK SMILES CCCCC(=O)[O-]
REMARK SMILES IDX 4 1 5 2 6 3 7 4 3 5 2 6 1 7
REMARK H PARENT
REMARK Flexibility Score: inf
ROOT
ATOM      1  C   UNL     1      -6.424  29.228 107.856  1.00  0.00     0.053 C 
ENDROOT
BRANCH   1   2
ATOM      2  C   UNL     1      -5.113  29.926 107.682  1.00  0.00     0.041 C 
ATOM      3  O   UNL     1      -4.252  29.469 106.884  1.00  0.00    -0.550 OA
ATOM      4  O   UNL     1      -4.860  31.111 108.362  1.00  0.00    -0.550 OA
ENDBRANCH   1   2
BRANCH   1   5
ATOM      5  C   UNL     1      -7.177  29.158 106.526  1.00  0.00     0.006 C 
BRANCH   5   6
ATOM      6  C   UNL     1      -7.422  30.562 105.958  1.00  0.00    -0.003 C 
ATOM      7  C   UNL     1      -6.861  30.691 104.545  1.00  0.00     0.004 C 
ENDBRANCH   5   6
ENDBRANCH   1   5
TORSDOF 3
ENDMDL
MODEL 9
REMARK VINA RESULT:    -2.413      2.705      4.305
REMARK INTER + INTRA:          -2.902
REMARK INTER:                  -2.803
REMARK INTRA:                  -0.099
REMARK UNBOUND:                -0.066
REMARK SMILES CCCCC(=O)[O-]
REMARK SMILES IDX 4 1 5 2 6 3 7 4 3 5 2 6 1 7
REMARK H PARENT
REMARK Flexibility Score: inf
ROOT
ATOM      1  C   UNL     1     -18.893  39.300  92.238  1.00  0.00     0.053 C 
ENDROOT
BRANCH   1   2
ATOM      2  C   UNL     1     -19.824  40.334  92.788  1.00  0.00     0.041 C 
ATOM      3  O   UNL     1     -21.051  40.295  92.506  1.00  0.00    -0.550 OA
ATOM      4  O   UNL     1     -19.346  41.311  93.651  1.00  0.00    -0.550 OA
ENDBRANCH   1   2
BRANCH   1   5
ATOM      5  C   UNL     1     -19.223  39.003  90.774  1.00  0.00     0.006 C 
BRANCH   5   6
ATOM      6  C   UNL     1     -19.243  37.493  90.509  1.00  0.00    -0.003 C 
ATOM      7  C   UNL     1     -20.045  36.756  91.578  1.00  0.00     0.004 C 
ENDBRANCH   5   6
ENDBRANCH   1   5
TORSDOF 3
ENDMDL
