MODEL 1
REMARK VINA RESULT:     3.402      0.000      0.000
REMARK INTER + INTRA:           4.229
REMARK INTER:                   4.198
REMARK INTRA:                   0.032
REMARK UNBOUND:                 0.032
REMARK SMILES COc1cc(-c2oc3cc(O)cc(O)c3c(=O)c2O)ccc1O
REMARK SMILES IDX 6 1 18 2 16 3 17 4 15 5 13 6 12 7 10 8 9 9 8 10 7 11 5 12
REMARK SMILES IDX 3 13 22 14 4 15 21 16 20 17 2 18 1 19 23 20 19 22 14 24
REMARK SMILES IDX 11 26
REMARK H PARENT 23 21 19 23 14 25 11 27
REMARK Flexibility Score: inf
ROOT
ATOM      1  C   UNL     1      13.264 -12.758  28.378  1.00  0.00     0.180 A 
ATOM      2  C   UNL     1      12.071 -12.274  27.811  1.00  0.00     0.208 A 
ATOM      3  C   UNL     1      11.432 -11.175  28.405  1.00  0.00     0.238 A 
ATOM      4  O   UNL     1      10.337 -10.781  27.925  1.00  0.00    -0.285 OA
ATOM      5  C   UNL     1      12.000 -10.562  29.549  1.00  0.00     0.111 A 
ATOM      6  C   UNL     1      11.459  -9.418  30.208  1.00  0.00     0.134 A 
ATOM      7  C   UNL     1      12.032  -8.977  31.407  1.00  0.00     0.093 A 
ATOM      8  C   UNL     1      13.166  -9.599  31.935  1.00  0.00     0.123 A 
ATOM      9  C   UNL     1      13.737 -10.679  31.267  1.00  0.00     0.094 A 
ATOM     10  C   UNL     1      13.166 -11.165  30.088  1.00  0.00     0.146 A 
ATOM     11  O   UNL     1      13.736 -12.205  29.489  1.00  0.00    -0.452 OA
ENDROOT
BRANCH   1  12
ATOM     12  C   UNL     1      14.007 -13.897  27.795  1.00  0.00     0.025 A 
ATOM     13  C   UNL     1      15.158 -16.045  28.024  1.00  0.00     0.161 A 
ATOM     14  C   UNL     1      15.368 -16.070  26.634  1.00  0.00     0.157 A 
ATOM     15  C   UNL     1      14.469 -14.957  28.596  1.00  0.00     0.062 A 
ATOM     16  C   UNL     1      14.889 -15.027  25.834  1.00  0.00     0.051 A 
ATOM     17  C   UNL     1      14.207 -13.953  26.408  1.00  0.00     0.016 A 
BRANCH  13  18
ATOM     18  O   UNL     1      15.640 -17.111  28.800  1.00  0.00    -0.493 OA
ATOM     19  C   UNL     1      15.674 -17.125  30.223  1.00  0.00     0.278 C 
ENDBRANCH  13  18
BRANCH  14  20
ATOM     20  O   UNL     1      16.047 -17.125  26.025  1.00  0.00    -0.504 OA
ATOM     21  H   UNL     1      15.632 -18.042  25.915  1.00  0.00     0.293 HD
ENDBRANCH  14  20
ENDBRANCH   1  12
BRANCH   2  22
ATOM     22  O   UNL     1      11.516 -12.908  26.696  1.00  0.00    -0.502 OA
ATOM     23  H   UNL     1      11.119 -12.392  25.920  1.00  0.00     0.293 HD
ENDBRANCH   2  22
BRANCH   6  24
ATOM     24  O   UNL     1      10.386  -8.668  29.716  1.00  0.00    -0.507 OA
ATOM     25  H   UNL     1       9.550  -9.060  29.309  1.00  0.00     0.293 HD
ENDBRANCH   6  24
BRANCH   8  26
ATOM     26  O   UNL     1      13.740  -9.143  33.120  1.00  0.00    -0.508 OA
ATOM     27  H   UNL     1      14.560  -9.589  33.517  1.00  0.00     0.293 HD
ENDBRANCH   8  26
TORSDOF 6
ENDMDL
MODEL 2
REMARK VINA RESULT:     4.339      1.359      6.735
REMARK INTER + INTRA:           5.385
REMARK INTER:                   5.249
REMARK INTRA:                   0.137
REMARK UNBOUND:                 0.032
REMARK SMILES COc1cc(-c2oc3cc(O)cc(O)c3c(=O)c2O)ccc1O
REMARK SMILES IDX 6 1 18 2 16 3 17 4 15 5 13 6 12 7 10 8 9 9 8 10 7 11 5 12
REMARK SMILES IDX 3 13 22 14 4 15 21 16 20 17 2 18 1 19 23 20 19 22 14 24
REMARK SMILES IDX 11 26
REMARK H PARENT 23 21 19 23 14 25 11 27
REMARK Flexibility Score: inf
ROOT
ATOM      1  C   UNL     1      13.076 -12.824  28.905  1.00  0.00     0.180 A 
ATOM      2  C   UNL     1      13.214 -13.236  27.568  1.00  0.00     0.208 A 
ATOM      3  C   UNL     1      13.904 -14.426  27.289  1.00  0.00     0.238 A 
ATOM      4  O   UNL     1      14.070 -14.761  26.087  1.00  0.00    -0.285 OA
ATOM      5  C   UNL     1      14.434 -15.199  28.351  1.00  0.00     0.111 A 
ATOM      6  C   UNL     1      15.117 -16.441  28.187  1.00  0.00     0.134 A 
ATOM      7  C   UNL     1      15.713 -17.053  29.296  1.00  0.00     0.093 A 
ATOM      8  C   UNL     1      15.596 -16.500  30.574  1.00  0.00     0.123 A 
ATOM      9  C   UNL     1      14.882 -15.319  30.753  1.00  0.00     0.094 A 
ATOM     10  C   UNL     1      14.306 -14.666  29.660  1.00  0.00     0.146 A 
ATOM     11  O   UNL     1      13.642 -13.535  29.874  1.00  0.00    -0.452 OA
ENDROOT
BRANCH   1  12
ATOM     12  C   UNL     1      12.342 -11.595  29.279  1.00  0.00     0.025 A 
ATOM     13  C   UNL     1      12.117  -9.559  30.618  1.00  0.00     0.161 A 
ATOM     14  C   UNL     1      10.941  -9.239  29.918  1.00  0.00     0.157 A 
ATOM     15  C   UNL     1      12.817 -10.737  30.288  1.00  0.00     0.062 A 
ATOM     16  C   UNL     1      10.481 -10.081  28.900  1.00  0.00     0.051 A 
ATOM     17  C   UNL     1      11.179 -11.246  28.577  1.00  0.00     0.016 A 
BRANCH  13  18
ATOM     18  O   UNL     1      12.561  -8.689  31.627  1.00  0.00    -0.493 OA
ATOM     19  C   UNL     1      13.534  -9.023  32.612  1.00  0.00     0.278 C 
ENDBRANCH  13  18
BRANCH  14  20
ATOM     20  O   UNL     1      10.215  -8.086  30.214  1.00  0.00    -0.504 OA
ATOM     21  H   UNL     1       9.205  -8.053  30.153  1.00  0.00     0.293 HD
ENDBRANCH  14  20
ENDBRANCH   1  12
BRANCH   2  22
ATOM     22  O   UNL     1      12.702 -12.447  26.534  1.00  0.00    -0.502 OA
ATOM     23  H   UNL     1      11.844 -12.679  26.047  1.00  0.00     0.293 HD
ENDBRANCH   2  22
BRANCH   6  24
ATOM     24  O   UNL     1      15.212 -17.125  26.971  1.00  0.00    -0.507 OA
ATOM     25  H   UNL     1      14.516 -17.099  26.241  1.00  0.00     0.293 HD
ENDBRANCH   6  24
BRANCH   8  26
ATOM     26  O   UNL     1      16.179 -17.124  31.675  1.00  0.00    -0.508 OA
ATOM     27  H   UNL     1      17.044 -17.646  31.591  1.00  0.00     0.293 HD
ENDBRANCH   8  26
TORSDOF 6
ENDMDL
MODEL 3
REMARK VINA RESULT:     5.366      4.445      6.813
REMARK INTER + INTRA:           6.653
REMARK INTER:                   6.819
REMARK INTRA:                  -0.166
REMARK UNBOUND:                 0.032
REMARK SMILES COc1cc(-c2oc3cc(O)cc(O)c3c(=O)c2O)ccc1O
REMARK SMILES IDX 6 1 18 2 16 3 17 4 15 5 13 6 12 7 10 8 9 9 8 10 7 11 5 12
REMARK SMILES IDX 3 13 22 14 4 15 21 16 20 17 2 18 1 19 23 20 19 22 14 24
REMARK SMILES IDX 11 26
REMARK H PARENT 23 21 19 23 14 25 11 27
REMARK Flexibility Score: inf
ROOT
ATOM      1  C   UNL     1      13.885  -9.855  26.766  1.00  0.00     0.180 A 
ATOM      2  C   UNL     1      12.803  -9.658  27.642  1.00  0.00     0.208 A 
ATOM      3  C   UNL     1      12.479 -10.666  28.562  1.00  0.00     0.238 A 
ATOM      4  O   UNL     1      11.476 -10.505  29.306  1.00  0.00    -0.285 OA
ATOM      5  C   UNL     1      13.250 -11.852  28.609  1.00  0.00     0.111 A 
ATOM      6  C   UNL     1      13.036 -12.922  29.529  1.00  0.00     0.134 A 
ATOM      7  C   UNL     1      13.777 -14.103  29.398  1.00  0.00     0.093 A 
ATOM      8  C   UNL     1      14.768 -14.228  28.421  1.00  0.00     0.123 A 
ATOM      9  C   UNL     1      15.024 -13.167  27.557  1.00  0.00     0.094 A 
ATOM     10  C   UNL     1      14.278 -11.989  27.640  1.00  0.00     0.146 A 
ATOM     11  O   UNL     1      14.548 -11.006  26.788  1.00  0.00    -0.452 OA
ENDROOT
BRANCH   1  12
ATOM     12  C   UNL     1      14.302  -8.829  25.784  1.00  0.00     0.025 A 
ATOM     13  C   UNL     1      15.046  -6.561  25.244  1.00  0.00     0.161 A 
ATOM     14  C   UNL     1      15.143  -6.925  23.890  1.00  0.00     0.157 A 
ATOM     15  C   UNL     1      14.632  -7.522  26.188  1.00  0.00     0.062 A 
ATOM     16  C   UNL     1      14.836  -8.231  23.492  1.00  0.00     0.051 A 
ATOM     17  C   UNL     1      14.426  -9.178  24.432  1.00  0.00     0.016 A 
BRANCH  13  18
ATOM     18  O   UNL     1      15.372  -5.247  25.616  1.00  0.00    -0.493 OA
ATOM     19  C   UNL     1      16.543  -4.877  26.338  1.00  0.00     0.278 C 
ENDBRANCH  13  18
BRANCH  14  20
ATOM     20  O   UNL     1      15.546  -6.006  22.922  1.00  0.00    -0.504 OA
ATOM     21  H   UNL     1      16.462  -5.575  22.935  1.00  0.00     0.293 HD
ENDBRANCH  14  20
ENDBRANCH   1  12
BRANCH   2  22
ATOM     22  O   UNL     1      12.041  -8.488  27.563  1.00  0.00    -0.502 OA
ATOM     23  H   UNL     1      12.462  -7.571  27.468  1.00  0.00     0.293 HD
ENDBRANCH   2  22
BRANCH   6  24
ATOM     24  O   UNL     1      12.137 -12.865  30.598  1.00  0.00    -0.507 OA
ATOM     25  H   UNL     1      12.228 -12.251  31.394  1.00  0.00     0.293 HD
ENDBRANCH   6  24
BRANCH   8  26
ATOM     26  O   UNL     1      15.511 -15.401  28.308  1.00  0.00    -0.508 OA
ATOM     27  H   UNL     1      15.159 -16.204  27.800  1.00  0.00     0.293 HD
ENDBRANCH   8  26
TORSDOF 6
ENDMDL
MODEL 4
REMARK VINA RESULT:     5.593      9.566     12.382
REMARK INTER + INTRA:           6.933
REMARK INTER:                   6.564
REMARK INTRA:                   0.369
REMARK UNBOUND:                 0.032
REMARK SMILES COc1cc(-c2oc3cc(O)cc(O)c3c(=O)c2O)ccc1O
REMARK SMILES IDX 6 1 18 2 16 3 17 4 15 5 13 6 12 7 10 8 9 9 8 10 7 11 5 12
REMARK SMILES IDX 3 13 22 14 4 15 21 16 20 17 2 18 1 19 23 20 19 22 14 24
REMARK SMILES IDX 11 26
REMARK H PARENT 23 21 19 23 14 25 11 27
REMARK Flexibility Score: inf
ROOT
ATOM      1  C   UNL     1      16.842  -2.402  28.205  1.00  0.00     0.180 A 
ATOM      2  C   UNL     1      18.060  -2.520  27.512  1.00  0.00     0.208 A 
ATOM      3  C   UNL     1      18.223  -1.833  26.300  1.00  0.00     0.238 A 
ATOM      4  O   UNL     1      19.295  -1.985  25.658  1.00  0.00    -0.285 OA
ATOM      5  C   UNL     1      17.173  -1.023  25.802  1.00  0.00     0.111 A 
ATOM      6  C   UNL     1      17.244  -0.250  24.604  1.00  0.00     0.134 A 
ATOM      7  C   UNL     1      16.100   0.410  24.140  1.00  0.00     0.093 A 
ATOM      8  C   UNL     1      14.905   0.378  24.864  1.00  0.00     0.123 A 
ATOM      9  C   UNL     1      14.843  -0.324  26.064  1.00  0.00     0.094 A 
ATOM     10  C   UNL     1      15.958  -1.022  26.536  1.00  0.00     0.146 A 
ATOM     11  O   UNL     1      15.852  -1.689  27.680  1.00  0.00    -0.452 OA
ENDROOT
BRANCH   1  12
ATOM     12  C   UNL     1      16.605  -3.077  29.501  1.00  0.00     0.025 A 
ATOM     13  C   UNL     1      15.545  -3.167  31.705  1.00  0.00     0.161 A 
ATOM     14  C   UNL     1      16.137  -4.423  31.928  1.00  0.00     0.157 A 
ATOM     15  C   UNL     1      15.778  -2.503  30.484  1.00  0.00     0.062 A 
ATOM     16  C   UNL     1      16.941  -5.003  30.941  1.00  0.00     0.051 A 
ATOM     17  C   UNL     1      17.168  -4.340  29.734  1.00  0.00     0.016 A 
BRANCH  13  18
ATOM     18  O   UNL     1      14.733  -2.615  32.709  1.00  0.00    -0.493 OA
ATOM     19  C   UNL     1      13.462  -3.128  33.095  1.00  0.00     0.278 C 
ENDBRANCH  13  18
BRANCH  14  20
ATOM     20  O   UNL     1      15.936  -5.114  33.123  1.00  0.00    -0.504 OA
ATOM     21  H   UNL     1      16.376  -4.831  33.990  1.00  0.00     0.293 HD
ENDBRANCH  14  20
ENDBRANCH   1  12
BRANCH   2  22
ATOM     22  O   UNL     1      19.075  -3.342  28.011  1.00  0.00    -0.502 OA
ATOM     23  H   UNL     1      19.892  -3.589  27.465  1.00  0.00     0.293 HD
ENDBRANCH   2  22
BRANCH   6  24
ATOM     24  O   UNL     1      18.412  -0.077  23.855  1.00  0.00    -0.507 OA
ATOM     25  H   UNL     1      18.945  -0.826  23.440  1.00  0.00     0.293 HD
ENDBRANCH   6  24
BRANCH   8  26
ATOM     26  O   UNL     1      13.776   1.051  24.403  1.00  0.00    -0.508 OA
ATOM     27  H   UNL     1      13.651   2.045  24.560  1.00  0.00     0.293 HD
ENDBRANCH   8  26
TORSDOF 6
ENDMDL
