MODEL 1
REMARK VINA RESULT:    -6.421      0.000      0.000
REMARK INTER + INTRA:          -6.421
REMARK INTER:                  -6.421
REMARK INTRA:                   0.000
REMARK UNBOUND:                 0.000
REMARK SMILES CC1=CC(=O)[C@H]2C[C@@H]1C2(C)C
REMARK SMILES IDX 1 1 2 2 3 3 4 4 5 5 6 6 7 7 8 8 9 9 10 10 11 11
REMARK H PARENT
REMARK Flexibility Score: inf
ROOT
ATOM      1  C   UNL     1      27.501  21.269  29.156  1.00  0.00     0.040 C 
ATOM      2  C   UNL     1      27.537  20.178  28.134  1.00  0.00    -0.066 C 
ATOM      3  C   UNL     1      26.450  19.391  27.900  1.00  0.00     0.047 C 
ATOM      4  C   UNL     1      26.621  18.313  26.872  1.00  0.00     0.159 C 
ATOM      5  O   UNL     1      25.704  17.496  26.595  1.00  0.00    -0.295 OA
ATOM      6  C   UNL     1      27.987  18.275  26.185  1.00  0.00     0.067 C 
ATOM      7  C   UNL     1      28.275  19.751  25.834  1.00  0.00     0.021 C 
ATOM      8  C   UNL     1      28.793  19.904  27.281  1.00  0.00     0.022 C 
ATOM      9  C   UNL     1      29.092  18.376  27.275  1.00  0.00    -0.019 C 
ATOM     10  C   UNL     1      30.501  18.053  26.717  1.00  0.00     0.012 C 
ATOM     11  C   UNL     1      28.898  17.584  28.599  1.00  0.00     0.012 C 
ENDROOT
TORSDOF 0
ENDMDL
MODEL 2
REMARK VINA RESULT:    -6.336      1.645      3.474
REMARK INTER + INTRA:          -6.336
REMARK INTER:                  -6.336
REMARK INTRA:                   0.000
REMARK UNBOUND:                 0.000
REMARK SMILES CC1=CC(=O)[C@H]2C[C@@H]1C2(C)C
REMARK SMILES IDX 1 1 2 2 3 3 4 4 5 5 6 6 7 7 8 8 9 9 10 10 11 11
REMARK H PARENT
REMARK Flexibility Score: inf
ROOT
ATOM      1  C   UNL     1      29.384  19.133  24.555  1.00  0.00     0.040 C 
ATOM      2  C   UNL     1      28.972  19.035  25.990  1.00  0.00    -0.066 C 
ATOM      3  C   UNL     1      29.499  18.088  26.815  1.00  0.00     0.047 C 
ATOM      4  C   UNL     1      28.983  18.073  28.222  1.00  0.00     0.159 C 
ATOM      5  O   UNL     1      29.362  17.222  29.069  1.00  0.00    -0.295 OA
ATOM      6  C   UNL     1      27.963  19.162  28.557  1.00  0.00     0.067 C 
ATOM      7  C   UNL     1      28.572  20.448  27.955  1.00  0.00     0.021 C 
ATOM      8  C   UNL     1      27.949  20.009  26.610  1.00  0.00     0.022 C 
ATOM      9  C   UNL     1      26.896  19.205  27.426  1.00  0.00    -0.019 C 
ATOM     10  C   UNL     1      25.665  20.065  27.810  1.00  0.00     0.012 C 
ATOM     11  C   UNL     1      26.386  17.857  26.841  1.00  0.00     0.012 C 
ENDROOT
TORSDOF 0
ENDMDL
MODEL 3
REMARK VINA RESULT:    -6.298     10.216     11.801
REMARK INTER + INTRA:          -6.298
REMARK INTER:                  -6.298
REMARK INTRA:                   0.000
REMARK UNBOUND:                 0.000
REMARK SMILES CC1=CC(=O)[C@H]2C[C@@H]1C2(C)C
REMARK SMILES IDX 1 1 2 2 3 3 4 4 5 5 6 6 7 7 8 8 9 9 10 10 11 11
REMARK H PARENT
REMARK Flexibility Score: inf
ROOT
ATOM      1  C   UNL     1      34.249  17.689  15.625  1.00  0.00     0.040 C 
ATOM      2  C   UNL     1      33.388  18.710  16.297  1.00  0.00    -0.066 C 
ATOM      3  C   UNL     1      32.485  19.449  15.594  1.00  0.00     0.047 C 
ATOM      4  C   UNL     1      31.704  20.461  16.376  1.00  0.00     0.159 C 
ATOM      5  O   UNL     1      30.868  21.231  15.835  1.00  0.00    -0.295 OA
ATOM      6  C   UNL     1      31.994  20.494  17.878  1.00  0.00     0.067 C 
ATOM      7  C   UNL     1      31.996  19.007  18.295  1.00  0.00     0.021 C 
ATOM      8  C   UNL     1      33.465  18.964  17.817  1.00  0.00     0.022 C 
ATOM      9  C   UNL     1      33.535  20.496  18.084  1.00  0.00    -0.019 C 
ATOM     10  C   UNL     1      33.934  20.823  19.546  1.00  0.00     0.012 C 
ATOM     11  C   UNL     1      34.406  21.368  17.135  1.00  0.00     0.012 C 
ENDROOT
TORSDOF 0
ENDMDL
MODEL 4
REMARK VINA RESULT:    -6.297     10.615     12.016
REMARK INTER + INTRA:          -6.297
REMARK INTER:                  -6.297
REMARK INTRA:                   0.000
REMARK UNBOUND:                 0.000
REMARK SMILES CC1=CC(=O)[C@H]2C[C@@H]1C2(C)C
REMARK SMILES IDX 1 1 2 2 3 3 4 4 5 5 6 6 7 7 8 8 9 9 10 10 11 11
REMARK H PARENT
REMARK Flexibility Score: inf
ROOT
ATOM      1  C   UNL     1      30.959  21.250  15.988  1.00  0.00     0.040 C 
ATOM      2  C   UNL     1      31.988  20.285  16.484  1.00  0.00    -0.066 C 
ATOM      3  C   UNL     1      31.947  19.796  17.754  1.00  0.00     0.047 C 
ATOM      4  C   UNL     1      33.052  18.860  18.141  1.00  0.00     0.159 C 
ATOM      5  O   UNL     1      33.146  18.372  19.297  1.00  0.00    -0.295 OA
ATOM      6  C   UNL     1      34.056  18.540  17.033  1.00  0.00     0.067 C 
ATOM      7  C   UNL     1      33.177  18.252  15.797  1.00  0.00     0.021 C 
ATOM      8  C   UNL     1      33.133  19.781  15.579  1.00  0.00     0.022 C 
ATOM      9  C   UNL     1      34.481  19.872  16.351  1.00  0.00    -0.019 C 
ATOM     10  C   UNL     1      35.707  19.692  15.420  1.00  0.00     0.012 C 
ATOM     11  C   UNL     1      34.731  21.116  17.251  1.00  0.00     0.012 C 
ENDROOT
TORSDOF 0
ENDMDL
MODEL 5
REMARK VINA RESULT:    -6.261     10.857     12.123
REMARK INTER + INTRA:          -6.261
REMARK INTER:                  -6.261
REMARK INTRA:                   0.000
REMARK UNBOUND:                 0.000
REMARK SMILES CC1=CC(=O)[C@H]2C[C@@H]1C2(C)C
REMARK SMILES IDX 1 1 2 2 3 3 4 4 5 5 6 6 7 7 8 8 9 9 10 10 11 11
REMARK H PARENT
REMARK Flexibility Score: inf
ROOT
ATOM      1  C   UNL     1      33.560  20.878  19.011  1.00  0.00     0.040 C 
ATOM      2  C   UNL     1      33.223  20.421  17.628  1.00  0.00    -0.066 C 
ATOM      3  C   UNL     1      32.070  20.807  17.015  1.00  0.00     0.047 C 
ATOM      4  C   UNL     1      31.833  20.258  15.640  1.00  0.00     0.159 C 
ATOM      5  O   UNL     1      30.787  20.509  14.986  1.00  0.00    -0.295 OA
ATOM      6  C   UNL     1      32.950  19.369  15.089  1.00  0.00     0.067 C 
ATOM      7  C   UNL     1      34.245  20.146  15.414  1.00  0.00     0.021 C 
ATOM      8  C   UNL     1      34.170  19.508  16.821  1.00  0.00     0.022 C 
ATOM      9  C   UNL     1      33.354  18.345  16.187  1.00  0.00    -0.019 C 
ATOM     10  C   UNL     1      34.264  17.218  15.635  1.00  0.00     0.012 C 
ATOM     11  C   UNL     1      32.228  17.689  17.037  1.00  0.00     0.012 C 
ENDROOT
TORSDOF 0
ENDMDL
MODEL 6
REMARK VINA RESULT:    -6.197      1.670      3.359
REMARK INTER + INTRA:          -6.197
REMARK INTER:                  -6.197
REMARK INTRA:                   0.000
REMARK UNBOUND:                 0.000
REMARK SMILES CC1=CC(=O)[C@H]2C[C@@H]1C2(C)C
REMARK SMILES IDX 1 1 2 2 3 3 4 4 5 5 6 6 7 7 8 8 9 9 10 10 11 11
REMARK H PARENT
REMARK Flexibility Score: inf
ROOT
ATOM      1  C   UNL     1      29.769  17.154  29.427  1.00  0.00     0.040 C 
ATOM      2  C   UNL     1      29.131  17.825  28.253  1.00  0.00    -0.066 C 
ATOM      3  C   UNL     1      29.815  18.022  27.091  1.00  0.00     0.047 C 
ATOM      4  C   UNL     1      29.075  18.733  25.998  1.00  0.00     0.159 C 
ATOM      5  O   UNL     1      29.610  19.009  24.893  1.00  0.00    -0.295 OA
ATOM      6  C   UNL     1      27.626  19.102  26.322  1.00  0.00     0.067 C 
ATOM      7  C   UNL     1      27.045  17.823  26.962  1.00  0.00     0.021 C 
ATOM      8  C   UNL     1      27.667  18.310  28.291  1.00  0.00     0.022 C 
ATOM      9  C   UNL     1      27.586  19.760  27.730  1.00  0.00    -0.019 C 
ATOM     10  C   UNL     1      26.221  20.432  28.028  1.00  0.00     0.012 C 
ATOM     11  C   UNL     1      28.715  20.759  28.112  1.00  0.00     0.012 C 
ENDROOT
TORSDOF 0
ENDMDL
MODEL 7
REMARK VINA RESULT:    -6.091     10.792     12.251
REMARK INTER + INTRA:          -6.091
REMARK INTER:                  -6.091
REMARK INTRA:                   0.000
REMARK UNBOUND:                 0.000
REMARK SMILES CC1=CC(=O)[C@H]2C[C@@H]1C2(C)C
REMARK SMILES IDX 1 1 2 2 3 3 4 4 5 5 6 6 7 7 8 8 9 9 10 10 11 11
REMARK H PARENT
REMARK Flexibility Score: inf
ROOT
ATOM      1  C   UNL     1      30.713  20.469  14.914  1.00  0.00     0.040 C 
ATOM      2  C   UNL     1      31.979  20.211  15.668  1.00  0.00    -0.066 C 
ATOM      3  C   UNL     1      33.168  20.053  15.024  1.00  0.00     0.047 C 
ATOM      4  C   UNL     1      34.359  19.770  15.889  1.00  0.00     0.159 C 
ATOM      5  O   UNL     1      35.505  19.566  15.410  1.00  0.00    -0.295 OA
ATOM      6  C   UNL     1      34.084  19.743  17.393  1.00  0.00     0.067 C 
ATOM      7  C   UNL     1      33.212  20.994  17.639  1.00  0.00     0.021 C 
ATOM      8  C   UNL     1      32.004  20.130  17.209  1.00  0.00     0.022 C 
ATOM      9  C   UNL     1      32.817  18.878  17.649  1.00  0.00    -0.019 C 
ATOM     10  C   UNL     1      32.623  18.546  19.151  1.00  0.00     0.012 C 
ATOM     11  C   UNL     1      32.642  17.565  16.834  1.00  0.00     0.012 C 
ENDROOT
TORSDOF 0
ENDMDL
MODEL 8
REMARK VINA RESULT:    -6.058      1.060      2.968
REMARK INTER + INTRA:          -6.058
REMARK INTER:                  -6.058
REMARK INTRA:                   0.000
REMARK UNBOUND:                 0.000
REMARK SMILES CC1=CC(=O)[C@H]2C[C@@H]1C2(C)C
REMARK SMILES IDX 1 1 2 2 3 3 4 4 5 5 6 6 7 7 8 8 9 9 10 10 11 11
REMARK H PARENT
REMARK Flexibility Score: inf
ROOT
ATOM      1  C   UNL     1      29.478  20.107  25.371  1.00  0.00     0.040 C 
ATOM      2  C   UNL     1      28.569  19.440  26.354  1.00  0.00    -0.066 C 
ATOM      3  C   UNL     1      27.574  18.605  25.945  1.00  0.00     0.047 C 
ATOM      4  C   UNL     1      26.713  18.021  27.024  1.00  0.00     0.159 C 
ATOM      5  O   UNL     1      25.737  17.267  26.771  1.00  0.00    -0.295 OA
ATOM      6  C   UNL     1      27.101  18.408  28.452  1.00  0.00     0.067 C 
ATOM      7  C   UNL     1      28.635  18.230  28.487  1.00  0.00     0.021 C 
ATOM      8  C   UNL     1      28.725  19.647  27.875  1.00  0.00     0.022 C 
ATOM      9  C   UNL     1      27.333  19.944  28.503  1.00  0.00    -0.019 C 
ATOM     10  C   UNL     1      27.442  20.476  29.955  1.00  0.00     0.012 C 
ATOM     11  C   UNL     1      26.355  20.866  27.719  1.00  0.00     0.012 C 
ENDROOT
TORSDOF 0
ENDMDL
MODEL 9
REMARK VINA RESULT:    -6.012     10.114     11.557
REMARK INTER + INTRA:          -6.012
REMARK INTER:                  -6.012
REMARK INTRA:                   0.000
REMARK UNBOUND:                 0.000
REMARK SMILES CC1=CC(=O)[C@H]2C[C@@H]1C2(C)C
REMARK SMILES IDX 1 1 2 2 3 3 4 4 5 5 6 6 7 7 8 8 9 9 10 10 11 11
REMARK H PARENT
REMARK Flexibility Score: inf
ROOT
ATOM      1  C   UNL     1      31.972  19.380  20.214  1.00  0.00     0.040 C 
ATOM      2  C   UNL     1      32.699  19.635  18.932  1.00  0.00    -0.066 C 
ATOM      3  C   UNL     1      33.596  20.653  18.817  1.00  0.00     0.047 C 
ATOM      4  C   UNL     1      34.237  20.824  17.472  1.00  0.00     0.159 C 
ATOM      5  O   UNL     1      35.052  21.751  17.228  1.00  0.00    -0.295 OA
ATOM      6  C   UNL     1      33.829  19.794  16.418  1.00  0.00     0.067 C 
ATOM      7  C   UNL     1      33.906  18.442  17.161  1.00  0.00     0.021 C 
ATOM      8  C   UNL     1      32.486  18.749  17.687  1.00  0.00     0.022 C 
ATOM      9  C   UNL     1      32.281  19.653  16.437  1.00  0.00    -0.019 C 
ATOM     10  C   UNL     1      31.747  18.860  15.217  1.00  0.00     0.012 C 
ATOM     11  C   UNL     1      31.423  20.941  16.594  1.00  0.00     0.012 C 
ENDROOT
TORSDOF 0
ENDMDL
