MODEL 1
REMARK VINA RESULT:    -4.106      0.000      0.000
REMARK INTER + INTRA:          -6.543
REMARK INTER:                  -6.026
REMARK INTRA:                  -0.516
REMARK UNBOUND:                -0.516
REMARK SMILES O=C([O-])CCCCCCCC(=O)[O-]
REMARK SMILES IDX 7 1 6 2 5 3 4 4 2 5 1 6 3 7 8 8 9 9 10 10 11 11 12 12 13 13
REMARK H PARENT
REMARK Flexibility Score: inf
ROOT
ATOM      1  C   UNL     1     -11.352  -9.045   6.852  1.00  0.00     0.000 C 
ENDROOT
BRANCH   1   2
ATOM      2  C   UNL     1     -12.418  -9.849   6.099  1.00  0.00     0.000 C 
BRANCH   2   3
ATOM      3  C   UNL     1     -13.222 -10.734   7.060  1.00  0.00     0.006 C 
BRANCH   3   4
ATOM      4  C   UNL     1     -13.753  -9.919   8.243  1.00  0.00     0.053 C 
BRANCH   4   5
ATOM      5  C   UNL     1     -15.246  -9.838   8.194  1.00  0.00     0.041 C 
ATOM      6  O   UNL     1     -15.905  -9.658   9.253  1.00  0.00    -0.550 OA
ATOM      7  O   UNL     1     -15.907  -9.912   6.976  1.00  0.00    -0.550 OA
ENDBRANCH   4   5
ENDBRANCH   3   4
ENDBRANCH   2   3
ENDBRANCH   1   2
BRANCH   1   8
ATOM      8  C   UNL     1     -10.074  -8.904   6.016  1.00  0.00     0.000 C 
BRANCH   8   9
ATOM      9  C   UNL     1      -8.928  -9.723   6.619  1.00  0.00     0.006 C 
BRANCH   9  10
ATOM     10  C   UNL     1      -9.459 -10.781   7.589  1.00  0.00     0.053 C 
BRANCH  10  11
ATOM     11  C   UNL     1      -9.347 -12.147   6.989  1.00  0.00     0.041 C 
ATOM     12  O   UNL     1      -8.661 -13.035   7.558  1.00  0.00    -0.550 OA
ATOM     13  O   UNL     1      -9.961 -12.425   5.774  1.00  0.00    -0.550 OA
ENDBRANCH  10  11
ENDBRANCH   9  10
ENDBRANCH   8   9
ENDBRANCH   1   8
TORSDOF 8
ENDMDL
MODEL 2
REMARK VINA RESULT:    -4.097      1.309      6.103
REMARK INTER + INTRA:          -6.529
REMARK INTER:                  -6.190
REMARK INTRA:                  -0.338
REMARK UNBOUND:                -0.516
REMARK SMILES O=C([O-])CCCCCCCC(=O)[O-]
REMARK SMILES IDX 7 1 6 2 5 3 4 4 2 5 1 6 3 7 8 8 9 9 10 10 11 11 12 12 13 13
REMARK H PARENT
REMARK Flexibility Score: inf
ROOT
ATOM      1  C   UNL     1     -11.356 -10.292   5.921  1.00  0.00     0.000 C 
ENDROOT
BRANCH   1   2
ATOM      2  C   UNL     1     -10.079  -9.853   6.648  1.00  0.00     0.000 C 
BRANCH   2   3
ATOM      3  C   UNL     1      -9.118 -11.034   6.836  1.00  0.00     0.006 C 
BRANCH   3   4
ATOM      4  C   UNL     1      -9.705 -12.318   6.243  1.00  0.00     0.053 C 
BRANCH   4   5
ATOM      5  C   UNL     1      -8.611 -13.266   5.863  1.00  0.00     0.041 C 
ATOM      6  O   UNL     1      -7.813 -13.697   6.737  1.00  0.00    -0.550 OA
ATOM      7  O   UNL     1      -8.502 -13.711   4.552  1.00  0.00    -0.550 OA
ENDBRANCH   4   5
ENDBRANCH   3   4
ENDBRANCH   2   3
ENDBRANCH   1   2
BRANCH   1   8
ATOM      8  C   UNL     1     -12.596  -9.635   6.539  1.00  0.00     0.000 C 
BRANCH   8   9
ATOM      9  C   UNL     1     -13.598 -10.692   7.017  1.00  0.00     0.006 C 
BRANCH   9  10
ATOM     10  C   UNL     1     -14.962 -10.062   7.311  1.00  0.00     0.053 C 
BRANCH  10  11
ATOM     11  C   UNL     1     -15.121  -9.814   8.778  1.00  0.00     0.041 C 
ATOM     12  O   UNL     1     -14.227 -10.185   9.583  1.00  0.00    -0.550 OA
ATOM     13  O   UNL     1     -16.278  -9.218   9.262  1.00  0.00    -0.550 OA
ENDBRANCH  10  11
ENDBRANCH   9  10
ENDBRANCH   8   9
ENDBRANCH   1   8
TORSDOF 8
ENDMDL
MODEL 3
REMARK VINA RESULT:    -4.079      1.812      2.457
REMARK INTER + INTRA:          -6.503
REMARK INTER:                  -5.943
REMARK INTRA:                  -0.560
REMARK UNBOUND:                -0.516
REMARK SMILES O=C([O-])CCCCCCCC(=O)[O-]
REMARK SMILES IDX 7 1 6 2 5 3 4 4 2 5 1 6 3 7 8 8 9 9 10 10 11 11 12 12 13 13
REMARK H PARENT
REMARK Flexibility Score: inf
ROOT
ATOM      1  C   UNL     1     -11.409 -10.685   5.921  1.00  0.00     0.000 C 
ENDROOT
BRANCH   1   2
ATOM      2  C   UNL     1     -12.718 -10.868   6.698  1.00  0.00     0.000 C 
BRANCH   2   3
ATOM      3  C   UNL     1     -13.024  -9.638   7.561  1.00  0.00     0.006 C 
BRANCH   3   4
ATOM      4  C   UNL     1     -13.600 -10.050   8.919  1.00  0.00     0.053 C 
BRANCH   4   5
ATOM      5  C   UNL     1     -15.062  -9.736   8.984  1.00  0.00     0.041 C 
ATOM      6  O   UNL     1     -15.787  -9.885   7.965  1.00  0.00    -0.550 OA
ATOM      7  O   UNL     1     -15.632  -9.326  10.181  1.00  0.00    -0.550 OA
ENDBRANCH   4   5
ENDBRANCH   3   4
ENDBRANCH   2   3
ENDBRANCH   1   2
BRANCH   1   8
ATOM      8  C   UNL     1     -10.497 -11.907   6.082  1.00  0.00     0.000 C 
BRANCH   8   9
ATOM      9  C   UNL     1      -9.110 -11.495   6.589  1.00  0.00     0.006 C 
BRANCH   9  10
ATOM     10  C   UNL     1      -9.079 -10.009   6.957  1.00  0.00     0.053 C 
BRANCH  10  11
ATOM     11  C   UNL     1      -8.943  -9.838   8.437  1.00  0.00     0.041 C 
ATOM     12  O   UNL     1      -9.871 -10.204   9.205  1.00  0.00    -0.550 OA
ATOM     13  O   UNL     1      -7.812  -9.229   8.966  1.00  0.00    -0.550 OA
ENDBRANCH  10  11
ENDBRANCH   9  10
ENDBRANCH   8   9
ENDBRANCH   1   8
TORSDOF 8
ENDMDL
MODEL 4
REMARK VINA RESULT:    -4.012      1.786      5.620
REMARK INTER + INTRA:          -6.404
REMARK INTER:                  -5.933
REMARK INTRA:                  -0.471
REMARK UNBOUND:                -0.516
REMARK SMILES O=C([O-])CCCCCCCC(=O)[O-]
REMARK SMILES IDX 7 1 6 2 5 3 4 4 2 5 1 6 3 7 8 8 9 9 10 10 11 11 12 12 13 13
REMARK H PARENT
REMARK Flexibility Score: inf
ROOT
ATOM      1  C   UNL     1     -11.402 -10.769   5.943  1.00  0.00     0.000 C 
ENDROOT
BRANCH   1   2
ATOM      2  C   UNL     1     -10.436 -11.939   6.162  1.00  0.00     0.000 C 
BRANCH   2   3
ATOM      3  C   UNL     1      -9.049 -11.439   6.585  1.00  0.00     0.006 C 
BRANCH   3   4
ATOM      4  C   UNL     1      -9.084  -9.946   6.922  1.00  0.00     0.053 C 
BRANCH   4   5
ATOM      5  C   UNL     1      -8.988  -9.740   8.401  1.00  0.00     0.041 C 
ATOM      6  O   UNL     1      -9.954 -10.049   9.147  1.00  0.00    -0.550 OA
ATOM      7  O   UNL     1      -7.814  -9.253   8.960  1.00  0.00    -0.550 OA
ENDBRANCH   4   5
ENDBRANCH   3   4
ENDBRANCH   2   3
ENDBRANCH   1   2
BRANCH   1   8
ATOM      8  C   UNL     1     -12.644 -10.905   6.832  1.00  0.00     0.000 C 
BRANCH   8   9
ATOM      9  C   UNL     1     -13.089  -9.541   7.370  1.00  0.00     0.006 C 
BRANCH   9  10
ATOM     10  C   UNL     1     -13.910  -9.697   8.653  1.00  0.00     0.053 C 
BRANCH  10  11
ATOM     11  C   UNL     1     -15.373  -9.602   8.354  1.00  0.00     0.041 C 
ATOM     12  O   UNL     1     -16.184  -9.275   9.260  1.00  0.00    -0.550 OA
ATOM     13  O   UNL     1     -15.846  -9.921   7.088  1.00  0.00    -0.550 OA
ENDBRANCH  10  11
ENDBRANCH   9  10
ENDBRANCH   8   9
ENDBRANCH   1   8
TORSDOF 8
ENDMDL
MODEL 5
REMARK VINA RESULT:    -3.902      3.326      4.342
REMARK INTER + INTRA:          -6.244
REMARK INTER:                  -6.004
REMARK INTRA:                  -0.239
REMARK UNBOUND:                -0.516
REMARK SMILES O=C([O-])CCCCCCCC(=O)[O-]
REMARK SMILES IDX 7 1 6 2 5 3 4 4 2 5 1 6 3 7 8 8 9 9 10 10 11 11 12 12 13 13
REMARK H PARENT
REMARK Flexibility Score: inf
ROOT
ATOM      1  C   UNL     1      -8.984 -12.745   6.223  1.00  0.00     0.000 C 
ENDROOT
BRANCH   1   2
ATOM      2  C   UNL     1     -10.440 -12.264   6.198  1.00  0.00     0.000 C 
BRANCH   2   3
ATOM      3  C   UNL     1     -10.535 -10.775   6.553  1.00  0.00     0.006 C 
BRANCH   3   4
ATOM      4  C   UNL     1     -11.867 -10.183   6.087  1.00  0.00     0.053 C 
BRANCH   4   5
ATOM      5  C   UNL     1     -12.911 -10.342   7.148  1.00  0.00     0.041 C 
ATOM      6  O   UNL     1     -14.049 -10.794   6.854  1.00  0.00    -0.550 OA
ATOM      7  O   UNL     1     -12.611 -10.038   8.469  1.00  0.00    -0.550 OA
ENDBRANCH   4   5
ENDBRANCH   3   4
ENDBRANCH   2   3
ENDBRANCH   1   2
BRANCH   1   8
ATOM      8  C   UNL     1      -8.720 -13.763   5.107  1.00  0.00     0.000 C 
BRANCH   8   9
ATOM      9  C   UNL     1      -7.219 -13.905   4.835  1.00  0.00     0.006 C 
BRANCH   9  10
ATOM     10  C   UNL     1      -6.572 -14.884   5.819  1.00  0.00     0.053 C 
BRANCH  10  11
ATOM     11  C   UNL     1      -6.267 -16.183   5.142  1.00  0.00     0.041 C 
ATOM     12  O   UNL     1      -5.111 -16.412   4.702  1.00  0.00    -0.550 OA
ATOM     13  O   UNL     1      -7.274 -17.121   4.954  1.00  0.00    -0.550 OA
ENDBRANCH  10  11
ENDBRANCH   9  10
ENDBRANCH   8   9
ENDBRANCH   1   8
TORSDOF 8
ENDMDL
MODEL 6
REMARK VINA RESULT:    -3.878      1.512      2.104
REMARK INTER + INTRA:          -6.209
REMARK INTER:                  -5.924
REMARK INTRA:                  -0.285
REMARK UNBOUND:                -0.516
REMARK SMILES O=C([O-])CCCCCCCC(=O)[O-]
REMARK SMILES IDX 7 1 6 2 5 3 4 4 2 5 1 6 3 7 8 8 9 9 10 10 11 11 12 12 13 13
REMARK H PARENT
REMARK Flexibility Score: inf
ROOT
ATOM      1  C   UNL     1     -10.930 -10.748   5.919  1.00  0.00     0.000 C 
ENDROOT
BRANCH   1   2
ATOM      2  C   UNL     1     -12.159 -11.152   6.742  1.00  0.00     0.000 C 
BRANCH   2   3
ATOM      3  C   UNL     1     -13.261 -10.091   6.645  1.00  0.00     0.006 C 
BRANCH   3   4
ATOM      4  C   UNL     1     -13.717  -9.644   8.037  1.00  0.00     0.053 C 
BRANCH   4   5
ATOM      5  C   UNL     1     -15.202  -9.770   8.167  1.00  0.00     0.041 C 
ATOM      6  O   UNL     1     -15.911  -9.988   7.148  1.00  0.00    -0.550 OA
ATOM      7  O   UNL     1     -15.799  -9.694   9.418  1.00  0.00    -0.550 OA
ENDBRANCH   4   5
ENDBRANCH   3   4
ENDBRANCH   2   3
ENDBRANCH   1   2
BRANCH   1   8
ATOM      8  C   UNL     1      -9.665 -10.735   6.787  1.00  0.00     0.000 C 
BRANCH   8   9
ATOM      9  C   UNL     1      -9.207 -12.161   7.111  1.00  0.00     0.006 C 
BRANCH   9  10
ATOM     10  C   UNL     1      -9.111 -13.011   5.841  1.00  0.00     0.053 C 
BRANCH  10  11
ATOM     11  C   UNL     1      -7.795 -13.720   5.782  1.00  0.00     0.041 C 
ATOM     12  O   UNL     1      -7.301 -14.226   6.823  1.00  0.00    -0.550 OA
ATOM     13  O   UNL     1      -7.091 -13.780   4.586  1.00  0.00    -0.550 OA
ENDBRANCH  10  11
ENDBRANCH   9  10
ENDBRANCH   8   9
ENDBRANCH   1   8
TORSDOF 8
ENDMDL
MODEL 7
REMARK VINA RESULT:    -3.844      2.773      7.028
REMARK INTER + INTRA:          -6.159
REMARK INTER:                  -5.824
REMARK INTRA:                  -0.334
REMARK UNBOUND:                -0.516
REMARK SMILES O=C([O-])CCCCCCCC(=O)[O-]
REMARK SMILES IDX 7 1 6 2 5 3 4 4 2 5 1 6 3 7 8 8 9 9 10 10 11 11 12 12 13 13
REMARK H PARENT
REMARK Flexibility Score: inf
ROOT
ATOM      1  C   UNL     1      -9.054 -12.207   6.586  1.00  0.00     0.000 C 
ENDROOT
BRANCH   1   2
ATOM      2  C   UNL     1      -9.540 -13.286   5.611  1.00  0.00     0.000 C 
BRANCH   2   3
ATOM      3  C   UNL     1      -8.373 -13.865   4.803  1.00  0.00     0.006 C 
BRANCH   3   4
ATOM      4  C   UNL     1      -7.142 -14.073   5.689  1.00  0.00     0.053 C 
BRANCH   4   5
ATOM      5  C   UNL     1      -6.539 -15.420   5.439  1.00  0.00     0.041 C 
ATOM      6  O   UNL     1      -5.305 -15.604   5.616  1.00  0.00    -0.550 OA
ATOM      7  O   UNL     1      -7.346 -16.484   5.060  1.00  0.00    -0.550 OA
ENDBRANCH   4   5
ENDBRANCH   3   4
ENDBRANCH   2   3
ENDBRANCH   1   2
BRANCH   1   8
ATOM      8  C   UNL     1     -10.019 -11.016   6.618  1.00  0.00     0.000 C 
BRANCH   8   9
ATOM      9  C   UNL     1     -11.474 -11.484   6.499  1.00  0.00     0.006 C 
BRANCH   9  10
ATOM     10  C   UNL     1     -12.412 -10.301   6.242  1.00  0.00     0.053 C 
BRANCH  10  11
ATOM     11  C   UNL     1     -13.507 -10.269   7.262  1.00  0.00     0.041 C 
ATOM     12  O   UNL     1     -13.230 -10.308   8.489  1.00  0.00    -0.550 OA
ATOM     13  O   UNL     1     -14.835 -10.245   6.856  1.00  0.00    -0.550 OA
ENDBRANCH  10  11
ENDBRANCH   9  10
ENDBRANCH   8   9
ENDBRANCH   1   8
TORSDOF 8
ENDMDL
MODEL 8
REMARK VINA RESULT:    -3.771      9.182     12.032
REMARK INTER + INTRA:          -6.051
REMARK INTER:                  -5.632
REMARK INTRA:                  -0.419
REMARK UNBOUND:                -0.516
REMARK SMILES O=C([O-])CCCCCCCC(=O)[O-]
REMARK SMILES IDX 7 1 6 2 5 3 4 4 2 5 1 6 3 7 8 8 9 9 10 10 11 11 12 12 13 13
REMARK H PARENT
REMARK Flexibility Score: inf
ROOT
ATOM      1  C   UNL     1      -5.632 -16.002   4.914  1.00  0.00     0.000 C 
ENDROOT
BRANCH   1   2
ATOM      2  C   UNL     1      -4.143 -16.359   4.995  1.00  0.00     0.000 C 
BRANCH   2   3
ATOM      3  C   UNL     1      -3.618 -16.845   3.639  1.00  0.00     0.006 C 
BRANCH   3   4
ATOM      4  C   UNL     1      -3.225 -18.324   3.701  1.00  0.00     0.053 C 
BRANCH   4   5
ATOM      5  C   UNL     1      -1.776 -18.495   3.366  1.00  0.00     0.041 C 
ATOM      6  O   UNL     1      -0.893 -18.245   4.229  1.00  0.00    -0.550 OA
ATOM      7  O   UNL     1      -1.403 -18.975   2.119  1.00  0.00    -0.550 OA
ENDBRANCH   4   5
ENDBRANCH   3   4
ENDBRANCH   2   3
ENDBRANCH   1   2
BRANCH   1   8
ATOM      8  C   UNL     1      -6.488 -17.039   5.653  1.00  0.00     0.000 C 
BRANCH   8   9
ATOM      9  C   UNL     1      -7.599 -17.581   4.747  1.00  0.00     0.006 C 
BRANCH   9  10
ATOM     10  C   UNL     1      -7.589 -19.112   4.721  1.00  0.00     0.053 C 
BRANCH  10  11
ATOM     11  C   UNL     1      -8.526 -19.625   3.674  1.00  0.00     0.041 C 
ATOM     12  O   UNL     1      -8.398 -20.795   3.227  1.00  0.00    -0.550 OA
ATOM     13  O   UNL     1      -9.512 -18.794   3.155  1.00  0.00    -0.550 OA
ENDBRANCH  10  11
ENDBRANCH   9  10
ENDBRANCH   8   9
ENDBRANCH   1   8
TORSDOF 8
ENDMDL
MODEL 9
REMARK VINA RESULT:    -3.747      2.093      4.859
REMARK INTER + INTRA:          -6.016
REMARK INTER:                  -5.354
REMARK INTRA:                  -0.662
REMARK UNBOUND:                -0.516
REMARK SMILES O=C([O-])CCCCCCCC(=O)[O-]
REMARK SMILES IDX 7 1 6 2 5 3 4 4 2 5 1 6 3 7 8 8 9 9 10 10 11 11 12 12 13 13
REMARK H PARENT
REMARK Flexibility Score: inf
ROOT
ATOM      1  C   UNL     1     -10.925 -11.364   6.136  1.00  0.00     0.000 C 
ENDROOT
BRANCH   1   2
ATOM      2  C   UNL     1      -9.670 -11.985   6.760  1.00  0.00     0.000 C 
BRANCH   2   3
ATOM      3  C   UNL     1      -9.107 -11.091   7.872  1.00  0.00     0.006 C 
BRANCH   3   4
ATOM      4  C   UNL     1      -9.098 -11.825   9.215  1.00  0.00     0.053 C 
BRANCH   4   5
ATOM      5  C   UNL     1     -10.219 -11.346  10.082  1.00  0.00     0.041 C 
ATOM      6  O   UNL     1     -10.522 -11.974  11.131  1.00  0.00    -0.550 OA
ATOM      7  O   UNL     1     -10.897 -10.179   9.758  1.00  0.00    -0.550 OA
ENDBRANCH   4   5
ENDBRANCH   3   4
ENDBRANCH   2   3
ENDBRANCH   1   2
BRANCH   1   8
ATOM      8  C   UNL     1     -10.894  -9.835   6.239  1.00  0.00     0.000 C 
BRANCH   8   9
ATOM      9  C   UNL     1     -12.269  -9.281   6.627  1.00  0.00     0.006 C 
BRANCH   9  10
ATOM     10  C   UNL     1     -13.321 -10.393   6.658  1.00  0.00     0.053 C 
BRANCH  10  11
ATOM     11  C   UNL     1     -14.416 -10.053   7.620  1.00  0.00     0.041 C 
ATOM     12  O   UNL     1     -14.157  -9.882   8.839  1.00  0.00    -0.550 OA
ATOM     13  O   UNL     1     -15.730  -9.973   7.177  1.00  0.00    -0.550 OA
ENDBRANCH  10  11
ENDBRANCH   9  10
ENDBRANCH   8   9
ENDBRANCH   1   8
TORSDOF 8
ENDMDL
