MODEL 1
REMARK VINA RESULT:    -5.496      0.000      0.000
REMARK INTER + INTRA:          -6.351
REMARK INTER:                  -6.299
REMARK INTRA:                  -0.052
REMARK UNBOUND:                -0.052
REMARK SMILES O=C([O-])c1cc(O)c(O)c(O)c1
REMARK SMILES IDX 4 1 5 2 12 3 6 4 10 5 8 6 2 7 1 8 3 9 7 10 11 12 9 14
REMARK H PARENT 7 11 11 13 9 15
REMARK Flexibility Score: inf
ROOT
ATOM      1  C   UNL     1     -30.928  -3.243 -18.693  1.00  0.00     0.005 A 
ATOM      2  C   UNL     1     -30.186  -2.664 -19.735  1.00  0.00     0.060 A 
ATOM      3  C   UNL     1     -32.318  -3.367 -18.836  1.00  0.00     0.060 A 
ATOM      4  C   UNL     1     -30.812  -2.213 -20.902  1.00  0.00     0.162 A 
ATOM      5  C   UNL     1     -32.959  -2.921 -19.996  1.00  0.00     0.162 A 
ATOM      6  C   UNL     1     -32.215  -2.341 -21.039  1.00  0.00     0.200 A 
ENDROOT
BRANCH   1   7
ATOM      7  C   UNL     1     -30.258  -3.718 -17.462  1.00  0.00     0.072 C 
ATOM      8  O   UNL     1     -30.909  -3.862 -16.393  1.00  0.00    -0.545 OA
ATOM      9  O   UNL     1     -28.900  -4.012 -17.468  1.00  0.00    -0.545 OA
ENDBRANCH   1   7
BRANCH   4  10
ATOM     10  O   UNL     1     -30.005  -1.648 -21.893  1.00  0.00    -0.504 OA
ATOM     11  H   UNL     1     -29.632  -0.711 -21.854  1.00  0.00     0.293 HD
ENDBRANCH   4  10
BRANCH   5  12
ATOM     12  O   UNL     1     -34.344  -3.066 -20.093  1.00  0.00    -0.504 OA
ATOM     13  H   UNL     1     -34.983  -2.314 -19.871  1.00  0.00     0.293 HD
ENDBRANCH   5  12
BRANCH   6  14
ATOM     14  O   UNL     1     -32.896  -1.909 -22.181  1.00  0.00    -0.502 OA
ATOM     15  H   UNL     1     -33.862  -2.124 -22.380  1.00  0.00     0.293 HD
ENDBRANCH   6  14
TORSDOF 4
ENDMDL
MODEL 2
REMARK VINA RESULT:    -5.483      0.145      2.449
REMARK INTER + INTRA:          -6.336
REMARK INTER:                  -6.285
REMARK INTRA:                  -0.051
REMARK UNBOUND:                -0.052
REMARK SMILES O=C([O-])c1cc(O)c(O)c(O)c1
REMARK SMILES IDX 4 1 5 2 12 3 6 4 10 5 8 6 2 7 1 8 3 9 7 10 11 12 9 14
REMARK H PARENT 7 11 11 13 9 15
REMARK Flexibility Score: inf
ROOT
ATOM      1  C   UNL     1     -31.069  -3.272 -18.656  1.00  0.00     0.005 A 
ATOM      2  C   UNL     1     -32.459  -3.391 -18.822  1.00  0.00     0.060 A 
ATOM      3  C   UNL     1     -30.310  -2.695 -19.684  1.00  0.00     0.060 A 
ATOM      4  C   UNL     1     -33.087  -2.943 -19.989  1.00  0.00     0.162 A 
ATOM      5  C   UNL     1     -30.922  -2.243 -20.857  1.00  0.00     0.162 A 
ATOM      6  C   UNL     1     -32.314  -2.362 -21.022  1.00  0.00     0.200 A 
ENDROOT
BRANCH   1   7
ATOM      7  C   UNL     1     -30.412  -3.748 -17.419  1.00  0.00     0.072 C 
ATOM      8  O   UNL     1     -31.046  -3.790 -16.331  1.00  0.00    -0.545 OA
ATOM      9  O   UNL     1     -29.084  -4.157 -17.439  1.00  0.00    -0.545 OA
ENDBRANCH   1   7
BRANCH   4  10
ATOM     10  O   UNL     1     -34.473  -3.097 -20.078  1.00  0.00    -0.504 OA
ATOM     11  H   UNL     1     -34.985  -3.868 -19.675  1.00  0.00     0.293 HD
ENDBRANCH   4  10
BRANCH   5  12
ATOM     12  O   UNL     1     -30.125  -1.674 -21.852  1.00  0.00    -0.504 OA
ATOM     13  H   UNL     1     -29.144  -1.903 -21.956  1.00  0.00     0.293 HD
ENDBRANCH   5  12
BRANCH   6  14
ATOM     14  O   UNL     1     -32.885  -1.897 -22.210  1.00  0.00    -0.502 OA
ATOM     15  H   UNL     1     -33.391  -2.478 -22.862  1.00  0.00     0.293 HD
ENDBRANCH   6  14
TORSDOF 4
ENDMDL
MODEL 3
REMARK VINA RESULT:    -5.382      1.209      3.965
REMARK INTER + INTRA:          -6.220
REMARK INTER:                  -6.168
REMARK INTRA:                  -0.052
REMARK UNBOUND:                -0.052
REMARK SMILES O=C([O-])c1cc(O)c(O)c(O)c1
REMARK SMILES IDX 4 1 5 2 12 3 6 4 10 5 8 6 2 7 1 8 3 9 7 10 11 12 9 14
REMARK H PARENT 7 11 11 13 9 15
REMARK Flexibility Score: inf
ROOT
ATOM      1  C   UNL     1     -30.945  -2.476 -20.423  1.00  0.00     0.005 A 
ATOM      2  C   UNL     1     -32.281  -2.731 -20.774  1.00  0.00     0.060 A 
ATOM      3  C   UNL     1     -30.541  -2.680 -19.096  1.00  0.00     0.060 A 
ATOM      4  C   UNL     1     -33.203  -3.182 -19.823  1.00  0.00     0.162 A 
ATOM      5  C   UNL     1     -31.449  -3.130 -18.133  1.00  0.00     0.162 A 
ATOM      6  C   UNL     1     -32.787  -3.385 -18.486  1.00  0.00     0.200 A 
ENDROOT
BRANCH   1   7
ATOM      7  C   UNL     1     -29.976  -2.000 -21.435  1.00  0.00     0.072 C 
ATOM      8  O   UNL     1     -30.374  -1.552 -22.543  1.00  0.00    -0.545 OA
ATOM      9  O   UNL     1     -28.611  -2.038 -21.176  1.00  0.00    -0.545 OA
ENDBRANCH   1   7
BRANCH   4  10
ATOM     10  O   UNL     1     -34.513  -3.413 -20.250  1.00  0.00    -0.504 OA
ATOM     11  H   UNL     1     -34.802  -3.415 -21.217  1.00  0.00     0.293 HD
ENDBRANCH   4  10
BRANCH   5  12
ATOM     12  O   UNL     1     -31.000  -3.320 -16.826  1.00  0.00    -0.504 OA
ATOM     13  H   UNL     1     -31.634  -3.384 -16.040  1.00  0.00     0.293 HD
ENDBRANCH   5  12
BRANCH   6  14
ATOM     14  O   UNL     1     -33.661  -3.835 -17.492  1.00  0.00    -0.502 OA
ATOM     15  H   UNL     1     -33.401  -4.471 -16.753  1.00  0.00     0.293 HD
ENDBRANCH   6  14
TORSDOF 4
ENDMDL
MODEL 4
REMARK VINA RESULT:    -5.353      1.796      3.490
REMARK INTER + INTRA:          -6.187
REMARK INTER:                  -6.141
REMARK INTRA:                  -0.045
REMARK UNBOUND:                -0.052
REMARK SMILES O=C([O-])c1cc(O)c(O)c(O)c1
REMARK SMILES IDX 4 1 5 2 12 3 6 4 10 5 8 6 2 7 1 8 3 9 7 10 11 12 9 14
REMARK H PARENT 7 11 11 13 9 15
REMARK Flexibility Score: inf
ROOT
ATOM      1  C   UNL     1     -33.654  -3.616 -18.593  1.00  0.00     0.005 A 
ATOM      2  C   UNL     1     -32.389  -3.588 -17.984  1.00  0.00     0.060 A 
ATOM      3  C   UNL     1     -33.788  -3.129 -19.902  1.00  0.00     0.060 A 
ATOM      4  C   UNL     1     -31.272  -3.087 -18.662  1.00  0.00     0.162 A 
ATOM      5  C   UNL     1     -32.683  -2.625 -20.594  1.00  0.00     0.162 A 
ATOM      6  C   UNL     1     -31.416  -2.598 -19.982  1.00  0.00     0.200 A 
ENDROOT
BRANCH   1   7
ATOM      7  C   UNL     1     -34.830  -4.147 -17.869  1.00  0.00     0.072 C 
ATOM      8  O   UNL     1     -35.347  -3.498 -16.922  1.00  0.00    -0.545 OA
ATOM      9  O   UNL     1     -35.380  -5.373 -18.224  1.00  0.00    -0.545 OA
ENDBRANCH   1   7
BRANCH   4  10
ATOM     10  O   UNL     1     -30.048  -3.094 -17.988  1.00  0.00    -0.504 OA
ATOM     11  H   UNL     1     -29.411  -2.312 -17.963  1.00  0.00     0.293 HD
ENDBRANCH   4  10
BRANCH   5  12
ATOM     12  O   UNL     1     -32.865  -2.153 -21.894  1.00  0.00    -0.504 OA
ATOM     13  H   UNL     1     -32.307  -1.403 -22.281  1.00  0.00     0.293 HD
ENDBRANCH   5  12
BRANCH   6  14
ATOM     14  O   UNL     1     -30.338  -2.086 -20.710  1.00  0.00    -0.502 OA
ATOM     15  H   UNL     1     -29.850  -1.233 -20.476  1.00  0.00     0.293 HD
ENDBRANCH   6  14
TORSDOF 4
ENDMDL
MODEL 5
REMARK VINA RESULT:    -5.348      1.235      3.649
REMARK INTER + INTRA:          -6.181
REMARK INTER:                  -6.129
REMARK INTRA:                  -0.052
REMARK UNBOUND:                -0.052
REMARK SMILES O=C([O-])c1cc(O)c(O)c(O)c1
REMARK SMILES IDX 4 1 5 2 12 3 6 4 10 5 8 6 2 7 1 8 3 9 7 10 11 12 9 14
REMARK H PARENT 7 11 11 13 9 15
REMARK Flexibility Score: inf
ROOT
ATOM      1  C   UNL     1     -30.964  -2.483 -20.436  1.00  0.00     0.005 A 
ATOM      2  C   UNL     1     -30.604  -2.709 -19.097  1.00  0.00     0.060 A 
ATOM      3  C   UNL     1     -32.280  -2.751 -20.840  1.00  0.00     0.060 A 
ATOM      4  C   UNL     1     -31.535  -3.193 -18.172  1.00  0.00     0.162 A 
ATOM      5  C   UNL     1     -33.223  -3.235 -19.928  1.00  0.00     0.162 A 
ATOM      6  C   UNL     1     -32.861  -3.461 -18.588  1.00  0.00     0.200 A 
ENDROOT
BRANCH   1   7
ATOM      7  C   UNL     1     -29.973  -1.971 -21.408  1.00  0.00     0.072 C 
ATOM      8  O   UNL     1     -30.346  -1.487 -22.509  1.00  0.00    -0.545 OA
ATOM      9  O   UNL     1     -28.614  -2.017 -21.119  1.00  0.00    -0.545 OA
ENDBRANCH   1   7
BRANCH   4  10
ATOM     10  O   UNL     1     -31.101  -3.391 -16.859  1.00  0.00    -0.504 OA
ATOM     11  H   UNL     1     -30.895  -2.645 -16.211  1.00  0.00     0.293 HD
ENDBRANCH   4  10
BRANCH   5  12
ATOM     12  O   UNL     1     -34.520  -3.486 -20.377  1.00  0.00    -0.504 OA
ATOM     13  H   UNL     1     -34.709  -4.002 -21.227  1.00  0.00     0.293 HD
ENDBRANCH   5  12
BRANCH   6  14
ATOM     14  O   UNL     1     -33.836  -3.945 -17.710  1.00  0.00    -0.502 OA
ATOM     15  H   UNL     1     -34.279  -4.848 -17.797  1.00  0.00     0.293 HD
ENDBRANCH   6  14
TORSDOF 4
ENDMDL
MODEL 6
REMARK VINA RESULT:    -5.310      1.821      3.683
REMARK INTER + INTRA:          -6.137
REMARK INTER:                  -6.092
REMARK INTRA:                  -0.045
REMARK UNBOUND:                -0.052
REMARK SMILES O=C([O-])c1cc(O)c(O)c(O)c1
REMARK SMILES IDX 4 1 5 2 12 3 6 4 10 5 8 6 2 7 1 8 3 9 7 10 11 12 9 14
REMARK H PARENT 7 11 11 13 9 15
REMARK Flexibility Score: inf
ROOT
ATOM      1  C   UNL     1     -33.680  -3.634 -18.584  1.00  0.00     0.005 A 
ATOM      2  C   UNL     1     -33.807  -3.143 -19.894  1.00  0.00     0.060 A 
ATOM      3  C   UNL     1     -32.415  -3.631 -17.978  1.00  0.00     0.060 A 
ATOM      4  C   UNL     1     -32.697  -2.656 -20.593  1.00  0.00     0.162 A 
ATOM      5  C   UNL     1     -31.295  -3.148 -18.662  1.00  0.00     0.162 A 
ATOM      6  C   UNL     1     -31.424  -2.657 -19.974  1.00  0.00     0.200 A 
ENDROOT
BRANCH   1   7
ATOM      7  C   UNL     1     -34.859  -4.147 -17.852  1.00  0.00     0.072 C 
ATOM      8  O   UNL     1     -35.342  -5.277 -18.126  1.00  0.00    -0.545 OA
ATOM      9  O   UNL     1     -35.451  -3.387 -16.850  1.00  0.00    -0.545 OA
ENDBRANCH   1   7
BRANCH   4  10
ATOM     10  O   UNL     1     -32.904  -2.185 -21.891  1.00  0.00    -0.504 OA
ATOM     11  H   UNL     1     -33.810  -1.950 -22.271  1.00  0.00     0.293 HD
ENDBRANCH   4  10
BRANCH   5  12
ATOM     12  O   UNL     1     -30.058  -3.165 -18.017  1.00  0.00    -0.504 OA
ATOM     13  H   UNL     1     -29.922  -2.764 -17.097  1.00  0.00     0.293 HD
ENDBRANCH   5  12
BRANCH   6  14
ATOM     14  O   UNL     1     -30.279  -2.183 -20.621  1.00  0.00    -0.502 OA
ATOM     15  H   UNL     1     -29.335  -2.428 -20.356  1.00  0.00     0.293 HD
ENDBRANCH   6  14
TORSDOF 4
ENDMDL
MODEL 7
REMARK VINA RESULT:    -5.113      7.732      9.152
REMARK INTER + INTRA:          -5.912
REMARK INTER:                  -5.865
REMARK INTRA:                  -0.047
REMARK UNBOUND:                -0.052
REMARK SMILES O=C([O-])c1cc(O)c(O)c(O)c1
REMARK SMILES IDX 4 1 5 2 12 3 6 4 10 5 8 6 2 7 1 8 3 9 7 10 11 12 9 14
REMARK H PARENT 7 11 11 13 9 15
REMARK Flexibility Score: inf
ROOT
ATOM      1  C   UNL     1     -36.872  -5.948 -14.141  1.00  0.00     0.005 A 
ATOM      2  C   UNL     1     -36.252  -7.030 -14.789  1.00  0.00     0.060 A 
ATOM      3  C   UNL     1     -38.269  -5.938 -14.023  1.00  0.00     0.060 A 
ATOM      4  C   UNL     1     -37.006  -8.086 -15.311  1.00  0.00     0.162 A 
ATOM      5  C   UNL     1     -39.038  -6.985 -14.539  1.00  0.00     0.162 A 
ATOM      6  C   UNL     1     -38.416  -8.068 -15.188  1.00  0.00     0.200 A 
ENDROOT
BRANCH   1   7
ATOM      7  C   UNL     1     -36.067  -4.835 -13.591  1.00  0.00     0.072 C 
ATOM      8  O   UNL     1     -35.223  -4.238 -14.310  1.00  0.00    -0.545 OA
ATOM      9  O   UNL     1     -36.231  -4.433 -12.270  1.00  0.00    -0.545 OA
ENDBRANCH   1   7
BRANCH   4  10
ATOM     10  O   UNL     1     -36.317  -9.125 -15.941  1.00  0.00    -0.504 OA
ATOM     11  H   UNL     1     -35.680  -9.751 -15.469  1.00  0.00     0.293 HD
ENDBRANCH   4  10
BRANCH   5  12
ATOM     12  O   UNL     1     -40.425  -6.931 -14.397  1.00  0.00    -0.504 OA
ATOM     13  H   UNL     1     -40.912  -6.074 -14.168  1.00  0.00     0.293 HD
ENDBRANCH   5  12
BRANCH   6  14
ATOM     14  O   UNL     1     -39.223  -9.094 -15.689  1.00  0.00    -0.502 OA
ATOM     15  H   UNL     1     -40.140  -9.320 -15.333  1.00  0.00     0.293 HD
ENDBRANCH   6  14
TORSDOF 4
ENDMDL
MODEL 8
REMARK VINA RESULT:    -5.076      7.692      9.282
REMARK INTER + INTRA:          -5.870
REMARK INTER:                  -5.824
REMARK INTRA:                  -0.046
REMARK UNBOUND:                -0.052
REMARK SMILES O=C([O-])c1cc(O)c(O)c(O)c1
REMARK SMILES IDX 4 1 5 2 12 3 6 4 10 5 8 6 2 7 1 8 3 9 7 10 11 12 9 14
REMARK H PARENT 7 11 11 13 9 15
REMARK Flexibility Score: inf
ROOT
ATOM      1  C   UNL     1     -36.836  -5.949 -14.154  1.00  0.00     0.005 A 
ATOM      2  C   UNL     1     -38.237  -5.920 -14.067  1.00  0.00     0.060 A 
ATOM      3  C   UNL     1     -36.217  -7.032 -14.796  1.00  0.00     0.060 A 
ATOM      4  C   UNL     1     -39.014  -6.950 -14.609  1.00  0.00     0.162 A 
ATOM      5  C   UNL     1     -36.978  -8.069 -15.342  1.00  0.00     0.162 A 
ATOM      6  C   UNL     1     -38.382  -8.039 -15.254  1.00  0.00     0.200 A 
ENDROOT
BRANCH   1   7
ATOM      7  C   UNL     1     -36.021  -4.856 -13.579  1.00  0.00     0.072 C 
ATOM      8  O   UNL     1     -36.006  -4.652 -12.336  1.00  0.00    -0.545 OA
ATOM      9  O   UNL     1     -35.259  -4.036 -14.404  1.00  0.00    -0.545 OA
ENDBRANCH   1   7
BRANCH   4  10
ATOM     10  O   UNL     1     -40.402  -6.849 -14.482  1.00  0.00    -0.504 OA
ATOM     11  H   UNL     1     -41.058  -7.483 -14.914  1.00  0.00     0.293 HD
ENDBRANCH   4  10
BRANCH   5  12
ATOM     12  O   UNL     1     -36.318  -9.125 -15.971  1.00  0.00    -0.504 OA
ATOM     13  H   UNL     1     -35.308  -9.179 -16.020  1.00  0.00     0.293 HD
ENDBRANCH   5  12
BRANCH   6  14
ATOM     14  O   UNL     1     -39.105  -9.097 -15.814  1.00  0.00    -0.502 OA
ATOM     15  H   UNL     1     -39.972  -9.453 -15.438  1.00  0.00     0.293 HD
ENDBRANCH   6  14
TORSDOF 4
ENDMDL
MODEL 9
REMARK VINA RESULT:    -4.884      3.057      4.552
REMARK INTER + INTRA:          -5.649
REMARK INTER:                  -5.604
REMARK INTRA:                  -0.045
REMARK UNBOUND:                -0.052
REMARK SMILES O=C([O-])c1cc(O)c(O)c(O)c1
REMARK SMILES IDX 4 1 5 2 12 3 6 4 10 5 8 6 2 7 1 8 3 9 7 10 11 12 9 14
REMARK H PARENT 7 11 11 13 9 15
REMARK Flexibility Score: inf
ROOT
ATOM      1  C   UNL     1     -34.863  -4.066 -17.800  1.00  0.00     0.005 A 
ATOM      2  C   UNL     1     -35.523  -4.648 -18.894  1.00  0.00     0.060 A 
ATOM      3  C   UNL     1     -33.574  -3.544 -17.984  1.00  0.00     0.060 A 
ATOM      4  C   UNL     1     -34.916  -4.712 -20.153  1.00  0.00     0.162 A 
ATOM      5  C   UNL     1     -32.952  -3.599 -19.235  1.00  0.00     0.162 A 
ATOM      6  C   UNL     1     -33.615  -4.183 -20.330  1.00  0.00     0.200 A 
ENDROOT
BRANCH   1   7
ATOM      7  C   UNL     1     -35.512  -4.003 -16.472  1.00  0.00     0.072 C 
ATOM      8  O   UNL     1     -35.675  -5.048 -15.787  1.00  0.00    -0.545 OA
ATOM      9  O   UNL     1     -35.953  -2.788 -15.961  1.00  0.00    -0.545 OA
ENDBRANCH   1   7
BRANCH   4  10
ATOM     10  O   UNL     1     -35.637  -5.306 -21.192  1.00  0.00    -0.504 OA
ATOM     11  H   UNL     1     -36.476  -5.852 -21.059  1.00  0.00     0.293 HD
ENDBRANCH   4  10
BRANCH   5  12
ATOM     12  O   UNL     1     -31.670  -3.066 -19.369  1.00  0.00    -0.504 OA
ATOM     13  H   UNL     1     -31.509  -2.084 -19.557  1.00  0.00     0.293 HD
ENDBRANCH   5  12
BRANCH   6  14
ATOM     14  O   UNL     1     -32.957  -4.217 -21.563  1.00  0.00    -0.502 OA
ATOM     15  H   UNL     1     -32.378  -3.469 -21.918  1.00  0.00     0.293 HD
ENDBRANCH   6  14
TORSDOF 4
ENDMDL
