MODEL 1
REMARK VINA RESULT:    -5.064      0.000      0.000
REMARK INTER + INTRA:          -5.853
REMARK INTER:                  -5.805
REMARK INTRA:                  -0.049
REMARK UNBOUND:                -0.049
REMARK SMILES O=C([O-])C=Cc1ccc(O)cc1
REMARK SMILES IDX 6 1 7 2 12 3 8 4 11 5 9 6 5 7 4 8 2 9 1 10 3 11 10 12
REMARK H PARENT 10 13
REMARK Flexibility Score: inf
ROOT
ATOM      1  C   UNL     1      19.017  25.995  36.572  1.00  0.00    -0.025 A 
ATOM      2  C   UNL     1      17.643  26.157  36.802  1.00  0.00     0.012 A 
ATOM      3  C   UNL     1      19.847  27.129  36.534  1.00  0.00     0.012 A 
ATOM      4  C   UNL     1      17.097  27.438  36.938  1.00  0.00     0.047 A 
ATOM      5  C   UNL     1      19.299  28.408  36.669  1.00  0.00     0.047 A 
ATOM      6  C   UNL     1      17.924  28.566  36.868  1.00  0.00     0.115 A 
ENDROOT
BRANCH   1   7
ATOM      7  C   UNL     1      19.580  24.631  36.485  1.00  0.00     0.010 C 
ATOM      8  C   UNL     1      19.658  23.893  35.366  1.00  0.00     0.025 C 
BRANCH   8   9
ATOM      9  C   UNL     1      19.032  24.230  34.075  1.00  0.00     0.064 C 
ATOM     10  O   UNL     1      19.729  24.201  33.027  1.00  0.00    -0.545 OA
ATOM     11  O   UNL     1      17.674  24.508  33.976  1.00  0.00    -0.545 OA
ENDBRANCH   8   9
ENDBRANCH   1   7
BRANCH   6  12
ATOM     12  O   UNL     1      17.392  29.847  37.001  1.00  0.00    -0.508 OA
ATOM     13  H   UNL     1      16.467  29.998  37.388  1.00  0.00     0.293 HD
ENDBRANCH   6  12
TORSDOF 3
ENDMDL
MODEL 2
REMARK VINA RESULT:    -4.651     14.434     16.341
REMARK INTER + INTRA:          -5.380
REMARK INTER:                  -5.171
REMARK INTRA:                  -0.209
REMARK UNBOUND:                -0.049
REMARK SMILES O=C([O-])C=Cc1ccc(O)cc1
REMARK SMILES IDX 6 1 7 2 12 3 8 4 11 5 9 6 5 7 4 8 2 9 1 10 3 11 10 12
REMARK H PARENT 10 13
REMARK Flexibility Score: inf
ROOT
ATOM      1  C   UNL     1      19.734  23.185  20.909  1.00  0.00    -0.025 A 
ATOM      2  C   UNL     1      19.291  23.835  19.747  1.00  0.00     0.012 A 
ATOM      3  C   UNL     1      20.997  22.566  20.912  1.00  0.00     0.012 A 
ATOM      4  C   UNL     1      20.075  23.821  18.588  1.00  0.00     0.047 A 
ATOM      5  C   UNL     1      21.778  22.553  19.753  1.00  0.00     0.047 A 
ATOM      6  C   UNL     1      21.319  23.177  18.588  1.00  0.00     0.115 A 
ENDROOT
BRANCH   1   7
ATOM      7  C   UNL     1      18.914  23.259  22.136  1.00  0.00     0.010 C 
ATOM      8  C   UNL     1      18.000  22.352  22.514  1.00  0.00     0.025 C 
BRANCH   8   9
ATOM      9  C   UNL     1      17.516  21.230  21.689  1.00  0.00     0.064 C 
ATOM     10  O   UNL     1      17.628  20.054  22.125  1.00  0.00    -0.545 OA
ATOM     11  O   UNL     1      16.875  21.443  20.476  1.00  0.00    -0.545 OA
ENDBRANCH   8   9
ENDBRANCH   1   7
BRANCH   6  12
ATOM     12  O   UNL     1      22.107  23.155  17.440  1.00  0.00    -0.508 OA
ATOM     13  H   UNL     1      22.657  23.959  17.161  1.00  0.00     0.293 HD
ENDBRANCH   6  12
TORSDOF 3
ENDMDL
MODEL 3
REMARK VINA RESULT:    -4.603      5.459      7.993
REMARK INTER + INTRA:          -5.324
REMARK INTER:                  -5.045
REMARK INTRA:                  -0.279
REMARK UNBOUND:                -0.049
REMARK SMILES O=C([O-])C=Cc1ccc(O)cc1
REMARK SMILES IDX 6 1 7 2 12 3 8 4 11 5 9 6 5 7 4 8 2 9 1 10 3 11 10 12
REMARK H PARENT 10 13
REMARK Flexibility Score: inf
ROOT
ATOM      1  C   UNL     1      21.327  33.154  35.686  1.00  0.00    -0.025 A 
ATOM      2  C   UNL     1      22.026  32.006  35.285  1.00  0.00     0.012 A 
ATOM      3  C   UNL     1      20.272  33.030  36.607  1.00  0.00     0.012 A 
ATOM      4  C   UNL     1      21.643  30.746  35.755  1.00  0.00     0.047 A 
ATOM      5  C   UNL     1      19.890  31.770  37.076  1.00  0.00     0.047 A 
ATOM      6  C   UNL     1      20.571  30.624  36.650  1.00  0.00     0.115 A 
ENDROOT
BRANCH   1   7
ATOM      7  C   UNL     1      21.783  34.479  35.217  1.00  0.00     0.010 C 
ATOM      8  C   UNL     1      21.332  35.114  34.124  1.00  0.00     0.025 C 
BRANCH   8   9
ATOM      9  C   UNL     1      20.448  34.529  33.099  1.00  0.00     0.064 C 
ATOM     10  O   UNL     1      19.257  34.925  33.015  1.00  0.00    -0.545 OA
ATOM     11  O   UNL     1      20.919  33.603  32.176  1.00  0.00    -0.545 OA
ENDBRANCH   8   9
ENDBRANCH   1   7
BRANCH   6  12
ATOM     12  O   UNL     1      20.180  29.375  37.125  1.00  0.00    -0.508 OA
ATOM     13  H   UNL     1      19.204  29.105  37.162  1.00  0.00     0.293 HD
ENDBRANCH   6  12
TORSDOF 3
ENDMDL
MODEL 4
REMARK VINA RESULT:    -4.575     14.407     16.754
REMARK INTER + INTRA:          -5.293
REMARK INTER:                  -5.033
REMARK INTRA:                  -0.260
REMARK UNBOUND:                -0.049
REMARK SMILES O=C([O-])C=Cc1ccc(O)cc1
REMARK SMILES IDX 6 1 7 2 12 3 8 4 11 5 9 6 5 7 4 8 2 9 1 10 3 11 10 12
REMARK H PARENT 10 13
REMARK Flexibility Score: inf
ROOT
ATOM      1  C   UNL     1      20.621  22.721  19.916  1.00  0.00    -0.025 A 
ATOM      2  C   UNL     1      20.610  23.895  20.684  1.00  0.00     0.012 A 
ATOM      3  C   UNL     1      19.724  21.685  20.229  1.00  0.00     0.012 A 
ATOM      4  C   UNL     1      19.753  24.010  21.784  1.00  0.00     0.047 A 
ATOM      5  C   UNL     1      18.868  21.802  21.329  1.00  0.00     0.047 A 
ATOM      6  C   UNL     1      18.882  22.962  22.111  1.00  0.00     0.115 A 
ENDROOT
BRANCH   1   7
ATOM      7  C   UNL     1      21.496  22.643  18.727  1.00  0.00     0.010 C 
ATOM      8  C   UNL     1      21.165  23.053  17.492  1.00  0.00     0.025 C 
BRANCH   8   9
ATOM      9  C   UNL     1      19.818  23.472  17.062  1.00  0.00     0.064 C 
ATOM     10  O   UNL     1      18.933  22.597  16.875  1.00  0.00    -0.545 OA
ATOM     11  O   UNL     1      19.483  24.813  16.928  1.00  0.00    -0.545 OA
ENDBRANCH   8   9
ENDBRANCH   1   7
BRANCH   6  12
ATOM     12  O   UNL     1      18.025  23.065  23.204  1.00  0.00    -0.508 OA
ATOM     13  H   UNL     1      18.377  23.235  24.138  1.00  0.00     0.293 HD
ENDBRANCH   6  12
TORSDOF 3
ENDMDL
MODEL 5
REMARK VINA RESULT:    -4.341     14.474     16.390
REMARK INTER + INTRA:          -5.024
REMARK INTER:                  -4.875
REMARK INTRA:                  -0.149
REMARK UNBOUND:                -0.049
REMARK SMILES O=C([O-])C=Cc1ccc(O)cc1
REMARK SMILES IDX 6 1 7 2 12 3 8 4 11 5 9 6 5 7 4 8 2 9 1 10 3 11 10 12
REMARK H PARENT 10 13
REMARK Flexibility Score: inf
ROOT
ATOM      1  C   UNL     1      19.074  23.692  20.311  1.00  0.00    -0.025 A 
ATOM      2  C   UNL     1      18.444  22.710  19.531  1.00  0.00     0.012 A 
ATOM      3  C   UNL     1      19.019  23.597  21.713  1.00  0.00     0.012 A 
ATOM      4  C   UNL     1      17.723  21.679  20.143  1.00  0.00     0.047 A 
ATOM      5  C   UNL     1      18.297  22.566  22.321  1.00  0.00     0.047 A 
ATOM      6  C   UNL     1      17.645  21.607  21.539  1.00  0.00     0.115 A 
ENDROOT
BRANCH   1   7
ATOM      7  C   UNL     1      19.875  24.740  19.645  1.00  0.00     0.010 C 
ATOM      8  C   UNL     1      20.982  24.526  18.917  1.00  0.00     0.025 C 
BRANCH   8   9
ATOM      9  C   UNL     1      21.700  23.242  18.810  1.00  0.00     0.064 C 
ATOM     10  O   UNL     1      21.612  22.575  17.747  1.00  0.00    -0.545 OA
ATOM     11  O   UNL     1      22.530  22.787  19.827  1.00  0.00    -0.545 OA
ENDBRANCH   8   9
ENDBRANCH   1   7
BRANCH   6  12
ATOM     12  O   UNL     1      16.929  20.585  22.159  1.00  0.00    -0.508 OA
ATOM     13  H   UNL     1      17.314  19.654  22.257  1.00  0.00     0.293 HD
ENDBRANCH   6  12
TORSDOF 3
ENDMDL
MODEL 6
REMARK VINA RESULT:    -4.243     14.272     16.325
REMARK INTER + INTRA:          -4.912
REMARK INTER:                  -4.674
REMARK INTRA:                  -0.238
REMARK UNBOUND:                -0.049
REMARK SMILES O=C([O-])C=Cc1ccc(O)cc1
REMARK SMILES IDX 6 1 7 2 12 3 8 4 11 5 9 6 5 7 4 8 2 9 1 10 3 11 10 12
REMARK H PARENT 10 13
REMARK Flexibility Score: inf
ROOT
ATOM      1  C   UNL     1      19.598  21.460  20.664  1.00  0.00    -0.025 A 
ATOM      2  C   UNL     1      18.691  22.282  21.351  1.00  0.00     0.012 A 
ATOM      3  C   UNL     1      20.962  21.799  20.654  1.00  0.00     0.012 A 
ATOM      4  C   UNL     1      19.134  23.454  21.974  1.00  0.00     0.047 A 
ATOM      5  C   UNL     1      21.402  22.970  21.277  1.00  0.00     0.047 A 
ATOM      6  C   UNL     1      20.490  23.803  21.935  1.00  0.00     0.115 A 
ENDROOT
BRANCH   1   7
ATOM      7  C   UNL     1      19.116  20.200  20.061  1.00  0.00     0.010 C 
ATOM      8  C   UNL     1      18.541  20.088  18.853  1.00  0.00     0.025 C 
BRANCH   8   9
ATOM      9  C   UNL     1      18.117  21.214  18.000  1.00  0.00     0.064 C 
ATOM     10  O   UNL     1      16.904  21.549  17.983  1.00  0.00    -0.545 OA
ATOM     11  O   UNL     1      19.034  21.960  17.271  1.00  0.00    -0.545 OA
ENDBRANCH   8   9
ENDBRANCH   1   7
BRANCH   6  12
ATOM     12  O   UNL     1      20.943  24.967  22.550  1.00  0.00    -0.508 OA
ATOM     13  H   UNL     1      21.604  25.585  22.093  1.00  0.00     0.293 HD
ENDBRANCH   6  12
TORSDOF 3
ENDMDL
MODEL 7
REMARK VINA RESULT:    -4.205     15.051     16.113
REMARK INTER + INTRA:          -4.869
REMARK INTER:                  -4.640
REMARK INTRA:                  -0.228
REMARK UNBOUND:                -0.049
REMARK SMILES O=C([O-])C=Cc1ccc(O)cc1
REMARK SMILES IDX 6 1 7 2 12 3 8 4 11 5 9 6 5 7 4 8 2 9 1 10 3 11 10 12
REMARK H PARENT 10 13
REMARK Flexibility Score: inf
ROOT
ATOM      1  C   UNL     1      18.451  22.594  20.875  1.00  0.00    -0.025 A 
ATOM      2  C   UNL     1      18.388  23.021  19.540  1.00  0.00     0.012 A 
ATOM      3  C   UNL     1      19.300  23.265  21.773  1.00  0.00     0.012 A 
ATOM      4  C   UNL     1      19.203  24.069  19.096  1.00  0.00     0.047 A 
ATOM      5  C   UNL     1      20.112  24.311  21.327  1.00  0.00     0.047 A 
ATOM      6  C   UNL     1      20.069  24.714  19.988  1.00  0.00     0.115 A 
ENDROOT
BRANCH   1   7
ATOM      7  C   UNL     1      17.543  21.522  21.334  1.00  0.00     0.010 C 
ATOM      8  C   UNL     1      17.765  20.205  21.194  1.00  0.00     0.025 C 
BRANCH   8   9
ATOM      9  C   UNL     1      18.848  19.600  20.398  1.00  0.00     0.064 C 
ATOM     10  O   UNL     1      19.824  19.070  20.990  1.00  0.00    -0.545 OA
ATOM     11  O   UNL     1      18.782  19.535  19.012  1.00  0.00    -0.545 OA
ENDBRANCH   8   9
ENDBRANCH   1   7
BRANCH   6  12
ATOM     12  O   UNL     1      20.885  25.757  19.557  1.00  0.00    -0.508 OA
ATOM     13  H   UNL     1      21.773  25.953  20.003  1.00  0.00     0.293 HD
ENDBRANCH   6  12
TORSDOF 3
ENDMDL
MODEL 8
REMARK VINA RESULT:    -4.139     14.733     17.036
REMARK INTER + INTRA:          -4.792
REMARK INTER:                  -4.550
REMARK INTRA:                  -0.242
REMARK UNBOUND:                -0.049
REMARK SMILES O=C([O-])C=Cc1ccc(O)cc1
REMARK SMILES IDX 6 1 7 2 12 3 8 4 11 5 9 6 5 7 4 8 2 9 1 10 3 11 10 12
REMARK H PARENT 10 13
REMARK Flexibility Score: inf
ROOT
ATOM      1  C   UNL     1      20.052  23.193  18.833  1.00  0.00    -0.025 A 
ATOM      2  C   UNL     1      20.818  22.448  19.743  1.00  0.00     0.012 A 
ATOM      3  C   UNL     1      19.585  24.466  19.206  1.00  0.00     0.012 A 
ATOM      4  C   UNL     1      21.067  22.946  21.027  1.00  0.00     0.047 A 
ATOM      5  C   UNL     1      19.836  24.960  20.489  1.00  0.00     0.047 A 
ATOM      6  C   UNL     1      20.574  24.201  21.404  1.00  0.00     0.115 A 
ENDROOT
BRANCH   1   7
ATOM      7  C   UNL     1      19.846  22.671  17.466  1.00  0.00     0.010 C 
ATOM      8  C   UNL     1      18.897  21.794  17.105  1.00  0.00     0.025 C 
BRANCH   8   9
ATOM      9  C   UNL     1      18.020  21.053  18.030  1.00  0.00     0.064 C 
ATOM     10  O   UNL     1      16.884  21.519  18.306  1.00  0.00    -0.545 OA
ATOM     11  O   UNL     1      18.388  19.818  18.549  1.00  0.00    -0.545 OA
ENDBRANCH   8   9
ENDBRANCH   1   7
BRANCH   6  12
ATOM     12  O   UNL     1      20.816  24.706  22.679  1.00  0.00    -0.508 OA
ATOM     13  H   UNL     1      20.084  25.151  23.220  1.00  0.00     0.293 HD
ENDBRANCH   6  12
TORSDOF 3
ENDMDL
MODEL 9
REMARK VINA RESULT:    -3.820     14.182     16.501
REMARK INTER + INTRA:          -4.427
REMARK INTER:                  -4.221
REMARK INTRA:                  -0.205
REMARK UNBOUND:                -0.049
REMARK SMILES O=C([O-])C=Cc1ccc(O)cc1
REMARK SMILES IDX 6 1 7 2 12 3 8 4 11 5 9 6 5 7 4 8 2 9 1 10 3 11 10 12
REMARK H PARENT 10 13
REMARK Flexibility Score: inf
ROOT
ATOM      1  C   UNL     1      20.463  22.806  20.214  1.00  0.00    -0.025 A 
ATOM      2  C   UNL     1      19.537  21.756  20.298  1.00  0.00     0.012 A 
ATOM      3  C   UNL     1      20.453  23.813  21.195  1.00  0.00     0.012 A 
ATOM      4  C   UNL     1      18.578  21.741  21.317  1.00  0.00     0.047 A 
ATOM      5  C   UNL     1      19.494  23.796  22.212  1.00  0.00     0.047 A 
ATOM      6  C   UNL     1      18.552  22.763  22.275  1.00  0.00     0.115 A 
ENDROOT
BRANCH   1   7
ATOM      7  C   UNL     1      21.500  22.773  19.162  1.00  0.00     0.010 C 
ATOM      8  C   UNL     1      21.318  23.138  17.882  1.00  0.00     0.025 C 
BRANCH   8   9
ATOM      9  C   UNL     1      20.020  23.452  17.258  1.00  0.00     0.064 C 
ATOM     10  O   UNL     1      19.278  22.510  16.875  1.00  0.00    -0.545 OA
ATOM     11  O   UNL     1      19.563  24.760  17.149  1.00  0.00    -0.545 OA
ENDBRANCH   8   9
ENDBRANCH   1   7
BRANCH   6  12
ATOM     12  O   UNL     1      17.603  22.759  23.293  1.00  0.00    -0.508 OA
ATOM     13  H   UNL     1      17.869  22.859  24.266  1.00  0.00     0.293 HD
ENDBRANCH   6  12
TORSDOF 3
ENDMDL
