MODEL 1
REMARK VINA RESULT:    -4.487      0.000      0.000
REMARK INTER + INTRA:          -4.771
REMARK INTER:                  -4.749
REMARK INTRA:                  -0.022
REMARK UNBOUND:                -0.022
REMARK SMILES O=C([O-])c1cccnc1
REMARK SMILES IDX 4 1 5 2 9 3 6 4 8 5 7 6 2 7 1 8 3 9
REMARK H PARENT
REMARK Flexibility Score: inf
ROOT
ATOM      1  C   UNL     1      -2.503  27.533  28.881  1.00  0.00     0.016 A 
ATOM      2  C   UNL     1      -2.073  27.121  27.608  1.00  0.00     0.013 A 
ATOM      3  C   UNL     1      -3.669  28.311  28.971  1.00  0.00     0.120 A 
ATOM      4  C   UNL     1      -2.796  27.484  26.471  1.00  0.00     0.021 A 
ATOM      5  N   UNL     1      -4.355  28.652  27.847  1.00  0.00    -0.264 NA
ATOM      6  C   UNL     1      -3.948  28.259  26.612  1.00  0.00     0.111 A 
ENDROOT
BRANCH   1   7
ATOM      7  C   UNL     1      -1.751  27.158  30.097  1.00  0.00     0.073 C 
ATOM      8  O   UNL     1      -1.779  27.894  31.120  1.00  0.00    -0.545 OA
ATOM      9  O   UNL     1      -1.001  25.988  30.129  1.00  0.00    -0.545 OA
ENDBRANCH   1   7
TORSDOF 1
ENDMDL
MODEL 2
REMARK VINA RESULT:    -4.485      0.914      1.599
REMARK INTER + INTRA:          -4.769
REMARK INTER:                  -4.747
REMARK INTRA:                  -0.022
REMARK UNBOUND:                -0.022
REMARK SMILES O=C([O-])c1cccnc1
REMARK SMILES IDX 4 1 5 2 9 3 6 4 8 5 7 6 2 7 1 8 3 9
REMARK H PARENT
REMARK Flexibility Score: inf
ROOT
ATOM      1  C   UNL     1      -2.508  27.519  28.874  1.00  0.00     0.016 A 
ATOM      2  C   UNL     1      -3.669  28.305  28.966  1.00  0.00     0.013 A 
ATOM      3  C   UNL     1      -2.087  27.098  27.602  1.00  0.00     0.120 A 
ATOM      4  C   UNL     1      -4.375  28.651  27.813  1.00  0.00     0.021 A 
ATOM      5  N   UNL     1      -2.793  27.449  26.494  1.00  0.00    -0.264 NA
ATOM      6  C   UNL     1      -3.917  28.210  26.572  1.00  0.00     0.111 A 
ENDROOT
BRANCH   1   7
ATOM      7  C   UNL     1      -1.746  27.142  30.084  1.00  0.00     0.073 C 
ATOM      8  O   UNL     1      -1.774  27.871  31.112  1.00  0.00    -0.545 OA
ATOM      9  O   UNL     1      -0.988  25.977  30.104  1.00  0.00    -0.545 OA
ENDBRANCH   1   7
TORSDOF 1
ENDMDL
MODEL 3
REMARK VINA RESULT:    -4.439      2.001      2.594
REMARK INTER + INTRA:          -4.720
REMARK INTER:                  -4.703
REMARK INTRA:                  -0.017
REMARK UNBOUND:                -0.022
REMARK SMILES O=C([O-])c1cccnc1
REMARK SMILES IDX 4 1 5 2 9 3 6 4 8 5 7 6 2 7 1 8 3 9
REMARK H PARENT
REMARK Flexibility Score: inf
ROOT
ATOM      1  C   UNL     1      -3.514  27.914  28.984  1.00  0.00     0.016 A 
ATOM      2  C   UNL     1      -4.178  28.362  27.829  1.00  0.00     0.013 A 
ATOM      3  C   UNL     1      -2.292  27.240  28.832  1.00  0.00     0.120 A 
ATOM      4  C   UNL     1      -3.623  28.134  26.569  1.00  0.00     0.021 A 
ATOM      5  N   UNL     1      -1.773  27.031  27.592  1.00  0.00    -0.264 NA
ATOM      6  C   UNL     1      -2.406  27.459  26.469  1.00  0.00     0.111 A 
ENDROOT
BRANCH   1   7
ATOM      7  C   UNL     1      -4.085  28.146  30.328  1.00  0.00     0.073 C 
ATOM      8  O   UNL     1      -4.522  27.183  31.013  1.00  0.00    -0.545 OA
ATOM      9  O   UNL     1      -4.148  29.431  30.854  1.00  0.00    -0.545 OA
ENDBRANCH   1   7
TORSDOF 1
ENDMDL
MODEL 4
REMARK VINA RESULT:    -4.412      2.831      3.815
REMARK INTER + INTRA:          -4.692
REMARK INTER:                  -4.669
REMARK INTRA:                  -0.023
REMARK UNBOUND:                -0.022
REMARK SMILES O=C([O-])c1cccnc1
REMARK SMILES IDX 4 1 5 2 9 3 6 4 8 5 7 6 2 7 1 8 3 9
REMARK H PARENT
REMARK Flexibility Score: inf
ROOT
ATOM      1  C   UNL     1      -3.015  28.007  28.242  1.00  0.00     0.016 A 
ATOM      2  C   UNL     1      -3.615  28.998  29.038  1.00  0.00     0.013 A 
ATOM      3  C   UNL     1      -2.109  27.122  28.849  1.00  0.00     0.120 A 
ATOM      4  C   UNL     1      -3.307  29.088  30.396  1.00  0.00     0.021 A 
ATOM      5  N   UNL     1      -1.825  27.232  30.175  1.00  0.00    -0.264 NA
ATOM      6  C   UNL     1      -2.400  28.186  30.953  1.00  0.00     0.111 A 
ENDROOT
BRANCH   1   7
ATOM      7  C   UNL     1      -3.329  27.894  26.802  1.00  0.00     0.073 C 
ATOM      8  O   UNL     1      -4.371  28.424  26.329  1.00  0.00    -0.545 OA
ATOM      9  O   UNL     1      -2.478  27.201  25.948  1.00  0.00    -0.545 OA
ENDBRANCH   1   7
TORSDOF 1
ENDMDL
MODEL 5
REMARK VINA RESULT:    -4.273      2.633      3.548
REMARK INTER + INTRA:          -4.545
REMARK INTER:                  -4.524
REMARK INTRA:                  -0.021
REMARK UNBOUND:                -0.022
REMARK SMILES O=C([O-])c1cccnc1
REMARK SMILES IDX 4 1 5 2 9 3 6 4 8 5 7 6 2 7 1 8 3 9
REMARK H PARENT
REMARK Flexibility Score: inf
ROOT
ATOM      1  C   UNL     1      -2.774  27.897  28.388  1.00  0.00     0.016 A 
ATOM      2  C   UNL     1      -2.033  26.829  28.924  1.00  0.00     0.013 A 
ATOM      3  C   UNL     1      -3.062  28.992  29.219  1.00  0.00     0.120 A 
ATOM      4  C   UNL     1      -1.603  26.871  30.251  1.00  0.00     0.021 A 
ATOM      5  N   UNL     1      -2.631  29.007  30.509  1.00  0.00    -0.264 NA
ATOM      6  C   UNL     1      -1.914  27.981  31.037  1.00  0.00     0.111 A 
ENDROOT
BRANCH   1   7
ATOM      7  C   UNL     1      -3.239  27.872  26.985  1.00  0.00     0.073 C 
ATOM      8  O   UNL     1      -4.364  28.349  26.674  1.00  0.00    -0.545 OA
ATOM      9  O   UNL     1      -2.441  27.321  25.989  1.00  0.00    -0.545 OA
ENDBRANCH   1   7
TORSDOF 1
ENDMDL
MODEL 6
REMARK VINA RESULT:    -3.441      2.118      2.886
REMARK INTER + INTRA:          -3.664
REMARK INTER:                  -3.641
REMARK INTRA:                  -0.023
REMARK UNBOUND:                -0.022
REMARK SMILES O=C([O-])c1cccnc1
REMARK SMILES IDX 4 1 5 2 9 3 6 4 8 5 7 6 2 7 1 8 3 9
REMARK H PARENT
REMARK Flexibility Score: inf
ROOT
ATOM      1  C   UNL     1      -2.679  27.671  30.259  1.00  0.00     0.016 A 
ATOM      2  C   UNL     1      -3.751  27.949  31.125  1.00  0.00     0.013 A 
ATOM      3  C   UNL     1      -2.313  28.648  29.318  1.00  0.00     0.120 A 
ATOM      4  C   UNL     1      -4.424  29.168  31.039  1.00  0.00     0.021 A 
ATOM      5  N   UNL     1      -2.986  29.828  29.255  1.00  0.00    -0.264 NA
ATOM      6  C   UNL     1      -4.023  30.106  30.088  1.00  0.00     0.111 A 
ENDROOT
BRANCH   1   7
ATOM      7  C   UNL     1      -1.953  26.386  30.334  1.00  0.00     0.073 C 
ATOM      8  O   UNL     1      -2.504  25.367  30.830  1.00  0.00    -0.545 OA
ATOM      9  O   UNL     1      -0.651  26.284  29.858  1.00  0.00    -0.545 OA
ENDBRANCH   1   7
TORSDOF 1
ENDMDL
MODEL 7
REMARK VINA RESULT:    -2.096     22.294     22.973
REMARK INTER + INTRA:          -2.241
REMARK INTER:                  -2.224
REMARK INTRA:                  -0.016
REMARK UNBOUND:                -0.022
REMARK SMILES O=C([O-])c1cccnc1
REMARK SMILES IDX 4 1 5 2 9 3 6 4 8 5 7 6 2 7 1 8 3 9
REMARK H PARENT
REMARK Flexibility Score: inf
ROOT
ATOM      1  C   UNL     1      13.666  11.729  27.067  1.00  0.00     0.016 A 
ATOM      2  C   UNL     1      12.301  11.722  27.401  1.00  0.00     0.013 A 
ATOM      3  C   UNL     1      14.129  10.785  26.135  1.00  0.00     0.120 A 
ATOM      4  C   UNL     1      11.440  10.794  26.814  1.00  0.00     0.021 A 
ATOM      5  N   UNL     1      13.269   9.891  25.578  1.00  0.00    -0.264 NA
ATOM      6  C   UNL     1      11.947   9.875  25.895  1.00  0.00     0.111 A 
ENDROOT
BRANCH   1   7
ATOM      7  C   UNL     1      14.594  12.704  27.677  1.00  0.00     0.073 C 
ATOM      8  O   UNL     1      15.124  12.471  28.796  1.00  0.00    -0.545 OA
ATOM      9  O   UNL     1      14.895  13.894  27.023  1.00  0.00    -0.545 OA
ENDBRANCH   1   7
TORSDOF 1
ENDMDL
MODEL 8
REMARK VINA RESULT:    -2.081     22.229     22.924
REMARK INTER + INTRA:          -2.225
REMARK INTER:                  -2.208
REMARK INTRA:                  -0.017
REMARK UNBOUND:                -0.022
REMARK SMILES O=C([O-])c1cccnc1
REMARK SMILES IDX 4 1 5 2 9 3 6 4 8 5 7 6 2 7 1 8 3 9
REMARK H PARENT
REMARK Flexibility Score: inf
ROOT
ATOM      1  C   UNL     1      12.748  11.125  26.859  1.00  0.00     0.016 A 
ATOM      2  C   UNL     1      12.764  12.425  27.394  1.00  0.00     0.013 A 
ATOM      3  C   UNL     1      13.944  10.605  26.337  1.00  0.00     0.120 A 
ATOM      4  C   UNL     1      13.945  13.168  27.398  1.00  0.00     0.021 A 
ATOM      5  N   UNL     1      15.081  11.350  26.352  1.00  0.00    -0.264 NA
ATOM      6  C   UNL     1      15.107  12.608  26.867  1.00  0.00     0.111 A 
ENDROOT
BRANCH   1   7
ATOM      7  C   UNL     1      11.507  10.322  26.846  1.00  0.00     0.073 C 
ATOM      8  O   UNL     1      11.022   9.875  27.920  1.00  0.00    -0.545 OA
ATOM      9  O   UNL     1      10.858  10.048  25.648  1.00  0.00    -0.545 OA
ENDBRANCH   1   7
TORSDOF 1
ENDMDL
