MODEL 1
REMARK VINA RESULT:    -3.075      0.000      0.000
REMARK INTER + INTRA:         -12.396
REMARK INTER:                  -7.748
REMARK INTRA:                  -4.647
REMARK UNBOUND:                -4.647
REMARK SMILES CCCCCCCCCCCCCCCCCCCCCCCCCCCC(=O)[O-]
REMARK SMILES IDX 15 1 16 2 17 3 18 4 19 5 20 6 21 7 22 8 23 9 24 10 25 11
REMARK SMILES IDX 26 12 27 13 28 14 29 15 30 16 14 17 13 18 12 19 11 20 10 21
REMARK SMILES IDX 9 22 8 23 7 24 6 25 5 26 4 27 3 28 2 29 1 30
REMARK H PARENT
REMARK Flexibility Score: inf
ROOT
ATOM      1  C   UNL     1       7.689 -15.778   7.488  1.00  0.00     0.000 C 
ENDROOT
BRANCH   1   2
ATOM      2  C   UNL     1       8.881 -15.012   6.877  1.00  0.00     0.000 C 
BRANCH   2   3
ATOM      3  C   UNL     1      10.057 -14.755   7.840  1.00  0.00     0.000 C 
BRANCH   3   4
ATOM      4  C   UNL     1      11.455 -15.044   7.254  1.00  0.00     0.000 C 
BRANCH   4   5
ATOM      5  C   UNL     1      11.481 -15.296   5.736  1.00  0.00     0.000 C 
BRANCH   5   6
ATOM      6  C   UNL     1      12.278 -16.555   5.356  1.00  0.00     0.000 C 
BRANCH   6   7
ATOM      7  C   UNL     1      12.056 -17.713   6.342  1.00  0.00     0.000 C 
BRANCH   7   8
ATOM      8  C   UNL     1      12.087 -19.087   5.651  1.00  0.00     0.000 C 
BRANCH   8   9
ATOM      9  C   UNL     1      10.756 -19.853   5.799  1.00  0.00     0.000 C 
BRANCH   9  10
ATOM     10  C   UNL     1       9.584 -18.979   6.286  1.00  0.00     0.000 C 
BRANCH  10  11
ATOM     11  C   UNL     1       8.525 -18.657   5.219  1.00  0.00     0.000 C 
BRANCH  11  12
ATOM     12  C   UNL     1       9.012 -17.625   4.189  1.00  0.00     0.006 C 
BRANCH  12  13
ATOM     13  C   UNL     1       8.685 -18.076   2.763  1.00  0.00     0.053 C 
BRANCH  13  14
ATOM     14  C   UNL     1       9.720 -19.031   2.258  1.00  0.00     0.041 C 
ATOM     15  O   UNL     1      10.891 -18.629   2.018  1.00  0.00    -0.550 OA
ATOM     16  O   UNL     1       9.387 -20.358   2.019  1.00  0.00    -0.550 OA
ENDBRANCH  13  14
ENDBRANCH  12  13
ENDBRANCH  11  12
ENDBRANCH  10  11
ENDBRANCH   9  10
ENDBRANCH   8   9
ENDBRANCH   7   8
ENDBRANCH   6   7
ENDBRANCH   5   6
ENDBRANCH   4   5
ENDBRANCH   3   4
ENDBRANCH   2   3
ENDBRANCH   1   2
BRANCH   1  17
ATOM     17  C   UNL     1       8.020 -16.620   8.733  1.00  0.00     0.000 C 
BRANCH  17  18
ATOM     18  C   UNL     1       6.790 -17.337   9.314  1.00  0.00     0.000 C 
BRANCH  18  19
ATOM     19  C   UNL     1       6.744 -18.835   8.965  1.00  0.00     0.000 C 
BRANCH  19  20
ATOM     20  C   UNL     1       5.439 -19.317   8.306  1.00  0.00     0.000 C 
BRANCH  20  21
ATOM     21  C   UNL     1       5.678 -20.216   7.083  1.00  0.00     0.000 C 
BRANCH  21  22
ATOM     22  C   UNL     1       4.843 -19.743   5.882  1.00  0.00    -0.000 C 
BRANCH  22  23
ATOM     23  C   UNL     1       5.030 -20.639   4.645  1.00  0.00    -0.000 C 
BRANCH  23  24
ATOM     24  C   UNL     1       5.496 -19.849   3.410  1.00  0.00    -0.000 C 
BRANCH  24  25
ATOM     25  C   UNL     1       4.389 -19.679   2.354  1.00  0.00    -0.000 C 
BRANCH  25  26
ATOM     26  C   UNL     1       3.882 -18.238   2.165  1.00  0.00    -0.000 C 
BRANCH  26  27
ATOM     27  C   UNL     1       2.776 -17.855   3.160  1.00  0.00    -0.000 C 
BRANCH  27  28
ATOM     28  C   UNL     1       1.523 -18.717   2.941  1.00  0.00    -0.000 C 
BRANCH  28  29
ATOM     29  C   UNL     1       1.306 -19.738   4.069  1.00  0.00    -0.003 C 
ATOM     30  C   UNL     1       1.203 -21.172   3.555  1.00  0.00     0.004 C 
ENDBRANCH  28  29
ENDBRANCH  27  28
ENDBRANCH  26  27
ENDBRANCH  25  26
ENDBRANCH  24  25
ENDBRANCH  23  24
ENDBRANCH  22  23
ENDBRANCH  21  22
ENDBRANCH  20  21
ENDBRANCH  19  20
ENDBRANCH  18  19
ENDBRANCH  17  18
ENDBRANCH   1  17
TORSDOF 26
ENDMDL
MODEL 2
REMARK VINA RESULT:    -3.005      1.339      3.275
REMARK INTER + INTRA:         -12.221
REMARK INTER:                  -6.889
REMARK INTRA:                  -5.332
REMARK UNBOUND:                -4.647
REMARK SMILES CCCCCCCCCCCCCCCCCCCCCCCCCCCC(=O)[O-]
REMARK SMILES IDX 15 1 16 2 17 3 18 4 19 5 20 6 21 7 22 8 23 9 24 10 25 11
REMARK SMILES IDX 26 12 27 13 28 14 29 15 30 16 14 17 13 18 12 19 11 20 10 21
REMARK SMILES IDX 9 22 8 23 7 24 6 25 5 26 4 27 3 28 2 29 1 30
REMARK H PARENT
REMARK Flexibility Score: inf
ROOT
ATOM      1  C   UNL     1       4.984 -18.241  10.039  1.00  0.00     0.000 C 
ENDROOT
BRANCH   1   2
ATOM      2  C   UNL     1       5.664 -16.872   9.831  1.00  0.00     0.000 C 
BRANCH   2   3
ATOM      3  C   UNL     1       5.990 -16.519   8.366  1.00  0.00     0.000 C 
BRANCH   3   4
ATOM      4  C   UNL     1       7.481 -16.631   7.984  1.00  0.00     0.000 C 
BRANCH   4   5
ATOM      5  C   UNL     1       8.450 -16.711   9.177  1.00  0.00     0.000 C 
BRANCH   5   6
ATOM      6  C   UNL     1       9.563 -15.651   9.112  1.00  0.00     0.000 C 
BRANCH   6   7
ATOM      7  C   UNL     1       9.529 -14.843   7.805  1.00  0.00     0.000 C 
BRANCH   7   8
ATOM      8  C   UNL     1      10.874 -14.876   7.059  1.00  0.00     0.000 C 
BRANCH   8   9
ATOM      9  C   UNL     1      11.727 -16.106   7.436  1.00  0.00     0.000 C 
BRANCH   9  10
ATOM     10  C   UNL     1      11.636 -17.263   6.421  1.00  0.00     0.000 C 
BRANCH  10  11
ATOM     11  C   UNL     1      10.751 -18.443   6.858  1.00  0.00     0.000 C 
BRANCH  11  12
ATOM     12  C   UNL     1       9.646 -18.767   5.840  1.00  0.00     0.006 C 
BRANCH  12  13
ATOM     13  C   UNL     1       9.310 -17.542   4.984  1.00  0.00     0.053 C 
BRANCH  13  14
ATOM     14  C   UNL     1       9.468 -17.852   3.529  1.00  0.00     0.041 C 
ATOM     15  O   UNL     1       8.452 -17.987   2.796  1.00  0.00    -0.550 OA
ATOM     16  O   UNL     1      10.735 -18.023   2.985  1.00  0.00    -0.550 OA
ENDBRANCH  13  14
ENDBRANCH  12  13
ENDBRANCH  11  12
ENDBRANCH  10  11
ENDBRANCH   9  10
ENDBRANCH   8   9
ENDBRANCH   7   8
ENDBRANCH   6   7
ENDBRANCH   5   6
ENDBRANCH   4   5
ENDBRANCH   3   4
ENDBRANCH   2   3
ENDBRANCH   1   2
BRANCH   1  17
ATOM     17  C   UNL     1       4.914 -19.135   8.788  1.00  0.00     0.000 C 
BRANCH  17  18
ATOM     18  C   UNL     1       6.061 -20.158   8.720  1.00  0.00     0.000 C 
BRANCH  18  19
ATOM     19  C   UNL     1       6.651 -20.308   7.306  1.00  0.00     0.000 C 
BRANCH  19  20
ATOM     20  C   UNL     1       5.897 -19.554   6.195  1.00  0.00     0.000 C 
BRANCH  20  21
ATOM     21  C   UNL     1       6.317 -19.985   4.782  1.00  0.00     0.000 C 
BRANCH  21  22
ATOM     22  C   UNL     1       5.343 -21.032   4.216  1.00  0.00    -0.000 C 
BRANCH  22  23
ATOM     23  C   UNL     1       4.689 -20.578   2.900  1.00  0.00    -0.000 C 
BRANCH  23  24
ATOM     24  C   UNL     1       4.770 -19.055   2.696  1.00  0.00    -0.000 C 
BRANCH  24  25
ATOM     25  C   UNL     1       3.388 -18.399   2.522  1.00  0.00    -0.000 C 
BRANCH  25  26
ATOM     26  C   UNL     1       2.188 -19.346   2.701  1.00  0.00    -0.000 C 
BRANCH  26  27
ATOM     27  C   UNL     1       1.393 -19.072   3.986  1.00  0.00    -0.000 C 
BRANCH  27  28
ATOM     28  C   UNL     1       2.016 -19.812   5.181  1.00  0.00    -0.000 C 
BRANCH  28  29
ATOM     29  C   UNL     1       2.116 -18.926   6.434  1.00  0.00    -0.003 C 
ATOM     30  C   UNL     1       2.870 -17.624   6.175  1.00  0.00     0.004 C 
ENDBRANCH  28  29
ENDBRANCH  27  28
ENDBRANCH  26  27
ENDBRANCH  25  26
ENDBRANCH  24  25
ENDBRANCH  23  24
ENDBRANCH  22  23
ENDBRANCH  21  22
ENDBRANCH  20  21
ENDBRANCH  19  20
ENDBRANCH  18  19
ENDBRANCH  17  18
ENDBRANCH   1  17
TORSDOF 26
ENDMDL
MODEL 3
REMARK VINA RESULT:    -2.998      3.493      7.598
REMARK INTER + INTRA:         -12.203
REMARK INTER:                  -8.493
REMARK INTRA:                  -3.710
REMARK UNBOUND:                -4.647
REMARK SMILES CCCCCCCCCCCCCCCCCCCCCCCCCCCC(=O)[O-]
REMARK SMILES IDX 15 1 16 2 17 3 18 4 19 5 20 6 21 7 22 8 23 9 24 10 25 11
REMARK SMILES IDX 26 12 27 13 28 14 29 15 30 16 14 17 13 18 12 19 11 20 10 21
REMARK SMILES IDX 9 22 8 23 7 24 6 25 5 26 4 27 3 28 2 29 1 30
REMARK H PARENT
REMARK Flexibility Score: inf
ROOT
ATOM      1  C   UNL     1       9.135 -17.697   4.695  1.00  0.00     0.000 C 
ENDROOT
BRANCH   1   2
ATOM      2  C   UNL     1       8.982 -18.430   6.044  1.00  0.00     0.000 C 
BRANCH   2   3
ATOM      3  C   UNL     1       7.792 -19.407   6.127  1.00  0.00     0.000 C 
BRANCH   3   4
ATOM      4  C   UNL     1       7.755 -20.485   5.023  1.00  0.00     0.000 C 
BRANCH   4   5
ATOM      5  C   UNL     1       6.373 -20.711   4.386  1.00  0.00     0.000 C 
BRANCH   5   6
ATOM      6  C   UNL     1       5.927 -19.536   3.498  1.00  0.00     0.000 C 
BRANCH   6   7
ATOM      7  C   UNL     1       4.515 -19.734   2.924  1.00  0.00     0.000 C 
BRANCH   7   8
ATOM      8  C   UNL     1       3.943 -18.443   2.314  1.00  0.00     0.000 C 
BRANCH   8   9
ATOM      9  C   UNL     1       2.758 -17.882   3.128  1.00  0.00     0.000 C 
BRANCH   9  10
ATOM     10  C   UNL     1       2.416 -18.708   4.384  1.00  0.00     0.000 C 
BRANCH  10  11
ATOM     11  C   UNL     1       2.762 -18.034   5.721  1.00  0.00     0.000 C 
BRANCH  11  12
ATOM     12  C   UNL     1       2.440 -18.920   6.936  1.00  0.00     0.006 C 
BRANCH  12  13
ATOM     13  C   UNL     1       1.362 -19.952   6.593  1.00  0.00     0.053 C 
BRANCH  13  14
ATOM     14  C   UNL     1       0.075 -19.625   7.282  1.00  0.00     0.041 C 
ATOM     15  O   UNL     1      -0.903 -20.416   7.207  1.00  0.00    -0.550 OA
ATOM     16  O   UNL     1      -0.058 -18.431   7.979  1.00  0.00    -0.550 OA
ENDBRANCH  13  14
ENDBRANCH  12  13
ENDBRANCH  11  12
ENDBRANCH  10  11
ENDBRANCH   9  10
ENDBRANCH   8   9
ENDBRANCH   7   8
ENDBRANCH   6   7
ENDBRANCH   5   6
ENDBRANCH   4   5
ENDBRANCH   3   4
ENDBRANCH   2   3
ENDBRANCH   1   2
BRANCH   1  17
ATOM     17  C   UNL     1      10.328 -16.728   4.607  1.00  0.00     0.000 C 
BRANCH  17  18
ATOM     18  C   UNL     1      10.427 -15.791   5.823  1.00  0.00     0.000 C 
BRANCH  18  19
ATOM     19  C   UNL     1       9.133 -14.997   6.080  1.00  0.00     0.000 C 
BRANCH  19  20
ATOM     20  C   UNL     1       8.704 -14.899   7.555  1.00  0.00     0.000 C 
BRANCH  20  21
ATOM     21  C   UNL     1       9.880 -15.034   8.535  1.00  0.00     0.000 C 
BRANCH  21  22
ATOM     22  C   UNL     1       9.455 -15.797   9.800  1.00  0.00    -0.000 C 
BRANCH  22  23
ATOM     23  C   UNL     1       8.538 -16.991   9.489  1.00  0.00    -0.000 C 
BRANCH  23  24
ATOM     24  C   UNL     1       7.681 -17.407  10.697  1.00  0.00    -0.000 C 
BRANCH  24  25
ATOM     25  C   UNL     1       6.170 -17.260  10.440  1.00  0.00    -0.000 C 
BRANCH  25  26
ATOM     26  C   UNL     1       5.653 -17.956   9.168  1.00  0.00    -0.000 C 
BRANCH  26  27
ATOM     27  C   UNL     1       5.607 -17.022   7.949  1.00  0.00    -0.000 C 
BRANCH  27  28
ATOM     28  C   UNL     1       5.158 -15.610   8.361  1.00  0.00    -0.000 C 
BRANCH  28  29
ATOM     29  C   UNL     1       4.526 -14.831   7.196  1.00  0.00    -0.003 C 
ATOM     30  C   UNL     1       5.138 -13.444   7.014  1.00  0.00     0.004 C 
ENDBRANCH  28  29
ENDBRANCH  27  28
ENDBRANCH  26  27
ENDBRANCH  25  26
ENDBRANCH  24  25
ENDBRANCH  23  24
ENDBRANCH  22  23
ENDBRANCH  21  22
ENDBRANCH  20  21
ENDBRANCH  19  20
ENDBRANCH  18  19
ENDBRANCH  17  18
ENDBRANCH   1  17
TORSDOF 26
ENDMDL
MODEL 4
REMARK VINA RESULT:    -2.991      2.913      8.071
REMARK INTER + INTRA:         -12.185
REMARK INTER:                  -8.339
REMARK INTRA:                  -3.845
REMARK UNBOUND:                -4.647
REMARK SMILES CCCCCCCCCCCCCCCCCCCCCCCCCCCC(=O)[O-]
REMARK SMILES IDX 15 1 16 2 17 3 18 4 19 5 20 6 21 7 22 8 23 9 24 10 25 11
REMARK SMILES IDX 26 12 27 13 28 14 29 15 30 16 14 17 13 18 12 19 11 20 10 21
REMARK SMILES IDX 9 22 8 23 7 24 6 25 5 26 4 27 3 28 2 29 1 30
REMARK H PARENT
REMARK Flexibility Score: inf
ROOT
ATOM      1  C   UNL     1       3.788 -18.486   2.248  1.00  0.00     0.000 C 
ENDROOT
BRANCH   1   2
ATOM      2  C   UNL     1       2.663 -18.069   3.218  1.00  0.00     0.000 C 
BRANCH   2   3
ATOM      3  C   UNL     1       1.308 -18.766   2.987  1.00  0.00     0.000 C 
BRANCH   3   4
ATOM      4  C   UNL     1       1.175 -20.163   3.629  1.00  0.00     0.000 C 
BRANCH   4   5
ATOM      5  C   UNL     1       0.720 -20.159   5.099  1.00  0.00     0.000 C 
BRANCH   5   6
ATOM      6  C   UNL     1       1.605 -21.039   5.999  1.00  0.00     0.000 C 
BRANCH   6   7
ATOM      7  C   UNL     1       2.131 -20.282   7.229  1.00  0.00     0.000 C 
BRANCH   7   8
ATOM      8  C   UNL     1       2.230 -18.766   6.987  1.00  0.00     0.000 C 
BRANCH   8   9
ATOM      9  C   UNL     1       3.677 -18.304   6.719  1.00  0.00     0.000 C 
BRANCH   9  10
ATOM     10  C   UNL     1       4.555 -18.234   7.984  1.00  0.00     0.000 C 
BRANCH  10  11
ATOM     11  C   UNL     1       5.783 -17.315   7.875  1.00  0.00     0.000 C 
BRANCH  11  12
ATOM     12  C   UNL     1       5.494 -15.879   8.342  1.00  0.00     0.006 C 
BRANCH  12  13
ATOM     13  C   UNL     1       4.648 -15.125   7.312  1.00  0.00     0.053 C 
BRANCH  13  14
ATOM     14  C   UNL     1       5.149 -13.727   7.134  1.00  0.00     0.041 C 
ATOM     15  O   UNL     1       4.375 -12.748   7.314  1.00  0.00    -0.550 OA
ATOM     16  O   UNL     1       6.461 -13.501   6.738  1.00  0.00    -0.550 OA
ENDBRANCH  13  14
ENDBRANCH  12  13
ENDBRANCH  11  12
ENDBRANCH  10  11
ENDBRANCH   9  10
ENDBRANCH   8   9
ENDBRANCH   7   8
ENDBRANCH   6   7
ENDBRANCH   5   6
ENDBRANCH   4   5
ENDBRANCH   3   4
ENDBRANCH   2   3
ENDBRANCH   1   2
BRANCH   1  17
ATOM     17  C   UNL     1       4.626 -19.697   2.698  1.00  0.00     0.000 C 
BRANCH  17  18
ATOM     18  C   UNL     1       4.721 -19.822   4.228  1.00  0.00     0.000 C 
BRANCH  18  19
ATOM     19  C   UNL     1       5.386 -21.133   4.685  1.00  0.00     0.000 C 
BRANCH  19  20
ATOM     20  C   UNL     1       6.500 -20.973   5.736  1.00  0.00     0.000 C 
BRANCH  20  21
ATOM     21  C   UNL     1       7.297 -19.670   5.574  1.00  0.00     0.000 C 
BRANCH  21  22
ATOM     22  C   UNL     1       8.480 -19.865   4.612  1.00  0.00    -0.000 C 
BRANCH  22  23
ATOM     23  C   UNL     1       8.226 -19.238   3.231  1.00  0.00    -0.000 C 
BRANCH  23  24
ATOM     24  C   UNL     1       8.993 -17.920   3.032  1.00  0.00    -0.000 C 
BRANCH  24  25
ATOM     25  C   UNL     1      10.120 -17.720   4.061  1.00  0.00    -0.000 C 
BRANCH  25  26
ATOM     26  C   UNL     1      10.105 -16.364   4.792  1.00  0.00    -0.000 C 
BRANCH  26  27
ATOM     27  C   UNL     1       9.282 -16.391   6.089  1.00  0.00    -0.000 C 
BRANCH  27  28
ATOM     28  C   UNL     1       9.255 -15.001   6.745  1.00  0.00    -0.000 C 
BRANCH  28  29
ATOM     29  C   UNL     1       9.236 -15.076   8.281  1.00  0.00    -0.003 C 
ATOM     30  C   UNL     1      10.600 -14.784   8.901  1.00  0.00     0.004 C 
ENDBRANCH  28  29
ENDBRANCH  27  28
ENDBRANCH  26  27
ENDBRANCH  25  26
ENDBRANCH  24  25
ENDBRANCH  23  24
ENDBRANCH  22  23
ENDBRANCH  21  22
ENDBRANCH  20  21
ENDBRANCH  19  20
ENDBRANCH  18  19
ENDBRANCH  17  18
ENDBRANCH   1  17
TORSDOF 26
ENDMDL
MODEL 5
REMARK VINA RESULT:    -2.942      4.255      9.110
REMARK INTER + INTRA:         -12.062
REMARK INTER:                  -8.187
REMARK INTRA:                  -3.875
REMARK UNBOUND:                -4.647
REMARK SMILES CCCCCCCCCCCCCCCCCCCCCCCCCCCC(=O)[O-]
REMARK SMILES IDX 15 1 16 2 17 3 18 4 19 5 20 6 21 7 22 8 23 9 24 10 25 11
REMARK SMILES IDX 26 12 27 13 28 14 29 15 30 16 14 17 13 18 12 19 11 20 10 21
REMARK SMILES IDX 9 22 8 23 7 24 6 25 5 26 4 27 3 28 2 29 1 30
REMARK H PARENT
REMARK Flexibility Score: inf
ROOT
ATOM      1  C   UNL     1       2.728 -18.086   4.620  1.00  0.00     0.000 C 
ENDROOT
BRANCH   1   2
ATOM      2  C   UNL     1       2.690 -17.955   3.083  1.00  0.00     0.000 C 
BRANCH   2   3
ATOM      3  C   UNL     1       3.924 -18.515   2.348  1.00  0.00     0.000 C 
BRANCH   3   4
ATOM      4  C   UNL     1       3.651 -19.752   1.467  1.00  0.00     0.000 C 
BRANCH   4   5
ATOM      5  C   UNL     1       2.262 -20.387   1.654  1.00  0.00     0.000 C 
BRANCH   5   6
ATOM      6  C   UNL     1       2.296 -21.644   2.540  1.00  0.00     0.000 C 
BRANCH   6   7
ATOM      7  C   UNL     1       1.075 -21.744   3.468  1.00  0.00     0.000 C 
BRANCH   7   8
ATOM      8  C   UNL     1       0.091 -20.578   3.272  1.00  0.00     0.000 C 
BRANCH   8   9
ATOM      9  C   UNL     1      -0.707 -20.258   4.553  1.00  0.00     0.000 C 
BRANCH   9  10
ATOM     10  C   UNL     1      -0.175 -20.968   5.814  1.00  0.00     0.000 C 
BRANCH  10  11
ATOM     11  C   UNL     1       0.391 -20.034   6.896  1.00  0.00     0.000 C 
BRANCH  11  12
ATOM     12  C   UNL     1      -0.641 -19.688   7.982  1.00  0.00     0.006 C 
BRANCH  12  13
ATOM     13  C   UNL     1      -0.524 -18.220   8.403  1.00  0.00     0.053 C 
BRANCH  13  14
ATOM     14  C   UNL     1      -1.572 -17.872   9.413  1.00  0.00     0.041 C 
ATOM     15  O   UNL     1      -1.570 -16.737   9.962  1.00  0.00    -0.550 OA
ATOM     16  O   UNL     1      -2.531 -18.809   9.773  1.00  0.00    -0.550 OA
ENDBRANCH  13  14
ENDBRANCH  12  13
ENDBRANCH  11  12
ENDBRANCH  10  11
ENDBRANCH   9  10
ENDBRANCH   8   9
ENDBRANCH   7   8
ENDBRANCH   6   7
ENDBRANCH   5   6
ENDBRANCH   4   5
ENDBRANCH   3   4
ENDBRANCH   2   3
ENDBRANCH   1   2
BRANCH   1  17
ATOM     17  C   UNL     1       3.453 -19.335   5.154  1.00  0.00     0.000 C 
BRANCH  17  18
ATOM     18  C   UNL     1       4.222 -19.067   6.459  1.00  0.00     0.000 C 
BRANCH  18  19
ATOM     19  C   UNL     1       5.445 -19.985   6.637  1.00  0.00     0.000 C 
BRANCH  19  20
ATOM     20  C   UNL     1       6.735 -19.503   5.950  1.00  0.00     0.000 C 
BRANCH  20  21
ATOM     21  C   UNL     1       7.095 -20.323   4.701  1.00  0.00     0.000 C 
BRANCH  21  22
ATOM     22  C   UNL     1       7.269 -19.410   3.476  1.00  0.00    -0.000 C 
BRANCH  22  23
ATOM     23  C   UNL     1       8.742 -19.061   3.206  1.00  0.00    -0.000 C 
BRANCH  23  24
ATOM     24  C   UNL     1       9.005 -17.546   3.243  1.00  0.00    -0.000 C 
BRANCH  24  25
ATOM     25  C   UNL     1       9.991 -17.135   4.352  1.00  0.00    -0.000 C 
BRANCH  25  26
ATOM     26  C   UNL     1       9.350 -16.850   5.722  1.00  0.00    -0.000 C 
BRANCH  26  27
ATOM     27  C   UNL     1       9.402 -15.365   6.113  1.00  0.00    -0.000 C 
BRANCH  27  28
ATOM     28  C   UNL     1       8.316 -15.036   7.150  1.00  0.00    -0.000 C 
BRANCH  28  29
ATOM     29  C   UNL     1       7.975 -16.237   8.045  1.00  0.00    -0.003 C 
ATOM     30  C   UNL     1       6.473 -16.506   8.123  1.00  0.00     0.004 C 
ENDBRANCH  28  29
ENDBRANCH  27  28
ENDBRANCH  26  27
ENDBRANCH  25  26
ENDBRANCH  24  25
ENDBRANCH  23  24
ENDBRANCH  22  23
ENDBRANCH  21  22
ENDBRANCH  20  21
ENDBRANCH  19  20
ENDBRANCH  18  19
ENDBRANCH  17  18
ENDBRANCH   1  17
TORSDOF 26
ENDMDL
MODEL 6
REMARK VINA RESULT:    -2.924      3.019      4.929
REMARK INTER + INTRA:         -12.015
REMARK INTER:                  -5.962
REMARK INTRA:                  -6.053
REMARK UNBOUND:                -4.647
REMARK SMILES CCCCCCCCCCCCCCCCCCCCCCCCCCCC(=O)[O-]
REMARK SMILES IDX 15 1 16 2 17 3 18 4 19 5 20 6 21 7 22 8 23 9 24 10 25 11
REMARK SMILES IDX 26 12 27 13 28 14 29 15 30 16 14 17 13 18 12 19 11 20 10 21
REMARK SMILES IDX 9 22 8 23 7 24 6 25 5 26 4 27 3 28 2 29 1 30
REMARK H PARENT
REMARK Flexibility Score: inf
ROOT
ATOM      1  C   UNL     1       9.260 -16.070   5.998  1.00  0.00     0.000 C 
ENDROOT
BRANCH   1   2
ATOM      2  C   UNL     1      10.183 -15.810   4.790  1.00  0.00     0.000 C 
BRANCH   2   3
ATOM      3  C   UNL     1      11.673 -15.614   5.135  1.00  0.00     0.000 C 
BRANCH   3   4
ATOM      4  C   UNL     1      12.595 -16.785   4.735  1.00  0.00     0.000 C 
BRANCH   4   5
ATOM      5  C   UNL     1      13.323 -17.465   5.908  1.00  0.00     0.000 C 
BRANCH   5   6
ATOM      6  C   UNL     1      12.992 -16.823   7.267  1.00  0.00     0.000 C 
BRANCH   6   7
ATOM      7  C   UNL     1      12.431 -17.837   8.276  1.00  0.00     0.000 C 
BRANCH   7   8
ATOM      8  C   UNL     1      11.006 -18.292   7.921  1.00  0.00     0.000 C 
BRANCH   8   9
ATOM      9  C   UNL     1      10.866 -19.829   7.897  1.00  0.00     0.000 C 
BRANCH   9  10
ATOM     10  C   UNL     1      10.122 -20.369   6.660  1.00  0.00     0.000 C 
BRANCH  10  11
ATOM     11  C   UNL     1      10.884 -20.234   5.331  1.00  0.00     0.000 C 
BRANCH  11  12
ATOM     12  C   UNL     1      10.104 -19.433   4.276  1.00  0.00     0.006 C 
BRANCH  12  13
ATOM     13  C   UNL     1       8.612 -19.379   4.619  1.00  0.00     0.053 C 
BRANCH  13  14
ATOM     14  C   UNL     1       7.785 -19.871   3.474  1.00  0.00     0.041 C 
ATOM     15  O   UNL     1       6.688 -19.315   3.199  1.00  0.00    -0.550 OA
ATOM     16  O   UNL     1       8.207 -20.964   2.728  1.00  0.00    -0.550 OA
ENDBRANCH  13  14
ENDBRANCH  12  13
ENDBRANCH  11  12
ENDBRANCH  10  11
ENDBRANCH   9  10
ENDBRANCH   8   9
ENDBRANCH   7   8
ENDBRANCH   6   7
ENDBRANCH   5   6
ENDBRANCH   4   5
ENDBRANCH   3   4
ENDBRANCH   2   3
ENDBRANCH   1   2
BRANCH   1  17
ATOM     17  C   UNL     1       8.850 -14.816   6.792  1.00  0.00     0.000 C 
BRANCH  17  18
ATOM     18  C   UNL     1       9.769 -14.544   7.994  1.00  0.00     0.000 C 
BRANCH  18  19
ATOM     19  C   UNL     1       9.427 -15.406   9.223  1.00  0.00     0.000 C 
BRANCH  19  20
ATOM     20  C   UNL     1      10.509 -15.450  10.317  1.00  0.00     0.000 C 
BRANCH  20  21
ATOM     21  C   UNL     1      10.358 -16.650  11.265  1.00  0.00     0.000 C 
BRANCH  21  22
ATOM     22  C   UNL     1       8.923 -17.200  11.232  1.00  0.00    -0.000 C 
BRANCH  22  23
ATOM     23  C   UNL     1       8.870 -18.687  10.843  1.00  0.00    -0.000 C 
BRANCH  23  24
ATOM     24  C   UNL     1       7.440 -19.166  10.541  1.00  0.00    -0.000 C 
BRANCH  24  25
ATOM     25  C   UNL     1       7.216 -19.488   9.052  1.00  0.00    -0.000 C 
BRANCH  25  26
ATOM     26  C   UNL     1       7.323 -18.283   8.100  1.00  0.00    -0.000 C 
BRANCH  26  27
ATOM     27  C   UNL     1       5.970 -17.606   7.834  1.00  0.00    -0.000 C 
BRANCH  27  28
ATOM     28  C   UNL     1       5.967 -16.164   8.367  1.00  0.00    -0.000 C 
BRANCH  28  29
ATOM     29  C   UNL     1       4.780 -15.343   7.838  1.00  0.00    -0.003 C 
ATOM     30  C   UNL     1       5.205 -13.987   7.280  1.00  0.00     0.004 C 
ENDBRANCH  28  29
ENDBRANCH  27  28
ENDBRANCH  26  27
ENDBRANCH  25  26
ENDBRANCH  24  25
ENDBRANCH  23  24
ENDBRANCH  22  23
ENDBRANCH  21  22
ENDBRANCH  20  21
ENDBRANCH  19  20
ENDBRANCH  18  19
ENDBRANCH  17  18
ENDBRANCH   1  17
TORSDOF 26
ENDMDL
MODEL 7
REMARK VINA RESULT:    -2.909      2.487      7.123
REMARK INTER + INTRA:         -11.978
REMARK INTER:                  -8.324
REMARK INTRA:                  -3.655
REMARK UNBOUND:                -4.647
REMARK SMILES CCCCCCCCCCCCCCCCCCCCCCCCCCCC(=O)[O-]
REMARK SMILES IDX 15 1 16 2 17 3 18 4 19 5 20 6 21 7 22 8 23 9 24 10 25 11
REMARK SMILES IDX 26 12 27 13 28 14 29 15 30 16 14 17 13 18 12 19 11 20 10 21
REMARK SMILES IDX 9 22 8 23 7 24 6 25 5 26 4 27 3 28 2 29 1 30
REMARK H PARENT
REMARK Flexibility Score: inf
ROOT
ATOM      1  C   UNL     1      10.773 -15.566   5.276  1.00  0.00     0.000 C 
ENDROOT
BRANCH   1   2
ATOM      2  C   UNL     1      10.402 -16.865   4.532  1.00  0.00     0.000 C 
BRANCH   2   3
ATOM      3  C   UNL     1       9.898 -18.013   5.430  1.00  0.00     0.000 C 
BRANCH   3   4
ATOM      4  C   UNL     1       8.497 -18.552   5.074  1.00  0.00     0.000 C 
BRANCH   4   5
ATOM      5  C   UNL     1       7.744 -19.217   6.240  1.00  0.00     0.000 C 
BRANCH   5   6
ATOM      6  C   UNL     1       6.407 -19.841   5.807  1.00  0.00     0.000 C 
BRANCH   6   7
ATOM      7  C   UNL     1       5.521 -20.225   7.003  1.00  0.00     0.000 C 
BRANCH   7   8
ATOM      8  C   UNL     1       4.027 -19.989   6.726  1.00  0.00     0.000 C 
BRANCH   8   9
ATOM      9  C   UNL     1       3.650 -18.493   6.759  1.00  0.00     0.000 C 
BRANCH   9  10
ATOM     10  C   UNL     1       2.704 -18.063   5.621  1.00  0.00     0.000 C 
BRANCH  10  11
ATOM     11  C   UNL     1       2.016 -19.218   4.875  1.00  0.00     0.000 C 
BRANCH  11  12
ATOM     12  C   UNL     1       1.835 -18.934   3.375  1.00  0.00     0.006 C 
BRANCH  12  13
ATOM     13  C   UNL     1       2.974 -18.061   2.840  1.00  0.00     0.053 C 
BRANCH  13  14
ATOM     14  C   UNL     1       3.981 -18.891   2.108  1.00  0.00     0.041 C 
ATOM     15  O   UNL     1       5.084 -19.174   2.649  1.00  0.00    -0.550 OA
ATOM     16  O   UNL     1       3.719 -19.327   0.816  1.00  0.00    -0.550 OA
ENDBRANCH  13  14
ENDBRANCH  12  13
ENDBRANCH  11  12
ENDBRANCH  10  11
ENDBRANCH   9  10
ENDBRANCH   8   9
ENDBRANCH   7   8
ENDBRANCH   6   7
ENDBRANCH   5   6
ENDBRANCH   4   5
ENDBRANCH   3   4
ENDBRANCH   2   3
ENDBRANCH   1   2
BRANCH   1  17
ATOM     17  C   UNL     1      11.607 -15.759   6.556  1.00  0.00     0.000 C 
BRANCH  17  18
ATOM     18  C   UNL     1      11.460 -14.592   7.547  1.00  0.00     0.000 C 
BRANCH  18  19
ATOM     19  C   UNL     1      10.169 -14.670   8.383  1.00  0.00     0.000 C 
BRANCH  19  20
ATOM     20  C   UNL     1      10.009 -15.948   9.226  1.00  0.00     0.000 C 
BRANCH  20  21
ATOM     21  C   UNL     1       8.734 -16.736   8.888  1.00  0.00     0.000 C 
BRANCH  21  22
ATOM     22  C   UNL     1       7.873 -15.977   7.866  1.00  0.00    -0.000 C 
BRANCH  22  23
ATOM     23  C   UNL     1       6.375 -16.295   8.004  1.00  0.00    -0.000 C 
BRANCH  23  24
ATOM     24  C   UNL     1       6.077 -17.223   9.195  1.00  0.00    -0.000 C 
BRANCH  24  25
ATOM     25  C   UNL     1       5.458 -16.480  10.394  1.00  0.00    -0.000 C 
BRANCH  25  26
ATOM     26  C   UNL     1       4.880 -17.388  11.495  1.00  0.00    -0.000 C 
BRANCH  26  27
ATOM     27  C   UNL     1       5.535 -17.161  12.866  1.00  0.00    -0.000 C 
BRANCH  27  28
ATOM     28  C   UNL     1       6.454 -15.929  12.834  1.00  0.00    -0.000 C 
BRANCH  28  29
ATOM     29  C   UNL     1       5.946 -14.793  13.736  1.00  0.00    -0.003 C 
ATOM     30  C   UNL     1       4.453 -14.526  13.563  1.00  0.00     0.004 C 
ENDBRANCH  28  29
ENDBRANCH  27  28
ENDBRANCH  26  27
ENDBRANCH  25  26
ENDBRANCH  24  25
ENDBRANCH  23  24
ENDBRANCH  22  23
ENDBRANCH  21  22
ENDBRANCH  20  21
ENDBRANCH  19  20
ENDBRANCH  18  19
ENDBRANCH  17  18
ENDBRANCH   1  17
TORSDOF 26
ENDMDL
MODEL 8
REMARK VINA RESULT:    -2.859      2.560      5.922
REMARK INTER + INTRA:         -11.851
REMARK INTER:                  -6.815
REMARK INTRA:                  -5.036
REMARK UNBOUND:                -4.647
REMARK SMILES CCCCCCCCCCCCCCCCCCCCCCCCCCCC(=O)[O-]
REMARK SMILES IDX 15 1 16 2 17 3 18 4 19 5 20 6 21 7 22 8 23 9 24 10 25 11
REMARK SMILES IDX 26 12 27 13 28 14 29 15 30 16 14 17 13 18 12 19 11 20 10 21
REMARK SMILES IDX 9 22 8 23 7 24 6 25 5 26 4 27 3 28 2 29 1 30
REMARK H PARENT
REMARK Flexibility Score: inf
ROOT
ATOM      1  C   UNL     1       9.143 -14.614   7.618  1.00  0.00     0.000 C 
ENDROOT
BRANCH   1   2
ATOM      2  C   UNL     1       9.003 -15.535   6.389  1.00  0.00     0.000 C 
BRANCH   2   3
ATOM      3  C   UNL     1      10.171 -15.466   5.384  1.00  0.00     0.000 C 
BRANCH   3   4
ATOM      4  C   UNL     1      10.401 -16.751   4.562  1.00  0.00     0.000 C 
BRANCH   4   5
ATOM      5  C   UNL     1       9.261 -17.782   4.640  1.00  0.00     0.000 C 
BRANCH   5   6
ATOM      6  C   UNL     1       8.666 -18.116   3.261  1.00  0.00     0.000 C 
BRANCH   6   7
ATOM      7  C   UNL     1       7.471 -19.078   3.352  1.00  0.00     0.000 C 
BRANCH   7   8
ATOM      8  C   UNL     1       7.622 -20.095   4.496  1.00  0.00     0.000 C 
BRANCH   8   9
ATOM      9  C   UNL     1       6.486 -21.140   4.510  1.00  0.00     0.000 C 
BRANCH   9  10
ATOM     10  C   UNL     1       5.090 -20.549   4.230  1.00  0.00     0.000 C 
BRANCH  10  11
ATOM     11  C   UNL     1       4.314 -20.095   5.477  1.00  0.00     0.000 C 
BRANCH  11  12
ATOM     12  C   UNL     1       3.557 -18.774   5.259  1.00  0.00     0.006 C 
BRANCH  12  13
ATOM     13  C   UNL     1       2.232 -19.014   4.530  1.00  0.00     0.053 C 
BRANCH  13  14
ATOM     14  C   UNL     1       2.270 -18.430   3.153  1.00  0.00     0.041 C 
ATOM     15  O   UNL     1       1.730 -19.039   2.191  1.00  0.00    -0.550 OA
ATOM     16  O   UNL     1       2.928 -17.229   2.923  1.00  0.00    -0.550 OA
ENDBRANCH  13  14
ENDBRANCH  12  13
ENDBRANCH  11  12
ENDBRANCH  10  11
ENDBRANCH   9  10
ENDBRANCH   8   9
ENDBRANCH   7   8
ENDBRANCH   6   7
ENDBRANCH   5   6
ENDBRANCH   4   5
ENDBRANCH   3   4
ENDBRANCH   2   3
ENDBRANCH   1   2
BRANCH   1  17
ATOM     17  C   UNL     1      10.011 -15.172   8.760  1.00  0.00     0.000 C 
BRANCH  17  18
ATOM     18  C   UNL     1      10.060 -16.709   8.778  1.00  0.00     0.000 C 
BRANCH  18  19
ATOM     19  C   UNL     1       9.579 -17.312  10.111  1.00  0.00     0.000 C 
BRANCH  19  20
ATOM     20  C   UNL     1       9.358 -16.299  11.249  1.00  0.00     0.000 C 
BRANCH  20  21
ATOM     21  C   UNL     1       7.958 -16.391  11.874  1.00  0.00     0.000 C 
BRANCH  21  22
ATOM     22  C   UNL     1       7.569 -17.855  12.136  1.00  0.00    -0.000 C 
BRANCH  22  23
ATOM     23  C   UNL     1       6.178 -18.204  11.581  1.00  0.00    -0.000 C 
BRANCH  23  24
ATOM     24  C   UNL     1       5.588 -17.074  10.719  1.00  0.00    -0.000 C 
BRANCH  24  25
ATOM     25  C   UNL     1       5.247 -17.527   9.287  1.00  0.00    -0.000 C 
BRANCH  25  26
ATOM     26  C   UNL     1       6.254 -17.091   8.208  1.00  0.00    -0.000 C 
BRANCH  26  27
ATOM     27  C   UNL     1       6.982 -18.275   7.552  1.00  0.00    -0.000 C 
BRANCH  27  28
ATOM     28  C   UNL     1       6.575 -19.600   8.216  1.00  0.00    -0.000 C 
BRANCH  28  29
ATOM     29  C   UNL     1       7.784 -20.395   8.733  1.00  0.00    -0.003 C 
ATOM     30  C   UNL     1       9.030 -20.197   7.873  1.00  0.00     0.004 C 
ENDBRANCH  28  29
ENDBRANCH  27  28
ENDBRANCH  26  27
ENDBRANCH  25  26
ENDBRANCH  24  25
ENDBRANCH  23  24
ENDBRANCH  22  23
ENDBRANCH  21  22
ENDBRANCH  20  21
ENDBRANCH  19  20
ENDBRANCH  18  19
ENDBRANCH  17  18
ENDBRANCH   1  17
TORSDOF 26
ENDMDL
MODEL 9
REMARK VINA RESULT:    -2.809      2.123      5.909
REMARK INTER + INTRA:         -11.725
REMARK INTER:                  -6.971
REMARK INTRA:                  -4.754
REMARK UNBOUND:                -4.647
REMARK SMILES CCCCCCCCCCCCCCCCCCCCCCCCCCCC(=O)[O-]
REMARK SMILES IDX 15 1 16 2 17 3 18 4 19 5 20 6 21 7 22 8 23 9 24 10 25 11
REMARK SMILES IDX 26 12 27 13 28 14 29 15 30 16 14 17 13 18 12 19 11 20 10 21
REMARK SMILES IDX 9 22 8 23 7 24 6 25 5 26 4 27 3 28 2 29 1 30
REMARK H PARENT
REMARK Flexibility Score: inf
ROOT
ATOM      1  C   UNL     1       3.989 -18.952   2.108  1.00  0.00     0.000 C 
ENDROOT
BRANCH   1   2
ATOM      2  C   UNL     1       5.105 -19.275   3.124  1.00  0.00     0.000 C 
BRANCH   2   3
ATOM      3  C   UNL     1       5.051 -20.694   3.725  1.00  0.00     0.000 C 
BRANCH   3   4
ATOM      4  C   UNL     1       6.036 -20.948   4.886  1.00  0.00     0.000 C 
BRANCH   4   5
ATOM      5  C   UNL     1       6.787 -19.700   5.382  1.00  0.00     0.000 C 
BRANCH   5   6
ATOM      6  C   UNL     1       8.181 -20.028   5.944  1.00  0.00     0.000 C 
BRANCH   6   7
ATOM      7  C   UNL     1       8.578 -19.106   7.108  1.00  0.00     0.000 C 
BRANCH   7   8
ATOM      8  C   UNL     1       7.455 -18.129   7.494  1.00  0.00     0.000 C 
BRANCH   8   9
ATOM      9  C   UNL     1       7.989 -16.865   8.199  1.00  0.00     0.000 C 
BRANCH   9  10
ATOM     10  C   UNL     1       7.620 -15.549   7.487  1.00  0.00     0.000 C 
BRANCH  10  11
ATOM     11  C   UNL     1       8.817 -14.696   7.033  1.00  0.00     0.000 C 
BRANCH  11  12
ATOM     12  C   UNL     1      10.007 -15.546   6.559  1.00  0.00     0.006 C 
BRANCH  12  13
ATOM     13  C   UNL     1      10.130 -15.517   5.033  1.00  0.00     0.053 C 
BRANCH  13  14
ATOM     14  C   UNL     1      10.269 -16.902   4.485  1.00  0.00     0.041 C 
ATOM     15  O   UNL     1       9.597 -17.256   3.479  1.00  0.00    -0.550 OA
ATOM     16  O   UNL     1      11.116 -17.814   5.102  1.00  0.00    -0.550 OA
ENDBRANCH  13  14
ENDBRANCH  12  13
ENDBRANCH  11  12
ENDBRANCH  10  11
ENDBRANCH   9  10
ENDBRANCH   8   9
ENDBRANCH   7   8
ENDBRANCH   6   7
ENDBRANCH   5   6
ENDBRANCH   4   5
ENDBRANCH   3   4
ENDBRANCH   2   3
ENDBRANCH   1   2
BRANCH   1  17
ATOM     17  C   UNL     1       2.877 -18.025   2.629  1.00  0.00     0.000 C 
BRANCH  17  18
ATOM     18  C   UNL     1       1.494 -18.698   2.640  1.00  0.00     0.000 C 
BRANCH  18  19
ATOM     19  C   UNL     1       1.570 -20.232   2.538  1.00  0.00     0.000 C 
BRANCH  19  20
ATOM     20  C   UNL     1       1.277 -20.994   3.843  1.00  0.00     0.000 C 
BRANCH  20  21
ATOM     21  C   UNL     1       1.004 -20.063   5.035  1.00  0.00     0.000 C 
BRANCH  21  22
ATOM     22  C   UNL     1       2.254 -19.922   5.919  1.00  0.00    -0.000 C 
BRANCH  22  23
ATOM     23  C   UNL     1       2.662 -18.455   6.134  1.00  0.00    -0.000 C 
BRANCH  23  24
ATOM     24  C   UNL     1       3.840 -18.307   7.112  1.00  0.00    -0.000 C 
BRANCH  24  25
ATOM     25  C   UNL     1       4.065 -19.563   7.974  1.00  0.00    -0.000 C 
BRANCH  25  26
ATOM     26  C   UNL     1       4.099 -19.314   9.493  1.00  0.00    -0.000 C 
BRANCH  26  27
ATOM     27  C   UNL     1       3.224 -20.300  10.283  1.00  0.00    -0.000 C 
BRANCH  27  28
ATOM     28  C   UNL     1       1.926 -20.608   9.521  1.00  0.00    -0.000 C 
BRANCH  28  29
ATOM     29  C   UNL     1       0.768 -19.684   9.934  1.00  0.00    -0.003 C 
ATOM     30  C   UNL     1       0.067 -19.048   8.736  1.00  0.00     0.004 C 
ENDBRANCH  28  29
ENDBRANCH  27  28
ENDBRANCH  26  27
ENDBRANCH  25  26
ENDBRANCH  24  25
ENDBRANCH  23  24
ENDBRANCH  22  23
ENDBRANCH  21  22
ENDBRANCH  20  21
ENDBRANCH  19  20
ENDBRANCH  18  19
ENDBRANCH  17  18
ENDBRANCH   1  17
TORSDOF 26
ENDMDL
