MODEL 1
REMARK VINA RESULT:    -6.141      0.000      0.000
REMARK INTER + INTRA:          -6.651
REMARK INTER:                  -6.680
REMARK INTRA:                   0.029
REMARK UNBOUND:                 0.029
REMARK SMILES COc1cc2ccc(=O)oc2cc1O
REMARK SMILES IDX 3 1 13 2 12 3 11 4 5 5 4 6 6 7 7 8 8 9 9 10 10 11 2 12 1 13
REMARK SMILES IDX 14 14
REMARK H PARENT 14 15
REMARK Flexibility Score: inf
ROOT
ATOM      1  C   UNL     1     -40.144  38.309  47.985  1.00  0.00     0.161 A 
ATOM      2  C   UNL     1     -38.779  38.293  48.335  1.00  0.00     0.161 A 
ATOM      3  C   UNL     1     -37.807  38.659  47.397  1.00  0.00     0.098 A 
ATOM      4  C   UNL     1     -38.177  39.045  46.107  1.00  0.00     0.142 A 
ATOM      5  C   UNL     1     -39.541  39.064  45.746  1.00  0.00     0.022 A 
ATOM      6  C   UNL     1     -40.518  38.699  46.683  1.00  0.00     0.062 A 
ATOM      7  C   UNL     1     -39.880  39.455  44.447  1.00  0.00     0.019 A 
ATOM      8  C   UNL     1     -38.871  39.810  43.553  1.00  0.00     0.094 A 
ATOM      9  C   UNL     1     -37.540  39.767  43.981  1.00  0.00     0.336 A 
ATOM     10  O   UNL     1     -36.615  40.084  43.189  1.00  0.00    -0.246 OA
ATOM     11  O   UNL     1     -37.245  39.392  45.223  1.00  0.00    -0.423 OA
ENDROOT
BRANCH   1  12
ATOM     12  O   UNL     1     -41.094  37.936  48.949  1.00  0.00    -0.493 OA
ATOM     13  C   UNL     1     -41.364  36.594  49.340  1.00  0.00     0.278 C 
ENDBRANCH   1  12
BRANCH   2  14
ATOM     14  O   UNL     1     -38.369  37.914  49.613  1.00  0.00    -0.504 OA
ATOM     15  H   UNL     1     -37.610  38.379  50.097  1.00  0.00     0.293 HD
ENDBRANCH   2  14
TORSDOF 2
ENDMDL
MODEL 2
REMARK VINA RESULT:    -5.943      6.032      9.933
REMARK INTER + INTRA:          -6.436
REMARK INTER:                  -6.592
REMARK INTRA:                   0.157
REMARK UNBOUND:                 0.029
REMARK SMILES COc1cc2ccc(=O)oc2cc1O
REMARK SMILES IDX 3 1 13 2 12 3 11 4 5 5 4 6 6 7 7 8 8 9 9 10 10 11 2 12 1 13
REMARK SMILES IDX 14 14
REMARK H PARENT 14 15
REMARK Flexibility Score: inf
ROOT
ATOM      1  C   UNL     1     -34.702  44.749  39.206  1.00  0.00     0.161 A 
ATOM      2  C   UNL     1     -34.448  43.430  38.779  1.00  0.00     0.161 A 
ATOM      3  C   UNL     1     -34.599  42.360  39.669  1.00  0.00     0.098 A 
ATOM      4  C   UNL     1     -35.004  42.586  40.986  1.00  0.00     0.142 A 
ATOM      5  C   UNL     1     -35.262  43.903  41.424  1.00  0.00     0.022 A 
ATOM      6  C   UNL     1     -35.111  44.977  40.536  1.00  0.00     0.062 A 
ATOM      7  C   UNL     1     -35.666  44.097  42.748  1.00  0.00     0.019 A 
ATOM      8  C   UNL     1     -35.801  42.996  43.592  1.00  0.00     0.094 A 
ATOM      9  C   UNL     1     -35.529  41.719  43.089  1.00  0.00     0.336 A 
ATOM     10  O   UNL     1     -35.645  40.712  43.835  1.00  0.00    -0.246 OA
ATOM     11  O   UNL     1     -35.146  41.562  41.824  1.00  0.00    -0.423 OA
ENDROOT
BRANCH   1  12
ATOM     12  O   UNL     1     -34.540  45.799  38.289  1.00  0.00    -0.493 OA
ATOM     13  C   UNL     1     -33.300  46.174  37.700  1.00  0.00     0.278 C 
ENDBRANCH   1  12
BRANCH   2  14
ATOM     14  O   UNL     1     -34.041  43.163  37.473  1.00  0.00    -0.504 OA
ATOM     15  H   UNL     1     -33.328  43.712  37.006  1.00  0.00     0.293 HD
ENDBRANCH   2  14
TORSDOF 2
ENDMDL
MODEL 3
REMARK VINA RESULT:    -5.827      1.428      2.723
REMARK INTER + INTRA:          -6.310
REMARK INTER:                  -6.249
REMARK INTRA:                  -0.061
REMARK UNBOUND:                 0.029
REMARK SMILES COc1cc2ccc(=O)oc2cc1O
REMARK SMILES IDX 3 1 13 2 12 3 11 4 5 5 4 6 6 7 7 8 8 9 9 10 10 11 2 12 1 13
REMARK SMILES IDX 14 14
REMARK H PARENT 14 15
REMARK Flexibility Score: inf
ROOT
ATOM      1  C   UNL     1     -40.059  38.210  48.224  1.00  0.00     0.161 A 
ATOM      2  C   UNL     1     -40.495  38.624  46.950  1.00  0.00     0.161 A 
ATOM      3  C   UNL     1     -39.569  38.821  45.918  1.00  0.00     0.098 A 
ATOM      4  C   UNL     1     -38.207  38.609  46.140  1.00  0.00     0.142 A 
ATOM      5  C   UNL     1     -37.760  38.194  47.412  1.00  0.00     0.022 A 
ATOM      6  C   UNL     1     -38.684  37.996  48.448  1.00  0.00     0.062 A 
ATOM      7  C   UNL     1     -36.390  37.990  47.604  1.00  0.00     0.019 A 
ATOM      8  C   UNL     1     -35.512  38.200  46.541  1.00  0.00     0.094 A 
ATOM      9  C   UNL     1     -36.026  38.611  45.307  1.00  0.00     0.336 A 
ATOM     10  O   UNL     1     -35.249  38.806  44.337  1.00  0.00    -0.246 OA
ATOM     11  O   UNL     1     -37.334  38.798  45.152  1.00  0.00    -0.423 OA
ENDROOT
BRANCH   1  12
ATOM     12  O   UNL     1     -41.014  38.023  49.237  1.00  0.00    -0.493 OA
ATOM     13  C   UNL     1     -41.333  36.766  49.824  1.00  0.00     0.278 C 
ENDBRANCH   1  12
BRANCH   2  14
ATOM     14  O   UNL     1     -41.847  38.847  46.689  1.00  0.00    -0.504 OA
ATOM     15  H   UNL     1     -42.559  38.162  46.911  1.00  0.00     0.293 HD
ENDBRANCH   2  14
TORSDOF 2
ENDMDL
MODEL 4
REMARK VINA RESULT:    -5.824      6.128      8.501
REMARK INTER + INTRA:          -6.306
REMARK INTER:                  -6.241
REMARK INTRA:                  -0.065
REMARK UNBOUND:                 0.029
REMARK SMILES COc1cc2ccc(=O)oc2cc1O
REMARK SMILES IDX 3 1 13 2 12 3 11 4 5 5 4 6 6 7 7 8 8 9 9 10 10 11 2 12 1 13
REMARK SMILES IDX 14 14
REMARK H PARENT 14 15
REMARK Flexibility Score: inf
ROOT
ATOM      1  C   UNL     1     -35.452  42.453  42.468  1.00  0.00     0.161 A 
ATOM      2  C   UNL     1     -35.070  41.414  41.596  1.00  0.00     0.161 A 
ATOM      3  C   UNL     1     -34.693  41.703  40.279  1.00  0.00     0.098 A 
ATOM      4  C   UNL     1     -34.691  43.019  39.815  1.00  0.00     0.142 A 
ATOM      5  C   UNL     1     -35.072  44.067  40.681  1.00  0.00     0.022 A 
ATOM      6  C   UNL     1     -35.449  43.783  42.001  1.00  0.00     0.062 A 
ATOM      7  C   UNL     1     -35.059  45.375  40.188  1.00  0.00     0.019 A 
ATOM      8  C   UNL     1     -34.675  45.606  38.867  1.00  0.00     0.094 A 
ATOM      9  C   UNL     1     -34.310  44.518  38.068  1.00  0.00     0.336 A 
ATOM     10  O   UNL     1     -33.960  44.707  36.873  1.00  0.00    -0.246 OA
ATOM     11  O   UNL     1     -34.330  43.283  38.562  1.00  0.00    -0.423 OA
ENDROOT
BRANCH   1  12
ATOM     12  O   UNL     1     -35.825  42.129  43.783  1.00  0.00    -0.493 OA
ATOM     13  C   UNL     1     -34.990  42.294  44.923  1.00  0.00     0.278 C 
ENDBRANCH   1  12
BRANCH   2  14
ATOM     14  O   UNL     1     -35.059  40.086  42.021  1.00  0.00    -0.504 OA
ATOM     15  H   UNL     1     -35.911  39.578  42.228  1.00  0.00     0.293 HD
ENDBRANCH   2  14
TORSDOF 2
ENDMDL
MODEL 5
REMARK VINA RESULT:    -5.807      6.744      9.460
REMARK INTER + INTRA:          -6.288
REMARK INTER:                  -6.244
REMARK INTRA:                  -0.044
REMARK UNBOUND:                 0.029
REMARK SMILES COc1cc2ccc(=O)oc2cc1O
REMARK SMILES IDX 3 1 13 2 12 3 11 4 5 5 4 6 6 7 7 8 8 9 9 10 10 11 2 12 1 13
REMARK SMILES IDX 14 14
REMARK H PARENT 14 15
REMARK Flexibility Score: inf
ROOT
ATOM      1  C   UNL     1     -35.419  43.113  41.659  1.00  0.00     0.161 A 
ATOM      2  C   UNL     1     -35.552  44.482  41.963  1.00  0.00     0.161 A 
ATOM      3  C   UNL     1     -35.244  45.451  41.000  1.00  0.00     0.098 A 
ATOM      4  C   UNL     1     -34.802  45.072  39.731  1.00  0.00     0.142 A 
ATOM      5  C   UNL     1     -34.666  43.703  39.416  1.00  0.00     0.022 A 
ATOM      6  C   UNL     1     -34.974  42.730  40.377  1.00  0.00     0.062 A 
ATOM      7  C   UNL     1     -34.222  43.355  38.137  1.00  0.00     0.019 A 
ATOM      8  C   UNL     1     -33.929  44.361  37.217  1.00  0.00     0.094 A 
ATOM      9  C   UNL     1     -34.088  45.697  37.599  1.00  0.00     0.336 A 
ATOM     10  O   UNL     1     -33.829  46.619  36.782  1.00  0.00    -0.246 OA
ATOM     11  O   UNL     1     -34.513  46.001  38.823  1.00  0.00    -0.423 OA
ENDROOT
BRANCH   1  12
ATOM     12  O   UNL     1     -35.736  42.167  42.647  1.00  0.00    -0.493 OA
ATOM     13  C   UNL     1     -35.437  40.778  42.562  1.00  0.00     0.278 C 
ENDBRANCH   1  12
BRANCH   2  14
ATOM     14  O   UNL     1     -35.989  44.900  43.220  1.00  0.00    -0.504 OA
ATOM     15  H   UNL     1     -35.955  45.871  43.507  1.00  0.00     0.293 HD
ENDBRANCH   2  14
TORSDOF 2
ENDMDL
MODEL 6
REMARK VINA RESULT:    -5.716      3.191      4.969
REMARK INTER + INTRA:          -6.189
REMARK INTER:                  -6.132
REMARK INTRA:                  -0.057
REMARK UNBOUND:                 0.029
REMARK SMILES COc1cc2ccc(=O)oc2cc1O
REMARK SMILES IDX 3 1 13 2 12 3 11 4 5 5 4 6 6 7 7 8 8 9 9 10 10 11 2 12 1 13
REMARK SMILES IDX 14 14
REMARK H PARENT 14 15
REMARK Flexibility Score: inf
ROOT
ATOM      1  C   UNL     1     -37.058  39.403  45.158  1.00  0.00     0.161 A 
ATOM      2  C   UNL     1     -37.434  39.131  46.488  1.00  0.00     0.161 A 
ATOM      3  C   UNL     1     -37.501  37.809  46.944  1.00  0.00     0.098 A 
ATOM      4  C   UNL     1     -37.198  36.748  46.089  1.00  0.00     0.142 A 
ATOM      5  C   UNL     1     -36.820  37.011  44.755  1.00  0.00     0.022 A 
ATOM      6  C   UNL     1     -36.751  38.333  44.294  1.00  0.00     0.062 A 
ATOM      7  C   UNL     1     -36.522  35.928  43.922  1.00  0.00     0.019 A 
ATOM      8  C   UNL     1     -36.605  34.631  44.428  1.00  0.00     0.094 A 
ATOM      9  C   UNL     1     -36.986  34.447  45.761  1.00  0.00     0.336 A 
ATOM     10  O   UNL     1     -37.067  33.285  46.237  1.00  0.00    -0.246 OA
ATOM     11  O   UNL     1     -37.264  35.495  46.532  1.00  0.00    -0.423 OA
ENDROOT
BRANCH   1  12
ATOM     12  O   UNL     1     -37.001  40.740  44.732  1.00  0.00    -0.493 OA
ATOM     13  C   UNL     1     -37.766  41.281  43.660  1.00  0.00     0.278 C 
ENDBRANCH   1  12
BRANCH   2  14
ATOM     14  O   UNL     1     -37.745  40.163  47.373  1.00  0.00    -0.504 OA
ATOM     15  H   UNL     1     -37.413  41.110  47.236  1.00  0.00     0.293 HD
ENDBRANCH   2  14
TORSDOF 2
ENDMDL
MODEL 7
REMARK VINA RESULT:    -5.687      7.061     10.007
REMARK INTER + INTRA:          -6.157
REMARK INTER:                  -6.113
REMARK INTRA:                  -0.044
REMARK UNBOUND:                 0.029
REMARK SMILES COc1cc2ccc(=O)oc2cc1O
REMARK SMILES IDX 3 1 13 2 12 3 11 4 5 5 4 6 6 7 7 8 8 9 9 10 10 11 2 12 1 13
REMARK SMILES IDX 14 14
REMARK H PARENT 14 15
REMARK Flexibility Score: inf
ROOT
ATOM      1  C   UNL     1     -34.703  44.834  39.142  1.00  0.00     0.161 A 
ATOM      2  C   UNL     1     -35.122  45.135  40.453  1.00  0.00     0.161 A 
ATOM      3  C   UNL     1     -35.154  44.132  41.429  1.00  0.00     0.098 A 
ATOM      4  C   UNL     1     -34.773  42.826  41.116  1.00  0.00     0.142 A 
ATOM      5  C   UNL     1     -34.352  42.515  39.805  1.00  0.00     0.022 A 
ATOM      6  C   UNL     1     -34.317  43.516  38.825  1.00  0.00     0.062 A 
ATOM      7  C   UNL     1     -33.976  41.198  39.522  1.00  0.00     0.019 A 
ATOM      8  C   UNL     1     -34.027  40.239  40.532  1.00  0.00     0.094 A 
ATOM      9  C   UNL     1     -34.455  40.620  41.808  1.00  0.00     0.336 A 
ATOM     10  O   UNL     1     -34.508  39.768  42.733  1.00  0.00    -0.246 OA
ATOM     11  O   UNL     1     -34.807  41.880  42.051  1.00  0.00    -0.423 OA
ENDROOT
BRANCH   1  12
ATOM     12  O   UNL     1     -34.682  45.863  38.186  1.00  0.00    -0.493 OA
ATOM     13  C   UNL     1     -33.918  45.836  36.985  1.00  0.00     0.278 C 
ENDBRANCH   1  12
BRANCH   2  14
ATOM     14  O   UNL     1     -35.511  46.427  40.805  1.00  0.00    -0.504 OA
ATOM     15  H   UNL     1     -36.393  46.619  41.264  1.00  0.00     0.293 HD
ENDBRANCH   2  14
TORSDOF 2
ENDMDL
MODEL 8
REMARK VINA RESULT:    -5.673      5.315      8.349
REMARK INTER + INTRA:          -6.142
REMARK INTER:                  -6.097
REMARK INTRA:                  -0.045
REMARK UNBOUND:                 0.029
REMARK SMILES COc1cc2ccc(=O)oc2cc1O
REMARK SMILES IDX 3 1 13 2 12 3 11 4 5 5 4 6 6 7 7 8 8 9 9 10 10 11 2 12 1 13
REMARK SMILES IDX 14 14
REMARK H PARENT 14 15
REMARK Flexibility Score: inf
ROOT
ATOM      1  C   UNL     1     -35.456  41.482  42.120  1.00  0.00     0.161 A 
ATOM      2  C   UNL     1     -35.216  41.715  40.751  1.00  0.00     0.161 A 
ATOM      3  C   UNL     1     -33.904  41.792  40.269  1.00  0.00     0.098 A 
ATOM      4  C   UNL     1     -32.821  41.638  41.137  1.00  0.00     0.142 A 
ATOM      5  C   UNL     1     -33.050  41.403  42.509  1.00  0.00     0.022 A 
ATOM      6  C   UNL     1     -34.363  41.325  42.996  1.00  0.00     0.062 A 
ATOM      7  C   UNL     1     -31.946  41.253  43.353  1.00  0.00     0.019 A 
ATOM      8  C   UNL     1     -30.660  41.338  42.820  1.00  0.00     0.094 A 
ATOM      9  C   UNL     1     -30.509  41.573  41.449  1.00  0.00     0.336 A 
ATOM     10  O   UNL     1     -29.356  41.653  40.950  1.00  0.00    -0.246 OA
ATOM     11  O   UNL     1     -31.577  41.712  40.669  1.00  0.00    -0.423 OA
ENDROOT
BRANCH   1  12
ATOM     12  O   UNL     1     -36.784  41.411  42.570  1.00  0.00    -0.493 OA
ATOM     13  C   UNL     1     -37.207  41.725  43.893  1.00  0.00     0.278 C 
ENDBRANCH   1  12
BRANCH   2  14
ATOM     14  O   UNL     1     -36.271  41.875  39.853  1.00  0.00    -0.504 OA
ATOM     15  H   UNL     1     -36.834  42.717  39.826  1.00  0.00     0.293 HD
ENDBRANCH   2  14
TORSDOF 2
ENDMDL
MODEL 9
REMARK VINA RESULT:    -5.572      1.796      2.205
REMARK INTER + INTRA:          -6.032
REMARK INTER:                  -5.967
REMARK INTRA:                  -0.065
REMARK UNBOUND:                 0.029
REMARK SMILES COc1cc2ccc(=O)oc2cc1O
REMARK SMILES IDX 3 1 13 2 12 3 11 4 5 5 4 6 6 7 7 8 8 9 9 10 10 11 2 12 1 13
REMARK SMILES IDX 14 14
REMARK H PARENT 14 15
REMARK Flexibility Score: inf
ROOT
ATOM      1  C   UNL     1     -38.784  37.762  46.685  1.00  0.00     0.161 A 
ATOM      2  C   UNL     1     -37.763  36.879  46.280  1.00  0.00     0.161 A 
ATOM      3  C   UNL     1     -37.025  37.142  45.120  1.00  0.00     0.098 A 
ATOM      4  C   UNL     1     -37.289  38.279  44.354  1.00  0.00     0.142 A 
ATOM      5  C   UNL     1     -38.309  39.169  44.752  1.00  0.00     0.022 A 
ATOM      6  C   UNL     1     -39.051  38.910  45.913  1.00  0.00     0.062 A 
ATOM      7  C   UNL     1     -38.551  40.299  43.964  1.00  0.00     0.019 A 
ATOM      8  C   UNL     1     -37.785  40.512  42.819  1.00  0.00     0.094 A 
ATOM      9  C   UNL     1     -36.791  39.587  42.486  1.00  0.00     0.336 A 
ATOM     10  O   UNL     1     -36.089  39.762  41.456  1.00  0.00    -0.246 OA
ATOM     11  O   UNL     1     -36.581  38.520  43.253  1.00  0.00    -0.423 OA
ENDROOT
BRANCH   1  12
ATOM     12  O   UNL     1     -39.506  37.469  47.854  1.00  0.00    -0.493 OA
ATOM     13  C   UNL     1     -39.233  38.027  49.134  1.00  0.00     0.278 C 
ENDBRANCH   1  12
BRANCH   2  14
ATOM     14  O   UNL     1     -37.469  35.733  47.017  1.00  0.00    -0.504 OA
ATOM     15  H   UNL     1     -38.192  35.130  47.390  1.00  0.00     0.293 HD
ENDBRANCH   2  14
TORSDOF 2
ENDMDL
