MODEL 1
REMARK VINA RESULT:    -4.519      0.000      0.000
REMARK INTER + INTRA:         -10.414
REMARK INTER:                  -8.217
REMARK INTRA:                  -2.197
REMARK UNBOUND:                -2.197
REMARK SMILES CCCCCCCCCCCCCCCC(=O)[O-]
REMARK SMILES IDX 9 1 10 2 11 3 12 4 13 5 14 6 15 7 16 8 17 9 18 10 8 11 7 12
REMARK SMILES IDX 6 13 5 14 4 15 3 16 2 17 1 18
REMARK H PARENT
REMARK Flexibility Score: inf
ROOT
ATOM      1  C   UNL     1       8.646  -6.703  28.563  1.00  0.00     0.000 C 
ENDROOT
BRANCH   1   2
ATOM      2  C   UNL     1       8.697  -5.291  27.957  1.00  0.00     0.000 C 
BRANCH   2   3
ATOM      3  C   UNL     1       7.480  -4.430  28.345  1.00  0.00     0.000 C 
BRANCH   3   4
ATOM      4  C   UNL     1       6.209  -4.672  27.505  1.00  0.00     0.000 C 
BRANCH   4   5
ATOM      5  C   UNL     1       6.458  -4.969  26.016  1.00  0.00     0.000 C 
BRANCH   5   6
ATOM      6  C   UNL     1       5.619  -6.147  25.493  1.00  0.00     0.006 C 
BRANCH   6   7
ATOM      7  C   UNL     1       6.130  -6.668  24.144  1.00  0.00     0.053 C 
BRANCH   7   8
ATOM      8  C   UNL     1       5.390  -6.052  22.995  1.00  0.00     0.041 C 
ATOM      9  O   UNL     1       4.242  -5.564  23.170  1.00  0.00    -0.550 OA
ATOM     10  O   UNL     1       5.953  -6.049  21.726  1.00  0.00    -0.550 OA
ENDBRANCH   7   8
ENDBRANCH   6   7
ENDBRANCH   5   6
ENDBRANCH   4   5
ENDBRANCH   3   4
ENDBRANCH   2   3
ENDBRANCH   1   2
BRANCH   1  11
ATOM     11  C   UNL     1       8.397  -7.791  27.504  1.00  0.00     0.000 C 
BRANCH  11  12
ATOM     12  C   UNL     1       7.239  -8.728  27.876  1.00  0.00    -0.000 C 
BRANCH  12  13
ATOM     13  C   UNL     1       6.201  -8.000  28.743  1.00  0.00    -0.000 C 
BRANCH  13  14
ATOM     14  C   UNL     1       5.945  -8.703  30.089  1.00  0.00    -0.000 C 
BRANCH  14  15
ATOM     15  C   UNL     1       5.444  -7.782  31.218  1.00  0.00    -0.000 C 
BRANCH  15  16
ATOM     16  C   UNL     1       5.939  -6.326  31.139  1.00  0.00    -0.000 C 
BRANCH  16  17
ATOM     17  C   UNL     1       7.306  -6.096  31.816  1.00  0.00    -0.003 C 
ATOM     18  C   UNL     1       7.275  -4.959  32.838  1.00  0.00     0.004 C 
ENDBRANCH  16  17
ENDBRANCH  15  16
ENDBRANCH  14  15
ENDBRANCH  13  14
ENDBRANCH  12  13
ENDBRANCH  11  12
ENDBRANCH   1  11
TORSDOF 14
ENDMDL
MODEL 2
REMARK VINA RESULT:    -4.385      3.491      6.399
REMARK INTER + INTRA:         -10.171
REMARK INTER:                  -7.546
REMARK INTRA:                  -2.624
REMARK UNBOUND:                -2.197
REMARK SMILES CCCCCCCCCCCCCCCC(=O)[O-]
REMARK SMILES IDX 9 1 10 2 11 3 12 4 13 5 14 6 15 7 16 8 17 9 18 10 8 11 7 12
REMARK SMILES IDX 6 13 5 14 4 15 3 16 2 17 1 18
REMARK H PARENT
REMARK Flexibility Score: inf
ROOT
ATOM      1  C   UNL     1       8.568  -7.947  27.495  1.00  0.00     0.000 C 
ENDROOT
BRANCH   1   2
ATOM      2  C   UNL     1       7.319  -8.842  27.555  1.00  0.00     0.000 C 
BRANCH   2   3
ATOM      3  C   UNL     1       6.723  -8.942  28.971  1.00  0.00     0.000 C 
BRANCH   3   4
ATOM      4  C   UNL     1       5.224  -8.590  29.080  1.00  0.00     0.000 C 
BRANCH   4   5
ATOM      5  C   UNL     1       4.824  -7.828  30.355  1.00  0.00     0.000 C 
BRANCH   5   6
ATOM      6  C   UNL     1       6.014  -7.563  31.292  1.00  0.00     0.006 C 
BRANCH   6   7
ATOM      7  C   UNL     1       5.939  -6.177  31.946  1.00  0.00     0.053 C 
BRANCH   7   8
ATOM      8  C   UNL     1       7.299  -5.657  32.301  1.00  0.00     0.041 C 
ATOM      9  O   UNL     1       8.328  -6.321  32.004  1.00  0.00    -0.550 OA
ATOM     10  O   UNL     1       7.428  -4.459  32.989  1.00  0.00    -0.550 OA
ENDBRANCH   7   8
ENDBRANCH   6   7
ENDBRANCH   5   6
ENDBRANCH   4   5
ENDBRANCH   3   4
ENDBRANCH   2   3
ENDBRANCH   1   2
BRANCH   1  11
ATOM     11  C   UNL     1       8.634  -6.947  28.661  1.00  0.00     0.000 C 
BRANCH  11  12
ATOM     12  C   UNL     1       8.461  -5.490  28.204  1.00  0.00    -0.000 C 
BRANCH  12  13
ATOM     13  C   UNL     1       7.087  -4.945  28.622  1.00  0.00    -0.000 C 
BRANCH  13  14
ATOM     14  C   UNL     1       5.983  -5.244  27.590  1.00  0.00    -0.000 C 
BRANCH  14  15
ATOM     15  C   UNL     1       6.386  -5.012  26.121  1.00  0.00    -0.000 C 
BRANCH  15  16
ATOM     16  C   UNL     1       5.414  -5.598  25.079  1.00  0.00    -0.000 C 
BRANCH  16  17
ATOM     17  C   UNL     1       5.463  -7.137  24.979  1.00  0.00    -0.003 C 
ATOM     18  C   UNL     1       4.230  -7.806  25.585  1.00  0.00     0.004 C 
ENDBRANCH  16  17
ENDBRANCH  15  16
ENDBRANCH  14  15
ENDBRANCH  13  14
ENDBRANCH  12  13
ENDBRANCH  11  12
ENDBRANCH   1  11
TORSDOF 14
ENDMDL
MODEL 3
REMARK VINA RESULT:    -4.359     10.511     13.814
REMARK INTER + INTRA:         -10.124
REMARK INTER:                  -8.557
REMARK INTRA:                  -1.567
REMARK UNBOUND:                -2.197
REMARK SMILES CCCCCCCCCCCCCCCC(=O)[O-]
REMARK SMILES IDX 9 1 10 2 11 3 12 4 13 5 14 6 15 7 16 8 17 9 18 10 8 11 7 12
REMARK SMILES IDX 6 13 5 14 4 15 3 16 2 17 1 18
REMARK H PARENT
REMARK Flexibility Score: inf
ROOT
ATOM      1  C   UNL     1      12.470  -6.346  17.274  1.00  0.00     0.000 C 
ENDROOT
BRANCH   1   2
ATOM      2  C   UNL     1      13.938  -5.888  17.257  1.00  0.00     0.000 C 
BRANCH   2   3
ATOM      3  C   UNL     1      14.294  -4.980  18.449  1.00  0.00     0.000 C 
BRANCH   3   4
ATOM      4  C   UNL     1      14.591  -5.718  19.772  1.00  0.00     0.000 C 
BRANCH   4   5
ATOM      5  C   UNL     1      13.915  -5.120  21.018  1.00  0.00     0.000 C 
BRANCH   5   6
ATOM      6  C   UNL     1      13.608  -3.620  20.870  1.00  0.00     0.006 C 
BRANCH   6   7
ATOM      7  C   UNL     1      12.918  -3.045  22.114  1.00  0.00     0.053 C 
BRANCH   7   8
ATOM      8  C   UNL     1      13.218  -1.588  22.290  1.00  0.00     0.041 C 
ATOM      9  O   UNL     1      14.402  -1.169  22.194  1.00  0.00    -0.550 OA
ATOM     10  O   UNL     1      12.196  -0.699  22.596  1.00  0.00    -0.550 OA
ENDBRANCH   7   8
ENDBRANCH   6   7
ENDBRANCH   5   6
ENDBRANCH   4   5
ENDBRANCH   3   4
ENDBRANCH   2   3
ENDBRANCH   1   2
BRANCH   1  11
ATOM     11  C   UNL     1      12.328  -7.874  17.189  1.00  0.00     0.000 C 
BRANCH  11  12
ATOM     12  C   UNL     1      13.653  -8.609  17.440  1.00  0.00    -0.000 C 
BRANCH  12  13
ATOM     13  C   UNL     1      13.898  -9.678  16.366  1.00  0.00    -0.000 C 
BRANCH  13  14
ATOM     14  C   UNL     1      15.201  -9.449  15.577  1.00  0.00    -0.000 C 
BRANCH  14  15
ATOM     15  C   UNL     1      15.006  -9.033  14.107  1.00  0.00    -0.000 C 
BRANCH  15  16
ATOM     16  C   UNL     1      15.351  -7.565  13.794  1.00  0.00    -0.000 C 
BRANCH  16  17
ATOM     17  C   UNL     1      14.227  -6.806  13.057  1.00  0.00    -0.003 C 
ATOM     18  C   UNL     1      12.841  -7.105  13.628  1.00  0.00     0.004 C 
ENDBRANCH  16  17
ENDBRANCH  15  16
ENDBRANCH  14  15
ENDBRANCH  13  14
ENDBRANCH  12  13
ENDBRANCH  11  12
ENDBRANCH   1  11
TORSDOF 14
ENDMDL
MODEL 4
REMARK VINA RESULT:    -4.341      1.179      3.875
REMARK INTER + INTRA:         -10.091
REMARK INTER:                  -8.309
REMARK INTRA:                  -1.781
REMARK UNBOUND:                -2.197
REMARK SMILES CCCCCCCCCCCCCCCC(=O)[O-]
REMARK SMILES IDX 9 1 10 2 11 3 12 4 13 5 14 6 15 7 16 8 17 9 18 10 8 11 7 12
REMARK SMILES IDX 6 13 5 14 4 15 3 16 2 17 1 18
REMARK H PARENT
REMARK Flexibility Score: inf
ROOT
ATOM      1  C   UNL     1       4.663  -7.755  31.170  1.00  0.00     0.000 C 
ENDROOT
BRANCH   1   2
ATOM      2  C   UNL     1       5.831  -8.627  30.680  1.00  0.00     0.000 C 
BRANCH   2   3
ATOM      3  C   UNL     1       5.743  -8.954  29.177  1.00  0.00     0.000 C 
BRANCH   3   4
ATOM      4  C   UNL     1       5.235  -7.803  28.283  1.00  0.00     0.000 C 
BRANCH   4   5
ATOM      5  C   UNL     1       5.940  -7.677  26.921  1.00  0.00     0.000 C 
BRANCH   5   6
ATOM      6  C   UNL     1       5.047  -7.043  25.841  1.00  0.00     0.006 C 
BRANCH   6   7
ATOM      7  C   UNL     1       5.650  -5.751  25.276  1.00  0.00     0.053 C 
BRANCH   7   8
ATOM      8  C   UNL     1       5.395  -5.616  23.806  1.00  0.00     0.041 C 
ATOM      9  O   UNL     1       4.269  -5.233  23.391  1.00  0.00    -0.550 OA
ATOM     10  O   UNL     1       6.388  -5.948  22.894  1.00  0.00    -0.550 OA
ENDBRANCH   7   8
ENDBRANCH   6   7
ENDBRANCH   5   6
ENDBRANCH   4   5
ENDBRANCH   3   4
ENDBRANCH   2   3
ENDBRANCH   1   2
BRANCH   1  11
ATOM     11  C   UNL     1       4.950  -7.093  32.528  1.00  0.00     0.000 C 
BRANCH  11  12
ATOM     12  C   UNL     1       5.378  -5.624  32.394  1.00  0.00    -0.000 C 
BRANCH  12  13
ATOM     13  C   UNL     1       6.805  -5.419  32.922  1.00  0.00    -0.000 C 
BRANCH  13  14
ATOM     14  C   UNL     1       7.885  -5.914  31.942  1.00  0.00    -0.000 C 
BRANCH  14  15
ATOM     15  C   UNL     1       7.587  -5.645  30.455  1.00  0.00    -0.000 C 
BRANCH  15  16
ATOM     16  C   UNL     1       8.578  -6.286  29.465  1.00  0.00    -0.000 C 
BRANCH  16  17
ATOM     17  C   UNL     1       8.696  -5.529  28.126  1.00  0.00    -0.003 C 
ATOM     18  C   UNL     1       7.747  -4.334  28.038  1.00  0.00     0.004 C 
ENDBRANCH  16  17
ENDBRANCH  15  16
ENDBRANCH  14  15
ENDBRANCH  13  14
ENDBRANCH  12  13
ENDBRANCH  11  12
ENDBRANCH   1  11
TORSDOF 14
ENDMDL
MODEL 5
REMARK VINA RESULT:    -4.332      2.099      3.384
REMARK INTER + INTRA:         -10.075
REMARK INTER:                  -7.864
REMARK INTRA:                  -2.210
REMARK UNBOUND:                -2.197
REMARK SMILES CCCCCCCCCCCCCCCC(=O)[O-]
REMARK SMILES IDX 9 1 10 2 11 3 12 4 13 5 14 6 15 7 16 8 17 9 18 10 8 11 7 12
REMARK SMILES IDX 6 13 5 14 4 15 3 16 2 17 1 18
REMARK H PARENT
REMARK Flexibility Score: inf
ROOT
ATOM      1  C   UNL     1       6.072  -8.223  26.920  1.00  0.00     0.000 C 
ENDROOT
BRANCH   1   2
ATOM      2  C   UNL     1       7.433  -8.134  26.209  1.00  0.00     0.000 C 
BRANCH   2   3
ATOM      3  C   UNL     1       8.619  -8.408  27.152  1.00  0.00     0.000 C 
BRANCH   3   4
ATOM      4  C   UNL     1       8.658  -7.542  28.428  1.00  0.00     0.000 C 
BRANCH   4   5
ATOM      5  C   UNL     1       8.819  -6.031  28.187  1.00  0.00     0.000 C 
BRANCH   5   6
ATOM      6  C   UNL     1       7.830  -5.186  29.007  1.00  0.00     0.006 C 
BRANCH   6   7
ATOM      7  C   UNL     1       6.525  -4.920  28.245  1.00  0.00     0.053 C 
BRANCH   7   8
ATOM      8  C   UNL     1       6.763  -4.134  26.993  1.00  0.00     0.041 C 
ATOM      9  O   UNL     1       7.196  -2.953  27.060  1.00  0.00    -0.550 OA
ATOM     10  O   UNL     1       6.475  -4.692  25.755  1.00  0.00    -0.550 OA
ENDBRANCH   7   8
ENDBRANCH   6   7
ENDBRANCH   5   6
ENDBRANCH   4   5
ENDBRANCH   3   4
ENDBRANCH   2   3
ENDBRANCH   1   2
BRANCH   1  11
ATOM     11  C   UNL     1       5.782  -9.632  27.464  1.00  0.00     0.000 C 
BRANCH  11  12
ATOM     12  C   UNL     1       4.644  -9.648  28.495  1.00  0.00    -0.000 C 
BRANCH  12  13
ATOM     13  C   UNL     1       4.834  -8.536  29.537  1.00  0.00    -0.000 C 
BRANCH  13  14
ATOM     14  C   UNL     1       6.045  -8.775  30.458  1.00  0.00    -0.000 C 
BRANCH  14  15
ATOM     15  C   UNL     1       6.398  -7.599  31.388  1.00  0.00    -0.000 C 
BRANCH  15  16
ATOM     16  C   UNL     1       5.189  -6.863  31.996  1.00  0.00    -0.000 C 
BRANCH  16  17
ATOM     17  C   UNL     1       5.549  -5.518  32.659  1.00  0.00    -0.003 C 
ATOM     18  C   UNL     1       7.050  -5.229  32.629  1.00  0.00     0.004 C 
ENDBRANCH  16  17
ENDBRANCH  15  16
ENDBRANCH  14  15
ENDBRANCH  13  14
ENDBRANCH  12  13
ENDBRANCH  11  12
ENDBRANCH   1  11
TORSDOF 14
ENDMDL
MODEL 6
REMARK VINA RESULT:    -4.289      1.102      3.123
REMARK INTER + INTRA:          -9.997
REMARK INTER:                  -7.614
REMARK INTRA:                  -2.382
REMARK UNBOUND:                -2.197
REMARK SMILES CCCCCCCCCCCCCCCC(=O)[O-]
REMARK SMILES IDX 9 1 10 2 11 3 12 4 13 5 14 6 15 7 16 8 17 9 18 10 8 11 7 12
REMARK SMILES IDX 6 13 5 14 4 15 3 16 2 17 1 18
REMARK H PARENT
REMARK Flexibility Score: inf
ROOT
ATOM      1  C   UNL     1       8.177  -6.380  30.548  1.00  0.00     0.000 C 
ENDROOT
BRANCH   1   2
ATOM      2  C   UNL     1       8.260  -6.160  29.029  1.00  0.00     0.000 C 
BRANCH   2   3
ATOM      3  C   UNL     1       7.876  -4.729  28.610  1.00  0.00     0.000 C 
BRANCH   3   4
ATOM      4  C   UNL     1       6.663  -4.624  27.662  1.00  0.00     0.000 C 
BRANCH   4   5
ATOM      5  C   UNL     1       5.628  -5.753  27.801  1.00  0.00     0.000 C 
BRANCH   5   6
ATOM      6  C   UNL     1       5.255  -6.393  26.454  1.00  0.00     0.006 C 
BRANCH   6   7
ATOM      7  C   UNL     1       6.182  -5.936  25.320  1.00  0.00     0.053 C 
BRANCH   7   8
ATOM      8  C   UNL     1       5.472  -5.908  24.001  1.00  0.00     0.041 C 
ATOM      9  O   UNL     1       4.214  -5.856  23.959  1.00  0.00    -0.550 OA
ATOM     10  O   UNL     1       6.197  -5.975  22.819  1.00  0.00    -0.550 OA
ENDBRANCH   7   8
ENDBRANCH   6   7
ENDBRANCH   5   6
ENDBRANCH   4   5
ENDBRANCH   3   4
ENDBRANCH   2   3
ENDBRANCH   1   2
BRANCH   1  11
ATOM     11  C   UNL     1       7.018  -5.602  31.194  1.00  0.00     0.000 C 
BRANCH  11  12
ATOM     12  C   UNL     1       6.074  -6.504  32.003  1.00  0.00    -0.000 C 
BRANCH  12  13
ATOM     13  C   UNL     1       5.949  -7.889  31.351  1.00  0.00    -0.000 C 
BRANCH  13  14
ATOM     14  C   UNL     1       4.678  -8.036  30.493  1.00  0.00    -0.000 C 
BRANCH  14  15
ATOM     15  C   UNL     1       4.751  -9.124  29.405  1.00  0.00    -0.000 C 
BRANCH  15  16
ATOM     16  C   UNL     1       6.174  -9.581  29.034  1.00  0.00    -0.000 C 
BRANCH  16  17
ATOM     17  C   UNL     1       6.390  -9.776  27.518  1.00  0.00    -0.003 C 
ATOM     18  C   UNL     1       7.719  -9.198  27.033  1.00  0.00     0.004 C 
ENDBRANCH  16  17
ENDBRANCH  15  16
ENDBRANCH  14  15
ENDBRANCH  13  14
ENDBRANCH  12  13
ENDBRANCH  11  12
ENDBRANCH   1  11
TORSDOF 14
ENDMDL
MODEL 7
REMARK VINA RESULT:    -4.286      1.796      4.236
REMARK INTER + INTRA:          -9.991
REMARK INTER:                  -8.102
REMARK INTRA:                  -1.890
REMARK UNBOUND:                -2.197
REMARK SMILES CCCCCCCCCCCCCCCC(=O)[O-]
REMARK SMILES IDX 9 1 10 2 11 3 12 4 13 5 14 6 15 7 16 8 17 9 18 10 8 11 7 12
REMARK SMILES IDX 6 13 5 14 4 15 3 16 2 17 1 18
REMARK H PARENT
REMARK Flexibility Score: inf
ROOT
ATOM      1  C   UNL     1       5.608  -6.518  32.373  1.00  0.00     0.000 C 
ENDROOT
BRANCH   1   2
ATOM      2  C   UNL     1       6.834  -5.671  31.992  1.00  0.00     0.000 C 
BRANCH   2   3
ATOM      3  C   UNL     1       7.992  -6.516  31.431  1.00  0.00     0.000 C 
BRANCH   3   4
ATOM      4  C   UNL     1       8.296  -6.302  29.933  1.00  0.00     0.000 C 
BRANCH   4   5
ATOM      5  C   UNL     1       7.462  -5.205  29.249  1.00  0.00     0.000 C 
BRANCH   5   6
ATOM      6  C   UNL     1       7.994  -4.830  27.856  1.00  0.00     0.006 C 
BRANCH   6   7
ATOM      7  C   UNL     1       7.012  -3.943  27.080  1.00  0.00     0.053 C 
BRANCH   7   8
ATOM      8  C   UNL     1       6.481  -4.637  25.863  1.00  0.00     0.041 C 
ATOM      9  O   UNL     1       5.616  -5.546  25.979  1.00  0.00    -0.550 OA
ATOM     10  O   UNL     1       6.966  -4.306  24.605  1.00  0.00    -0.550 OA
ENDBRANCH   7   8
ENDBRANCH   6   7
ENDBRANCH   5   6
ENDBRANCH   4   5
ENDBRANCH   3   4
ENDBRANCH   2   3
ENDBRANCH   1   2
BRANCH   1  11
ATOM     11  C   UNL     1       5.542  -7.843  31.597  1.00  0.00     0.000 C 
BRANCH  11  12
ATOM     12  C   UNL     1       4.476  -7.832  30.490  1.00  0.00    -0.000 C 
BRANCH  12  13
ATOM     13  C   UNL     1       4.663  -9.022  29.538  1.00  0.00    -0.000 C 
BRANCH  13  14
ATOM     14  C   UNL     1       6.129  -9.483  29.431  1.00  0.00    -0.000 C 
BRANCH  14  15
ATOM     15  C   UNL     1       6.629  -9.734  27.996  1.00  0.00    -0.000 C 
BRANCH  15  16
ATOM     16  C   UNL     1       7.142  -8.484  27.257  1.00  0.00    -0.000 C 
BRANCH  16  17
ATOM     17  C   UNL     1       8.600  -8.608  26.766  1.00  0.00    -0.003 C 
ATOM     18  C   UNL     1       9.220  -9.966  27.095  1.00  0.00     0.004 C 
ENDBRANCH  16  17
ENDBRANCH  15  16
ENDBRANCH  14  15
ENDBRANCH  13  14
ENDBRANCH  12  13
ENDBRANCH  11  12
ENDBRANCH   1  11
TORSDOF 14
ENDMDL
MODEL 8
REMARK VINA RESULT:    -4.281     11.179     14.499
REMARK INTER + INTRA:          -9.982
REMARK INTER:                  -8.258
REMARK INTRA:                  -1.724
REMARK UNBOUND:                -2.197
REMARK SMILES CCCCCCCCCCCCCCCC(=O)[O-]
REMARK SMILES IDX 9 1 10 2 11 3 12 4 13 5 14 6 15 7 16 8 17 9 18 10 8 11 7 12
REMARK SMILES IDX 6 13 5 14 4 15 3 16 2 17 1 18
REMARK H PARENT
REMARK Flexibility Score: inf
ROOT
ATOM      1  C   UNL     1      13.301  -8.636  17.918  1.00  0.00     0.000 C 
ENDROOT
BRANCH   1   2
ATOM      2  C   UNL     1      12.195  -7.702  17.399  1.00  0.00     0.000 C 
BRANCH   2   3
ATOM      3  C   UNL     1      12.680  -6.254  17.200  1.00  0.00     0.000 C 
BRANCH   3   4
ATOM      4  C   UNL     1      14.167  -6.007  17.533  1.00  0.00     0.000 C 
BRANCH   4   5
ATOM      5  C   UNL     1      14.424  -4.956  18.627  1.00  0.00     0.000 C 
BRANCH   5   6
ATOM      6  C   UNL     1      14.255  -5.519  20.048  1.00  0.00     0.006 C 
BRANCH   6   7
ATOM      7  C   UNL     1      15.185  -6.709  20.315  1.00  0.00     0.053 C 
BRANCH   7   8
ATOM      8  C   UNL     1      14.781  -7.464  21.544  1.00  0.00     0.041 C 
ATOM      9  O   UNL     1      15.162  -7.075  22.680  1.00  0.00    -0.550 OA
ATOM     10  O   UNL     1      14.014  -8.616  21.433  1.00  0.00    -0.550 OA
ENDBRANCH   7   8
ENDBRANCH   6   7
ENDBRANCH   5   6
ENDBRANCH   4   5
ENDBRANCH   3   4
ENDBRANCH   2   3
ENDBRANCH   1   2
BRANCH   1  11
ATOM     11  C   UNL     1      13.888  -9.527  16.811  1.00  0.00     0.000 C 
BRANCH  11  12
ATOM     12  C   UNL     1      15.412  -9.388  16.682  1.00  0.00    -0.000 C 
BRANCH  12  13
ATOM     13  C   UNL     1      15.923 -10.111  15.427  1.00  0.00    -0.000 C 
BRANCH  13  14
ATOM     14  C   UNL     1      15.122  -9.756  14.161  1.00  0.00    -0.000 C 
BRANCH  14  15
ATOM     15  C   UNL     1      15.774  -8.698  13.252  1.00  0.00    -0.000 C 
BRANCH  15  16
ATOM     16  C   UNL     1      15.415  -7.238  13.590  1.00  0.00    -0.000 C 
BRANCH  16  17
ATOM     17  C   UNL     1      14.131  -6.737  12.896  1.00  0.00    -0.003 C 
ATOM     18  C   UNL     1      12.867  -7.059  13.692  1.00  0.00     0.004 C 
ENDBRANCH  16  17
ENDBRANCH  15  16
ENDBRANCH  14  15
ENDBRANCH  13  14
ENDBRANCH  12  13
ENDBRANCH  11  12
ENDBRANCH   1  11
TORSDOF 14
ENDMDL
MODEL 9
REMARK VINA RESULT:    -4.256     10.700     13.935
REMARK INTER + INTRA:          -9.936
REMARK INTER:                  -7.934
REMARK INTRA:                  -2.002
REMARK UNBOUND:                -2.197
REMARK SMILES CCCCCCCCCCCCCCCC(=O)[O-]
REMARK SMILES IDX 9 1 10 2 11 3 12 4 13 5 14 6 15 7 16 8 17 9 18 10 8 11 7 12
REMARK SMILES IDX 6 13 5 14 4 15 3 16 2 17 1 18
REMARK H PARENT
REMARK Flexibility Score: inf
ROOT
ATOM      1  C   UNL     1      12.319  -7.349  17.170  1.00  0.00     0.000 C 
ENDROOT
BRANCH   1   2
ATOM      2  C   UNL     1      12.854  -6.072  17.839  1.00  0.00     0.000 C 
BRANCH   2   3
ATOM      3  C   UNL     1      14.372  -5.893  17.655  1.00  0.00     0.000 C 
BRANCH   3   4
ATOM      4  C   UNL     1      15.237  -6.344  18.851  1.00  0.00     0.000 C 
BRANCH   4   5
ATOM      5  C   UNL     1      14.525  -6.324  20.215  1.00  0.00     0.000 C 
BRANCH   5   6
ATOM      6  C   UNL     1      14.879  -7.536  21.093  1.00  0.00     0.006 C 
BRANCH   6   7
ATOM      7  C   UNL     1      16.175  -7.318  21.885  1.00  0.00     0.053 C 
BRANCH   7   8
ATOM      8  C   UNL     1      15.977  -7.563  23.350  1.00  0.00     0.041 C 
ATOM      9  O   UNL     1      14.900  -7.224  23.909  1.00  0.00    -0.550 OA
ATOM     10  O   UNL     1      16.993  -8.135  24.103  1.00  0.00    -0.550 OA
ENDBRANCH   7   8
ENDBRANCH   6   7
ENDBRANCH   5   6
ENDBRANCH   4   5
ENDBRANCH   3   4
ENDBRANCH   2   3
ENDBRANCH   1   2
BRANCH   1  11
ATOM     11  C   UNL     1      12.087  -8.489  18.175  1.00  0.00     0.000 C 
BRANCH  11  12
ATOM     12  C   UNL     1      13.306  -9.413  18.318  1.00  0.00    -0.000 C 
BRANCH  12  13
ATOM     13  C   UNL     1      13.751  -9.947  16.949  1.00  0.00    -0.000 C 
BRANCH  13  14
ATOM     14  C   UNL     1      15.180  -9.514  16.571  1.00  0.00    -0.000 C 
BRANCH  14  15
ATOM     15  C   UNL     1      15.561  -9.744  15.096  1.00  0.00    -0.000 C 
BRANCH  15  16
ATOM     16  C   UNL     1      14.720  -8.955  14.075  1.00  0.00    -0.000 C 
BRANCH  16  17
ATOM     17  C   UNL     1      14.684  -7.435  14.341  1.00  0.00    -0.003 C 
ATOM     18  C   UNL     1      13.908  -6.668  13.270  1.00  0.00     0.004 C 
ENDBRANCH  16  17
ENDBRANCH  15  16
ENDBRANCH  14  15
ENDBRANCH  13  14
ENDBRANCH  12  13
ENDBRANCH  11  12
ENDBRANCH   1  11
TORSDOF 14
ENDMDL
