MODEL 1
REMARK VINA RESULT:    -4.626      0.000      0.000
REMARK INTER + INTRA:          -5.977
REMARK INTER:                  -5.707
REMARK INTRA:                  -0.270
REMARK UNBOUND:                -0.270
REMARK SMILES C=CCc1ccc(OC)c(OC)c1
REMARK SMILES IDX 7 1 10 2 13 3 4 4 5 5 6 6 8 7 9 8 11 9 12 10 3 11 2 12 1 13
REMARK H PARENT
REMARK Flexibility Score: inf
ROOT
ATOM      1  C   UNL     1     120.358 120.544 120.817  1.00  0.00     0.160 A 
ATOM      2  C   UNL     1     120.453 119.145 120.874  1.00  0.00     0.160 A 
ATOM      3  C   UNL     1     120.204 118.382 119.716  1.00  0.00     0.054 A 
ATOM      4  C   UNL     1     119.855 119.007 118.510  1.00  0.00    -0.040 A 
ATOM      5  C   UNL     1     119.772 120.405 118.460  1.00  0.00     0.008 A 
ATOM      6  C   UNL     1     120.017 121.168 119.602  1.00  0.00     0.051 A 
ENDROOT
BRANCH   1   7
ATOM      7  O   UNL     1     120.610 121.278 121.987  1.00  0.00    -0.493 OA
ATOM      8  C   UNL     1     121.844 121.925 122.283  1.00  0.00     0.278 C 
ENDBRANCH   1   7
BRANCH   2   9
ATOM      9  O   UNL     1     120.799 118.550 122.098  1.00  0.00    -0.493 OA
ATOM     10  C   UNL     1     121.212 117.196 122.249  1.00  0.00     0.278 C 
ENDBRANCH   2   9
BRANCH   4  11
ATOM     11  C   UNL     1     119.619 118.186 117.271  1.00  0.00     0.062 C 
BRANCH  11  12
ATOM     12  C   UNL     1     118.688 118.897 116.329  1.00  0.00    -0.030 C 
ATOM     13  C   UNL     1     118.820 118.797 115.003  1.00  0.00     0.004 C 
ENDBRANCH  11  12
ENDBRANCH   4  11
TORSDOF 4
ENDMDL
MODEL 2
REMARK VINA RESULT:    -4.620      2.592      3.107
REMARK INTER + INTRA:          -5.970
REMARK INTER:                  -5.699
REMARK INTRA:                  -0.271
REMARK UNBOUND:                -0.270
REMARK SMILES C=CCc1ccc(OC)c(OC)c1
REMARK SMILES IDX 7 1 10 2 13 3 4 4 5 5 6 6 8 7 9 8 11 9 12 10 3 11 2 12 1 13
REMARK H PARENT
REMARK Flexibility Score: inf
ROOT
ATOM      1  C   UNL     1     120.610 117.281 120.816  1.00  0.00     0.160 A 
ATOM      2  C   UNL     1     119.212 117.193 120.887  1.00  0.00     0.160 A 
ATOM      3  C   UNL     1     118.437 117.467 119.743  1.00  0.00     0.054 A 
ATOM      4  C   UNL     1     119.051 117.832 118.536  1.00  0.00    -0.040 A 
ATOM      5  C   UNL     1     120.449 117.908 118.471  1.00  0.00     0.008 A 
ATOM      6  C   UNL     1     121.223 117.639 119.600  1.00  0.00     0.051 A 
ENDROOT
BRANCH   1   7
ATOM      7  O   UNL     1     121.356 117.005 121.973  1.00  0.00    -0.493 OA
ATOM      8  C   UNL     1     121.967 115.751 122.258  1.00  0.00     0.278 C 
ENDBRANCH   1   7
BRANCH   2   9
ATOM      9  O   UNL     1     118.628 116.829 122.112  1.00  0.00    -0.493 OA
ATOM     10  C   UNL     1     117.266 116.449 122.277  1.00  0.00     0.278 C 
ENDBRANCH   2   9
BRANCH   4  11
ATOM     11  C   UNL     1     118.217 118.094 117.310  1.00  0.00     0.062 C 
BRANCH  11  12
ATOM     12  C   UNL     1     118.957 118.972 116.340  1.00  0.00    -0.030 C 
ATOM     13  C   UNL     1     118.918 118.750 115.022  1.00  0.00     0.004 C 
ENDBRANCH  11  12
ENDBRANCH   4  11
TORSDOF 4
ENDMDL
MODEL 3
REMARK VINA RESULT:    -4.607      2.636      3.164
REMARK INTER + INTRA:          -5.955
REMARK INTER:                  -5.678
REMARK INTRA:                  -0.277
REMARK UNBOUND:                -0.270
REMARK SMILES C=CCc1ccc(OC)c(OC)c1
REMARK SMILES IDX 7 1 10 2 13 3 4 4 5 5 6 6 8 7 9 8 11 9 12 10 3 11 2 12 1 13
REMARK H PARENT
REMARK Flexibility Score: inf
ROOT
ATOM      1  C   UNL     1     117.047 120.366 120.857  1.00  0.00     0.160 A 
ATOM      2  C   UNL     1     118.443 120.492 120.912  1.00  0.00     0.160 A 
ATOM      3  C   UNL     1     119.211 120.247 119.756  1.00  0.00     0.054 A 
ATOM      4  C   UNL     1     118.593 119.872 118.555  1.00  0.00    -0.040 A 
ATOM      5  C   UNL     1     117.197 119.758 118.506  1.00  0.00     0.008 A 
ATOM      6  C   UNL     1     116.430 119.999 119.646  1.00  0.00     0.051 A 
ENDROOT
BRANCH   1   7
ATOM      7  O   UNL     1     116.308 120.614 122.024  1.00  0.00    -0.493 OA
ATOM      8  C   UNL     1     115.626 121.833 122.303  1.00  0.00     0.278 C 
ENDBRANCH   1   7
BRANCH   2   9
ATOM      9  O   UNL     1     119.031 120.864 122.132  1.00  0.00    -0.493 OA
ATOM     10  C   UNL     1     120.402 121.212 122.295  1.00  0.00     0.278 C 
ENDBRANCH   2   9
BRANCH   4  11
ATOM     11  C   UNL     1     119.419 119.641 117.318  1.00  0.00     0.062 C 
BRANCH  11  12
ATOM     12  C   UNL     1     118.764 118.628 116.421  1.00  0.00    -0.030 C 
ATOM     13  C   UNL     1     118.666 118.818 115.101  1.00  0.00     0.004 C 
ENDBRANCH  11  12
ENDBRANCH   4  11
TORSDOF 4
ENDMDL
MODEL 4
REMARK VINA RESULT:    -4.596      3.275      4.465
REMARK INTER + INTRA:          -5.941
REMARK INTER:                  -5.669
REMARK INTRA:                  -0.271
REMARK UNBOUND:                -0.270
REMARK SMILES C=CCc1ccc(OC)c(OC)c1
REMARK SMILES IDX 7 1 10 2 13 3 4 4 5 5 6 6 8 7 9 8 11 9 12 10 3 11 2 12 1 13
REMARK H PARENT
REMARK Flexibility Score: inf
ROOT
ATOM      1  C   UNL     1     117.245 116.996 120.829  1.00  0.00     0.160 A 
ATOM      2  C   UNL     1     117.104 118.391 120.882  1.00  0.00     0.160 A 
ATOM      3  C   UNL     1     117.363 119.161 119.731  1.00  0.00     0.054 A 
ATOM      4  C   UNL     1     117.768 118.547 118.537  1.00  0.00    -0.040 A 
ATOM      5  C   UNL     1     117.897 117.153 118.491  1.00  0.00     0.008 A 
ATOM      6  C   UNL     1     117.642 116.382 119.626  1.00  0.00     0.051 A 
ENDROOT
BRANCH   1   7
ATOM      7  O   UNL     1     116.981 116.255 121.992  1.00  0.00    -0.493 OA
ATOM      8  C   UNL     1     115.754 115.582 122.259  1.00  0.00     0.278 C 
ENDBRANCH   1   7
BRANCH   2   9
ATOM      9  O   UNL     1     116.702 118.976 122.094  1.00  0.00    -0.493 OA
ATOM     10  C   UNL     1     116.486 120.370 122.286  1.00  0.00     0.278 C 
ENDBRANCH   2   9
BRANCH   4  11
ATOM     11  C   UNL     1     118.016 119.376 117.305  1.00  0.00     0.062 C 
BRANCH  11  12
ATOM     12  C   UNL     1     118.992 118.691 116.389  1.00  0.00    -0.030 C 
ATOM     13  C   UNL     1     118.840 118.707 115.061  1.00  0.00     0.004 C 
ENDBRANCH  11  12
ENDBRANCH   4  11
TORSDOF 4
ENDMDL
MODEL 5
REMARK VINA RESULT:    -4.497      2.507      3.674
REMARK INTER + INTRA:          -5.819
REMARK INTER:                  -5.553
REMARK INTRA:                  -0.265
REMARK UNBOUND:                -0.270
REMARK SMILES C=CCc1ccc(OC)c(OC)c1
REMARK SMILES IDX 7 1 10 2 13 3 4 4 5 5 6 6 8 7 9 8 11 9 12 10 3 11 2 12 1 13
REMARK H PARENT
REMARK Flexibility Score: inf
ROOT
ATOM      1  C   UNL     1     118.051 116.703 120.871  1.00  0.00     0.160 A 
ATOM      2  C   UNL     1     119.342 117.252 120.846  1.00  0.00     0.160 A 
ATOM      3  C   UNL     1     119.878 117.714 119.628  1.00  0.00     0.054 A 
ATOM      4  C   UNL     1     119.137 117.623 118.441  1.00  0.00    -0.040 A 
ATOM      5  C   UNL     1     117.845 117.082 118.477  1.00  0.00     0.008 A 
ATOM      6  C   UNL     1     117.306 116.622 119.679  1.00  0.00     0.051 A 
ENDROOT
BRANCH   1   7
ATOM      7  O   UNL     1     117.543 116.249 122.099  1.00  0.00    -0.493 OA
ATOM      8  C   UNL     1     116.169 115.971 122.350  1.00  0.00     0.278 C 
ENDBRANCH   1   7
BRANCH   2   9
ATOM      9  O   UNL     1     120.059 117.324 122.051  1.00  0.00    -0.493 OA
ATOM     10  C   UNL     1     121.294 116.660 122.297  1.00  0.00     0.278 C 
ENDBRANCH   2   9
BRANCH   4  11
ATOM     11  C   UNL     1     119.707 118.145 117.149  1.00  0.00     0.062 C 
BRANCH  11  12
ATOM     12  C   UNL     1     118.626 118.744 116.293  1.00  0.00    -0.030 C 
ATOM     13  C   UNL     1     118.729 118.786 114.961  1.00  0.00     0.004 C 
ENDBRANCH  11  12
ENDBRANCH   4  11
TORSDOF 4
ENDMDL
MODEL 6
REMARK VINA RESULT:    -4.491      1.836      2.359
REMARK INTER + INTRA:          -5.812
REMARK INTER:                  -5.545
REMARK INTRA:                  -0.267
REMARK UNBOUND:                -0.270
REMARK SMILES C=CCc1ccc(OC)c(OC)c1
REMARK SMILES IDX 7 1 10 2 13 3 4 4 5 5 6 6 8 7 9 8 11 9 12 10 3 11 2 12 1 13
REMARK H PARENT
REMARK Flexibility Score: inf
ROOT
ATOM      1  C   UNL     1     119.580 120.883 120.884  1.00  0.00     0.160 A 
ATOM      2  C   UNL     1     118.304 120.299 120.885  1.00  0.00     0.160 A 
ATOM      3  C   UNL     1     117.752 119.831 119.676  1.00  0.00     0.054 A 
ATOM      4  C   UNL     1     118.461 119.951 118.473  1.00  0.00    -0.040 A 
ATOM      5  C   UNL     1     119.739 120.527 118.483  1.00  0.00     0.008 A 
ATOM      6  C   UNL     1     120.293 120.993 119.676  1.00  0.00     0.051 A 
ENDROOT
BRANCH   1   7
ATOM      7  O   UNL     1     120.105 121.342 122.103  1.00  0.00    -0.493 OA
ATOM      8  C   UNL     1     121.471 121.681 122.316  1.00  0.00     0.278 C 
ENDBRANCH   1   7
BRANCH   2   9
ATOM      9  O   UNL     1     117.618 120.198 122.106  1.00  0.00    -0.493 OA
ATOM     10  C   UNL     1     116.363 120.813 122.381  1.00  0.00     0.278 C 
ENDBRANCH   2   9
BRANCH   4  11
ATOM     11  C   UNL     1     117.875 119.422 117.191  1.00  0.00     0.062 C 
BRANCH  11  12
ATOM     12  C   UNL     1     118.929 118.740 116.364  1.00  0.00    -0.030 C 
ATOM     13  C   UNL     1     118.927 118.808 115.029  1.00  0.00     0.004 C 
ENDBRANCH  11  12
ENDBRANCH   4  11
TORSDOF 4
ENDMDL
MODEL 7
REMARK VINA RESULT:    -4.416      1.075      2.794
REMARK INTER + INTRA:          -5.718
REMARK INTER:                  -5.454
REMARK INTRA:                  -0.264
REMARK UNBOUND:                -0.270
REMARK SMILES C=CCc1ccc(OC)c(OC)c1
REMARK SMILES IDX 7 1 10 2 13 3 4 4 5 5 6 6 8 7 9 8 11 9 12 10 3 11 2 12 1 13
REMARK H PARENT
REMARK Flexibility Score: inf
ROOT
ATOM      1  C   UNL     1     120.841 118.034 121.034  1.00  0.00     0.160 A 
ATOM      2  C   UNL     1     120.252 119.307 121.022  1.00  0.00     0.160 A 
ATOM      3  C   UNL     1     119.825 119.866 119.801  1.00  0.00     0.054 A 
ATOM      4  C   UNL     1     119.991 119.165 118.598  1.00  0.00    -0.040 A 
ATOM      5  C   UNL     1     120.572 117.890 118.620  1.00  0.00     0.008 A 
ATOM      6  C   UNL     1     120.997 117.329 119.825  1.00  0.00     0.051 A 
ENDROOT
BRANCH   1   7
ATOM      7  O   UNL     1     121.258 117.503 122.265  1.00  0.00    -0.493 OA
ATOM      8  C   UNL     1     121.662 116.152 122.465  1.00  0.00     0.278 C 
ENDBRANCH   1   7
BRANCH   2   9
ATOM      9  O   UNL     1     120.104 119.985 122.243  1.00  0.00    -0.493 OA
ATOM     10  C   UNL     1     120.764 121.202 122.576  1.00  0.00     0.278 C 
ENDBRANCH   2   9
BRANCH   4  11
ATOM     11  C   UNL     1     119.507 119.758 117.302  1.00  0.00     0.062 C 
BRANCH  11  12
ATOM     12  C   UNL     1     118.729 118.745 116.510  1.00  0.00    -0.030 C 
ATOM     13  C   UNL     1     118.725 118.751 115.173  1.00  0.00     0.004 C 
ENDBRANCH  11  12
ENDBRANCH   4  11
TORSDOF 4
ENDMDL
MODEL 8
REMARK VINA RESULT:    -4.243      3.026      3.030
REMARK INTER + INTRA:          -5.505
REMARK INTER:                  -5.200
REMARK INTRA:                  -0.305
REMARK UNBOUND:                -0.270
REMARK SMILES C=CCc1ccc(OC)c(OC)c1
REMARK SMILES IDX 7 1 10 2 13 3 4 4 5 5 6 6 8 7 9 8 11 9 12 10 3 11 2 12 1 13
REMARK H PARENT
REMARK Flexibility Score: inf
ROOT
ATOM      1  C   UNL     1     116.867 119.389 120.761  1.00  0.00     0.160 A 
ATOM      2  C   UNL     1     117.389 118.089 120.688  1.00  0.00     0.160 A 
ATOM      3  C   UNL     1     117.899 117.610 119.466  1.00  0.00     0.054 A 
ATOM      4  C   UNL     1     117.882 118.417 118.319  1.00  0.00    -0.040 A 
ATOM      5  C   UNL     1     117.367 119.718 118.403  1.00  0.00     0.008 A 
ATOM      6  C   UNL     1     116.860 120.200 119.610  1.00  0.00     0.051 A 
ENDROOT
BRANCH   1   7
ATOM      7  O   UNL     1     116.364 119.838 121.992  1.00  0.00    -0.493 OA
ATOM      8  C   UNL     1     116.938 120.889 122.763  1.00  0.00     0.278 C 
ENDBRANCH   1   7
BRANCH   2   9
ATOM      9  O   UNL     1     117.387 117.303 121.853  1.00  0.00    -0.493 OA
ATOM     10  C   UNL     1     118.514 117.115 122.702  1.00  0.00     0.278 C 
ENDBRANCH   2   9
BRANCH   4  11
ATOM     11  C   UNL     1     118.456 117.908 117.024  1.00  0.00     0.062 C 
BRANCH  11  12
ATOM     12  C   UNL     1     118.642 119.033 116.044  1.00  0.00    -0.030 C 
ATOM     13  C   UNL     1     118.801 118.805 114.737  1.00  0.00     0.004 C 
ENDBRANCH  11  12
ENDBRANCH   4  11
TORSDOF 4
ENDMDL
MODEL 9
REMARK VINA RESULT:    -4.162      2.627      5.296
REMARK INTER + INTRA:          -5.405
REMARK INTER:                  -5.136
REMARK INTRA:                  -0.269
REMARK UNBOUND:                -0.270
REMARK SMILES C=CCc1ccc(OC)c(OC)c1
REMARK SMILES IDX 7 1 10 2 13 3 4 4 5 5 6 6 8 7 9 8 11 9 12 10 3 11 2 12 1 13
REMARK H PARENT
REMARK Flexibility Score: inf
ROOT
ATOM      1  C   UNL     1     119.088 118.170 118.705  1.00  0.00     0.160 A 
ATOM      2  C   UNL     1     118.601 119.483 118.795  1.00  0.00     0.160 A 
ATOM      3  C   UNL     1     119.409 120.488 119.363  1.00  0.00     0.054 A 
ATOM      4  C   UNL     1     120.690 120.186 119.846  1.00  0.00    -0.040 A 
ATOM      5  C   UNL     1     121.172 118.874 119.743  1.00  0.00     0.008 A 
ATOM      6  C   UNL     1     120.379 117.873 119.182  1.00  0.00     0.051 A 
ENDROOT
BRANCH   1   7
ATOM      7  O   UNL     1     118.261 117.189 118.135  1.00  0.00    -0.493 OA
ATOM      8  C   UNL     1     117.443 116.291 118.880  1.00  0.00     0.278 C 
ENDBRANCH   1   7
BRANCH   2   9
ATOM      9  O   UNL     1     117.312 119.750 118.307  1.00  0.00    -0.493 OA
ATOM     10  C   UNL     1     116.218 120.182 119.109  1.00  0.00     0.278 C 
ENDBRANCH   2   9
BRANCH   4  11
ATOM     11  C   UNL     1     121.557 121.272 120.426  1.00  0.00     0.062 C 
BRANCH  11  12
ATOM     12  C   UNL     1     121.144 121.588 121.836  1.00  0.00    -0.030 C 
ATOM     13  C   UNL     1     122.019 122.044 122.738  1.00  0.00     0.004 C 
ENDBRANCH  11  12
ENDBRANCH   4  11
TORSDOF 4
ENDMDL
