MODEL 1
REMARK VINA RESULT:    -4.987      0.000      0.000
REMARK INTER + INTRA:          -5.570
REMARK INTER:                  -5.424
REMARK INTRA:                  -0.145
REMARK UNBOUND:                -0.145
REMARK SMILES CC1=CC[C@@H](C(C)(C)O)CC1
REMARK SMILES IDX 6 1 7 2 8 3 5 4 1 5 2 6 3 7 11 8 4 9 10 10 9 11
REMARK H PARENT 9 12
REMARK Flexibility Score: inf
ROOT
ATOM      1  C   UNL     1       3.502 -37.117  44.665  1.00  0.00     0.062 C 
ATOM      2  C   UNL     1       4.329 -38.333  45.154  1.00  0.00     0.042 C 
ATOM      3  C   UNL     1       4.486 -36.014  44.227  1.00  0.00     0.042 C 
ENDROOT
BRANCH   1   4
ATOM      4  C   UNL     1       2.528 -37.473  43.480  1.00  0.00     0.024 C 
ATOM      5  C   UNL     1      -0.358 -37.566  40.167  1.00  0.00     0.039 C 
ATOM      6  C   UNL     1       0.589 -37.393  41.322  1.00  0.00    -0.077 C 
ATOM      7  C   UNL     1       1.843 -36.957  41.083  1.00  0.00    -0.028 C 
ATOM      8  C   UNL     1       0.152 -37.835  42.702  1.00  0.00     0.031 C 
ATOM      9  C   UNL     1       2.853 -36.706  42.177  1.00  0.00     0.034 C 
ATOM     10  C   UNL     1       1.035 -37.264  43.816  1.00  0.00     0.011 C 
ENDBRANCH   1   4
BRANCH   1  11
ATOM     11  O   UNL     1       2.759 -36.581  45.738  1.00  0.00    -0.390 OA
ATOM     12  H   UNL     1       1.881 -37.043  45.783  1.00  0.00     0.211 HD
ENDBRANCH   1  11
TORSDOF 2
ENDMDL
MODEL 2
REMARK VINA RESULT:    -4.943      0.557      1.610
REMARK INTER + INTRA:          -5.521
REMARK INTER:                  -5.375
REMARK INTRA:                  -0.146
REMARK UNBOUND:                -0.145
REMARK SMILES CC1=CC[C@@H](C(C)(C)O)CC1
REMARK SMILES IDX 6 1 7 2 8 3 5 4 1 5 2 6 3 7 11 8 4 9 10 10 9 11
REMARK H PARENT 9 12
REMARK Flexibility Score: inf
ROOT
ATOM      1  C   UNL     1       3.396 -36.550  44.676  1.00  0.00     0.062 C 
ATOM      2  C   UNL     1       4.499 -37.632  44.558  1.00  0.00     0.042 C 
ATOM      3  C   UNL     1       4.081 -35.169  44.703  1.00  0.00     0.042 C 
ENDROOT
BRANCH   1   4
ATOM      4  C   UNL     1       2.348 -36.611  43.502  1.00  0.00     0.024 C 
ATOM      5  C   UNL     1      -0.399 -37.679  40.243  1.00  0.00     0.039 C 
ATOM      6  C   UNL     1       0.592 -37.452  41.350  1.00  0.00    -0.077 C 
ATOM      7  C   UNL     1       0.223 -37.704  42.623  1.00  0.00    -0.028 C 
ATOM      8  C   UNL     1       1.930 -36.827  41.020  1.00  0.00     0.031 C 
ATOM      9  C   UNL     1       1.159 -37.553  43.798  1.00  0.00     0.034 C 
ATOM     10  C   UNL     1       2.961 -37.003  42.139  1.00  0.00     0.011 C 
ENDBRANCH   1   4
BRANCH   1  11
ATOM     11  O   UNL     1       2.725 -36.682  45.910  1.00  0.00    -0.390 OA
ATOM     12  H   UNL     1       2.350 -37.599  45.975  1.00  0.00     0.211 HD
ENDBRANCH   1  11
TORSDOF 2
ENDMDL
MODEL 3
REMARK VINA RESULT:    -4.539      2.514      5.883
REMARK INTER + INTRA:          -5.083
REMARK INTER:                  -4.923
REMARK INTRA:                  -0.159
REMARK UNBOUND:                -0.145
REMARK SMILES CC1=CC[C@@H](C(C)(C)O)CC1
REMARK SMILES IDX 6 1 7 2 8 3 5 4 1 5 2 6 3 7 11 8 4 9 10 10 9 11
REMARK H PARENT 9 12
REMARK Flexibility Score: inf
ROOT
ATOM      1  C   UNL     1       3.914 -36.886  44.911  1.00  0.00     0.062 C 
ATOM      2  C   UNL     1       3.325 -36.634  43.500  1.00  0.00     0.042 C 
ATOM      3  C   UNL     1       4.276 -38.380  45.020  1.00  0.00     0.042 C 
ENDROOT
BRANCH   1   4
ATOM      4  C   UNL     1       5.179 -36.000  45.215  1.00  0.00     0.024 C 
ATOM      5  C   UNL     1       8.615 -33.259  45.194  1.00  0.00     0.039 C 
ATOM      6  C   UNL     1       7.433 -34.178  45.054  1.00  0.00    -0.077 C 
ATOM      7  C   UNL     1       6.189 -33.663  45.138  1.00  0.00    -0.028 C 
ATOM      8  C   UNL     1       7.670 -35.669  44.953  1.00  0.00     0.031 C 
ATOM      9  C   UNL     1       4.939 -34.492  44.965  1.00  0.00     0.034 C 
ATOM     10  C   UNL     1       6.444 -36.433  44.442  1.00  0.00     0.011 C 
ENDBRANCH   1   4
BRANCH   1  11
ATOM     11  O   UNL     1       2.927 -36.646  45.891  1.00  0.00    -0.390 OA
ATOM     12  H   UNL     1       2.320 -37.430  45.933  1.00  0.00     0.211 HD
ENDBRANCH   1  11
TORSDOF 2
ENDMDL
MODEL 4
REMARK VINA RESULT:    -4.481      3.929      5.957
REMARK INTER + INTRA:          -5.019
REMARK INTER:                  -4.880
REMARK INTRA:                  -0.139
REMARK UNBOUND:                -0.145
REMARK SMILES CC1=CC[C@@H](C(C)(C)O)CC1
REMARK SMILES IDX 6 1 7 2 8 3 5 4 1 5 2 6 3 7 11 8 4 9 10 10 9 11
REMARK H PARENT 9 12
REMARK Flexibility Score: inf
ROOT
ATOM      1  C   UNL     1       8.549 -34.365  45.110  1.00  0.00     0.062 C 
ATOM      2  C   UNL     1       9.393 -33.907  43.893  1.00  0.00     0.042 C 
ATOM      3  C   UNL     1       7.988 -33.108  45.804  1.00  0.00     0.042 C 
ENDROOT
BRANCH   1   4
ATOM      4  C   UNL     1       7.374 -35.334  44.713  1.00  0.00     0.024 C 
ATOM      5  C   UNL     1       4.028 -38.176  44.507  1.00  0.00     0.039 C 
ATOM      6  C   UNL     1       5.185 -37.239  44.721  1.00  0.00    -0.077 C 
ATOM      7  C   UNL     1       4.939 -35.969  45.102  1.00  0.00    -0.028 C 
ATOM      8  C   UNL     1       6.582 -37.709  44.379  1.00  0.00     0.031 C 
ATOM      9  C   UNL     1       6.031 -34.966  45.387  1.00  0.00     0.034 C 
ATOM     10  C   UNL     1       7.673 -36.824  44.989  1.00  0.00     0.011 C 
ENDBRANCH   1   4
BRANCH   1  11
ATOM     11  O   UNL     1       9.381 -35.001  46.057  1.00  0.00    -0.390 OA
ATOM     12  H   UNL     1       9.232 -34.584  46.945  1.00  0.00     0.211 HD
ENDBRANCH   1  11
TORSDOF 2
ENDMDL
MODEL 5
REMARK VINA RESULT:    -4.478      3.884      5.475
REMARK INTER + INTRA:          -5.016
REMARK INTER:                  -4.859
REMARK INTRA:                  -0.157
REMARK UNBOUND:                -0.145
REMARK SMILES CC1=CC[C@@H](C(C)(C)O)CC1
REMARK SMILES IDX 6 1 7 2 8 3 5 4 1 5 2 6 3 7 11 8 4 9 10 10 9 11
REMARK H PARENT 9 12
REMARK Flexibility Score: inf
ROOT
ATOM      1  C   UNL     1       7.070 -33.119  45.358  1.00  0.00     0.062 C 
ATOM      2  C   UNL     1       8.499 -33.241  45.945  1.00  0.00     0.042 C 
ATOM      3  C   UNL     1       7.190 -32.617  43.905  1.00  0.00     0.042 C 
ENDROOT
BRANCH   1   4
ATOM      4  C   UNL     1       6.273 -34.476  45.396  1.00  0.00     0.024 C 
ATOM      5  C   UNL     1       4.172 -38.252  44.595  1.00  0.00     0.039 C 
ATOM      6  C   UNL     1       4.893 -36.940  44.723  1.00  0.00    -0.077 C 
ATOM      7  C   UNL     1       6.242 -36.927  44.705  1.00  0.00    -0.028 C 
ATOM      8  C   UNL     1       4.091 -35.685  44.995  1.00  0.00     0.031 C 
ATOM      9  C   UNL     1       7.057 -35.658  44.779  1.00  0.00     0.034 C 
ATOM     10  C   UNL     1       4.883 -34.402  44.725  1.00  0.00     0.011 C 
ENDBRANCH   1   4
BRANCH   1  11
ATOM     11  O   UNL     1       6.347 -32.131  46.059  1.00  0.00    -0.390 OA
ATOM     12  H   UNL     1       6.616 -31.237  45.721  1.00  0.00     0.211 HD
ENDBRANCH   1  11
TORSDOF 2
ENDMDL
MODEL 6
REMARK VINA RESULT:    -4.466      3.511      5.539
REMARK INTER + INTRA:          -5.003
REMARK INTER:                  -4.856
REMARK INTRA:                  -0.148
REMARK UNBOUND:                -0.145
REMARK SMILES CC1=CC[C@@H](C(C)(C)O)CC1
REMARK SMILES IDX 6 1 7 2 8 3 5 4 1 5 2 6 3 7 11 8 4 9 10 10 9 11
REMARK H PARENT 9 12
REMARK Flexibility Score: inf
ROOT
ATOM      1  C   UNL     1       8.338 -34.541  45.081  1.00  0.00     0.062 C 
ATOM      2  C   UNL     1       8.676 -34.089  43.637  1.00  0.00     0.042 C 
ATOM      3  C   UNL     1       8.556 -33.340  46.022  1.00  0.00     0.042 C 
ENDROOT
BRANCH   1   4
ATOM      4  C   UNL     1       6.867 -35.082  45.226  1.00  0.00     0.024 C 
ATOM      5  C   UNL     1       2.826 -36.737  44.731  1.00  0.00     0.039 C 
ATOM      6  C   UNL     1       4.218 -36.168  44.753  1.00  0.00    -0.077 C 
ATOM      7  C   UNL     1       5.271 -37.011  44.760  1.00  0.00    -0.028 C 
ATOM      8  C   UNL     1       4.397 -34.672  44.895  1.00  0.00     0.031 C 
ATOM      9  C   UNL     1       6.705 -36.540  44.734  1.00  0.00     0.034 C 
ATOM     10  C   UNL     1       5.808 -34.204  44.525  1.00  0.00     0.011 C 
ENDBRANCH   1   4
BRANCH   1  11
ATOM     11  O   UNL     1       9.248 -35.537  45.495  1.00  0.00    -0.390 OA
ATOM     12  H   UNL     1      10.158 -35.145  45.534  1.00  0.00     0.211 HD
ENDBRANCH   1  11
TORSDOF 2
ENDMDL
MODEL 7
REMARK VINA RESULT:    -4.405      7.615     10.481
REMARK INTER + INTRA:          -4.937
REMARK INTER:                  -4.796
REMARK INTRA:                  -0.141
REMARK UNBOUND:                -0.145
REMARK SMILES CC1=CC[C@@H](C(C)(C)O)CC1
REMARK SMILES IDX 6 1 7 2 8 3 5 4 1 5 2 6 3 7 11 8 4 9 10 10 9 11
REMARK H PARENT 9 12
REMARK Flexibility Score: inf
ROOT
ATOM      1  C   UNL     1       7.655 -32.015  45.392  1.00  0.00     0.062 C 
ATOM      2  C   UNL     1       7.104 -32.517  44.033  1.00  0.00     0.042 C 
ATOM      3  C   UNL     1       8.198 -33.232  46.167  1.00  0.00     0.042 C 
ENDROOT
BRANCH   1   4
ATOM      4  C   UNL     1       8.783 -30.929  45.233  1.00  0.00     0.024 C 
ATOM      5  C   UNL     1      11.250 -27.371  44.479  1.00  0.00     0.039 C 
ATOM      6  C   UNL     1      10.297 -28.518  44.666  1.00  0.00    -0.077 C 
ATOM      7  C   UNL     1       9.506 -28.544  45.758  1.00  0.00    -0.028 C 
ATOM      8  C   UNL     1      10.342 -29.675  43.690  1.00  0.00     0.031 C 
ATOM      9  C   UNL     1       8.485 -29.626  46.013  1.00  0.00     0.034 C 
ATOM     10  C   UNL     1       9.097 -30.565  43.766  1.00  0.00     0.011 C 
ENDBRANCH   1   4
BRANCH   1  11
ATOM     11  O   UNL     1       6.602 -31.489  46.170  1.00  0.00    -0.390 OA
ATOM     12  H   UNL     1       6.945 -31.290  47.080  1.00  0.00     0.211 HD
ENDBRANCH   1  11
TORSDOF 2
ENDMDL
MODEL 8
REMARK VINA RESULT:    -4.309      2.970      4.011
REMARK INTER + INTRA:          -4.832
REMARK INTER:                  -4.658
REMARK INTRA:                  -0.174
REMARK UNBOUND:                -0.145
REMARK SMILES CC1=CC[C@@H](C(C)(C)O)CC1
REMARK SMILES IDX 6 1 7 2 8 3 5 4 1 5 2 6 3 7 11 8 4 9 10 10 9 11
REMARK H PARENT 9 12
REMARK Flexibility Score: inf
ROOT
ATOM      1  C   UNL     1       3.361 -36.502  39.686  1.00  0.00     0.062 C 
ATOM      2  C   UNL     1       3.039 -35.525  38.527  1.00  0.00     0.042 C 
ATOM      3  C   UNL     1       4.083 -35.710  40.794  1.00  0.00     0.042 C 
ENDROOT
BRANCH   1   4
ATOM      4  C   UNL     1       2.079 -37.204  40.271  1.00  0.00     0.024 C 
ATOM      5  C   UNL     1      -1.794 -38.304  42.033  1.00  0.00     0.039 C 
ATOM      6  C   UNL     1      -0.498 -37.788  41.470  1.00  0.00    -0.077 C 
ATOM      7  C   UNL     1      -0.460 -37.370  40.188  1.00  0.00    -0.028 C 
ATOM      8  C   UNL     1       0.754 -37.872  42.315  1.00  0.00     0.031 C 
ATOM      9  C   UNL     1       0.777 -36.792  39.545  1.00  0.00     0.034 C 
ATOM     10  C   UNL     1       1.888 -36.986  41.788  1.00  0.00     0.011 C 
ENDBRANCH   1   4
BRANCH   1  11
ATOM     11  O   UNL     1       4.273 -37.484  39.244  1.00  0.00    -0.390 OA
ATOM     12  H   UNL     1       3.985 -38.369  39.591  1.00  0.00     0.211 HD
ENDBRANCH   1  11
TORSDOF 2
ENDMDL
MODEL 9
REMARK VINA RESULT:    -4.296      1.837      2.561
REMARK INTER + INTRA:          -4.818
REMARK INTER:                  -4.678
REMARK INTRA:                  -0.141
REMARK UNBOUND:                -0.145
REMARK SMILES CC1=CC[C@@H](C(C)(C)O)CC1
REMARK SMILES IDX 6 1 7 2 8 3 5 4 1 5 2 6 3 7 11 8 4 9 10 10 9 11
REMARK H PARENT 9 12
REMARK Flexibility Score: inf
ROOT
ATOM      1  C   UNL     1       5.684 -36.668  44.336  1.00  0.00     0.062 C 
ATOM      2  C   UNL     1       6.489 -37.960  44.629  1.00  0.00     0.042 C 
ATOM      3  C   UNL     1       6.494 -35.814  43.341  1.00  0.00     0.042 C 
ENDROOT
BRANCH   1   4
ATOM      4  C   UNL     1       4.249 -36.957  43.756  1.00  0.00     0.024 C 
ATOM      5  C   UNL     1       0.083 -38.114  42.968  1.00  0.00     0.039 C 
ATOM      6  C   UNL     1       1.498 -37.794  43.364  1.00  0.00    -0.077 C 
ATOM      7  C   UNL     1       1.740 -36.690  44.101  1.00  0.00    -0.028 C 
ATOM      8  C   UNL     1       2.623 -38.647  42.819  1.00  0.00     0.031 C 
ATOM      9  C   UNL     1       3.117 -36.308  44.588  1.00  0.00     0.034 C 
ATOM     10  C   UNL     1       3.936 -38.459  43.585  1.00  0.00     0.011 C 
ENDBRANCH   1   4
BRANCH   1  11
ATOM     11  O   UNL     1       5.568 -35.899  45.513  1.00  0.00    -0.390 OA
ATOM     12  H   UNL     1       4.608 -35.822  45.753  1.00  0.00     0.211 HD
ENDBRANCH   1  11
TORSDOF 2
ENDMDL
