MODEL 1
REMARK VINA RESULT:    -4.347      0.000      0.000
REMARK INTER + INTRA:          -7.957
REMARK INTER:                  -6.635
REMARK INTRA:                  -1.322
REMARK UNBOUND:                -1.322
REMARK SMILES CCCCCCCCCCC(=O)[O-]
REMARK SMILES IDX 7 1 8 2 9 3 10 4 11 5 12 6 13 7 6 8 5 9 4 10 3 11 2 12 1 13
REMARK H PARENT
REMARK Flexibility Score: inf
ROOT
ATOM      1  C   UNL     1      20.803   1.636 -18.692  1.00  0.00     0.000 C 
ENDROOT
BRANCH   1   2
ATOM      2  C   UNL     1      20.939   2.286 -17.298  1.00  0.00     0.000 C 
BRANCH   2   3
ATOM      3  C   UNL     1      19.642   2.968 -16.839  1.00  0.00     0.006 C 
BRANCH   3   4
ATOM      4  C   UNL     1      19.150   2.377 -15.515  1.00  0.00     0.053 C 
BRANCH   4   5
ATOM      5  C   UNL     1      17.854   1.655 -15.712  1.00  0.00     0.041 C 
ATOM      6  O   UNL     1      17.482   0.784 -14.882  1.00  0.00    -0.550 OA
ATOM      7  O   UNL     1      17.034   1.979 -16.785  1.00  0.00    -0.550 OA
ENDBRANCH   4   5
ENDBRANCH   3   4
ENDBRANCH   2   3
ENDBRANCH   1   2
BRANCH   1   8
ATOM      8  C   UNL     1      19.766   0.498 -18.747  1.00  0.00     0.000 C 
BRANCH   8   9
ATOM      9  C   UNL     1      20.353  -0.909 -18.965  1.00  0.00    -0.000 C 
BRANCH   9  10
ATOM     10  C   UNL     1      20.769  -1.648 -17.680  1.00  0.00    -0.000 C 
BRANCH  10  11
ATOM     11  C   UNL     1      19.838  -1.354 -16.494  1.00  0.00    -0.000 C 
BRANCH  11  12
ATOM     12  C   UNL     1      20.624  -1.311 -15.177  1.00  0.00    -0.003 C 
ATOM     13  C   UNL     1      21.977  -0.631 -15.364  1.00  0.00     0.004 C 
ENDBRANCH  11  12
ENDBRANCH  10  11
ENDBRANCH   9  10
ENDBRANCH   8   9
ENDBRANCH   1   8
TORSDOF 9
ENDMDL
MODEL 2
REMARK VINA RESULT:    -4.343      0.859      2.608
REMARK INTER + INTRA:          -7.951
REMARK INTER:                  -6.857
REMARK INTRA:                  -1.094
REMARK UNBOUND:                -1.322
REMARK SMILES CCCCCCCCCCC(=O)[O-]
REMARK SMILES IDX 7 1 8 2 9 3 10 4 11 5 12 6 13 7 6 8 5 9 4 10 3 11 2 12 1 13
REMARK H PARENT
REMARK Flexibility Score: inf
ROOT
ATOM      1  C   UNL     1      22.257   0.581 -15.784  1.00  0.00     0.000 C 
ENDROOT
BRANCH   1   2
ATOM      2  C   UNL     1      21.230   1.515 -15.110  1.00  0.00     0.000 C 
BRANCH   2   3
ATOM      3  C   UNL     1      20.298   2.194 -16.125  1.00  0.00     0.006 C 
BRANCH   3   4
ATOM      4  C   UNL     1      18.999   2.652 -15.457  1.00  0.00     0.053 C 
BRANCH   4   5
ATOM      5  C   UNL     1      17.880   1.717 -15.791  1.00  0.00     0.041 C 
ATOM      6  O   UNL     1      17.556   0.803 -14.987  1.00  0.00    -0.550 OA
ATOM      7  O   UNL     1      17.161   1.885 -16.968  1.00  0.00    -0.550 OA
ENDBRANCH   4   5
ENDBRANCH   3   4
ENDBRANCH   2   3
ENDBRANCH   1   2
BRANCH   1   8
ATOM      8  C   UNL     1      22.008  -0.915 -15.512  1.00  0.00     0.000 C 
BRANCH   8   9
ATOM      9  C   UNL     1      20.530  -1.305 -15.320  1.00  0.00    -0.000 C 
BRANCH   9  10
ATOM     10  C   UNL     1      19.740  -1.523 -16.624  1.00  0.00    -0.000 C 
BRANCH  10  11
ATOM     11  C   UNL     1      20.633  -1.943 -17.801  1.00  0.00    -0.000 C 
BRANCH  11  12
ATOM     12  C   UNL     1      20.118  -1.351 -19.119  1.00  0.00    -0.003 C 
ATOM     13  C   UNL     1      20.113   0.174 -19.075  1.00  0.00     0.004 C 
ENDBRANCH  11  12
ENDBRANCH  10  11
ENDBRANCH   9  10
ENDBRANCH   8   9
ENDBRANCH   1   8
TORSDOF 9
ENDMDL
MODEL 3
REMARK VINA RESULT:    -4.306      0.918      1.920
REMARK INTER + INTRA:          -7.894
REMARK INTER:                  -6.893
REMARK INTRA:                  -1.000
REMARK UNBOUND:                -1.322
REMARK SMILES CCCCCCCCCCC(=O)[O-]
REMARK SMILES IDX 7 1 8 2 9 3 10 4 11 5 12 6 13 7 6 8 5 9 4 10 3 11 2 12 1 13
REMARK H PARENT
REMARK Flexibility Score: inf
ROOT
ATOM      1  C   UNL     1      20.606  -0.343 -18.915  1.00  0.00     0.000 C 
ENDROOT
BRANCH   1   2
ATOM      2  C   UNL     1      21.024   0.903 -18.106  1.00  0.00     0.000 C 
BRANCH   2   3
ATOM      3  C   UNL     1      19.867   1.897 -17.917  1.00  0.00     0.006 C 
BRANCH   3   4
ATOM      4  C   UNL     1      19.422   1.949 -16.453  1.00  0.00     0.053 C 
BRANCH   4   5
ATOM      5  C   UNL     1      17.974   1.593 -16.332  1.00  0.00     0.041 C 
ATOM      6  O   UNL     1      17.174   1.870 -17.265  1.00  0.00    -0.550 OA
ATOM      7  O   UNL     1      17.516   0.911 -15.212  1.00  0.00    -0.550 OA
ENDBRANCH   4   5
ENDBRANCH   3   4
ENDBRANCH   2   3
ENDBRANCH   1   2
BRANCH   1   8
ATOM      8  C   UNL     1      20.895  -1.674 -18.197  1.00  0.00     0.000 C 
BRANCH   8   9
ATOM      9  C   UNL     1      19.849  -2.088 -17.145  1.00  0.00    -0.000 C 
BRANCH   9  10
ATOM     10  C   UNL     1      20.060  -1.483 -15.744  1.00  0.00    -0.000 C 
BRANCH  10  11
ATOM     11  C   UNL     1      21.465  -1.748 -15.184  1.00  0.00    -0.000 C 
BRANCH  11  12
ATOM     12  C   UNL     1      22.252  -0.440 -15.036  1.00  0.00    -0.003 C 
ATOM     13  C   UNL     1      23.751  -0.677 -15.189  1.00  0.00     0.004 C 
ENDBRANCH  11  12
ENDBRANCH  10  11
ENDBRANCH   9  10
ENDBRANCH   8   9
ENDBRANCH   1   8
TORSDOF 9
ENDMDL
MODEL 4
REMARK VINA RESULT:    -4.248      7.896      9.682
REMARK INTER + INTRA:          -7.805
REMARK INTER:                  -6.737
REMARK INTRA:                  -1.069
REMARK UNBOUND:                -1.322
REMARK SMILES CCCCCCCCCCC(=O)[O-]
REMARK SMILES IDX 7 1 8 2 9 3 10 4 11 5 12 6 13 7 6 8 5 9 4 10 3 11 2 12 1 13
REMARK H PARENT
REMARK Flexibility Score: inf
ROOT
ATOM      1  C   UNL     1      19.089   0.142 -27.009  1.00  0.00     0.000 C 
ENDROOT
BRANCH   1   2
ATOM      2  C   UNL     1      19.725   0.085 -25.604  1.00  0.00     0.000 C 
BRANCH   2   3
ATOM      3  C   UNL     1      20.266  -1.311 -25.260  1.00  0.00     0.006 C 
BRANCH   3   4
ATOM      4  C   UNL     1      19.126  -2.268 -24.899  1.00  0.00     0.053 C 
BRANCH   4   5
ATOM      5  C   UNL     1      19.531  -3.685 -25.155  1.00  0.00     0.041 C 
ATOM      6  O   UNL     1      20.742  -3.972 -25.351  1.00  0.00    -0.550 OA
ATOM      7  O   UNL     1      18.580  -4.697 -25.128  1.00  0.00    -0.550 OA
ENDBRANCH   4   5
ENDBRANCH   3   4
ENDBRANCH   2   3
ENDBRANCH   1   2
BRANCH   1   8
ATOM      8  C   UNL     1      17.558   0.305 -26.991  1.00  0.00     0.000 C 
BRANCH   8   9
ATOM      9  C   UNL     1      17.054   1.677 -26.505  1.00  0.00    -0.000 C 
BRANCH   9  10
ATOM     10  C   UNL     1      16.108   1.630 -25.290  1.00  0.00    -0.000 C 
BRANCH  10  11
ATOM     11  C   UNL     1      16.000   0.229 -24.671  1.00  0.00    -0.000 C 
BRANCH  11  12
ATOM     12  C   UNL     1      16.724   0.169 -23.320  1.00  0.00    -0.003 C 
ATOM     13  C   UNL     1      17.136   1.562 -22.853  1.00  0.00     0.004 C 
ENDBRANCH  11  12
ENDBRANCH  10  11
ENDBRANCH   9  10
ENDBRANCH   8   9
ENDBRANCH   1   8
TORSDOF 9
ENDMDL
MODEL 5
REMARK VINA RESULT:    -4.135      7.043      9.141
REMARK INTER + INTRA:          -7.633
REMARK INTER:                  -6.343
REMARK INTRA:                  -1.290
REMARK UNBOUND:                -1.322
REMARK SMILES CCCCCCCCCCC(=O)[O-]
REMARK SMILES IDX 7 1 8 2 9 3 10 4 11 5 12 6 13 7 6 8 5 9 4 10 3 11 2 12 1 13
REMARK H PARENT
REMARK Flexibility Score: inf
ROOT
ATOM      1  C   UNL     1      19.568   0.380 -23.070  1.00  0.00     0.000 C 
ENDROOT
BRANCH   1   2
ATOM      2  C   UNL     1      19.981   1.124 -24.357  1.00  0.00     0.000 C 
BRANCH   2   3
ATOM      3  C   UNL     1      20.192   0.171 -25.544  1.00  0.00     0.006 C 
BRANCH   3   4
ATOM      4  C   UNL     1      20.378  -1.271 -25.065  1.00  0.00     0.053 C 
BRANCH   4   5
ATOM      5  C   UNL     1      19.351  -2.165 -25.684  1.00  0.00     0.041 C 
ATOM      6  O   UNL     1      18.685  -2.958 -24.966  1.00  0.00    -0.550 OA
ATOM      7  O   UNL     1      19.092  -2.089 -27.047  1.00  0.00    -0.550 OA
ENDBRANCH   4   5
ENDBRANCH   3   4
ENDBRANCH   2   3
ENDBRANCH   1   2
BRANCH   1   8
ATOM      8  C   UNL     1      18.549   1.151 -22.209  1.00  0.00     0.000 C 
BRANCH   8   9
ATOM      9  C   UNL     1      17.092   1.081 -22.704  1.00  0.00    -0.000 C 
BRANCH   9  10
ATOM     10  C   UNL     1      16.712  -0.223 -23.430  1.00  0.00    -0.000 C 
BRANCH  10  11
ATOM     11  C   UNL     1      16.124   0.021 -24.827  1.00  0.00    -0.000 C 
BRANCH  11  12
ATOM     12  C   UNL     1      16.102   1.518 -25.159  1.00  0.00    -0.003 C 
ATOM     13  C   UNL     1      16.853   1.807 -26.455  1.00  0.00     0.004 C 
ENDBRANCH  11  12
ENDBRANCH  10  11
ENDBRANCH   9  10
ENDBRANCH   8   9
ENDBRANCH   1   8
TORSDOF 9
ENDMDL
MODEL 6
REMARK VINA RESULT:    -4.135      7.505      9.307
REMARK INTER + INTRA:          -7.633
REMARK INTER:                  -6.494
REMARK INTRA:                  -1.139
REMARK UNBOUND:                -1.322
REMARK SMILES CCCCCCCCCCC(=O)[O-]
REMARK SMILES IDX 7 1 8 2 9 3 10 4 11 5 12 6 13 7 6 8 5 9 4 10 3 11 2 12 1 13
REMARK H PARENT
REMARK Flexibility Score: inf
ROOT
ATOM      1  C   UNL     1      17.169   1.543 -26.652  1.00  0.00     0.000 C 
ENDROOT
BRANCH   1   2
ATOM      2  C   UNL     1      17.656   0.166 -27.151  1.00  0.00     0.000 C 
BRANCH   2   3
ATOM      3  C   UNL     1      19.182   0.014 -27.061  1.00  0.00     0.006 C 
BRANCH   3   4
ATOM      4  C   UNL     1      19.589  -0.678 -25.758  1.00  0.00     0.053 C 
BRANCH   4   5
ATOM      5  C   UNL     1      19.186  -2.119 -25.782  1.00  0.00     0.041 C 
ATOM      6  O   UNL     1      18.555  -2.617 -24.812  1.00  0.00    -0.550 OA
ATOM      7  O   UNL     1      19.464  -2.901 -26.897  1.00  0.00    -0.550 OA
ENDBRANCH   4   5
ENDBRANCH   3   4
ENDBRANCH   2   3
ENDBRANCH   1   2
BRANCH   1   8
ATOM      8  C   UNL     1      16.025   1.461 -25.624  1.00  0.00     0.000 C 
BRANCH   8   9
ATOM      9  C   UNL     1      15.883   0.102 -24.913  1.00  0.00    -0.000 C 
BRANCH   9  10
ATOM     10  C   UNL     1      16.565   0.014 -23.535  1.00  0.00    -0.000 C 
BRANCH  10  11
ATOM     11  C   UNL     1      17.016   1.382 -23.002  1.00  0.00    -0.000 C 
BRANCH  11  12
ATOM     12  C   UNL     1      18.218   1.235 -22.062  1.00  0.00    -0.003 C 
ATOM     13  C   UNL     1      18.954  -0.078 -22.308  1.00  0.00     0.004 C 
ENDBRANCH  11  12
ENDBRANCH  10  11
ENDBRANCH   9  10
ENDBRANCH   8   9
ENDBRANCH   1   8
TORSDOF 9
ENDMDL
MODEL 7
REMARK VINA RESULT:    -4.128      3.964      5.820
REMARK INTER + INTRA:          -7.622
REMARK INTER:                  -7.257
REMARK INTRA:                  -0.364
REMARK UNBOUND:                -1.322
REMARK SMILES CCCCCCCCCCC(=O)[O-]
REMARK SMILES IDX 7 1 8 2 9 3 10 4 11 5 12 6 13 7 6 8 5 9 4 10 3 11 2 12 1 13
REMARK H PARENT
REMARK Flexibility Score: inf
ROOT
ATOM      1  C   UNL     1      23.617  -0.765 -15.165  1.00  0.00     0.000 C 
ENDROOT
BRANCH   1   2
ATOM      2  C   UNL     1      22.234  -1.356 -14.819  1.00  0.00     0.000 C 
BRANCH   2   3
ATOM      3  C   UNL     1      21.230  -1.214 -15.974  1.00  0.00     0.006 C 
BRANCH   3   4
ATOM      4  C   UNL     1      19.795  -1.130 -15.446  1.00  0.00     0.053 C 
BRANCH   4   5
ATOM      5  C   UNL     1      19.294   0.278 -15.512  1.00  0.00     0.041 C 
ATOM      6  O   UNL     1      20.011   1.182 -16.020  1.00  0.00    -0.550 OA
ATOM      7  O   UNL     1      18.018   0.585 -15.058  1.00  0.00    -0.550 OA
ENDBRANCH   4   5
ENDBRANCH   3   4
ENDBRANCH   2   3
ENDBRANCH   1   2
BRANCH   1   8
ATOM      8  C   UNL     1      24.717  -1.126 -14.148  1.00  0.00     0.000 C 
BRANCH   8   9
ATOM      9  C   UNL     1      25.326   0.071 -13.394  1.00  0.00    -0.000 C 
BRANCH   9  10
ATOM     10  C   UNL     1      26.528  -0.270 -12.493  1.00  0.00    -0.000 C 
BRANCH  10  11
ATOM     11  C   UNL     1      26.463  -1.696 -11.926  1.00  0.00    -0.000 C 
BRANCH  11  12
ATOM     12  C   UNL     1      26.156  -1.676 -10.424  1.00  0.00    -0.003 C 
ATOM     13  C   UNL     1      26.959  -0.591  -9.712  1.00  0.00     0.004 C 
ENDBRANCH  11  12
ENDBRANCH  10  11
ENDBRANCH   9  10
ENDBRANCH   8   9
ENDBRANCH   1   8
TORSDOF 9
ENDMDL
MODEL 8
REMARK VINA RESULT:    -4.057      6.883      9.024
REMARK INTER + INTRA:          -7.514
REMARK INTER:                  -6.504
REMARK INTRA:                  -1.010
REMARK UNBOUND:                -1.322
REMARK SMILES CCCCCCCCCCC(=O)[O-]
REMARK SMILES IDX 7 1 8 2 9 3 10 4 11 5 12 6 13 7 6 8 5 9 4 10 3 11 2 12 1 13
REMARK H PARENT
REMARK Flexibility Score: inf
ROOT
ATOM      1  C   UNL     1      20.560   0.472 -23.060  1.00  0.00     0.000 C 
ENDROOT
BRANCH   1   2
ATOM      2  C   UNL     1      20.451   0.316 -24.592  1.00  0.00     0.000 C 
BRANCH   2   3
ATOM      3  C   UNL     1      20.862  -1.085 -25.070  1.00  0.00     0.006 C 
BRANCH   3   4
ATOM      4  C   UNL     1      19.691  -1.799 -25.749  1.00  0.00     0.053 C 
BRANCH   4   5
ATOM      5  C   UNL     1      19.551  -3.193 -25.224  1.00  0.00     0.041 C 
ATOM      6  O   UNL     1      20.541  -3.971 -25.223  1.00  0.00    -0.550 OA
ATOM      7  O   UNL     1      18.341  -3.618 -24.689  1.00  0.00    -0.550 OA
ENDBRANCH   4   5
ENDBRANCH   3   4
ENDBRANCH   2   3
ENDBRANCH   1   2
BRANCH   1   8
ATOM      8  C   UNL     1      19.203   0.669 -22.359  1.00  0.00     0.000 C 
BRANCH   8   9
ATOM      9  C   UNL     1      18.149  -0.412 -22.664  1.00  0.00    -0.000 C 
BRANCH   9  10
ATOM     10  C   UNL     1      16.792   0.124 -23.159  1.00  0.00    -0.000 C 
BRANCH  10  11
ATOM     11  C   UNL     1      16.341  -0.521 -24.479  1.00  0.00    -0.000 C 
BRANCH  11  12
ATOM     12  C   UNL     1      15.958   0.549 -25.509  1.00  0.00    -0.003 C 
ATOM     13  C   UNL     1      16.343   1.944 -25.024  1.00  0.00     0.004 C 
ENDBRANCH  11  12
ENDBRANCH  10  11
ENDBRANCH   9  10
ENDBRANCH   8   9
ENDBRANCH   1   8
TORSDOF 9
ENDMDL
MODEL 9
REMARK VINA RESULT:    -4.028      7.783      9.260
REMARK INTER + INTRA:          -7.469
REMARK INTER:                  -6.482
REMARK INTRA:                  -0.987
REMARK UNBOUND:                -1.322
REMARK SMILES CCCCCCCCCCC(=O)[O-]
REMARK SMILES IDX 7 1 8 2 9 3 10 4 11 5 12 6 13 7 6 8 5 9 4 10 3 11 2 12 1 13
REMARK H PARENT
REMARK Flexibility Score: inf
ROOT
ATOM      1  C   UNL     1      16.786   0.203 -23.182  1.00  0.00     0.000 C 
ENDROOT
BRANCH   1   2
ATOM      2  C   UNL     1      16.946   1.623 -23.764  1.00  0.00     0.000 C 
BRANCH   2   3
ATOM      3  C   UNL     1      16.116   1.833 -25.039  1.00  0.00     0.006 C 
BRANCH   3   4
ATOM      4  C   UNL     1      17.019   1.949 -26.269  1.00  0.00     0.053 C 
BRANCH   4   5
ATOM      5  C   UNL     1      17.201   0.612 -26.914  1.00  0.00     0.041 C 
ATOM      6  O   UNL     1      18.151   0.421 -27.719  1.00  0.00    -0.550 OA
ATOM      7  O   UNL     1      16.353  -0.439 -26.589  1.00  0.00    -0.550 OA
ENDBRANCH   4   5
ENDBRANCH   3   4
ENDBRANCH   2   3
ENDBRANCH   1   2
BRANCH   1   8
ATOM      8  C   UNL     1      18.090  -0.617 -23.181  1.00  0.00     0.000 C 
BRANCH   8   9
ATOM      9  C   UNL     1      19.301   0.083 -23.824  1.00  0.00    -0.000 C 
BRANCH   9  10
ATOM     10  C   UNL     1      20.175  -0.817 -24.718  1.00  0.00    -0.000 C 
BRANCH  10  11
ATOM     11  C   UNL     1      19.382  -1.955 -25.377  1.00  0.00    -0.000 C 
BRANCH  11  12
ATOM     12  C   UNL     1      20.088  -3.302 -25.180  1.00  0.00    -0.003 C 
ATOM     13  C   UNL     1      19.815  -4.244 -26.348  1.00  0.00     0.004 C 
ENDBRANCH  11  12
ENDBRANCH  10  11
ENDBRANCH   9  10
ENDBRANCH   8   9
ENDBRANCH   1   8
TORSDOF 9
ENDMDL
