MODEL 1
REMARK VINA RESULT:    -5.797      0.000      0.000
REMARK INTER + INTRA:         -15.230
REMARK INTER:                 -12.574
REMARK INTRA:                  -2.656
REMARK UNBOUND:                -2.656
REMARK SMILES CCCCCCCCCCCCCCCCCCCCCC(=O)[O-]
REMARK SMILES IDX 12 1 11 2 10 3 9 4 8 5 7 6 6 7 5 8 4 9 3 10 2 11 1 12 13 13
REMARK SMILES IDX 14 14 15 15 16 16 17 17 18 18 19 19 20 20 21 21 22 22 23 23
REMARK SMILES IDX 24 24
REMARK H PARENT
REMARK Flexibility Score: inf
ROOT
ATOM      1  C   UNL     1      -8.377 -13.790  -5.634  1.00  0.00     0.000 C 
ENDROOT
BRANCH   1   2
ATOM      2  C   UNL     1      -8.570 -15.216  -6.171  1.00  0.00     0.000 C 
BRANCH   2   3
ATOM      3  C   UNL     1      -7.248 -15.856  -6.625  1.00  0.00     0.000 C 
BRANCH   3   4
ATOM      4  C   UNL     1      -7.176 -17.363  -6.328  1.00  0.00    -0.000 C 
BRANCH   4   5
ATOM      5  C   UNL     1      -7.993 -17.787  -5.090  1.00  0.00    -0.000 C 
BRANCH   5   6
ATOM      6  C   UNL     1      -8.834 -19.049  -5.356  1.00  0.00    -0.000 C 
BRANCH   6   7
ATOM      7  C   UNL     1      -9.347 -19.125  -6.803  1.00  0.00    -0.000 C 
BRANCH   7   8
ATOM      8  C   UNL     1     -10.631 -18.305  -7.022  1.00  0.00    -0.000 C 
BRANCH   8   9
ATOM      9  C   UNL     1     -10.885 -18.008  -8.515  1.00  0.00    -0.000 C 
BRANCH   9  10
ATOM     10  C   UNL     1      -9.602 -17.811  -9.344  1.00  0.00    -0.000 C 
BRANCH  10  11
ATOM     11  C   UNL     1      -9.265 -16.338  -9.651  1.00  0.00    -0.003 C 
ATOM     12  C   UNL     1      -9.477 -15.978 -11.123  1.00  0.00     0.004 C 
ENDBRANCH  10  11
ENDBRANCH   9  10
ENDBRANCH   8   9
ENDBRANCH   7   8
ENDBRANCH   6   7
ENDBRANCH   5   6
ENDBRANCH   4   5
ENDBRANCH   3   4
ENDBRANCH   2   3
ENDBRANCH   1   2
BRANCH   1  13
ATOM     13  C   UNL     1      -6.938 -13.527  -5.157  1.00  0.00     0.000 C 
BRANCH  13  14
ATOM     14  C   UNL     1      -6.890 -12.864  -3.770  1.00  0.00     0.000 C 
BRANCH  14  15
ATOM     15  C   UNL     1      -6.248 -13.769  -2.709  1.00  0.00     0.000 C 
BRANCH  15  16
ATOM     16  C   UNL     1      -6.650 -15.237  -2.919  1.00  0.00     0.000 C 
BRANCH  16  17
ATOM     17  C   UNL     1      -5.435 -16.174  -3.009  1.00  0.00     0.000 C 
BRANCH  17  18
ATOM     18  C   UNL     1      -4.954 -16.659  -1.630  1.00  0.00     0.000 C 
BRANCH  18  19
ATOM     19  C   UNL     1      -3.601 -16.052  -1.226  1.00  0.00     0.000 C 
BRANCH  19  20
ATOM     20  C   UNL     1      -2.410 -16.770  -1.880  1.00  0.00     0.006 C 
BRANCH  20  21
ATOM     21  C   UNL     1      -2.041 -18.041  -1.107  1.00  0.00     0.053 C 
BRANCH  21  22
ATOM     22  C   UNL     1      -1.186 -17.716   0.079  1.00  0.00     0.041 C 
ATOM     23  O   UNL     1      -1.215 -18.446   1.106  1.00  0.00    -0.550 OA
ATOM     24  O   UNL     1      -0.365 -16.593   0.056  1.00  0.00    -0.550 OA
ENDBRANCH  21  22
ENDBRANCH  20  21
ENDBRANCH  19  20
ENDBRANCH  18  19
ENDBRANCH  17  18
ENDBRANCH  16  17
ENDBRANCH  15  16
ENDBRANCH  14  15
ENDBRANCH  13  14
ENDBRANCH   1  13
TORSDOF 20
ENDMDL
MODEL 2
REMARK VINA RESULT:    -5.707      0.929      1.857
REMARK INTER + INTRA:         -15.036
REMARK INTER:                 -12.711
REMARK INTRA:                  -2.324
REMARK UNBOUND:                -2.656
REMARK SMILES CCCCCCCCCCCCCCCCCCCCCC(=O)[O-]
REMARK SMILES IDX 12 1 11 2 10 3 9 4 8 5 7 6 6 7 5 8 4 9 3 10 2 11 1 12 13 13
REMARK SMILES IDX 14 14 15 15 16 16 17 17 18 18 19 19 20 20 21 21 22 22 23 23
REMARK SMILES IDX 24 24
REMARK H PARENT
REMARK Flexibility Score: inf
ROOT
ATOM      1  C   UNL     1      -8.548 -15.288  -6.060  1.00  0.00     0.000 C 
ENDROOT
BRANCH   1   2
ATOM      2  C   UNL     1      -7.272 -15.958  -6.592  1.00  0.00     0.000 C 
BRANCH   2   3
ATOM      3  C   UNL     1      -6.925 -17.247  -5.829  1.00  0.00     0.000 C 
BRANCH   3   4
ATOM      4  C   UNL     1      -8.164 -18.072  -5.448  1.00  0.00    -0.000 C 
BRANCH   4   5
ATOM      5  C   UNL     1      -8.693 -18.957  -6.596  1.00  0.00    -0.000 C 
BRANCH   5   6
ATOM      6  C   UNL     1     -10.154 -18.627  -6.954  1.00  0.00    -0.000 C 
BRANCH   6   7
ATOM      7  C   UNL     1     -10.277 -17.823  -8.258  1.00  0.00    -0.000 C 
BRANCH   7   8
ATOM      8  C   UNL     1      -8.959 -17.771  -9.052  1.00  0.00    -0.000 C 
BRANCH   8   9
ATOM      9  C   UNL     1      -8.939 -16.615 -10.073  1.00  0.00    -0.000 C 
BRANCH   9  10
ATOM     10  C   UNL     1     -10.205 -16.524 -10.945  1.00  0.00    -0.000 C 
BRANCH  10  11
ATOM     11  C   UNL     1     -10.470 -15.124 -11.533  1.00  0.00    -0.003 C 
ATOM     12  C   UNL     1     -11.960 -14.780 -11.590  1.00  0.00     0.004 C 
ENDBRANCH  10  11
ENDBRANCH   9  10
ENDBRANCH   8   9
ENDBRANCH   7   8
ENDBRANCH   6   7
ENDBRANCH   5   6
ENDBRANCH   4   5
ENDBRANCH   3   4
ENDBRANCH   2   3
ENDBRANCH   1   2
BRANCH   1  13
ATOM     13  C   UNL     1      -8.319 -13.822  -5.651  1.00  0.00     0.000 C 
BRANCH  13  14
ATOM     14  C   UNL     1      -6.901 -13.577  -5.109  1.00  0.00     0.000 C 
BRANCH  14  15
ATOM     15  C   UNL     1      -6.908 -12.958  -3.704  1.00  0.00     0.000 C 
BRANCH  15  16
ATOM     16  C   UNL     1      -6.214 -13.882  -2.691  1.00  0.00     0.000 C 
BRANCH  16  17
ATOM     17  C   UNL     1      -6.833 -15.289  -2.656  1.00  0.00     0.000 C 
BRANCH  17  18
ATOM     18  C   UNL     1      -5.774 -16.401  -2.543  1.00  0.00     0.000 C 
BRANCH  18  19
ATOM     19  C   UNL     1      -4.530 -15.958  -1.757  1.00  0.00     0.000 C 
BRANCH  19  20
ATOM     20  C   UNL     1      -3.960 -17.077  -0.871  1.00  0.00     0.006 C 
BRANCH  20  21
ATOM     21  C   UNL     1      -3.130 -16.498   0.281  1.00  0.00     0.053 C 
BRANCH  21  22
ATOM     22  C   UNL     1      -1.819 -17.212   0.405  1.00  0.00     0.041 C 
ATOM     23  O   UNL     1      -1.764 -18.467   0.301  1.00  0.00    -0.550 OA
ATOM     24  O   UNL     1      -0.656 -16.491   0.652  1.00  0.00    -0.550 OA
ENDBRANCH  21  22
ENDBRANCH  20  21
ENDBRANCH  19  20
ENDBRANCH  18  19
ENDBRANCH  17  18
ENDBRANCH  16  17
ENDBRANCH  15  16
ENDBRANCH  14  15
ENDBRANCH  13  14
ENDBRANCH   1  13
TORSDOF 20
ENDMDL
MODEL 3
REMARK VINA RESULT:    -5.678      5.012      9.551
REMARK INTER + INTRA:         -14.972
REMARK INTER:                 -12.552
REMARK INTRA:                  -2.420
REMARK UNBOUND:                -2.656
REMARK SMILES CCCCCCCCCCCCCCCCCCCCCC(=O)[O-]
REMARK SMILES IDX 12 1 11 2 10 3 9 4 8 5 7 6 6 7 5 8 4 9 3 10 2 11 1 12 13 13
REMARK SMILES IDX 14 14 15 15 16 16 17 17 18 18 19 19 20 20 21 21 22 22 23 23
REMARK SMILES IDX 24 24
REMARK H PARENT
REMARK Flexibility Score: inf
ROOT
ATOM      1  C   UNL     1      -7.385 -15.854  -6.802  1.00  0.00     0.000 C 
ENDROOT
BRANCH   1   2
ATOM      2  C   UNL     1      -8.579 -15.196  -6.093  1.00  0.00     0.000 C 
BRANCH   2   3
ATOM      3  C   UNL     1      -8.278 -13.754  -5.653  1.00  0.00     0.000 C 
BRANCH   3   4
ATOM      4  C   UNL     1      -6.852 -13.577  -5.108  1.00  0.00    -0.000 C 
BRANCH   4   5
ATOM      5  C   UNL     1      -6.805 -12.983  -3.684  1.00  0.00    -0.000 C 
BRANCH   5   6
ATOM      6  C   UNL     1      -6.367 -14.023  -2.637  1.00  0.00    -0.000 C 
BRANCH   6   7
ATOM      7  C   UNL     1      -6.934 -15.424  -2.920  1.00  0.00    -0.000 C 
BRANCH   7   8
ATOM      8  C   UNL     1      -5.917 -16.544  -2.639  1.00  0.00    -0.000 C 
BRANCH   8   9
ATOM      9  C   UNL     1      -4.728 -16.053  -1.786  1.00  0.00    -0.000 C 
BRANCH   9  10
ATOM     10  C   UNL     1      -4.195 -17.099  -0.789  1.00  0.00    -0.000 C 
BRANCH  10  11
ATOM     11  C   UNL     1      -2.713 -17.470  -0.992  1.00  0.00    -0.003 C 
ATOM     12  C   UNL     1      -1.958 -16.445  -1.840  1.00  0.00     0.004 C 
ENDBRANCH  10  11
ENDBRANCH   9  10
ENDBRANCH   8   9
ENDBRANCH   7   8
ENDBRANCH   6   7
ENDBRANCH   5   6
ENDBRANCH   4   5
ENDBRANCH   3   4
ENDBRANCH   2   3
ENDBRANCH   1   2
BRANCH   1  13
ATOM     13  C   UNL     1      -7.093 -17.271  -6.278  1.00  0.00     0.000 C 
BRANCH  13  14
ATOM     14  C   UNL     1      -8.269 -17.856  -5.478  1.00  0.00     0.000 C 
BRANCH  14  15
ATOM     15  C   UNL     1      -8.866 -19.106  -6.140  1.00  0.00     0.000 C 
BRANCH  15  16
ATOM     16  C   UNL     1      -8.948 -18.937  -7.665  1.00  0.00     0.000 C 
BRANCH  16  17
ATOM     17  C   UNL     1     -10.272 -18.299  -8.118  1.00  0.00     0.000 C 
BRANCH  17  18
ATOM     18  C   UNL     1     -10.062 -17.077  -9.029  1.00  0.00     0.000 C 
BRANCH  18  19
ATOM     19  C   UNL     1      -9.131 -17.374 -10.215  1.00  0.00     0.000 C 
BRANCH  19  20
ATOM     20  C   UNL     1      -9.430 -16.495 -11.440  1.00  0.00     0.006 C 
BRANCH  20  21
ATOM     21  C   UNL     1     -10.410 -15.371 -11.084  1.00  0.00     0.053 C 
BRANCH  21  22
ATOM     22  C   UNL     1     -11.675 -15.496 -11.877  1.00  0.00     0.041 C 
ATOM     23  O   UNL     1     -11.753 -15.006 -13.036  1.00  0.00    -0.550 OA
ATOM     24  O   UNL     1     -12.777 -16.142 -11.328  1.00  0.00    -0.550 OA
ENDBRANCH  21  22
ENDBRANCH  20  21
ENDBRANCH  19  20
ENDBRANCH  18  19
ENDBRANCH  17  18
ENDBRANCH  16  17
ENDBRANCH  15  16
ENDBRANCH  14  15
ENDBRANCH  13  14
ENDBRANCH   1  13
TORSDOF 20
ENDMDL
MODEL 4
REMARK VINA RESULT:    -5.639      5.233      9.859
REMARK INTER + INTRA:         -14.889
REMARK INTER:                 -12.967
REMARK INTRA:                  -1.922
REMARK UNBOUND:                -2.656
REMARK SMILES CCCCCCCCCCCCCCCCCCCCCC(=O)[O-]
REMARK SMILES IDX 12 1 11 2 10 3 9 4 8 5 7 6 6 7 5 8 4 9 3 10 2 11 1 12 13 13
REMARK SMILES IDX 14 14 15 15 16 16 17 17 18 18 19 19 20 20 21 21 22 22 23 23
REMARK SMILES IDX 24 24
REMARK H PARENT
REMARK Flexibility Score: inf
ROOT
ATOM      1  C   UNL     1      -8.311 -13.555  -5.624  1.00  0.00     0.000 C 
ENDROOT
BRANCH   1   2
ATOM      2  C   UNL     1      -6.886 -13.575  -5.050  1.00  0.00     0.000 C 
BRANCH   2   3
ATOM      3  C   UNL     1      -6.826 -13.042  -3.610  1.00  0.00     0.000 C 
BRANCH   3   4
ATOM      4  C   UNL     1      -6.436 -14.119  -2.585  1.00  0.00    -0.000 C 
BRANCH   4   5
ATOM      5  C   UNL     1      -6.637 -15.560  -3.099  1.00  0.00    -0.000 C 
BRANCH   5   6
ATOM      6  C   UNL     1      -5.380 -16.426  -2.898  1.00  0.00    -0.000 C 
BRANCH   6   7
ATOM      7  C   UNL     1      -4.474 -15.904  -1.772  1.00  0.00    -0.000 C 
BRANCH   7   8
ATOM      8  C   UNL     1      -4.052 -17.010  -0.788  1.00  0.00    -0.000 C 
BRANCH   8   9
ATOM      9  C   UNL     1      -2.520 -17.096  -0.629  1.00  0.00    -0.000 C 
BRANCH   9  10
ATOM     10  C   UNL     1      -1.776 -17.499  -1.917  1.00  0.00    -0.000 C 
BRANCH  10  11
ATOM     11  C   UNL     1      -0.378 -16.868  -2.064  1.00  0.00    -0.003 C 
ATOM     12  C   UNL     1      -0.435 -15.375  -2.393  1.00  0.00     0.004 C 
ENDBRANCH  10  11
ENDBRANCH   9  10
ENDBRANCH   8   9
ENDBRANCH   7   8
ENDBRANCH   6   7
ENDBRANCH   5   6
ENDBRANCH   4   5
ENDBRANCH   3   4
ENDBRANCH   2   3
ENDBRANCH   1   2
BRANCH   1  13
ATOM     13  C   UNL     1      -8.682 -14.870  -6.333  1.00  0.00     0.000 C 
BRANCH  13  14
ATOM     14  C   UNL     1      -7.460 -15.771  -6.577  1.00  0.00     0.000 C 
BRANCH  14  15
ATOM     15  C   UNL     1      -7.826 -17.262  -6.603  1.00  0.00     0.000 C 
BRANCH  15  16
ATOM     16  C   UNL     1      -9.149 -17.493  -7.350  1.00  0.00     0.000 C 
BRANCH  16  17
ATOM     17  C   UNL     1      -8.980 -18.402  -8.580  1.00  0.00     0.000 C 
BRANCH  17  18
ATOM     18  C   UNL     1      -8.661 -17.613  -9.862  1.00  0.00     0.000 C 
BRANCH  18  19
ATOM     19  C   UNL     1      -9.175 -16.166  -9.812  1.00  0.00     0.000 C 
BRANCH  19  20
ATOM     20  C   UNL     1      -9.946 -15.766 -11.080  1.00  0.00     0.006 C 
BRANCH  20  21
ATOM     21  C   UNL     1     -11.369 -16.336 -11.062  1.00  0.00     0.053 C 
BRANCH  21  22
ATOM     22  C   UNL     1     -12.271 -15.547 -11.960  1.00  0.00     0.041 C 
ATOM     23  O   UNL     1     -11.839 -15.080 -13.049  1.00  0.00    -0.550 OA
ATOM     24  O   UNL     1     -13.590 -15.313 -11.588  1.00  0.00    -0.550 OA
ENDBRANCH  21  22
ENDBRANCH  20  21
ENDBRANCH  19  20
ENDBRANCH  18  19
ENDBRANCH  17  18
ENDBRANCH  16  17
ENDBRANCH  15  16
ENDBRANCH  14  15
ENDBRANCH  13  14
ENDBRANCH   1  13
TORSDOF 20
ENDMDL
MODEL 5
REMARK VINA RESULT:    -5.574      1.193      2.551
REMARK INTER + INTRA:         -14.747
REMARK INTER:                 -12.487
REMARK INTRA:                  -2.260
REMARK UNBOUND:                -2.656
REMARK SMILES CCCCCCCCCCCCCCCCCCCCCC(=O)[O-]
REMARK SMILES IDX 12 1 11 2 10 3 9 4 8 5 7 6 6 7 5 8 4 9 3 10 2 11 1 12 13 13
REMARK SMILES IDX 14 14 15 15 16 16 17 17 18 18 19 19 20 20 21 21 22 22 23 23
REMARK SMILES IDX 24 24
REMARK H PARENT
REMARK Flexibility Score: inf
ROOT
ATOM      1  C   UNL     1      -6.872 -12.972  -3.740  1.00  0.00     0.000 C 
ENDROOT
BRANCH   1   2
ATOM      2  C   UNL     1      -6.911 -13.634  -5.126  1.00  0.00     0.000 C 
BRANCH   2   3
ATOM      3  C   UNL     1      -8.347 -13.865  -5.625  1.00  0.00     0.000 C 
BRANCH   3   4
ATOM      4  C   UNL     1      -8.583 -15.296  -6.136  1.00  0.00    -0.000 C 
BRANCH   4   5
ATOM      5  C   UNL     1      -7.317 -15.958  -6.720  1.00  0.00    -0.000 C 
BRANCH   5   6
ATOM      6  C   UNL     1      -6.969 -17.274  -6.001  1.00  0.00    -0.000 C 
BRANCH   6   7
ATOM      7  C   UNL     1      -8.153 -17.845  -5.204  1.00  0.00    -0.000 C 
BRANCH   7   8
ATOM      8  C   UNL     1      -8.799 -19.063  -5.888  1.00  0.00    -0.000 C 
BRANCH   8   9
ATOM      9  C   UNL     1      -9.983 -18.664  -6.794  1.00  0.00    -0.000 C 
BRANCH   9  10
ATOM     10  C   UNL     1      -9.670 -18.722  -8.301  1.00  0.00    -0.000 C 
BRANCH  10  11
ATOM     11  C   UNL     1     -10.233 -17.538  -9.111  1.00  0.00    -0.003 C 
ATOM     12  C   UNL     1      -9.135 -16.688  -9.754  1.00  0.00     0.004 C 
ENDBRANCH  10  11
ENDBRANCH   9  10
ENDBRANCH   8   9
ENDBRANCH   7   8
ENDBRANCH   6   7
ENDBRANCH   5   6
ENDBRANCH   4   5
ENDBRANCH   3   4
ENDBRANCH   2   3
ENDBRANCH   1   2
BRANCH   1  13
ATOM     13  C   UNL     1      -6.364 -13.925  -2.643  1.00  0.00     0.000 C 
BRANCH  13  14
ATOM     14  C   UNL     1      -6.918 -15.351  -2.800  1.00  0.00     0.000 C 
BRANCH  14  15
ATOM     15  C   UNL     1      -5.832 -16.424  -2.635  1.00  0.00     0.000 C 
BRANCH  15  16
ATOM     16  C   UNL     1      -4.615 -15.866  -1.881  1.00  0.00     0.000 C 
BRANCH  16  17
ATOM     17  C   UNL     1      -3.943 -16.920  -0.985  1.00  0.00     0.000 C 
BRANCH  17  18
ATOM     18  C   UNL     1      -2.465 -17.151  -1.345  1.00  0.00     0.000 C 
BRANCH  18  19
ATOM     19  C   UNL     1      -1.775 -18.154  -0.407  1.00  0.00     0.000 C 
BRANCH  19  20
ATOM     20  C   UNL     1      -0.513 -17.577   0.253  1.00  0.00     0.006 C 
BRANCH  20  21
ATOM     21  C   UNL     1      -0.151 -18.355   1.524  1.00  0.00     0.053 C 
BRANCH  21  22
ATOM     22  C   UNL     1      -0.512 -17.573   2.749  1.00  0.00     0.041 C 
ATOM     23  O   UNL     1       0.291 -17.500   3.719  1.00  0.00    -0.550 OA
ATOM     24  O   UNL     1      -1.744 -16.934   2.827  1.00  0.00    -0.550 OA
ENDBRANCH  21  22
ENDBRANCH  20  21
ENDBRANCH  19  20
ENDBRANCH  18  19
ENDBRANCH  17  18
ENDBRANCH  16  17
ENDBRANCH  15  16
ENDBRANCH  14  15
ENDBRANCH  13  14
ENDBRANCH   1  13
TORSDOF 20
ENDMDL
MODEL 6
REMARK VINA RESULT:    -5.521      2.980      8.827
REMARK INTER + INTRA:         -14.631
REMARK INTER:                 -12.308
REMARK INTRA:                  -2.324
REMARK UNBOUND:                -2.656
REMARK SMILES CCCCCCCCCCCCCCCCCCCCCC(=O)[O-]
REMARK SMILES IDX 12 1 11 2 10 3 9 4 8 5 7 6 6 7 5 8 4 9 3 10 2 11 1 12 13 13
REMARK SMILES IDX 14 14 15 15 16 16 17 17 18 18 19 19 20 20 21 21 22 22 23 23
REMARK SMILES IDX 24 24
REMARK H PARENT
REMARK Flexibility Score: inf
ROOT
ATOM      1  C   UNL     1      -5.609 -16.464  -2.497  1.00  0.00     0.000 C 
ENDROOT
BRANCH   1   2
ATOM      2  C   UNL     1      -4.494 -15.702  -1.765  1.00  0.00     0.000 C 
BRANCH   2   3
ATOM      3  C   UNL     1      -3.145 -16.437  -1.821  1.00  0.00     0.000 C 
BRANCH   3   4
ATOM      4  C   UNL     1      -2.691 -16.965  -0.451  1.00  0.00    -0.000 C 
BRANCH   4   5
ATOM      5  C   UNL     1      -1.958 -18.321  -0.525  1.00  0.00    -0.000 C 
BRANCH   5   6
ATOM      6  C   UNL     1      -0.584 -18.275   0.167  1.00  0.00    -0.000 C 
BRANCH   6   7
ATOM      7  C   UNL     1      -0.531 -17.251   1.312  1.00  0.00    -0.000 C 
BRANCH   7   8
ATOM      8  C   UNL     1       0.333 -16.024   0.973  1.00  0.00    -0.000 C 
BRANCH   8   9
ATOM      9  C   UNL     1       1.085 -16.191  -0.364  1.00  0.00    -0.000 C 
BRANCH   9  10
ATOM     10  C   UNL     1       0.755 -15.111  -1.411  1.00  0.00    -0.000 C 
BRANCH  10  11
ATOM     11  C   UNL     1       0.250 -15.667  -2.757  1.00  0.00    -0.003 C 
ATOM     12  C   UNL     1       0.659 -17.123  -2.986  1.00  0.00     0.004 C 
ENDBRANCH  10  11
ENDBRANCH   9  10
ENDBRANCH   8   9
ENDBRANCH   7   8
ENDBRANCH   6   7
ENDBRANCH   5   6
ENDBRANCH   4   5
ENDBRANCH   3   4
ENDBRANCH   2   3
ENDBRANCH   1   2
BRANCH   1  13
ATOM     13  C   UNL     1      -6.613 -15.525  -3.189  1.00  0.00     0.000 C 
BRANCH  13  14
ATOM     14  C   UNL     1      -6.504 -14.075  -2.687  1.00  0.00     0.000 C 
BRANCH  14  15
ATOM     15  C   UNL     1      -6.655 -13.049  -3.819  1.00  0.00     0.000 C 
BRANCH  15  16
ATOM     16  C   UNL     1      -6.988 -13.740  -5.150  1.00  0.00     0.000 C 
BRANCH  16  17
ATOM     17  C   UNL     1      -8.450 -13.527  -5.576  1.00  0.00     0.000 C 
BRANCH  17  18
ATOM     18  C   UNL     1      -9.254 -14.839  -5.618  1.00  0.00     0.000 C 
BRANCH  18  19
ATOM     19  C   UNL     1      -8.713 -15.834  -6.656  1.00  0.00     0.000 C 
BRANCH  19  20
ATOM     20  C   UNL     1      -9.571 -17.104  -6.764  1.00  0.00     0.006 C 
BRANCH  20  21
ATOM     21  C   UNL     1      -8.705 -18.365  -6.660  1.00  0.00     0.053 C 
BRANCH  21  22
ATOM     22  C   UNL     1      -7.867 -18.336  -5.418  1.00  0.00     0.041 C 
ATOM     23  O   UNL     1      -6.610 -18.292  -5.498  1.00  0.00    -0.550 OA
ATOM     24  O   UNL     1      -8.477 -18.372  -4.169  1.00  0.00    -0.550 OA
ENDBRANCH  21  22
ENDBRANCH  20  21
ENDBRANCH  19  20
ENDBRANCH  18  19
ENDBRANCH  17  18
ENDBRANCH  16  17
ENDBRANCH  15  16
ENDBRANCH  14  15
ENDBRANCH  13  14
ENDBRANCH   1  13
TORSDOF 20
ENDMDL
MODEL 7
REMARK VINA RESULT:    -5.467      1.267      1.837
REMARK INTER + INTRA:         -14.515
REMARK INTER:                 -12.096
REMARK INTRA:                  -2.419
REMARK UNBOUND:                -2.656
REMARK SMILES CCCCCCCCCCCCCCCCCCCCCC(=O)[O-]
REMARK SMILES IDX 12 1 11 2 10 3 9 4 8 5 7 6 6 7 5 8 4 9 3 10 2 11 1 12 13 13
REMARK SMILES IDX 14 14 15 15 16 16 17 17 18 18 19 19 20 20 21 21 22 22 23 23
REMARK SMILES IDX 24 24
REMARK H PARENT
REMARK Flexibility Score: inf
ROOT
ATOM      1  C   UNL     1      -6.931 -13.491  -5.186  1.00  0.00     0.000 C 
ENDROOT
BRANCH   1   2
ATOM      2  C   UNL     1      -8.396 -13.605  -5.634  1.00  0.00     0.000 C 
BRANCH   2   3
ATOM      3  C   UNL     1      -8.734 -15.000  -6.184  1.00  0.00     0.000 C 
BRANCH   3   4
ATOM      4  C   UNL     1      -7.547 -15.669  -6.896  1.00  0.00    -0.000 C 
BRANCH   4   5
ATOM      5  C   UNL     1      -7.262 -17.104  -6.404  1.00  0.00    -0.000 C 
BRANCH   5   6
ATOM      6  C   UNL     1      -8.453 -17.697  -5.629  1.00  0.00    -0.000 C 
BRANCH   6   7
ATOM      7  C   UNL     1      -9.246 -18.722  -6.455  1.00  0.00    -0.000 C 
BRANCH   7   8
ATOM      8  C   UNL     1     -10.454 -18.099  -7.176  1.00  0.00    -0.000 C 
BRANCH   8   9
ATOM      9  C   UNL     1     -10.429 -18.370  -8.695  1.00  0.00    -0.000 C 
BRANCH   9  10
ATOM     10  C   UNL     1      -9.015 -18.542  -9.281  1.00  0.00    -0.000 C 
BRANCH  10  11
ATOM     11  C   UNL     1      -8.610 -17.450 -10.290  1.00  0.00    -0.003 C 
ATOM     12  C   UNL     1      -9.357 -16.133 -10.067  1.00  0.00     0.004 C 
ENDBRANCH  10  11
ENDBRANCH   9  10
ENDBRANCH   8   9
ENDBRANCH   7   8
ENDBRANCH   6   7
ENDBRANCH   5   6
ENDBRANCH   4   5
ENDBRANCH   3   4
ENDBRANCH   2   3
ENDBRANCH   1   2
BRANCH   1  13
ATOM     13  C   UNL     1      -6.792 -12.941  -3.755  1.00  0.00     0.000 C 
BRANCH  13  14
ATOM     14  C   UNL     1      -6.509 -14.047  -2.725  1.00  0.00     0.000 C 
BRANCH  14  15
ATOM     15  C   UNL     1      -6.493 -15.447  -3.355  1.00  0.00     0.000 C 
BRANCH  15  16
ATOM     16  C   UNL     1      -5.944 -16.490  -2.369  1.00  0.00     0.000 C 
BRANCH  16  17
ATOM     17  C   UNL     1      -4.601 -16.067  -1.751  1.00  0.00     0.000 C 
BRANCH  17  18
ATOM     18  C   UNL     1      -3.931 -17.200  -0.954  1.00  0.00     0.000 C 
BRANCH  18  19
ATOM     19  C   UNL     1      -3.089 -16.681   0.223  1.00  0.00     0.000 C 
BRANCH  19  20
ATOM     20  C   UNL     1      -1.581 -16.889   0.011  1.00  0.00     0.006 C 
BRANCH  20  21
ATOM     21  C   UNL     1      -1.312 -17.741  -1.235  1.00  0.00     0.053 C 
BRANCH  21  22
ATOM     22  C   UNL     1      -0.469 -16.992  -2.221  1.00  0.00     0.041 C 
ATOM     23  O   UNL     1      -0.589 -15.743  -2.344  1.00  0.00    -0.550 OA
ATOM     24  O   UNL     1       0.441 -17.677  -3.018  1.00  0.00    -0.550 OA
ENDBRANCH  21  22
ENDBRANCH  20  21
ENDBRANCH  19  20
ENDBRANCH  18  19
ENDBRANCH  17  18
ENDBRANCH  16  17
ENDBRANCH  15  16
ENDBRANCH  14  15
ENDBRANCH  13  14
ENDBRANCH   1  13
TORSDOF 20
ENDMDL
MODEL 8
REMARK VINA RESULT:    -5.392      4.075      8.790
REMARK INTER + INTRA:         -14.353
REMARK INTER:                 -12.163
REMARK INTRA:                  -2.189
REMARK UNBOUND:                -2.656
REMARK SMILES CCCCCCCCCCCCCCCCCCCCCC(=O)[O-]
REMARK SMILES IDX 12 1 11 2 10 3 9 4 8 5 7 6 6 7 5 8 4 9 3 10 2 11 1 12 13 13
REMARK SMILES IDX 14 14 15 15 16 16 17 17 18 18 19 19 20 20 21 21 22 22 23 23
REMARK SMILES IDX 24 24
REMARK H PARENT
REMARK Flexibility Score: inf
ROOT
ATOM      1  C   UNL     1      -6.172 -13.931  -2.723  1.00  0.00     0.000 C 
ENDROOT
BRANCH   1   2
ATOM      2  C   UNL     1      -6.595 -15.397  -2.903  1.00  0.00     0.000 C 
BRANCH   2   3
ATOM      3  C   UNL     1      -5.434 -16.376  -2.667  1.00  0.00     0.000 C 
BRANCH   3   4
ATOM      4  C   UNL     1      -4.471 -15.911  -1.563  1.00  0.00    -0.000 C 
BRANCH   4   5
ATOM      5  C   UNL     1      -3.843 -17.072  -0.763  1.00  0.00    -0.000 C 
BRANCH   5   6
ATOM      6  C   UNL     1      -2.319 -16.917  -0.618  1.00  0.00    -0.000 C 
BRANCH   6   7
ATOM      7  C   UNL     1      -1.599 -18.265  -0.453  1.00  0.00    -0.000 C 
BRANCH   7   8
ATOM      8  C   UNL     1      -1.086 -18.833  -1.789  1.00  0.00    -0.000 C 
BRANCH   8   9
ATOM      9  C   UNL     1      -0.445 -17.746  -2.677  1.00  0.00    -0.000 C 
BRANCH   9  10
ATOM     10  C   UNL     1       1.050 -17.505  -2.395  1.00  0.00    -0.000 C 
BRANCH  10  11
ATOM     11  C   UNL     1       1.332 -16.346  -1.420  1.00  0.00    -0.003 C 
ATOM     12  C   UNL     1       0.676 -15.034  -1.855  1.00  0.00     0.004 C 
ENDBRANCH  10  11
ENDBRANCH   9  10
ENDBRANCH   8   9
ENDBRANCH   7   8
ENDBRANCH   6   7
ENDBRANCH   5   6
ENDBRANCH   4   5
ENDBRANCH   3   4
ENDBRANCH   2   3
ENDBRANCH   1   2
BRANCH   1  13
ATOM     13  C   UNL     1      -6.946 -12.974  -3.647  1.00  0.00     0.000 C 
BRANCH  13  14
ATOM     14  C   UNL     1      -6.949 -13.444  -5.111  1.00  0.00     0.000 C 
BRANCH  14  15
ATOM     15  C   UNL     1      -8.366 -13.704  -5.642  1.00  0.00     0.000 C 
BRANCH  15  16
ATOM     16  C   UNL     1      -8.551 -15.181  -6.022  1.00  0.00     0.000 C 
BRANCH  16  17
ATOM     17  C   UNL     1      -7.269 -15.808  -6.595  1.00  0.00     0.000 C 
BRANCH  17  18
ATOM     18  C   UNL     1      -7.267 -17.344  -6.503  1.00  0.00     0.000 C 
BRANCH  18  19
ATOM     19  C   UNL     1      -8.007 -17.866  -5.262  1.00  0.00     0.000 C 
BRANCH  19  20
ATOM     20  C   UNL     1      -9.061 -18.931  -5.604  1.00  0.00     0.006 C 
BRANCH  20  21
ATOM     21  C   UNL     1      -9.355 -18.952  -7.108  1.00  0.00     0.053 C 
BRANCH  21  22
ATOM     22  C   UNL     1     -10.676 -18.308  -7.402  1.00  0.00     0.041 C 
ATOM     23  O   UNL     1     -10.940 -17.896  -8.563  1.00  0.00    -0.550 OA
ATOM     24  O   UNL     1     -11.612 -18.150  -6.386  1.00  0.00    -0.550 OA
ENDBRANCH  21  22
ENDBRANCH  20  21
ENDBRANCH  19  20
ENDBRANCH  18  19
ENDBRANCH  17  18
ENDBRANCH  16  17
ENDBRANCH  15  16
ENDBRANCH  14  15
ENDBRANCH  13  14
ENDBRANCH   1  13
TORSDOF 20
ENDMDL
MODEL 9
REMARK VINA RESULT:    -5.372      5.214     10.229
REMARK INTER + INTRA:         -14.309
REMARK INTER:                 -12.585
REMARK INTRA:                  -1.724
REMARK UNBOUND:                -2.656
REMARK SMILES CCCCCCCCCCCCCCCCCCCCCC(=O)[O-]
REMARK SMILES IDX 12 1 11 2 10 3 9 4 8 5 7 6 6 7 5 8 4 9 3 10 2 11 1 12 13 13
REMARK SMILES IDX 14 14 15 15 16 16 17 17 18 18 19 19 20 20 21 21 22 22 23 23
REMARK SMILES IDX 24 24
REMARK H PARENT
REMARK Flexibility Score: inf
ROOT
ATOM      1  C   UNL     1      -7.031 -13.572  -5.213  1.00  0.00     0.000 C 
ENDROOT
BRANCH   1   2
ATOM      2  C   UNL     1      -6.912 -12.973  -3.803  1.00  0.00     0.000 C 
BRANCH   2   3
ATOM      3  C   UNL     1      -6.191 -13.914  -2.825  1.00  0.00     0.000 C 
BRANCH   3   4
ATOM      4  C   UNL     1      -6.800 -15.324  -2.787  1.00  0.00    -0.000 C 
BRANCH   4   5
ATOM      5  C   UNL     1      -5.749 -16.448  -2.672  1.00  0.00    -0.000 C 
BRANCH   5   6
ATOM      6  C   UNL     1      -4.445 -15.954  -2.019  1.00  0.00    -0.000 C 
BRANCH   6   7
ATOM      7  C   UNL     1      -4.064 -16.764  -0.769  1.00  0.00    -0.000 C 
BRANCH   7   8
ATOM      8  C   UNL     1      -2.867 -17.700  -1.009  1.00  0.00    -0.000 C 
BRANCH   8   9
ATOM      9  C   UNL     1      -1.693 -16.980  -1.704  1.00  0.00    -0.000 C 
BRANCH   9  10
ATOM     10  C   UNL     1      -0.567 -16.544  -0.748  1.00  0.00    -0.000 C 
BRANCH  10  11
ATOM     11  C   UNL     1      -0.444 -17.409   0.522  1.00  0.00    -0.003 C 
ATOM     12  C   UNL     1      -0.722 -16.620   1.803  1.00  0.00     0.004 C 
ENDBRANCH  10  11
ENDBRANCH   9  10
ENDBRANCH   8   9
ENDBRANCH   7   8
ENDBRANCH   6   7
ENDBRANCH   5   6
ENDBRANCH   4   5
ENDBRANCH   3   4
ENDBRANCH   2   3
ENDBRANCH   1   2
BRANCH   1  13
ATOM     13  C   UNL     1      -8.492 -13.708  -5.677  1.00  0.00     0.000 C 
BRANCH  13  14
ATOM     14  C   UNL     1      -8.873 -15.161  -6.003  1.00  0.00     0.000 C 
BRANCH  14  15
ATOM     15  C   UNL     1      -7.657 -16.018  -6.379  1.00  0.00     0.000 C 
BRANCH  15  16
ATOM     16  C   UNL     1      -7.921 -16.820  -7.662  1.00  0.00     0.000 C 
BRANCH  16  17
ATOM     17  C   UNL     1      -9.403 -17.195  -7.828  1.00  0.00     0.000 C 
BRANCH  17  18
ATOM     18  C   UNL     1      -9.701 -17.856  -9.186  1.00  0.00     0.000 C 
BRANCH  18  19
ATOM     19  C   UNL     1     -10.582 -16.982 -10.091  1.00  0.00     0.000 C 
BRANCH  19  20
ATOM     20  C   UNL     1      -9.778 -15.915 -10.851  1.00  0.00     0.006 C 
BRANCH  20  21
ATOM     21  C   UNL     1     -10.640 -14.683 -11.149  1.00  0.00     0.053 C 
BRANCH  21  22
ATOM     22  C   UNL     1     -11.762 -15.030 -12.079  1.00  0.00     0.041 C 
ATOM     23  O   UNL     1     -11.519 -15.451 -13.242  1.00  0.00    -0.550 OA
ATOM     24  O   UNL     1     -13.080 -14.872 -11.666  1.00  0.00    -0.550 OA
ENDBRANCH  21  22
ENDBRANCH  20  21
ENDBRANCH  19  20
ENDBRANCH  18  19
ENDBRANCH  17  18
ENDBRANCH  16  17
ENDBRANCH  15  16
ENDBRANCH  14  15
ENDBRANCH  13  14
ENDBRANCH   1  13
TORSDOF 20
ENDMDL
