MODEL 1
REMARK VINA RESULT:    -4.882      0.000      0.000
REMARK INTER + INTRA:          -5.024
REMARK INTER:                  -5.024
REMARK INTRA:                   0.000
REMARK UNBOUND:                 0.000
REMARK SMILES Nc1ncnc2nc[nH]c12
REMARK SMILES IDX 8 1 7 2 6 3 5 4 4 5 3 6 2 7 10 8 9 9 1 11
REMARK H PARENT 9 10 1 12 1 13
REMARK Flexibility Score: inf
ROOT
ATOM      1  C   UNL     1     -30.178 -26.029 103.267  1.00  0.00     0.199 A 
ATOM      2  N   UNL     1     -29.560 -24.939 103.798  1.00  0.00    -0.217 NA
ATOM      3  C   UNL     1     -28.759 -24.547 102.793  1.00  0.00     0.182 A 
ATOM      4  N   UNL     1     -27.913 -23.489 102.800  1.00  0.00    -0.215 NA
ATOM      5  C   UNL     1     -27.175 -23.246 101.674  1.00  0.00     0.226 A 
ATOM      6  N   UNL     1     -27.296 -24.057 100.574  1.00  0.00    -0.217 NA
ATOM      7  C   UNL     1     -28.148 -25.125 100.566  1.00  0.00     0.152 A 
ATOM      8  C   UNL     1     -28.893 -25.358 101.719  1.00  0.00     0.127 A 
ATOM      9  N   UNL     1     -29.791 -26.312 101.998  1.00  0.00    -0.340 N 
ATOM     10  H   UNL     1     -30.124 -27.092 101.390  1.00  0.00     0.168 HD
ENDROOT
BRANCH   7  11
ATOM     11  N   UNL     1     -28.257 -25.955  99.410  1.00  0.00    -0.382 N 
ATOM     12  H   UNL     1     -28.985 -25.754  98.689  1.00  0.00     0.158 HD
ATOM     13  H   UNL     1     -27.621 -26.770  99.262  1.00  0.00     0.158 HD
ENDBRANCH   7  11
TORSDOF 1
ENDMDL
MODEL 2
REMARK VINA RESULT:    -4.859      0.985      2.765
REMARK INTER + INTRA:          -5.001
REMARK INTER:                  -5.001
REMARK INTRA:                   0.000
REMARK UNBOUND:                 0.000
REMARK SMILES Nc1ncnc2nc[nH]c12
REMARK SMILES IDX 8 1 7 2 6 3 5 4 4 5 3 6 2 7 10 8 9 9 1 11
REMARK H PARENT 9 10 1 12 1 13
REMARK Flexibility Score: inf
ROOT
ATOM      1  C   UNL     1     -27.584 -22.460 101.501  1.00  0.00     0.199 A 
ATOM      2  N   UNL     1     -27.807 -22.937 102.756  1.00  0.00    -0.217 NA
ATOM      3  C   UNL     1     -28.113 -24.224 102.521  1.00  0.00     0.182 A 
ATOM      4  N   UNL     1     -28.425 -25.162 103.447  1.00  0.00    -0.215 NA
ATOM      5  C   UNL     1     -28.710 -26.427 103.013  1.00  0.00     0.226 A 
ATOM      6  N   UNL     1     -28.677 -26.728 101.675  1.00  0.00    -0.217 NA
ATOM      7  C   UNL     1     -28.362 -25.783 100.740  1.00  0.00     0.152 A 
ATOM      8  C   UNL     1     -28.075 -24.501 101.197  1.00  0.00     0.127 A 
ATOM      9  N   UNL     1     -27.740 -23.391 100.526  1.00  0.00    -0.340 N 
ATOM     10  H   UNL     1     -27.624 -23.260  99.498  1.00  0.00     0.168 HD
ENDROOT
BRANCH   7  11
ATOM     11  N   UNL     1     -28.334 -26.120  99.352  1.00  0.00    -0.382 N 
ATOM     12  H   UNL     1     -27.682 -26.858  99.007  1.00  0.00     0.158 HD
ATOM     13  H   UNL     1     -28.956 -25.642  98.663  1.00  0.00     0.158 HD
ENDBRANCH   7  11
TORSDOF 1
ENDMDL
MODEL 3
REMARK VINA RESULT:    -4.583      1.864      2.704
REMARK INTER + INTRA:          -4.717
REMARK INTER:                  -4.717
REMARK INTRA:                   0.000
REMARK UNBOUND:                 0.000
REMARK SMILES Nc1ncnc2nc[nH]c12
REMARK SMILES IDX 8 1 7 2 6 3 5 4 4 5 3 6 2 7 10 8 9 9 1 11
REMARK H PARENT 9 10 1 12 1 13
REMARK Flexibility Score: inf
ROOT
ATOM      1  C   UNL     1     -28.755 -26.978 105.497  1.00  0.00     0.199 A 
ATOM      2  N   UNL     1     -27.630 -26.474 104.921  1.00  0.00    -0.217 NA
ATOM      3  C   UNL     1     -28.111 -25.905 103.803  1.00  0.00     0.182 A 
ATOM      4  N   UNL     1     -27.396 -25.251 102.858  1.00  0.00    -0.215 NA
ATOM      5  C   UNL     1     -28.067 -24.735 101.784  1.00  0.00     0.226 A 
ATOM      6  N   UNL     1     -29.427 -24.881 101.677  1.00  0.00    -0.217 NA
ATOM      7  C   UNL     1     -30.150 -25.541 102.630  1.00  0.00     0.152 A 
ATOM      8  C   UNL     1     -29.452 -26.060 103.717  1.00  0.00     0.127 A 
ATOM      9  N   UNL     1     -29.886 -26.742 104.785  1.00  0.00    -0.340 N 
ATOM     10  H   UNL     1     -30.860 -27.029 105.024  1.00  0.00     0.168 HD
ENDROOT
BRANCH   7  11
ATOM     11  N   UNL     1     -31.565 -25.681 102.497  1.00  0.00    -0.382 N 
ATOM     12  H   UNL     1     -32.028 -26.577 102.764  1.00  0.00     0.158 HD
ATOM     13  H   UNL     1     -32.158 -24.901 102.136  1.00  0.00     0.158 HD
ENDBRANCH   7  11
TORSDOF 1
ENDMDL
MODEL 4
REMARK VINA RESULT:    -4.529      1.570      3.317
REMARK INTER + INTRA:          -4.661
REMARK INTER:                  -4.661
REMARK INTRA:                   0.000
REMARK UNBOUND:                 0.000
REMARK SMILES Nc1ncnc2nc[nH]c12
REMARK SMILES IDX 8 1 7 2 6 3 5 4 4 5 3 6 2 7 10 8 9 9 1 11
REMARK H PARENT 9 10 1 12 1 13
REMARK Flexibility Score: inf
ROOT
ATOM      1  C   UNL     1     -28.244 -23.456 100.882  1.00  0.00     0.199 A 
ATOM      2  N   UNL     1     -27.312 -24.004 101.709  1.00  0.00    -0.217 NA
ATOM      3  C   UNL     1     -28.053 -24.832 102.465  1.00  0.00     0.182 A 
ATOM      4  N   UNL     1     -27.606 -25.632 103.462  1.00  0.00    -0.215 NA
ATOM      5  C   UNL     1     -28.517 -26.410 104.121  1.00  0.00     0.226 A 
ATOM      6  N   UNL     1     -29.844 -26.375 103.774  1.00  0.00    -0.217 NA
ATOM      7  C   UNL     1     -30.296 -25.568 102.769  1.00  0.00     0.152 A 
ATOM      8  C   UNL     1     -29.357 -24.782 102.107  1.00  0.00     0.127 A 
ATOM      9  N   UNL     1     -29.503 -23.911 101.100  1.00  0.00    -0.340 N 
ATOM     10  H   UNL     1     -30.374 -23.639 100.595  1.00  0.00     0.168 HD
ENDROOT
BRANCH   7  11
ATOM     11  N   UNL     1     -31.682 -25.547 102.425  1.00  0.00    -0.382 N 
ATOM     12  H   UNL     1     -32.370 -25.086 103.059  1.00  0.00     0.158 HD
ATOM     13  H   UNL     1     -32.031 -25.987 101.545  1.00  0.00     0.158 HD
ENDBRANCH   7  11
TORSDOF 1
ENDMDL
MODEL 5
REMARK VINA RESULT:    -4.526      1.512      2.390
REMARK INTER + INTRA:          -4.658
REMARK INTER:                  -4.658
REMARK INTRA:                   0.000
REMARK UNBOUND:                 0.000
REMARK SMILES Nc1ncnc2nc[nH]c12
REMARK SMILES IDX 8 1 7 2 6 3 5 4 4 5 3 6 2 7 10 8 9 9 1 11
REMARK H PARENT 9 10 1 12 1 13
REMARK Flexibility Score: inf
ROOT
ATOM      1  C   UNL     1     -29.045 -26.842 101.678  1.00  0.00     0.199 A 
ATOM      2  N   UNL     1     -29.763 -26.497 102.782  1.00  0.00    -0.217 NA
ATOM      3  C   UNL     1     -29.760 -25.155 102.717  1.00  0.00     0.182 A 
ATOM      4  N   UNL     1     -30.347 -24.303 103.591  1.00  0.00    -0.215 NA
ATOM      5  C   UNL     1     -30.237 -22.961 103.355  1.00  0.00     0.226 A 
ATOM      6  N   UNL     1     -29.550 -22.500 102.261  1.00  0.00    -0.217 NA
ATOM      7  C   UNL     1     -28.958 -23.359 101.378  1.00  0.00     0.152 A 
ATOM      8  C   UNL     1     -29.079 -24.722 101.631  1.00  0.00     0.127 A 
ATOM      9  N   UNL     1     -28.612 -25.779 100.954  1.00  0.00    -0.340 N 
ATOM     10  H   UNL     1     -28.049 -25.794 100.076  1.00  0.00     0.168 HD
ENDROOT
BRANCH   7  11
ATOM     11  N   UNL     1     -28.248 -22.856 100.246  1.00  0.00    -0.382 N 
ATOM     12  H   UNL     1     -28.716 -22.196  99.586  1.00  0.00     0.158 HD
ATOM     13  H   UNL     1     -27.259 -23.134 100.055  1.00  0.00     0.158 HD
ENDBRANCH   7  11
TORSDOF 1
ENDMDL
MODEL 6
REMARK VINA RESULT:    -4.524      1.469      3.034
REMARK INTER + INTRA:          -4.657
REMARK INTER:                  -4.657
REMARK INTRA:                   0.000
REMARK UNBOUND:                 0.000
REMARK SMILES Nc1ncnc2nc[nH]c12
REMARK SMILES IDX 8 1 7 2 6 3 5 4 4 5 3 6 2 7 10 8 9 9 1 11
REMARK H PARENT 9 10 1 12 1 13
REMARK Flexibility Score: inf
ROOT
ATOM      1  C   UNL     1     -27.655 -25.229 100.455  1.00  0.00     0.199 A 
ATOM      2  N   UNL     1     -27.353 -23.988 100.924  1.00  0.00    -0.217 NA
ATOM      3  C   UNL     1     -28.411 -23.713 101.706  1.00  0.00     0.182 A 
ATOM      4  N   UNL     1     -28.613 -22.581 102.422  1.00  0.00    -0.215 NA
ATOM      5  C   UNL     1     -29.758 -22.483 103.163  1.00  0.00     0.226 A 
ATOM      6  N   UNL     1     -30.669 -23.509 103.176  1.00  0.00    -0.217 NA
ATOM      7  C   UNL     1     -30.466 -24.651 102.454  1.00  0.00     0.152 A 
ATOM      8  C   UNL     1     -29.296 -24.735 101.705  1.00  0.00     0.127 A 
ATOM      9  N   UNL     1     -28.837 -25.714 100.914  1.00  0.00    -0.340 N 
ATOM     10  H   UNL     1     -29.274 -26.635 100.695  1.00  0.00     0.168 HD
ENDROOT
BRANCH   7  11
ATOM     11  N   UNL     1     -31.429 -25.706 102.482  1.00  0.00    -0.382 N 
ATOM     12  H   UNL     1     -31.138 -26.684 102.263  1.00  0.00     0.158 HD
ATOM     13  H   UNL     1     -32.429 -25.524 102.720  1.00  0.00     0.158 HD
ENDBRANCH   7  11
TORSDOF 1
ENDMDL
MODEL 7
REMARK VINA RESULT:    -4.480      1.360      3.194
REMARK INTER + INTRA:          -4.611
REMARK INTER:                  -4.611
REMARK INTRA:                   0.000
REMARK UNBOUND:                 0.000
REMARK SMILES Nc1ncnc2nc[nH]c12
REMARK SMILES IDX 8 1 7 2 6 3 5 4 4 5 3 6 2 7 10 8 9 9 1 11
REMARK H PARENT 9 10 1 12 1 13
REMARK Flexibility Score: inf
ROOT
ATOM      1  C   UNL     1     -28.156 -26.078 100.451  1.00  0.00     0.199 A 
ATOM      2  N   UNL     1     -28.326 -24.733 100.330  1.00  0.00    -0.217 NA
ATOM      3  C   UNL     1     -29.041 -24.436 101.428  1.00  0.00     0.182 A 
ATOM      4  N   UNL     1     -29.483 -23.210 101.797  1.00  0.00    -0.215 NA
ATOM      5  C   UNL     1     -30.200 -23.105 102.957  1.00  0.00     0.226 A 
ATOM      6  N   UNL     1     -30.458 -24.216 103.719  1.00  0.00    -0.217 NA
ATOM      7  C   UNL     1     -30.013 -25.453 103.348  1.00  0.00     0.152 A 
ATOM      8  C   UNL     1     -29.285 -25.544 102.166  1.00  0.00     0.127 A 
ATOM      9  N   UNL     1     -28.731 -26.604 101.562  1.00  0.00    -0.340 N 
ATOM     10  H   UNL     1     -28.734 -27.602 101.865  1.00  0.00     0.168 HD
ENDROOT
BRANCH   7  11
ATOM     11  N   UNL     1     -30.294 -26.596 104.158  1.00  0.00    -0.382 N 
ATOM     12  H   UNL     1     -30.045 -27.551 103.817  1.00  0.00     0.158 HD
ATOM     13  H   UNL     1     -30.747 -26.502 105.094  1.00  0.00     0.158 HD
ENDBRANCH   7  11
TORSDOF 1
ENDMDL
MODEL 8
REMARK VINA RESULT:    -4.364      1.324      2.478
REMARK INTER + INTRA:          -4.492
REMARK INTER:                  -4.492
REMARK INTRA:                   0.000
REMARK UNBOUND:                 0.000
REMARK SMILES Nc1ncnc2nc[nH]c12
REMARK SMILES IDX 8 1 7 2 6 3 5 4 4 5 3 6 2 7 10 8 9 9 1 11
REMARK H PARENT 9 10 1 12 1 13
REMARK Flexibility Score: inf
ROOT
ATOM      1  C   UNL     1     -30.204 -23.158 103.818  1.00  0.00     0.199 A 
ATOM      2  N   UNL     1     -30.265 -24.512 103.940  1.00  0.00    -0.217 NA
ATOM      3  C   UNL     1     -29.615 -24.927 102.840  1.00  0.00     0.182 A 
ATOM      4  N   UNL     1     -29.388 -26.211 102.472  1.00  0.00    -0.215 NA
ATOM      5  C   UNL     1     -28.702 -26.437 101.311  1.00  0.00     0.226 A 
ATOM      6  N   UNL     1     -28.260 -25.387 100.547  1.00  0.00    -0.217 NA
ATOM      7  C   UNL     1     -28.489 -24.091 100.917  1.00  0.00     0.152 A 
ATOM      8  C   UNL     1     -29.187 -23.877 102.101  1.00  0.00     0.127 A 
ATOM      9  N   UNL     1     -29.552 -22.738 102.705  1.00  0.00    -0.340 N 
ATOM     10  H   UNL     1     -29.380 -21.755 102.400  1.00  0.00     0.168 HD
ENDROOT
BRANCH   7  11
ATOM     11  N   UNL     1     -28.019 -23.014 100.106  1.00  0.00    -0.382 N 
ATOM     12  H   UNL     1     -28.685 -22.283  99.771  1.00  0.00     0.158 HD
ATOM     13  H   UNL     1     -27.013 -22.934  99.835  1.00  0.00     0.158 HD
ENDBRANCH   7  11
TORSDOF 1
ENDMDL
MODEL 9
REMARK VINA RESULT:    -4.253      1.580      3.860
REMARK INTER + INTRA:          -4.377
REMARK INTER:                  -4.377
REMARK INTRA:                   0.000
REMARK UNBOUND:                 0.000
REMARK SMILES Nc1ncnc2nc[nH]c12
REMARK SMILES IDX 8 1 7 2 6 3 5 4 4 5 3 6 2 7 10 8 9 9 1 11
REMARK H PARENT 9 10 1 12 1 13
REMARK Flexibility Score: inf
ROOT
ATOM      1  C   UNL     1     -27.309 -23.280 100.857  1.00  0.00     0.199 A 
ATOM      2  N   UNL     1     -27.517 -24.624 100.929  1.00  0.00    -0.217 NA
ATOM      3  C   UNL     1     -28.669 -24.697 101.617  1.00  0.00     0.182 A 
ATOM      4  N   UNL     1     -29.329 -25.826 101.968  1.00  0.00    -0.215 NA
ATOM      5  C   UNL     1     -30.495 -25.700 102.671  1.00  0.00     0.226 A 
ATOM      6  N   UNL     1     -30.974 -24.459 103.007  1.00  0.00    -0.217 NA
ATOM      7  C   UNL     1     -30.309 -23.319 102.654  1.00  0.00     0.152 A 
ATOM      8  C   UNL     1     -29.124 -23.464 101.938  1.00  0.00     0.127 A 
ATOM      9  N   UNL     1     -28.273 -22.544 101.465  1.00  0.00    -0.340 N 
ATOM     10  H   UNL     1     -28.328 -21.506 101.539  1.00  0.00     0.168 HD
ENDROOT
BRANCH   7  11
ATOM     11  N   UNL     1     -30.827 -22.037 103.014  1.00  0.00    -0.382 N 
ATOM     12  H   UNL     1     -30.385 -21.171 102.637  1.00  0.00     0.158 HD
ATOM     13  H   UNL     1     -31.647 -21.941 103.653  1.00  0.00     0.158 HD
ENDBRANCH   7  11
TORSDOF 1
ENDMDL
