MODEL 1
REMARK VINA RESULT:    -7.457      0.000      0.000
REMARK INTER + INTRA:         -10.116
REMARK INTER:                  -9.418
REMARK INTRA:                  -0.698
REMARK UNBOUND:                -0.698
REMARK SMILES O=C(C=Cc1ccc(O)cc1)c1ccc(O)cc1O
REMARK SMILES IDX 4 1 3 2 5 3 6 4 7 5 8 6 11 7 10 8 9 9 2 11 1 12 12 13 18 14
REMARK SMILES IDX 13 15 17 16 14 17 15 18 19 19 16 21
REMARK H PARENT 9 10 19 20 16 22
REMARK Flexibility Score: inf
ROOT
ATOM      1  C   UNL     1      38.639   6.209  -1.041  1.00  0.00     0.012 C 
ATOM      2  C   UNL     1      37.724   5.419  -0.462  1.00  0.00     0.053 C 
ENDROOT
BRANCH   1   3
ATOM      3  C   UNL     1      40.040   6.328  -0.567  1.00  0.00    -0.025 A 
ATOM      4  C   UNL     1      40.279   6.414   0.815  1.00  0.00     0.012 A 
ATOM      5  C   UNL     1      41.581   6.538   1.306  1.00  0.00     0.047 A 
ATOM      6  C   UNL     1      42.665   6.590   0.421  1.00  0.00     0.115 A 
ATOM      7  C   UNL     1      41.137   6.397  -1.452  1.00  0.00     0.012 A 
ATOM      8  C   UNL     1      42.439   6.522  -0.955  1.00  0.00     0.047 A 
BRANCH   6   9
ATOM      9  O   UNL     1      43.968   6.713   0.900  1.00  0.00    -0.508 OA
ATOM     10  H   UNL     1      44.198   7.355   1.649  1.00  0.00     0.293 HD
ENDBRANCH   6   9
ENDBRANCH   1   3
BRANCH   2  11
ATOM     11  C   UNL     1      36.330   5.339  -0.954  1.00  0.00     0.189 C 
ATOM     12  O   UNL     1      35.374   5.628  -0.184  1.00  0.00    -0.289 OA
BRANCH  11  13
ATOM     13  C   UNL     1      36.031   4.873  -2.329  1.00  0.00     0.064 A 
ATOM     14  C   UNL     1      35.587   5.758  -3.336  1.00  0.00     0.130 A 
ATOM     15  C   UNL     1      36.168   3.506  -2.631  1.00  0.00     0.020 A 
ATOM     16  C   UNL     1      35.329   5.273  -4.628  1.00  0.00     0.093 A 
ATOM     17  C   UNL     1      35.902   3.033  -3.918  1.00  0.00     0.047 A 
ATOM     18  C   UNL     1      35.488   3.913  -4.919  1.00  0.00     0.119 A 
BRANCH  14  19
ATOM     19  O   UNL     1      35.375   7.107  -3.053  1.00  0.00    -0.507 OA
ATOM     20  H   UNL     1      35.205   7.432  -2.108  1.00  0.00     0.293 HD
ENDBRANCH  14  19
BRANCH  18  21
ATOM     21  O   UNL     1      35.231   3.427  -6.200  1.00  0.00    -0.508 OA
ATOM     22  H   UNL     1      34.534   2.712  -6.365  1.00  0.00     0.293 HD
ENDBRANCH  18  21
ENDBRANCH  11  13
ENDBRANCH   2  11
TORSDOF 6
ENDMDL
MODEL 2
REMARK VINA RESULT:    -7.282      4.197      6.873
REMARK INTER + INTRA:          -9.895
REMARK INTER:                  -9.227
REMARK INTRA:                  -0.668
REMARK UNBOUND:                -0.698
REMARK SMILES O=C(C=Cc1ccc(O)cc1)c1ccc(O)cc1O
REMARK SMILES IDX 4 1 3 2 5 3 6 4 7 5 8 6 11 7 10 8 9 9 2 11 1 12 12 13 18 14
REMARK SMILES IDX 13 15 17 16 14 17 15 18 19 19 16 21
REMARK H PARENT 9 10 19 20 16 22
REMARK Flexibility Score: inf
ROOT
ATOM      1  C   UNL     1      43.170   4.841   3.431  1.00  0.00     0.012 C 
ATOM      2  C   UNL     1      42.952   4.705   2.116  1.00  0.00     0.053 C 
ENDROOT
BRANCH   1   3
ATOM      3  C   UNL     1      43.421   3.698   4.345  1.00  0.00    -0.025 A 
ATOM      4  C   UNL     1      44.534   2.875   4.105  1.00  0.00     0.012 A 
ATOM      5  C   UNL     1      44.802   1.782   4.933  1.00  0.00     0.047 A 
ATOM      6  C   UNL     1      43.953   1.487   6.007  1.00  0.00     0.115 A 
ATOM      7  C   UNL     1      42.562   3.384   5.418  1.00  0.00     0.012 A 
ATOM      8  C   UNL     1      42.834   2.289   6.245  1.00  0.00     0.047 A 
BRANCH   6   9
ATOM      9  O   UNL     1      44.211   0.400   6.840  1.00  0.00    -0.508 OA
ATOM     10  H   UNL     1      43.467  -0.069   7.343  1.00  0.00     0.293 HD
ENDBRANCH   6   9
ENDBRANCH   1   3
BRANCH   2  11
ATOM     11  C   UNL     1      42.689   5.868   1.238  1.00  0.00     0.189 C 
ATOM     12  O   UNL     1      43.555   6.778   1.125  1.00  0.00    -0.289 OA
BRANCH  11  13
ATOM     13  C   UNL     1      41.398   6.009   0.524  1.00  0.00     0.064 A 
ATOM     14  C   UNL     1      41.338   6.277  -0.862  1.00  0.00     0.130 A 
ATOM     15  C   UNL     1      40.200   5.899   1.251  1.00  0.00     0.020 A 
ATOM     16  C   UNL     1      40.092   6.389  -1.498  1.00  0.00     0.093 A 
ATOM     17  C   UNL     1      38.965   6.018   0.610  1.00  0.00     0.047 A 
ATOM     18  C   UNL     1      38.907   6.258  -0.764  1.00  0.00     0.119 A 
BRANCH  14  19
ATOM     19  O   UNL     1      42.507   6.460  -1.601  1.00  0.00    -0.507 OA
ATOM     20  H   UNL     1      42.573   7.163  -2.328  1.00  0.00     0.293 HD
ENDBRANCH  14  19
BRANCH  18  21
ATOM     21  O   UNL     1      37.667   6.370  -1.391  1.00  0.00    -0.508 OA
ATOM     22  H   UNL     1      37.591   6.540  -2.387  1.00  0.00     0.293 HD
ENDBRANCH  18  21
ENDBRANCH  11  13
ENDBRANCH   2  11
TORSDOF 6
ENDMDL
MODEL 3
REMARK VINA RESULT:    -7.260      4.127      6.436
REMARK INTER + INTRA:          -9.867
REMARK INTER:                  -9.251
REMARK INTRA:                  -0.616
REMARK UNBOUND:                -0.698
REMARK SMILES O=C(C=Cc1ccc(O)cc1)c1ccc(O)cc1O
REMARK SMILES IDX 4 1 3 2 5 3 6 4 7 5 8 6 11 7 10 8 9 9 2 11 1 12 12 13 18 14
REMARK SMILES IDX 13 15 17 16 14 17 15 18 19 19 16 21
REMARK H PARENT 9 10 19 20 16 22
REMARK Flexibility Score: inf
ROOT
ATOM      1  C   UNL     1      43.158   4.491   2.899  1.00  0.00     0.012 C 
ATOM      2  C   UNL     1      41.950   4.919   2.507  1.00  0.00     0.053 C 
ENDROOT
BRANCH   1   3
ATOM      3  C   UNL     1      43.365   3.383   3.864  1.00  0.00    -0.025 A 
ATOM      4  C   UNL     1      42.266   2.929   4.614  1.00  0.00     0.012 A 
ATOM      5  C   UNL     1      42.417   1.896   5.541  1.00  0.00     0.047 A 
ATOM      6  C   UNL     1      43.672   1.307   5.743  1.00  0.00     0.115 A 
ATOM      7  C   UNL     1      44.628   2.796   4.084  1.00  0.00     0.012 A 
ATOM      8  C   UNL     1      44.774   1.762   5.015  1.00  0.00     0.047 A 
BRANCH   6   9
ATOM      9  O   UNL     1      43.834   0.276   6.665  1.00  0.00    -0.508 OA
ATOM     10  H   UNL     1      44.533   0.325   7.397  1.00  0.00     0.293 HD
ENDBRANCH   6   9
ENDBRANCH   1   3
BRANCH   2  11
ATOM     11  C   UNL     1      41.783   6.039   1.554  1.00  0.00     0.189 C 
ATOM     12  O   UNL     1      42.616   6.986   1.544  1.00  0.00    -0.289 OA
BRANCH  11  13
ATOM     13  C   UNL     1      40.618   6.097   0.639  1.00  0.00     0.064 A 
ATOM     14  C   UNL     1      40.773   6.159  -0.764  1.00  0.00     0.130 A 
ATOM     15  C   UNL     1      39.322   6.117   1.184  1.00  0.00     0.020 A 
ATOM     16  C   UNL     1      39.641   6.197  -1.591  1.00  0.00     0.093 A 
ATOM     17  C   UNL     1      38.201   6.163   0.352  1.00  0.00     0.047 A 
ATOM     18  C   UNL     1      38.356   6.198  -1.034  1.00  0.00     0.119 A 
BRANCH  14  19
ATOM     19  O   UNL     1      42.045   6.209  -1.335  1.00  0.00    -0.507 OA
ATOM     20  H   UNL     1      42.718   5.463  -1.203  1.00  0.00     0.293 HD
ENDBRANCH  14  19
BRANCH  18  21
ATOM     21  O   UNL     1      37.228   6.239  -1.852  1.00  0.00    -0.508 OA
ATOM     22  H   UNL     1      36.332   6.557  -1.503  1.00  0.00     0.293 HD
ENDBRANCH  18  21
ENDBRANCH  11  13
ENDBRANCH   2  11
TORSDOF 6
ENDMDL
MODEL 4
REMARK VINA RESULT:    -6.979      2.451      7.385
REMARK INTER + INTRA:          -9.512
REMARK INTER:                  -8.782
REMARK INTRA:                  -0.731
REMARK UNBOUND:                -0.698
REMARK SMILES O=C(C=Cc1ccc(O)cc1)c1ccc(O)cc1O
REMARK SMILES IDX 4 1 3 2 5 3 6 4 7 5 8 6 11 7 10 8 9 9 2 11 1 12 12 13 18 14
REMARK SMILES IDX 13 15 17 16 14 17 15 18 19 19 16 21
REMARK H PARENT 9 10 19 20 16 22
REMARK Flexibility Score: inf
ROOT
ATOM      1  C   UNL     1      35.892   2.876  -3.005  1.00  0.00     0.012 C 
ATOM      2  C   UNL     1      36.031   4.082  -3.574  1.00  0.00     0.053 C 
ENDROOT
BRANCH   1   3
ATOM      3  C   UNL     1      35.756   1.615  -3.775  1.00  0.00    -0.025 A 
ATOM      4  C   UNL     1      34.765   1.534  -4.767  1.00  0.00     0.012 A 
ATOM      5  C   UNL     1      34.594   0.363  -5.509  1.00  0.00     0.047 A 
ATOM      6  C   UNL     1      35.405  -0.752  -5.261  1.00  0.00     0.115 A 
ATOM      7  C   UNL     1      36.557   0.482  -3.521  1.00  0.00     0.012 A 
ATOM      8  C   UNL     1      36.383  -0.689  -4.266  1.00  0.00     0.047 A 
BRANCH   6   9
ATOM      9  O   UNL     1      35.244  -1.925  -5.995  1.00  0.00    -0.508 OA
ATOM     10  H   UNL     1      34.544  -2.614  -5.746  1.00  0.00     0.293 HD
ENDBRANCH   6   9
ENDBRANCH   1   3
BRANCH   2  11
ATOM     11  C   UNL     1      36.148   5.321  -2.772  1.00  0.00     0.189 C 
ATOM     12  O   UNL     1      35.456   6.331  -3.074  1.00  0.00    -0.289 OA
BRANCH  11  13
ATOM     13  C   UNL     1      37.106   5.415  -1.645  1.00  0.00     0.064 A 
ATOM     14  C   UNL     1      36.693   5.775  -0.343  1.00  0.00     0.130 A 
ATOM     15  C   UNL     1      38.468   5.164  -1.885  1.00  0.00     0.020 A 
ATOM     16  C   UNL     1      37.634   5.837   0.696  1.00  0.00     0.093 A 
ATOM     17  C   UNL     1      39.398   5.235  -0.845  1.00  0.00     0.047 A 
ATOM     18  C   UNL     1      38.984   5.566   0.446  1.00  0.00     0.119 A 
BRANCH  14  19
ATOM     19  O   UNL     1      35.360   6.096  -0.085  1.00  0.00    -0.507 OA
ATOM     20  H   UNL     1      34.677   6.171  -0.829  1.00  0.00     0.293 HD
ENDBRANCH  14  19
BRANCH  18  21
ATOM     21  O   UNL     1      39.923   5.629   1.475  1.00  0.00    -0.508 OA
ATOM     22  H   UNL     1      39.723   6.106   2.345  1.00  0.00     0.293 HD
ENDBRANCH  18  21
ENDBRANCH  11  13
ENDBRANCH   2  11
TORSDOF 6
ENDMDL
MODEL 5
REMARK VINA RESULT:    -6.966      2.306      3.316
REMARK INTER + INTRA:          -9.496
REMARK INTER:                  -8.746
REMARK INTRA:                  -0.750
REMARK UNBOUND:                -0.698
REMARK SMILES O=C(C=Cc1ccc(O)cc1)c1ccc(O)cc1O
REMARK SMILES IDX 4 1 3 2 5 3 6 4 7 5 8 6 11 7 10 8 9 9 2 11 1 12 12 13 18 14
REMARK SMILES IDX 13 15 17 16 14 17 15 18 19 19 16 21
REMARK H PARENT 9 10 19 20 16 22
REMARK Flexibility Score: inf
ROOT
ATOM      1  C   UNL     1      40.638   4.850   0.219  1.00  0.00     0.012 C 
ATOM      2  C   UNL     1      39.837   3.797   0.433  1.00  0.00     0.053 C 
ENDROOT
BRANCH   1   3
ATOM      3  C   UNL     1      41.607   5.362   1.218  1.00  0.00    -0.025 A 
ATOM      4  C   UNL     1      41.379   5.092   2.578  1.00  0.00     0.012 A 
ATOM      5  C   UNL     1      42.260   5.564   3.555  1.00  0.00     0.047 A 
ATOM      6  C   UNL     1      43.377   6.324   3.187  1.00  0.00     0.115 A 
ATOM      7  C   UNL     1      42.726   6.142   0.858  1.00  0.00     0.012 A 
ATOM      8  C   UNL     1      43.605   6.612   1.840  1.00  0.00     0.047 A 
BRANCH   6   9
ATOM      9  O   UNL     1      44.263   6.799   4.153  1.00  0.00    -0.508 OA
ATOM     10  H   UNL     1      44.934   6.188   4.602  1.00  0.00     0.293 HD
ENDBRANCH   6   9
ENDBRANCH   1   3
BRANCH   2  11
ATOM     11  C   UNL     1      38.869   3.325  -0.583  1.00  0.00     0.189 C 
ATOM     12  O   UNL     1      38.986   2.168  -1.072  1.00  0.00    -0.289 OA
BRANCH  11  13
ATOM     13  C   UNL     1      37.788   4.210  -1.077  1.00  0.00     0.064 A 
ATOM     14  C   UNL     1      37.570   4.422  -2.457  1.00  0.00     0.130 A 
ATOM     15  C   UNL     1      36.973   4.877  -0.146  1.00  0.00     0.020 A 
ATOM     16  C   UNL     1      36.525   5.257  -2.879  1.00  0.00     0.093 A 
ATOM     17  C   UNL     1      35.939   5.712  -0.576  1.00  0.00     0.047 A 
ATOM     18  C   UNL     1      35.709   5.901  -1.940  1.00  0.00     0.119 A 
BRANCH  14  19
ATOM     19  O   UNL     1      38.403   3.829  -3.406  1.00  0.00    -0.507 OA
ATOM     20  H   UNL     1      38.094   3.049  -3.973  1.00  0.00     0.293 HD
ENDBRANCH  14  19
BRANCH  18  21
ATOM     21  O   UNL     1      34.671   6.733  -2.355  1.00  0.00    -0.508 OA
ATOM     22  H   UNL     1      33.747   6.672  -1.945  1.00  0.00     0.293 HD
ENDBRANCH  18  21
ENDBRANCH  11  13
ENDBRANCH   2  11
TORSDOF 6
ENDMDL
MODEL 6
REMARK VINA RESULT:    -6.879      3.032      4.249
REMARK INTER + INTRA:          -9.386
REMARK INTER:                  -8.787
REMARK INTRA:                  -0.599
REMARK UNBOUND:                -0.698
REMARK SMILES O=C(C=Cc1ccc(O)cc1)c1ccc(O)cc1O
REMARK SMILES IDX 4 1 3 2 5 3 6 4 7 5 8 6 11 7 10 8 9 9 2 11 1 12 12 13 18 14
REMARK SMILES IDX 13 15 17 16 14 17 15 18 19 19 16 21
REMARK H PARENT 9 10 19 20 16 22
REMARK Flexibility Score: inf
ROOT
ATOM      1  C   UNL     1      41.331   5.899   1.206  1.00  0.00     0.012 C 
ATOM      2  C   UNL     1      40.973   5.063   0.221  1.00  0.00     0.053 C 
ENDROOT
BRANCH   1   3
ATOM      3  C   UNL     1      41.913   5.450   2.495  1.00  0.00    -0.025 A 
ATOM      4  C   UNL     1      41.799   4.095   2.850  1.00  0.00     0.012 A 
ATOM      5  C   UNL     1      42.322   3.630   4.059  1.00  0.00     0.047 A 
ATOM      6  C   UNL     1      42.959   4.516   4.938  1.00  0.00     0.115 A 
ATOM      7  C   UNL     1      42.541   6.338   3.393  1.00  0.00     0.012 A 
ATOM      8  C   UNL     1      43.063   5.868   4.602  1.00  0.00     0.047 A 
BRANCH   6   9
ATOM      9  O   UNL     1      43.485   4.063   6.146  1.00  0.00    -0.508 OA
ATOM     10  H   UNL     1      44.456   4.217   6.391  1.00  0.00     0.293 HD
ENDBRANCH   6   9
ENDBRANCH   1   3
BRANCH   2  11
ATOM     11  C   UNL     1      40.379   5.547  -1.045  1.00  0.00     0.189 C 
ATOM     12  O   UNL     1      40.976   6.428  -1.723  1.00  0.00    -0.289 OA
BRANCH  11  13
ATOM     13  C   UNL     1      39.063   5.050  -1.511  1.00  0.00     0.064 A 
ATOM     14  C   UNL     1      38.944   4.162  -2.603  1.00  0.00     0.130 A 
ATOM     15  C   UNL     1      37.897   5.496  -0.864  1.00  0.00     0.020 A 
ATOM     16  C   UNL     1      37.678   3.707  -2.999  1.00  0.00     0.093 A 
ATOM     17  C   UNL     1      36.640   5.042  -1.270  1.00  0.00     0.047 A 
ATOM     18  C   UNL     1      36.527   4.144  -2.333  1.00  0.00     0.119 A 
BRANCH  14  19
ATOM     19  O   UNL     1      40.075   3.753  -3.311  1.00  0.00    -0.507 OA
ATOM     20  H   UNL     1      40.947   3.539  -2.842  1.00  0.00     0.293 HD
ENDBRANCH  14  19
BRANCH  18  21
ATOM     21  O   UNL     1      35.266   3.697  -2.725  1.00  0.00    -0.508 OA
ATOM     22  H   UNL     1      34.693   3.128  -2.114  1.00  0.00     0.293 HD
ENDBRANCH  18  21
ENDBRANCH  11  13
ENDBRANCH   2  11
TORSDOF 6
ENDMDL
MODEL 7
REMARK VINA RESULT:    -6.795      2.032      8.128
REMARK INTER + INTRA:          -9.280
REMARK INTER:                  -8.632
REMARK INTRA:                  -0.648
REMARK UNBOUND:                -0.698
REMARK SMILES O=C(C=Cc1ccc(O)cc1)c1ccc(O)cc1O
REMARK SMILES IDX 4 1 3 2 5 3 6 4 7 5 8 6 11 7 10 8 9 9 2 11 1 12 12 13 18 14
REMARK SMILES IDX 13 15 17 16 14 17 15 18 19 19 16 21
REMARK H PARENT 9 10 19 20 16 22
REMARK Flexibility Score: inf
ROOT
ATOM      1  C   UNL     1      39.176   4.746  -0.583  1.00  0.00     0.012 C 
ATOM      2  C   UNL     1      40.144   5.632  -0.309  1.00  0.00     0.053 C 
ENDROOT
BRANCH   1   3
ATOM      3  C   UNL     1      37.788   5.130  -0.940  1.00  0.00    -0.025 A 
ATOM      4  C   UNL     1      37.429   5.176  -2.298  1.00  0.00     0.012 A 
ATOM      5  C   UNL     1      36.136   5.543  -2.680  1.00  0.00     0.047 A 
ATOM      6  C   UNL     1      35.185   5.882  -1.710  1.00  0.00     0.115 A 
ATOM      7  C   UNL     1      36.828   5.489   0.030  1.00  0.00     0.012 A 
ATOM      8  C   UNL     1      35.535   5.856  -0.358  1.00  0.00     0.047 A 
BRANCH   6   9
ATOM      9  O   UNL     1      33.893   6.250  -2.079  1.00  0.00    -0.508 OA
ATOM     10  H   UNL     1      33.192   6.488  -1.387  1.00  0.00     0.293 HD
ENDBRANCH   6   9
ENDBRANCH   1   3
BRANCH   2  11
ATOM     11  C   UNL     1      41.514   5.210   0.060  1.00  0.00     0.189 C 
ATOM     12  O   UNL     1      42.200   4.525  -0.747  1.00  0.00    -0.289 OA
BRANCH  11  13
ATOM     13  C   UNL     1      42.082   5.536   1.390  1.00  0.00     0.064 A 
ATOM     14  C   UNL     1      43.252   6.316   1.531  1.00  0.00     0.130 A 
ATOM     15  C   UNL     1      41.453   5.033   2.543  1.00  0.00     0.020 A 
ATOM     16  C   UNL     1      43.744   6.611   2.811  1.00  0.00     0.093 A 
ATOM     17  C   UNL     1      41.955   5.327   3.813  1.00  0.00     0.047 A 
ATOM     18  C   UNL     1      43.096   6.119   3.951  1.00  0.00     0.119 A 
BRANCH  14  19
ATOM     19  O   UNL     1      43.939   6.774   0.407  1.00  0.00    -0.507 OA
ATOM     20  H   UNL     1      43.657   6.515  -0.531  1.00  0.00     0.293 HD
ENDBRANCH  14  19
BRANCH  18  21
ATOM     21  O   UNL     1      43.584   6.408   5.225  1.00  0.00    -0.508 OA
ATOM     22  H   UNL     1      43.617   5.703   5.951  1.00  0.00     0.293 HD
ENDBRANCH  18  21
ENDBRANCH  11  13
ENDBRANCH   2  11
TORSDOF 6
ENDMDL
MODEL 8
REMARK VINA RESULT:    -6.791      4.969      8.150
REMARK INTER + INTRA:          -9.275
REMARK INTER:                  -8.754
REMARK INTRA:                  -0.521
REMARK UNBOUND:                -0.698
REMARK SMILES O=C(C=Cc1ccc(O)cc1)c1ccc(O)cc1O
REMARK SMILES IDX 4 1 3 2 5 3 6 4 7 5 8 6 11 7 10 8 9 9 2 11 1 12 12 13 18 14
REMARK SMILES IDX 13 15 17 16 14 17 15 18 19 19 16 21
REMARK H PARENT 9 10 19 20 16 22
REMARK Flexibility Score: inf
ROOT
ATOM      1  C   UNL     1      34.980   1.785  -4.978  1.00  0.00     0.012 C 
ATOM      2  C   UNL     1      35.254   0.694  -4.248  1.00  0.00     0.053 C 
ENDROOT
BRANCH   1   3
ATOM      3  C   UNL     1      35.060   3.169  -4.450  1.00  0.00    -0.025 A 
ATOM      4  C   UNL     1      35.673   4.157  -5.239  1.00  0.00     0.012 A 
ATOM      5  C   UNL     1      35.780   5.471  -4.776  1.00  0.00     0.047 A 
ATOM      6  C   UNL     1      35.286   5.816  -3.512  1.00  0.00     0.115 A 
ATOM      7  C   UNL     1      34.580   3.521  -3.171  1.00  0.00     0.012 A 
ATOM      8  C   UNL     1      34.689   4.838  -2.713  1.00  0.00     0.047 A 
BRANCH   6   9
ATOM      9  O   UNL     1      35.387   7.123  -3.041  1.00  0.00    -0.508 OA
ATOM     10  H   UNL     1      36.264   7.496  -2.698  1.00  0.00     0.293 HD
ENDBRANCH   6   9
ENDBRANCH   1   3
BRANCH   2  11
ATOM     11  C   UNL     1      35.147  -0.673  -4.805  1.00  0.00     0.189 C 
ATOM     12  O   UNL     1      35.322  -0.864  -6.039  1.00  0.00    -0.289 OA
BRANCH  11  13
ATOM     13  C   UNL     1      34.785  -1.823  -3.942  1.00  0.00     0.064 A 
ATOM     14  C   UNL     1      35.056  -3.156  -4.325  1.00  0.00     0.130 A 
ATOM     15  C   UNL     1      34.132  -1.582  -2.721  1.00  0.00     0.020 A 
ATOM     16  C   UNL     1      34.708  -4.212  -3.469  1.00  0.00     0.093 A 
ATOM     17  C   UNL     1      33.784  -2.640  -1.879  1.00  0.00     0.047 A 
ATOM     18  C   UNL     1      34.075  -3.955  -2.247  1.00  0.00     0.119 A 
BRANCH  14  19
ATOM     19  O   UNL     1      35.642  -3.435  -5.560  1.00  0.00    -0.507 OA
ATOM     20  H   UNL     1      35.645  -4.370  -5.948  1.00  0.00     0.293 HD
ENDBRANCH  14  19
BRANCH  18  21
ATOM     21  O   UNL     1      33.725  -5.002  -1.395  1.00  0.00    -0.508 OA
ATOM     22  H   UNL     1      33.282  -5.843  -1.743  1.00  0.00     0.293 HD
ENDBRANCH  18  21
ENDBRANCH  11  13
ENDBRANCH   2  11
TORSDOF 6
ENDMDL
MODEL 9
REMARK VINA RESULT:    -6.757      4.166      9.282
REMARK INTER + INTRA:          -9.232
REMARK INTER:                  -8.560
REMARK INTRA:                  -0.672
REMARK UNBOUND:                -0.698
REMARK SMILES O=C(C=Cc1ccc(O)cc1)c1ccc(O)cc1O
REMARK SMILES IDX 4 1 3 2 5 3 6 4 7 5 8 6 11 7 10 8 9 9 2 11 1 12 12 13 18 14
REMARK SMILES IDX 13 15 17 16 14 17 15 18 19 19 16 21
REMARK H PARENT 9 10 19 20 16 22
REMARK Flexibility Score: inf
ROOT
ATOM      1  C   UNL     1      42.224   5.891   1.427  1.00  0.00     0.012 C 
ATOM      2  C   UNL     1      42.258   5.681   2.751  1.00  0.00     0.053 C 
ENDROOT
BRANCH   1   3
ATOM      3  C   UNL     1      40.967   6.014   0.647  1.00  0.00    -0.025 A 
ATOM      4  C   UNL     1      39.740   5.901   1.322  1.00  0.00     0.012 A 
ATOM      5  C   UNL     1      38.533   6.000   0.626  1.00  0.00     0.047 A 
ATOM      6  C   UNL     1      38.534   6.201  -0.760  1.00  0.00     0.115 A 
ATOM      7  C   UNL     1      40.959   6.200  -0.751  1.00  0.00     0.012 A 
ATOM      8  C   UNL     1      39.748   6.298  -1.444  1.00  0.00     0.047 A 
BRANCH   6   9
ATOM      9  O   UNL     1      37.336   6.302  -1.464  1.00  0.00    -0.508 OA
ATOM     10  H   UNL     1      37.246   5.945  -2.409  1.00  0.00     0.293 HD
ENDBRANCH   6   9
ENDBRANCH   1   3
BRANCH   2  11
ATOM     11  C   UNL     1      43.531   5.547   3.493  1.00  0.00     0.189 C 
ATOM     12  O   UNL     1      44.419   6.436   3.385  1.00  0.00    -0.289 OA
BRANCH  11  13
ATOM     13  C   UNL     1      43.807   4.352   4.327  1.00  0.00     0.064 A 
ATOM     14  C   UNL     1      44.228   4.463   5.671  1.00  0.00     0.130 A 
ATOM     15  C   UNL     1      43.670   3.075   3.757  1.00  0.00     0.020 A 
ATOM     16  C   UNL     1      44.464   3.304   6.426  1.00  0.00     0.093 A 
ATOM     17  C   UNL     1      43.912   1.927   4.515  1.00  0.00     0.047 A 
ATOM     18  C   UNL     1      44.304   2.038   5.851  1.00  0.00     0.119 A 
BRANCH  14  19
ATOM     19  O   UNL     1      44.440   5.715   6.248  1.00  0.00    -0.507 OA
ATOM     20  H   UNL     1      44.244   6.573   5.745  1.00  0.00     0.293 HD
ENDBRANCH  14  19
BRANCH  18  21
ATOM     21  O   UNL     1      44.539   0.884   6.597  1.00  0.00    -0.508 OA
ATOM     22  H   UNL     1      45.190   0.879   7.373  1.00  0.00     0.293 HD
ENDBRANCH  18  21
ENDBRANCH  11  13
ENDBRANCH   2  11
TORSDOF 6
ENDMDL
