MODEL 1
REMARK VINA RESULT:    -3.394      0.000      0.000
REMARK INTER + INTRA:          -4.458
REMARK INTER:                  -4.783
REMARK INTRA:                   0.325
REMARK UNBOUND:                 0.325
REMARK SMILES CC1=CCC(=C(C)C)C(=O)CC(C)=CCC1
REMARK SMILES IDX 12 1 14 2 13 3 15 4 16 5 2 6 1 7 3 8 11 10 9 11 10 12 5 13
REMARK SMILES IDX 6 14 7 15 8 16 4 17
REMARK H PARENT
REMARK Flexibility Score: 60.00
ROOT
ATOM      1  C   UNL     1      -3.599   6.592   4.152  1.00  0.00    -0.070 C 
ATOM      2  C   UNL     1      -4.914   6.657   4.467  1.00  0.00    -0.027 C 
ATOM      3  C   UNL     1      -3.088   7.494   3.059  1.00  0.00     0.039 C 
ENDROOT
BRANCH   2   4
ATOM      4  C   UNL     1      -5.607   5.797   5.500  1.00  0.00     0.032 C 
BRANCH   4   5
ATOM      5  C   UNL     1      -5.420   6.352   6.919  1.00  0.00     0.034 C 
BRANCH   5   6
ATOM      6  C   UNL     1      -4.921   5.315   7.916  1.00  0.00    -0.077 C 
ATOM      7  C   UNL     1      -5.816   4.155   8.271  1.00  0.00     0.039 C 
ATOM      8  C   UNL     1      -3.715   5.391   8.526  1.00  0.00    -0.023 CG0
ATOM      9  G   UNL     1      -2.656   6.432   8.247  1.00  0.00     0.000 G0
ENDBRANCH   5   6
ENDBRANCH   4   5
ENDBRANCH   2   4
BRANCH   1  10
ATOM     10  C   UNL     1      -2.628   5.661   4.852  1.00  0.00     0.111 C 
BRANCH  10  11
ATOM     11  C   UNL     1      -1.762   6.417   5.821  1.00  0.00     0.163 C 
ATOM     12  O   UNL     1      -1.128   7.432   5.423  1.00  0.00    -0.294 OA
BRANCH  11  13
ATOM     13  C   UNL     1      -1.615   5.975   7.231  1.00  0.00    -0.002 C 
ATOM     14  C   UNL     1      -0.576   5.173   7.594  1.00  0.00    -0.069 C 
ATOM     15  C   UNL     1       0.391   4.633   6.565  1.00  0.00     0.039 C 
ATOM     16  C   UNL     1      -0.376   4.759   9.034  1.00  0.00     0.039 C 
BRANCH  13  17
ATOM     17  C   UNL     1      -2.640   6.431   8.264  1.00  0.00     0.066 CG0
ATOM     18  G   UNL     1      -3.723   5.412   8.532  1.00  0.00     0.000 G0
ENDBRANCH  13  17
ENDBRANCH  11  13
ENDBRANCH  10  11
ENDBRANCH   1  10
TORSDOF 0
ENDMDL
MODEL 2
REMARK VINA RESULT:    -3.226      1.694      4.064
REMARK INTER + INTRA:          -4.221
REMARK INTER:                  -4.891
REMARK INTRA:                   0.670
REMARK UNBOUND:                 0.325
REMARK SMILES CC1=CCC(=C(C)C)C(=O)CC(C)=CCC1
REMARK SMILES IDX 12 1 14 2 13 3 15 4 16 5 2 6 1 7 3 8 11 10 9 11 10 12 5 13
REMARK SMILES IDX 6 14 7 15 8 16 4 17
REMARK H PARENT
REMARK Flexibility Score: 60.00
ROOT
ATOM      1  C   UNL     1      -2.281   8.421   5.132  1.00  0.00    -0.070 C 
ATOM      2  C   UNL     1      -1.191   8.657   5.900  1.00  0.00    -0.027 C 
ATOM      3  C   UNL     1      -3.421   9.403   5.199  1.00  0.00     0.039 C 
ENDROOT
BRANCH   2   4
ATOM      4  C   UNL     1       0.021   7.758   5.995  1.00  0.00     0.032 C 
BRANCH   4   5
ATOM      5  C   UNL     1       0.232   7.239   7.425  1.00  0.00     0.034 C 
BRANCH   5   6
ATOM      6  C   UNL     1      -0.180   5.785   7.611  1.00  0.00    -0.077 C 
ATOM      7  C   UNL     1       0.894   4.741   7.783  1.00  0.00     0.039 C 
ATOM      8  C   UNL     1      -1.468   5.371   7.606  1.00  0.00    -0.023 CG0
ATOM      9  G   UNL     1      -2.677   6.272   7.521  1.00  0.00     0.000 G0
ENDBRANCH   5   6
ENDBRANCH   4   5
ENDBRANCH   2   4
BRANCH   1  10
ATOM     10  C   UNL     1      -2.396   7.222   4.210  1.00  0.00     0.111 C 
BRANCH  10  11
ATOM     11  C   UNL     1      -2.831   6.000   4.969  1.00  0.00     0.163 C 
ATOM     12  O   UNL     1      -2.624   4.858   4.475  1.00  0.00    -0.294 OA
BRANCH  11  13
ATOM     13  C   UNL     1      -3.527   6.112   6.276  1.00  0.00    -0.002 C 
ATOM     14  C   UNL     1      -4.887   6.076   6.335  1.00  0.00    -0.069 C 
ATOM     15  C   UNL     1      -5.723   6.021   5.076  1.00  0.00     0.039 C 
ATOM     16  C   UNL     1      -5.613   6.129   7.660  1.00  0.00     0.039 C 
BRANCH  13  17
ATOM     17  C   UNL     1      -2.700   6.267   7.548  1.00  0.00     0.066 CG0
ATOM     18  G   UNL     1      -1.483   5.373   7.592  1.00  0.00     0.000 G0
ENDBRANCH  13  17
ENDBRANCH  11  13
ENDBRANCH  10  11
ENDBRANCH   1  10
TORSDOF 0
ENDMDL
MODEL 3
REMARK VINA RESULT:    -3.144      1.497      4.095
REMARK INTER + INTRA:          -4.107
REMARK INTER:                  -4.417
REMARK INTRA:                   0.310
REMARK UNBOUND:                 0.325
REMARK SMILES CC1=CCC(=C(C)C)C(=O)CC(C)=CCC1
REMARK SMILES IDX 12 1 14 2 13 3 15 4 16 5 2 6 1 7 3 8 11 10 9 11 10 12 5 13
REMARK SMILES IDX 6 14 7 15 8 16 4 17
REMARK H PARENT
REMARK Flexibility Score: 60.00
ROOT
ATOM      1  C   UNL     1      -0.837   5.250   6.929  1.00  0.00    -0.070 C 
ATOM      2  C   UNL     1      -1.122   4.863   8.195  1.00  0.00    -0.027 C 
ATOM      3  C   UNL     1       0.243   4.506   6.187  1.00  0.00     0.039 C 
ENDROOT
BRANCH   2   4
ATOM      4  C   UNL     1      -2.137   5.522   9.101  1.00  0.00     0.032 C 
BRANCH   4   5
ATOM      5  C   UNL     1      -3.572   5.114   8.739  1.00  0.00     0.034 C 
BRANCH   5   6
ATOM      6  C   UNL     1      -4.538   6.288   8.665  1.00  0.00    -0.077 C 
ATOM      7  C   UNL     1      -4.756   7.130   9.897  1.00  0.00     0.039 C 
ATOM      8  C   UNL     1      -5.237   6.606   7.552  1.00  0.00    -0.023 CG0
ATOM      9  G   UNL     1      -5.100   5.930   6.207  1.00  0.00     0.000 G0
ENDBRANCH   5   6
ENDBRANCH   4   5
ENDBRANCH   2   4
BRANCH   1  10
ATOM     10  C   UNL     1      -1.559   6.388   6.232  1.00  0.00     0.111 C 
BRANCH  10  11
ATOM     11  C   UNL     1      -2.652   5.866   5.343  1.00  0.00     0.163 C 
ATOM     12  O   UNL     1      -2.419   4.887   4.585  1.00  0.00    -0.294 OA
BRANCH  11  13
ATOM     13  C   UNL     1      -3.995   6.501   5.318  1.00  0.00    -0.002 C 
ATOM     14  C   UNL     1      -4.227   7.586   4.527  1.00  0.00    -0.069 C 
ATOM     15  C   UNL     1      -3.110   8.229   3.735  1.00  0.00     0.039 C 
ATOM     16  C   UNL     1      -5.600   8.212   4.442  1.00  0.00     0.039 C 
BRANCH  13  17
ATOM     17  C   UNL     1      -5.107   5.925   6.187  1.00  0.00     0.066 CG0
ATOM     18  G   UNL     1      -5.218   6.581   7.543  1.00  0.00     0.000 G0
ENDBRANCH  13  17
ENDBRANCH  11  13
ENDBRANCH  10  11
ENDBRANCH   1  10
TORSDOF 0
ENDMDL
MODEL 4
REMARK VINA RESULT:    -3.142      2.409      5.101
REMARK INTER + INTRA:          -4.103
REMARK INTER:                  -4.641
REMARK INTRA:                   0.538
REMARK UNBOUND:                 0.325
REMARK SMILES CC1=CCC(=C(C)C)C(=O)CC(C)=CCC1
REMARK SMILES IDX 12 1 14 2 13 3 15 4 16 5 2 6 1 7 3 8 11 10 9 11 10 12 5 13
REMARK SMILES IDX 6 14 7 15 8 16 4 17
REMARK H PARENT
REMARK Flexibility Score: 60.00
ROOT
ATOM      1  C   UNL     1      -0.645   6.140   6.517  1.00  0.00    -0.070 C 
ATOM      2  C   UNL     1      -0.198   7.342   6.952  1.00  0.00    -0.027 C 
ATOM      3  C   UNL     1       0.334   5.232   5.818  1.00  0.00     0.039 C 
ENDROOT
BRANCH   2   4
ATOM      4  C   UNL     1      -1.047   8.395   7.627  1.00  0.00     0.032 C 
BRANCH   4   5
ATOM      5  C   UNL     1      -1.136   9.677   6.787  1.00  0.00     0.034 C 
BRANCH   5   6
ATOM      6  C   UNL     1      -1.380   9.418   5.306  1.00  0.00    -0.077 C 
ATOM      7  C   UNL     1      -0.302   9.780   4.316  1.00  0.00     0.039 C 
ATOM      8  C   UNL     1      -2.531   8.897   4.823  1.00  0.00    -0.023 CG0
ATOM      9  G   UNL     1      -3.690   8.406   5.659  1.00  0.00     0.000 G0
ENDBRANCH   5   6
ENDBRANCH   4   5
ENDBRANCH   2   4
BRANCH   1  10
ATOM     10  C   UNL     1      -2.075   5.673   6.708  1.00  0.00     0.111 C 
BRANCH  10  11
ATOM     11  C   UNL     1      -2.899   5.949   5.482  1.00  0.00     0.163 C 
ATOM     12  O   UNL     1      -2.621   5.359   4.403  1.00  0.00    -0.294 OA
BRANCH  11  13
ATOM     13  C   UNL     1      -4.018   6.927   5.508  1.00  0.00    -0.002 C 
ATOM     14  C   UNL     1      -5.306   6.499   5.391  1.00  0.00    -0.069 C 
ATOM     15  C   UNL     1      -5.626   5.044   5.133  1.00  0.00     0.039 C 
ATOM     16  C   UNL     1      -6.461   7.470   5.473  1.00  0.00     0.039 C 
BRANCH  13  17
ATOM     17  C   UNL     1      -3.705   8.410   5.669  1.00  0.00     0.066 CG0
ATOM     18  G   UNL     1      -2.542   8.879   4.826  1.00  0.00     0.000 G0
ENDBRANCH  13  17
ENDBRANCH  11  13
ENDBRANCH  10  11
ENDBRANCH   1  10
TORSDOF 0
ENDMDL
MODEL 5
REMARK VINA RESULT:    -3.018      2.046      4.379
REMARK INTER + INTRA:          -3.929
REMARK INTER:                  -4.497
REMARK INTRA:                   0.568
REMARK UNBOUND:                 0.325
REMARK SMILES CC1=CCC(=C(C)C)C(=O)CC(C)=CCC1
REMARK SMILES IDX 12 1 14 2 13 3 15 4 16 5 2 6 1 7 3 8 11 10 9 11 10 12 5 13
REMARK SMILES IDX 6 14 7 15 8 16 4 17
REMARK H PARENT
REMARK Flexibility Score: 60.00
ROOT
ATOM      1  C   UNL     1      -3.535   6.742   7.680  1.00  0.00    -0.070 C 
ATOM      2  C   UNL     1      -2.797   6.565   8.801  1.00  0.00    -0.027 C 
ATOM      3  C   UNL     1      -4.273   8.046   7.517  1.00  0.00     0.039 C 
ENDROOT
BRANCH   2   4
ATOM      4  C   UNL     1      -2.033   5.308   9.152  1.00  0.00     0.032 C 
BRANCH   4   5
ATOM      5  C   UNL     1      -0.515   5.538   9.114  1.00  0.00     0.034 C 
BRANCH   5   6
ATOM      6  C   UNL     1       0.149   5.008   7.851  1.00  0.00    -0.077 C 
ATOM      7  C   UNL     1       0.766   3.633   7.874  1.00  0.00     0.039 C 
ATOM      8  C   UNL     1       0.238   5.720   6.704  1.00  0.00    -0.023 CG0
ATOM      9  G   UNL     1      -0.380   7.078   6.465  1.00  0.00     0.000 G0
ENDBRANCH   5   6
ENDBRANCH   4   5
ENDBRANCH   2   4
BRANCH   1  10
ATOM     10  C   UNL     1      -3.644   5.694   6.588  1.00  0.00     0.111 C 
BRANCH  10  11
ATOM     11  C   UNL     1      -2.509   5.817   5.610  1.00  0.00     0.163 C 
ATOM     12  O   UNL     1      -2.264   4.864   4.823  1.00  0.00    -0.294 OA
BRANCH  11  13
ATOM     13  C   UNL     1      -1.652   7.030   5.572  1.00  0.00    -0.002 C 
ATOM     14  C   UNL     1      -1.978   8.076   4.763  1.00  0.00    -0.069 C 
ATOM     15  C   UNL     1      -3.154   7.995   3.817  1.00  0.00     0.039 C 
ATOM     16  C   UNL     1      -1.152   9.342   4.753  1.00  0.00     0.039 C 
BRANCH  13  17
ATOM     17  C   UNL     1      -0.405   7.087   6.449  1.00  0.00     0.066 CG0
ATOM     18  G   UNL     1       0.220   5.735   6.702  1.00  0.00     0.000 G0
ENDBRANCH  13  17
ENDBRANCH  11  13
ENDBRANCH  10  11
ENDBRANCH   1  10
TORSDOF 0
ENDMDL
MODEL 6
REMARK VINA RESULT:    -2.947      1.661      1.983
REMARK INTER + INTRA:          -3.829
REMARK INTER:                  -4.418
REMARK INTRA:                   0.589
REMARK UNBOUND:                 0.325
REMARK SMILES CC1=CCC(=C(C)C)C(=O)CC(C)=CCC1
REMARK SMILES IDX 12 1 14 2 13 3 15 4 16 5 2 6 1 7 3 8 11 10 9 11 10 12 5 13
REMARK SMILES IDX 6 14 7 15 8 16 4 17
REMARK H PARENT
REMARK Flexibility Score: 60.00
ROOT
ATOM      1  C   UNL     1      -3.522   6.716   4.204  1.00  0.00    -0.070 C 
ATOM      2  C   UNL     1      -4.849   6.658   4.465  1.00  0.00    -0.027 C 
ATOM      3  C   UNL     1      -3.017   7.850   3.351  1.00  0.00     0.039 C 
ENDROOT
BRANCH   2   4
ATOM      4  C   UNL     1      -5.536   5.570   5.260  1.00  0.00     0.032 C 
BRANCH   4   5
ATOM      5  C   UNL     1      -6.185   6.124   6.537  1.00  0.00     0.034 C 
BRANCH   5   6
ATOM      6  C   UNL     1      -5.432   5.760   7.809  1.00  0.00    -0.077 C 
ATOM      7  C   UNL     1      -5.907   4.585   8.626  1.00  0.00     0.039 C 
ATOM      8  C   UNL     1      -4.363   6.453   8.264  1.00  0.00    -0.023 CG0
ATOM      9  G   UNL     1      -3.699   7.607   7.550  1.00  0.00     0.000 G0
ENDBRANCH   5   6
ENDBRANCH   4   5
ENDBRANCH   2   4
BRANCH   1  10
ATOM     10  C   UNL     1      -2.532   5.697   4.737  1.00  0.00     0.111 C 
BRANCH  10  11
ATOM     11  C   UNL     1      -2.287   5.902   6.205  1.00  0.00     0.163 C 
ATOM     12  O   UNL     1      -2.001   4.910   6.929  1.00  0.00    -0.294 OA
BRANCH  11  13
ATOM     13  C   UNL     1      -2.405   7.246   6.827  1.00  0.00    -0.002 C 
ATOM     14  C   UNL     1      -1.377   8.135   6.739  1.00  0.00    -0.069 C 
ATOM     15  C   UNL     1      -0.063   7.749   6.099  1.00  0.00     0.039 C 
ATOM     16  C   UNL     1      -1.499   9.528   7.314  1.00  0.00     0.039 C 
BRANCH  13  17
ATOM     17  C   UNL     1      -3.689   7.615   7.563  1.00  0.00     0.066 CG0
ATOM     18  G   UNL     1      -4.353   6.443   8.248  1.00  0.00     0.000 G0
ENDBRANCH  13  17
ENDBRANCH  11  13
ENDBRANCH  10  11
ENDBRANCH   1  10
TORSDOF 0
ENDMDL
MODEL 7
REMARK VINA RESULT:    -2.927      1.911      3.488
REMARK INTER + INTRA:          -3.800
REMARK INTER:                  -4.276
REMARK INTRA:                   0.476
REMARK UNBOUND:                 0.325
REMARK SMILES CC1=CCC(=C(C)C)C(=O)CC(C)=CCC1
REMARK SMILES IDX 12 1 14 2 13 3 15 4 16 5 2 6 1 7 3 8 11 10 9 11 10 12 5 13
REMARK SMILES IDX 6 14 7 15 8 16 4 17
REMARK H PARENT
REMARK Flexibility Score: 60.00
ROOT
ATOM      1  C   UNL     1      -5.568   5.392   5.357  1.00  0.00    -0.070 C 
ATOM      2  C   UNL     1      -5.972   5.405   6.649  1.00  0.00    -0.027 C 
ATOM      3  C   UNL     1      -5.980   4.224   4.498  1.00  0.00     0.039 C 
ENDROOT
BRANCH   2   4
ATOM      4  C   UNL     1      -5.614   6.467   7.664  1.00  0.00     0.032 C 
BRANCH   4   5
ATOM      5  C   UNL     1      -4.196   6.267   8.219  1.00  0.00     0.034 C 
BRANCH   5   6
ATOM      6  C   UNL     1      -3.460   7.571   8.491  1.00  0.00    -0.077 C 
ATOM      7  C   UNL     1      -3.972   8.484   9.576  1.00  0.00     0.039 C 
ATOM      8  C   UNL     1      -2.374   7.971   7.790  1.00  0.00    -0.023 CG0
ATOM      9  G   UNL     1      -1.673   7.163   6.723  1.00  0.00     0.000 G0
ENDBRANCH   5   6
ENDBRANCH   4   5
ENDBRANCH   2   4
BRANCH   1  10
ATOM     10  C   UNL     1      -4.729   6.497   4.744  1.00  0.00     0.111 C 
BRANCH  10  11
ATOM     11  C   UNL     1      -3.262   6.208   4.899  1.00  0.00     0.163 C 
ATOM     12  O   UNL     1      -2.835   5.041   4.682  1.00  0.00    -0.294 OA
BRANCH  11  13
ATOM     13  C   UNL     1      -2.310   7.262   5.330  1.00  0.00    -0.002 C 
ATOM     14  C   UNL     1      -2.012   8.300   4.500  1.00  0.00    -0.069 C 
ATOM     15  C   UNL     1      -2.560   8.356   3.092  1.00  0.00     0.039 C 
ATOM     16  C   UNL     1      -1.091   9.414   4.942  1.00  0.00     0.039 C 
BRANCH  13  17
ATOM     17  C   UNL     1      -1.671   7.168   6.712  1.00  0.00     0.066 CG0
ATOM     18  G   UNL     1      -2.379   7.990   7.764  1.00  0.00     0.000 G0
ENDBRANCH  13  17
ENDBRANCH  11  13
ENDBRANCH  10  11
ENDBRANCH   1  10
TORSDOF 0
ENDMDL
MODEL 8
REMARK VINA RESULT:    -2.898      2.258      3.963
REMARK INTER + INTRA:          -3.759
REMARK INTER:                  -4.716
REMARK INTRA:                   0.956
REMARK UNBOUND:                 0.325
REMARK SMILES CC1=CCC(=C(C)C)C(=O)CC(C)=CCC1
REMARK SMILES IDX 12 1 14 2 13 3 15 4 16 5 2 6 1 7 3 8 11 10 9 11 10 12 5 13
REMARK SMILES IDX 6 14 7 15 8 16 4 17
REMARK H PARENT
REMARK Flexibility Score: 60.00
ROOT
ATOM      1  C   UNL     1      -3.146   6.763   7.601  1.00  0.00    -0.070 C 
ATOM      2  C   UNL     1      -4.485   6.642   7.444  1.00  0.00    -0.027 C 
ATOM      3  C   UNL     1      -2.634   7.874   8.480  1.00  0.00     0.039 C 
ENDROOT
BRANCH   2   4
ATOM      4  C   UNL     1      -5.172   5.621   6.565  1.00  0.00     0.032 C 
BRANCH   4   5
ATOM      5  C   UNL     1      -5.664   6.243   5.250  1.00  0.00     0.034 C 
BRANCH   5   6
ATOM      6  C   UNL     1      -5.491   7.754   5.190  1.00  0.00    -0.077 C 
ATOM      7  C   UNL     1      -6.494   8.631   5.896  1.00  0.00     0.039 C 
ATOM      8  C   UNL     1      -4.491   8.362   4.511  1.00  0.00    -0.023 CG0
ATOM      9  G   UNL     1      -3.355   7.656   3.807  1.00  0.00     0.000 G0
ENDBRANCH   5   6
ENDBRANCH   4   5
ENDBRANCH   2   4
BRANCH   1  10
ATOM     10  C   UNL     1      -2.150   5.830   6.939  1.00  0.00     0.111 C 
BRANCH  10  11
ATOM     11  C   UNL     1      -2.229   5.935   5.442  1.00  0.00     0.163 C 
ATOM     12  O   UNL     1      -2.294   4.883   4.750  1.00  0.00    -0.294 OA
BRANCH  11  13
ATOM     13  C   UNL     1      -2.202   7.254   4.758  1.00  0.00    -0.002 C 
ATOM     14  C   UNL     1      -1.166   8.114   4.967  1.00  0.00    -0.069 C 
ATOM     15  C   UNL     1      -0.075   7.796   5.965  1.00  0.00     0.039 C 
ATOM     16  C   UNL     1      -1.090   9.435   4.238  1.00  0.00     0.039 C 
BRANCH  13  17
ATOM     17  C   UNL     1      -3.345   7.631   3.823  1.00  0.00     0.066 CG0
ATOM     18  G   UNL     1      -4.481   8.349   4.515  1.00  0.00     0.000 G0
ENDBRANCH  13  17
ENDBRANCH  11  13
ENDBRANCH  10  11
ENDBRANCH   1  10
TORSDOF 0
ENDMDL
MODEL 9
REMARK VINA RESULT:    -2.844      2.229      2.873
REMARK INTER + INTRA:          -3.683
REMARK INTER:                  -4.125
REMARK INTRA:                   0.442
REMARK UNBOUND:                 0.325
REMARK SMILES CC1=CCC(=C(C)C)C(=O)CC(C)=CCC1
REMARK SMILES IDX 12 1 14 2 13 3 15 4 16 5 2 6 1 7 3 8 11 10 9 11 10 12 5 13
REMARK SMILES IDX 6 14 7 15 8 16 4 17
REMARK H PARENT
REMARK Flexibility Score: 60.00
ROOT
ATOM      1  C   UNL     1      -5.112   6.270   4.900  1.00  0.00    -0.070 C 
ATOM      2  C   UNL     1      -5.760   7.458   4.958  1.00  0.00    -0.027 C 
ATOM      3  C   UNL     1      -5.934   5.010   4.984  1.00  0.00     0.039 C 
ENDROOT
BRANCH   2   4
ATOM      4  C   UNL     1      -5.096   8.816   4.936  1.00  0.00     0.032 C 
BRANCH   4   5
ATOM      5  C   UNL     1      -5.376   9.605   6.223  1.00  0.00     0.034 C 
BRANCH   5   6
ATOM      6  C   UNL     1      -5.066   8.827   7.494  1.00  0.00    -0.077 C 
ATOM      7  C   UNL     1      -6.193   8.501   8.441  1.00  0.00     0.039 C 
ATOM      8  C   UNL     1      -3.819   8.427   7.836  1.00  0.00    -0.023 CG0
ATOM      9  G   UNL     1      -2.582   8.595   6.985  1.00  0.00     0.000 G0
ENDBRANCH   5   6
ENDBRANCH   4   5
ENDBRANCH   2   4
BRANCH   1  10
ATOM     10  C   UNL     1      -3.607   6.158   4.749  1.00  0.00     0.111 C 
BRANCH  10  11
ATOM     11  C   UNL     1      -2.929   6.185   6.089  1.00  0.00     0.163 C 
ATOM     12  O   UNL     1      -3.174   5.274   6.926  1.00  0.00    -0.294 OA
BRANCH  11  13
ATOM     13  C   UNL     1      -1.996   7.281   6.460  1.00  0.00    -0.002 C 
ATOM     14  C   UNL     1      -0.651   7.111   6.329  1.00  0.00    -0.069 C 
ATOM     15  C   UNL     1      -0.069   5.782   5.900  1.00  0.00     0.039 C 
ATOM     16  C   UNL     1       0.312   8.232   6.645  1.00  0.00     0.039 C 
BRANCH  13  17
ATOM     17  C   UNL     1      -2.563   8.594   6.988  1.00  0.00     0.066 CG0
ATOM     18  G   UNL     1      -3.808   8.422   7.827  1.00  0.00     0.000 G0
ENDBRANCH  13  17
ENDBRANCH  11  13
ENDBRANCH  10  11
ENDBRANCH   1  10
TORSDOF 0
ENDMDL
