MODEL 1
REMARK VINA RESULT:    -3.784      0.000      0.000
REMARK INTER + INTRA:          -5.531
REMARK INTER:                  -5.111
REMARK INTRA:                  -0.420
REMARK UNBOUND:                -0.420
REMARK SMILES CCCCCCCC(=O)[O-]
REMARK SMILES IDX 5 1 6 2 7 3 8 4 9 5 10 6 4 7 3 8 2 9 1 10
REMARK H PARENT
REMARK Flexibility Score: inf
ROOT
ATOM      1  C   UNL     1     -11.077  -4.144  -3.130  1.00  0.00     0.000 C 
ENDROOT
BRANCH   1   2
ATOM      2  C   UNL     1     -11.087  -3.480  -4.518  1.00  0.00     0.006 C 
BRANCH   2   3
ATOM      3  C   UNL     1      -9.799  -3.760  -5.302  1.00  0.00     0.053 C 
BRANCH   3   4
ATOM      4  C   UNL     1      -9.505  -5.227  -5.380  1.00  0.00     0.041 C 
ATOM      5  O   UNL     1      -8.469  -5.695  -4.840  1.00  0.00    -0.550 OA
ATOM      6  O   UNL     1     -10.358  -6.070  -6.079  1.00  0.00    -0.550 OA
ENDBRANCH   3   4
ENDBRANCH   2   3
ENDBRANCH   1   2
BRANCH   1   7
ATOM      7  C   UNL     1     -11.059  -3.119  -1.985  1.00  0.00     0.000 C 
BRANCH   7   8
ATOM      8  C   UNL     1      -9.825  -3.265  -1.081  1.00  0.00    -0.000 C 
BRANCH   8   9
ATOM      9  C   UNL     1      -8.532  -3.135  -1.895  1.00  0.00    -0.003 C 
ATOM     10  C   UNL     1      -7.818  -1.821  -1.590  1.00  0.00     0.004 C 
ENDBRANCH   8   9
ENDBRANCH   7   8
ENDBRANCH   1   7
TORSDOF 6
ENDMDL
MODEL 2
REMARK VINA RESULT:    -3.771      4.003      5.249
REMARK INTER + INTRA:          -5.514
REMARK INTER:                  -5.311
REMARK INTRA:                  -0.203
REMARK UNBOUND:                -0.420
REMARK SMILES CCCCCCCC(=O)[O-]
REMARK SMILES IDX 5 1 6 2 7 3 8 4 9 5 10 6 4 7 3 8 2 9 1 10
REMARK H PARENT
REMARK Flexibility Score: inf
ROOT
ATOM      1  C   UNL     1      -6.452  -5.631  -6.849  1.00  0.00     0.000 C 
ENDROOT
BRANCH   1   2
ATOM      2  C   UNL     1      -7.443  -5.581  -5.673  1.00  0.00     0.006 C 
BRANCH   2   3
ATOM      3  C   UNL     1      -8.679  -4.732  -5.995  1.00  0.00     0.053 C 
BRANCH   3   4
ATOM      4  C   UNL     1      -9.248  -4.090  -4.766  1.00  0.00     0.041 C 
ATOM      5  O   UNL     1      -9.258  -4.713  -3.672  1.00  0.00    -0.550 OA
ATOM      6  O   UNL     1      -9.799  -2.818  -4.839  1.00  0.00    -0.550 OA
ENDBRANCH   3   4
ENDBRANCH   2   3
ENDBRANCH   1   2
BRANCH   1   7
ATOM      7  C   UNL     1      -5.269  -4.668  -6.667  1.00  0.00     0.000 C 
BRANCH   7   8
ATOM      8  C   UNL     1      -4.136  -5.275  -5.827  1.00  0.00    -0.000 C 
BRANCH   8   9
ATOM      9  C   UNL     1      -3.009  -4.257  -5.609  1.00  0.00    -0.003 C 
ATOM     10  C   UNL     1      -3.518  -2.828  -5.771  1.00  0.00     0.004 C 
ENDBRANCH   8   9
ENDBRANCH   7   8
ENDBRANCH   1   7
TORSDOF 6
ENDMDL
MODEL 3
REMARK VINA RESULT:    -3.722      3.188      4.957
REMARK INTER + INTRA:          -5.447
REMARK INTER:                  -5.235
REMARK INTRA:                  -0.212
REMARK UNBOUND:                -0.420
REMARK SMILES CCCCCCCC(=O)[O-]
REMARK SMILES IDX 5 1 6 2 7 3 8 4 9 5 10 6 4 7 3 8 2 9 1 10
REMARK H PARENT
REMARK Flexibility Score: inf
ROOT
ATOM      1  C   UNL     1      -8.776  -5.465  -5.356  1.00  0.00     0.000 C 
ENDROOT
BRANCH   1   2
ATOM      2  C   UNL     1      -8.841  -4.098  -4.655  1.00  0.00     0.006 C 
BRANCH   2   3
ATOM      3  C   UNL     1      -9.793  -4.109  -3.452  1.00  0.00     0.053 C 
BRANCH   3   4
ATOM      4  C   UNL     1      -9.130  -3.589  -2.214  1.00  0.00     0.041 C 
ATOM      5  O   UNL     1      -8.424  -4.352  -1.504  1.00  0.00    -0.550 OA
ATOM      6  O   UNL     1      -9.322  -2.269  -1.826  1.00  0.00    -0.550 OA
ENDBRANCH   3   4
ENDBRANCH   2   3
ENDBRANCH   1   2
BRANCH   1   7
ATOM      7  C   UNL     1      -7.337  -5.978  -5.521  1.00  0.00     0.000 C 
BRANCH   7   8
ATOM      8  C   UNL     1      -6.606  -5.318  -6.700  1.00  0.00    -0.000 C 
BRANCH   8   9
ATOM      9  C   UNL     1      -5.149  -5.006  -6.336  1.00  0.00    -0.003 C 
ATOM     10  C   UNL     1      -4.408  -6.266  -5.897  1.00  0.00     0.004 C 
ENDBRANCH   8   9
ENDBRANCH   7   8
ENDBRANCH   1   7
TORSDOF 6
ENDMDL
MODEL 4
REMARK VINA RESULT:    -3.680      2.162      4.271
REMARK INTER + INTRA:          -5.391
REMARK INTER:                  -5.004
REMARK INTRA:                  -0.387
REMARK UNBOUND:                -0.420
REMARK SMILES CCCCCCCC(=O)[O-]
REMARK SMILES IDX 5 1 6 2 7 3 8 4 9 5 10 6 4 7 3 8 2 9 1 10
REMARK H PARENT
REMARK Flexibility Score: inf
ROOT
ATOM      1  C   UNL     1     -10.940  -3.223  -4.438  1.00  0.00     0.000 C 
ENDROOT
BRANCH   1   2
ATOM      2  C   UNL     1     -11.098  -4.148  -3.218  1.00  0.00     0.006 C 
BRANCH   2   3
ATOM      3  C   UNL     1     -10.759  -3.433  -1.904  1.00  0.00     0.053 C 
BRANCH   3   4
ATOM      4  C   UNL     1      -9.281  -3.248  -1.738  1.00  0.00     0.041 C 
ATOM      5  O   UNL     1      -8.538  -4.241  -1.522  1.00  0.00    -0.550 OA
ATOM      6  O   UNL     1      -8.731  -1.974  -1.785  1.00  0.00    -0.550 OA
ENDBRANCH   3   4
ENDBRANCH   2   3
ENDBRANCH   1   2
BRANCH   1   7
ATOM      7  C   UNL     1     -10.038  -3.828  -5.525  1.00  0.00     0.000 C 
BRANCH   7   8
ATOM      8  C   UNL     1      -9.207  -5.014  -5.012  1.00  0.00    -0.000 C 
BRANCH   8   9
ATOM      9  C   UNL     1      -7.928  -5.186  -5.840  1.00  0.00    -0.003 C 
ATOM     10  C   UNL     1      -8.221  -5.086  -7.334  1.00  0.00     0.004 C 
ENDBRANCH   8   9
ENDBRANCH   7   8
ENDBRANCH   1   7
TORSDOF 6
ENDMDL
MODEL 5
REMARK VINA RESULT:    -3.672      2.932      4.059
REMARK INTER + INTRA:          -5.379
REMARK INTER:                  -5.146
REMARK INTRA:                  -0.233
REMARK UNBOUND:                -0.420
REMARK SMILES CCCCCCCC(=O)[O-]
REMARK SMILES IDX 5 1 6 2 7 3 8 4 9 5 10 6 4 7 3 8 2 9 1 10
REMARK H PARENT
REMARK Flexibility Score: inf
ROOT
ATOM      1  C   UNL     1      -8.472  -5.053  -6.368  1.00  0.00     0.000 C 
ENDROOT
BRANCH   1   2
ATOM      2  C   UNL     1      -7.301  -5.649  -5.567  1.00  0.00     0.006 C 
BRANCH   2   3
ATOM      3  C   UNL     1      -5.956  -5.451  -6.277  1.00  0.00     0.053 C 
BRANCH   3   4
ATOM      4  C   UNL     1      -5.054  -6.634  -6.096  1.00  0.00     0.041 C 
ATOM      5  O   UNL     1      -3.810  -6.474  -5.995  1.00  0.00    -0.550 OA
ATOM      6  O   UNL     1      -5.587  -7.917  -6.074  1.00  0.00    -0.550 OA
ENDBRANCH   3   4
ENDBRANCH   2   3
ENDBRANCH   1   2
BRANCH   1   7
ATOM      7  C   UNL     1      -9.454  -4.267  -5.484  1.00  0.00     0.000 C 
BRANCH   7   8
ATOM      8  C   UNL     1      -8.866  -3.924  -4.107  1.00  0.00    -0.000 C 
BRANCH   8   9
ATOM      9  C   UNL     1      -9.969  -3.835  -3.046  1.00  0.00    -0.003 C 
ATOM     10  C   UNL     1      -9.391  -3.494  -1.677  1.00  0.00     0.004 C 
ENDBRANCH   8   9
ENDBRANCH   7   8
ENDBRANCH   1   7
TORSDOF 6
ENDMDL
MODEL 6
REMARK VINA RESULT:    -3.669      2.250      4.476
REMARK INTER + INTRA:          -5.375
REMARK INTER:                  -4.950
REMARK INTRA:                  -0.426
REMARK UNBOUND:                -0.420
REMARK SMILES CCCCCCCC(=O)[O-]
REMARK SMILES IDX 5 1 6 2 7 3 8 4 9 5 10 6 4 7 3 8 2 9 1 10
REMARK H PARENT
REMARK Flexibility Score: inf
ROOT
ATOM      1  C   UNL     1     -11.125  -5.191  -3.924  1.00  0.00     0.000 C 
ENDROOT
BRANCH   1   2
ATOM      2  C   UNL     1     -10.730  -3.725  -3.674  1.00  0.00     0.006 C 
BRANCH   2   3
ATOM      3  C   UNL     1     -10.568  -3.416  -2.181  1.00  0.00     0.053 C 
BRANCH   3   4
ATOM      4  C   UNL     1      -9.126  -3.316  -1.788  1.00  0.00     0.041 C 
ATOM      5  O   UNL     1      -8.476  -4.352  -1.490  1.00  0.00    -0.550 OA
ATOM      6  O   UNL     1      -8.509  -2.073  -1.718  1.00  0.00    -0.550 OA
ENDBRANCH   3   4
ENDBRANCH   2   3
ENDBRANCH   1   2
BRANCH   1   7
ATOM      7  C   UNL     1     -10.241  -5.869  -4.982  1.00  0.00     0.000 C 
BRANCH   7   8
ATOM      8  C   UNL     1      -8.953  -5.083  -5.269  1.00  0.00    -0.000 C 
BRANCH   8   9
ATOM      9  C   UNL     1      -8.685  -5.001  -6.776  1.00  0.00    -0.003 C 
ATOM     10  C   UNL     1      -9.925  -5.384  -7.578  1.00  0.00     0.004 C 
ENDBRANCH   8   9
ENDBRANCH   7   8
ENDBRANCH   1   7
TORSDOF 6
ENDMDL
MODEL 7
REMARK VINA RESULT:    -3.664      1.485      1.999
REMARK INTER + INTRA:          -5.369
REMARK INTER:                  -4.964
REMARK INTRA:                  -0.405
REMARK UNBOUND:                -0.420
REMARK SMILES CCCCCCCC(=O)[O-]
REMARK SMILES IDX 5 1 6 2 7 3 8 4 9 5 10 6 4 7 3 8 2 9 1 10
REMARK H PARENT
REMARK Flexibility Score: inf
ROOT
ATOM      1  C   UNL     1     -10.843  -5.101  -4.002  1.00  0.00     0.000 C 
ENDROOT
BRANCH   1   2
ATOM      2  C   UNL     1      -9.936  -5.530  -5.168  1.00  0.00     0.006 C 
BRANCH   2   3
ATOM      3  C   UNL     1      -8.608  -4.763  -5.179  1.00  0.00     0.053 C 
BRANCH   3   4
ATOM      4  C   UNL     1      -7.459  -5.646  -5.559  1.00  0.00     0.041 C 
ATOM      5  O   UNL     1      -6.820  -5.434  -6.622  1.00  0.00    -0.550 OA
ATOM      6  O   UNL     1      -7.118  -6.726  -4.755  1.00  0.00    -0.550 OA
ENDBRANCH   3   4
ENDBRANCH   2   3
ENDBRANCH   1   2
BRANCH   1   7
ATOM      7  C   UNL     1     -10.663  -3.622  -3.626  1.00  0.00     0.000 C 
BRANCH   7   8
ATOM      8  C   UNL     1     -10.699  -3.388  -2.108  1.00  0.00    -0.000 C 
BRANCH   8   9
ATOM      9  C   UNL     1      -9.320  -3.634  -1.484  1.00  0.00    -0.003 C 
ATOM     10  C   UNL     1      -8.338  -2.529  -1.863  1.00  0.00     0.004 C 
ENDBRANCH   8   9
ENDBRANCH   7   8
ENDBRANCH   1   7
TORSDOF 6
ENDMDL
MODEL 8
REMARK VINA RESULT:    -3.577      3.424      5.427
REMARK INTER + INTRA:          -5.251
REMARK INTER:                  -4.945
REMARK INTRA:                  -0.306
REMARK UNBOUND:                -0.420
REMARK SMILES CCCCCCCC(=O)[O-]
REMARK SMILES IDX 5 1 6 2 7 3 8 4 9 5 10 6 4 7 3 8 2 9 1 10
REMARK H PARENT
REMARK Flexibility Score: inf
ROOT
ATOM      1  C   UNL     1      -7.982  -5.235  -7.789  1.00  0.00     0.000 C 
ENDROOT
BRANCH   1   2
ATOM      2  C   UNL     1      -8.915  -4.630  -6.725  1.00  0.00     0.006 C 
BRANCH   2   3
ATOM      3  C   UNL     1      -8.491  -5.010  -5.301  1.00  0.00     0.053 C 
BRANCH   3   4
ATOM      4  C   UNL     1      -9.040  -4.056  -4.285  1.00  0.00     0.041 C 
ATOM      5  O   UNL     1      -9.620  -3.001  -4.654  1.00  0.00    -0.550 OA
ATOM      6  O   UNL     1      -8.879  -4.315  -2.930  1.00  0.00    -0.550 OA
ENDBRANCH   3   4
ENDBRANCH   2   3
ENDBRANCH   1   2
BRANCH   1   7
ATOM      7  C   UNL     1      -6.496  -5.070  -7.434  1.00  0.00     0.000 C 
BRANCH   7   8
ATOM      8  C   UNL     1      -5.712  -6.386  -7.542  1.00  0.00    -0.000 C 
BRANCH   8   9
ATOM      9  C   UNL     1      -5.222  -6.847  -6.164  1.00  0.00    -0.003 C 
ATOM     10  C   UNL     1      -3.793  -6.380  -5.903  1.00  0.00     0.004 C 
ENDBRANCH   8   9
ENDBRANCH   7   8
ENDBRANCH   1   7
TORSDOF 6
ENDMDL
MODEL 9
REMARK VINA RESULT:    -3.503      2.398      3.351
REMARK INTER + INTRA:          -5.151
REMARK INTER:                  -4.961
REMARK INTRA:                  -0.191
REMARK UNBOUND:                -0.420
REMARK SMILES CCCCCCCC(=O)[O-]
REMARK SMILES IDX 5 1 6 2 7 3 8 4 9 5 10 6 4 7 3 8 2 9 1 10
REMARK H PARENT
REMARK Flexibility Score: inf
ROOT
ATOM      1  C   UNL     1      -9.428  -4.114  -5.652  1.00  0.00     0.000 C 
ENDROOT
BRANCH   1   2
ATOM      2  C   UNL     1      -8.471  -4.878  -6.583  1.00  0.00     0.006 C 
BRANCH   2   3
ATOM      3  C   UNL     1      -7.256  -5.437  -5.831  1.00  0.00     0.053 C 
BRANCH   3   4
ATOM      4  C   UNL     1      -5.983  -5.212  -6.588  1.00  0.00     0.041 C 
ATOM      5  O   UNL     1      -4.875  -5.497  -6.064  1.00  0.00    -0.550 OA
ATOM      6  O   UNL     1      -6.020  -4.654  -7.859  1.00  0.00    -0.550 OA
ENDBRANCH   3   4
ENDBRANCH   2   3
ENDBRANCH   1   2
BRANCH   1   7
ATOM      7  C   UNL     1      -8.927  -4.067  -4.199  1.00  0.00     0.000 C 
BRANCH   7   8
ATOM      8  C   UNL     1     -10.075  -4.042  -3.179  1.00  0.00    -0.000 C 
BRANCH   8   9
ATOM      9  C   UNL     1      -9.585  -3.539  -1.816  1.00  0.00    -0.003 C 
ATOM     10  C   UNL     1     -10.744  -3.392  -0.834  1.00  0.00     0.004 C 
ENDBRANCH   8   9
ENDBRANCH   7   8
ENDBRANCH   1   7
TORSDOF 6
ENDMDL
