MODEL 1
REMARK VINA RESULT:    -5.086      0.000      0.000
REMARK INTER + INTRA:          -5.573
REMARK INTER:                  -6.126
REMARK INTRA:                   0.554
REMARK UNBOUND:                 0.554
REMARK SMILES O=c1c(O)c(-c2ccc(O)cc2O)oc2cc(O)cc(O)c12
REMARK SMILES IDX 5 1 3 2 2 3 1 4 22 5 20 6 19 7 17 8 16 9 15 10 14 11 6 12
REMARK SMILES IDX 8 13 7 14 9 15 11 16 12 17 10 18 13 20 4 22 21 24 18 26
REMARK H PARENT 10 19 13 21 4 23 21 25 18 27
REMARK Flexibility Score: inf
ROOT
ATOM      1  C   UNL     1      -6.094 -17.389  -7.350  1.00  0.00     0.184 A 
ATOM      2  C   UNL     1      -4.794 -17.326  -6.826  1.00  0.00     0.208 A 
ATOM      3  C   UNL     1      -4.579 -16.647  -5.617  1.00  0.00     0.238 A 
ATOM      4  O   UNL     1      -3.425 -16.658  -5.116  1.00  0.00    -0.285 OA
ATOM      5  C   UNL     1      -5.659 -15.993  -4.974  1.00  0.00     0.111 A 
ATOM      6  C   UNL     1      -5.550 -15.238  -3.767  1.00  0.00     0.134 A 
ATOM      7  C   UNL     1      -6.706 -14.723  -3.167  1.00  0.00     0.093 A 
ATOM      8  C   UNL     1      -7.960 -14.882  -3.763  1.00  0.00     0.123 A 
ATOM      9  C   UNL     1      -8.070 -15.570  -4.969  1.00  0.00     0.094 A 
ATOM     10  C   UNL     1      -6.940 -16.127  -5.573  1.00  0.00     0.146 A 
ATOM     11  O   UNL     1      -7.094 -16.794  -6.711  1.00  0.00    -0.451 OA
ENDROOT
BRANCH   1  12
ATOM     12  C   UNL     1      -6.391 -18.094  -8.614  1.00  0.00     0.063 A 
ATOM     13  C   UNL     1      -5.635 -19.556 -10.403  1.00  0.00     0.047 A 
ATOM     14  C   UNL     1      -5.390 -18.881  -9.205  1.00  0.00     0.020 A 
ATOM     15  C   UNL     1      -6.878 -19.443 -11.033  1.00  0.00     0.119 A 
ATOM     16  C   UNL     1      -7.875 -18.641 -10.463  1.00  0.00     0.093 A 
ATOM     17  C   UNL     1      -7.635 -17.955  -9.263  1.00  0.00     0.130 A 
BRANCH  15  18
ATOM     18  O   UNL     1      -7.108 -20.125 -12.225  1.00  0.00    -0.508 OA
ATOM     19  H   UNL     1      -7.973 -20.011 -12.741  1.00  0.00     0.293 HD
ENDBRANCH  15  18
BRANCH  17  20
ATOM     20  O   UNL     1      -8.619 -17.121  -8.731  1.00  0.00    -0.507 OA
ATOM     21  H   UNL     1      -9.476 -17.495  -8.337  1.00  0.00     0.293 HD
ENDBRANCH  17  20
ENDBRANCH   1  12
BRANCH   2  22
ATOM     22  O   UNL     1      -3.733 -17.919  -7.517  1.00  0.00    -0.502 OA
ATOM     23  H   UNL     1      -3.425 -17.590  -8.424  1.00  0.00     0.293 HD
ENDBRANCH   2  22
BRANCH   6  24
ATOM     24  O   UNL     1      -4.338 -14.944  -3.134  1.00  0.00    -0.507 OA
ATOM     25  H   UNL     1      -3.456 -14.815  -3.606  1.00  0.00     0.293 HD
ENDBRANCH   6  24
BRANCH   8  26
ATOM     26  O   UNL     1      -9.101 -14.352  -3.167  1.00  0.00    -0.508 OA
ATOM     27  H   UNL     1      -9.360 -13.380  -3.289  1.00  0.00     0.293 HD
ENDBRANCH   8  26
TORSDOF 6
ENDMDL
MODEL 2
REMARK VINA RESULT:    -4.777      2.479      4.159
REMARK INTER + INTRA:          -5.201
REMARK INTER:                  -4.917
REMARK INTRA:                  -0.284
REMARK UNBOUND:                 0.554
REMARK SMILES O=c1c(O)c(-c2ccc(O)cc2O)oc2cc(O)cc(O)c12
REMARK SMILES IDX 5 1 3 2 2 3 1 4 22 5 20 6 19 7 17 8 16 9 15 10 14 11 6 12
REMARK SMILES IDX 8 13 7 14 9 15 11 16 12 17 10 18 13 20 4 22 21 24 18 26
REMARK H PARENT 10 19 13 21 4 23 21 25 18 27
REMARK Flexibility Score: inf
ROOT
ATOM      1  C   UNL     1      -4.542 -18.082  -7.099  1.00  0.00     0.184 A 
ATOM      2  C   UNL     1      -4.658 -16.739  -6.709  1.00  0.00     0.208 A 
ATOM      3  C   UNL     1      -3.963 -16.297  -5.573  1.00  0.00     0.238 A 
ATOM      4  O   UNL     1      -4.012 -15.075  -5.273  1.00  0.00    -0.285 OA
ATOM      5  C   UNL     1      -3.204 -17.216  -4.809  1.00  0.00     0.111 A 
ATOM      6  C   UNL     1      -2.493 -16.889  -3.614  1.00  0.00     0.134 A 
ATOM      7  C   UNL     1      -1.691 -17.859  -3.001  1.00  0.00     0.093 A 
ATOM      8  C   UNL     1      -1.621 -19.161  -3.502  1.00  0.00     0.123 A 
ATOM      9  C   UNL     1      -2.353 -19.505  -4.636  1.00  0.00     0.094 A 
ATOM     10  C   UNL     1      -3.134 -18.551  -5.292  1.00  0.00     0.146 A 
ATOM     11  O   UNL     1      -3.798 -18.916  -6.382  1.00  0.00    -0.451 OA
ENDROOT
BRANCH   1  12
ATOM     12  C   UNL     1      -5.240 -18.610  -8.288  1.00  0.00     0.063 A 
ATOM     13  C   UNL     1      -7.330 -18.990  -9.471  1.00  0.00     0.047 A 
ATOM     14  C   UNL     1      -6.637 -18.496  -8.364  1.00  0.00     0.020 A 
ATOM     15  C   UNL     1      -6.638 -19.616 -10.512  1.00  0.00     0.119 A 
ATOM     16  C   UNL     1      -5.246 -19.756 -10.436  1.00  0.00     0.093 A 
ATOM     17  C   UNL     1      -4.544 -19.267  -9.324  1.00  0.00     0.130 A 
BRANCH  15  18
ATOM     18  O   UNL     1      -7.341 -20.100 -11.611  1.00  0.00    -0.508 OA
ATOM     19  H   UNL     1      -7.775 -21.016 -11.602  1.00  0.00     0.293 HD
ENDBRANCH  15  18
BRANCH  17  20
ATOM     20  O   UNL     1      -3.164 -19.456  -9.236  1.00  0.00    -0.507 OA
ATOM     21  H   UNL     1      -2.737 -19.892  -8.426  1.00  0.00     0.293 HD
ENDBRANCH  17  20
ENDBRANCH   1  12
BRANCH   2  22
ATOM     22  O   UNL     1      -5.470 -15.867  -7.441  1.00  0.00    -0.502 OA
ATOM     23  H   UNL     1      -5.617 -14.903  -7.166  1.00  0.00     0.293 HD
ENDBRANCH   2  22
BRANCH   6  24
ATOM     24  O   UNL     1      -2.562 -15.646  -2.978  1.00  0.00    -0.507 OA
ATOM     25  H   UNL     1      -1.928 -15.328  -2.262  1.00  0.00     0.293 HD
ENDBRANCH   6  24
BRANCH   8  26
ATOM     26  O   UNL     1      -0.834 -20.123  -2.875  1.00  0.00    -0.508 OA
ATOM     27  H   UNL     1      -0.678 -21.034  -3.290  1.00  0.00     0.293 HD
ENDBRANCH   8  26
TORSDOF 6
ENDMDL
MODEL 3
REMARK VINA RESULT:    -4.770      1.893      3.537
REMARK INTER + INTRA:          -5.192
REMARK INTER:                  -4.803
REMARK INTRA:                  -0.389
REMARK UNBOUND:                 0.554
REMARK SMILES O=c1c(O)c(-c2ccc(O)cc2O)oc2cc(O)cc(O)c12
REMARK SMILES IDX 5 1 3 2 2 3 1 4 22 5 20 6 19 7 17 8 16 9 15 10 14 11 6 12
REMARK SMILES IDX 8 13 7 14 9 15 11 16 12 17 10 18 13 20 4 22 21 24 18 26
REMARK H PARENT 10 19 13 21 4 23 21 25 18 27
REMARK Flexibility Score: inf
ROOT
ATOM      1  C   UNL     1      -6.945 -18.160  -7.957  1.00  0.00     0.184 A 
ATOM      2  C   UNL     1      -7.548 -17.111  -7.245  1.00  0.00     0.208 A 
ATOM      3  C   UNL     1      -6.943 -16.652  -6.066  1.00  0.00     0.238 A 
ATOM      4  O   UNL     1      -7.448 -15.664  -5.474  1.00  0.00    -0.285 OA
ATOM      5  C   UNL     1      -5.771 -17.285  -5.583  1.00  0.00     0.111 A 
ATOM      6  C   UNL     1      -5.096 -16.932  -4.375  1.00  0.00     0.134 A 
ATOM      7  C   UNL     1      -3.886 -17.559  -4.052  1.00  0.00     0.093 A 
ATOM      8  C   UNL     1      -3.358 -18.569  -4.860  1.00  0.00     0.123 A 
ATOM      9  C   UNL     1      -4.037 -18.959  -6.011  1.00  0.00     0.094 A 
ATOM     10  C   UNL     1      -5.227 -18.327  -6.381  1.00  0.00     0.146 A 
ATOM     11  O   UNL     1      -5.830 -18.715  -7.498  1.00  0.00    -0.451 OA
ENDROOT
BRANCH   1  12
ATOM     12  C   UNL     1      -7.526 -18.686  -9.209  1.00  0.00     0.063 A 
ATOM     13  C   UNL     1      -7.608 -18.644 -11.638  1.00  0.00     0.047 A 
ATOM     14  C   UNL     1      -7.076 -18.173 -10.436  1.00  0.00     0.020 A 
ATOM     15  C   UNL     1      -8.606 -19.623 -11.631  1.00  0.00     0.119 A 
ATOM     16  C   UNL     1      -9.078 -20.124 -10.412  1.00  0.00     0.093 A 
ATOM     17  C   UNL     1      -8.553 -19.652  -9.199  1.00  0.00     0.130 A 
BRANCH  15  18
ATOM     18  O   UNL     1      -9.123 -20.085 -12.838  1.00  0.00    -0.508 OA
ATOM     19  H   UNL     1     -10.120 -20.206 -12.975  1.00  0.00     0.293 HD
ENDBRANCH  15  18
BRANCH  17  20
ATOM     20  O   UNL     1      -9.066 -20.124  -7.990  1.00  0.00    -0.507 OA
ATOM     21  H   UNL     1      -9.613 -20.976  -7.941  1.00  0.00     0.293 HD
ENDBRANCH  17  20
ENDBRANCH   1  12
BRANCH   2  22
ATOM     22  O   UNL     1      -8.744 -16.552  -7.706  1.00  0.00    -0.502 OA
ATOM     23  H   UNL     1      -9.224 -16.899  -8.528  1.00  0.00     0.293 HD
ENDBRANCH   2  22
BRANCH   6  24
ATOM     24  O   UNL     1      -5.579 -16.000  -3.451  1.00  0.00    -0.507 OA
ATOM     25  H   UNL     1      -6.445 -15.492  -3.542  1.00  0.00     0.293 HD
ENDBRANCH   6  24
BRANCH   8  26
ATOM     26  O   UNL     1      -2.163 -19.198  -4.521  1.00  0.00    -0.508 OA
ATOM     27  H   UNL     1      -2.132 -20.180  -4.273  1.00  0.00     0.293 HD
ENDBRANCH   8  26
TORSDOF 6
ENDMDL
MODEL 4
REMARK VINA RESULT:    -4.747      1.139      3.138
REMARK INTER + INTRA:          -5.165
REMARK INTER:                  -5.384
REMARK INTRA:                   0.219
REMARK UNBOUND:                 0.554
REMARK SMILES O=c1c(O)c(-c2ccc(O)cc2O)oc2cc(O)cc(O)c12
REMARK SMILES IDX 5 1 3 2 2 3 1 4 22 5 20 6 19 7 17 8 16 9 15 10 14 11 6 12
REMARK SMILES IDX 8 13 7 14 9 15 11 16 12 17 10 18 13 20 4 22 21 24 18 26
REMARK H PARENT 10 19 13 21 4 23 21 25 18 27
REMARK Flexibility Score: inf
ROOT
ATOM      1  C   UNL     1      -6.628 -17.258  -7.335  1.00  0.00     0.184 A 
ATOM      2  C   UNL     1      -7.851 -16.851  -6.779  1.00  0.00     0.208 A 
ATOM      3  C   UNL     1      -7.845 -16.131  -5.575  1.00  0.00     0.238 A 
ATOM      4  O   UNL     1      -8.939 -15.705  -5.121  1.00  0.00    -0.285 OA
ATOM      5  C   UNL     1      -6.619 -15.875  -4.912  1.00  0.00     0.111 A 
ATOM      6  C   UNL     1      -6.497 -15.192  -3.664  1.00  0.00     0.134 A 
ATOM      7  C   UNL     1      -5.223 -14.904  -3.156  1.00  0.00     0.093 A 
ATOM      8  C   UNL     1      -4.069 -15.329  -3.819  1.00  0.00     0.123 A 
ATOM      9  C   UNL     1      -4.179 -16.043  -5.010  1.00  0.00     0.094 A 
ATOM     10  C   UNL     1      -5.434 -16.313  -5.561  1.00  0.00     0.146 A 
ATOM     11  O   UNL     1      -5.491 -16.978  -6.709  1.00  0.00    -0.451 OA
ENDROOT
BRANCH   1  12
ATOM     12  C   UNL     1      -6.563 -18.012  -8.603  1.00  0.00     0.063 A 
ATOM     13  C   UNL     1      -7.562 -18.550 -10.753  1.00  0.00     0.047 A 
ATOM     14  C   UNL     1      -7.589 -17.848  -9.547  1.00  0.00     0.020 A 
ATOM     15  C   UNL     1      -6.516 -19.435 -11.028  1.00  0.00     0.119 A 
ATOM     16  C   UNL     1      -5.499 -19.624 -10.084  1.00  0.00     0.093 A 
ATOM     17  C   UNL     1      -5.523 -18.927  -8.867  1.00  0.00     0.130 A 
BRANCH  15  18
ATOM     18  O   UNL     1      -6.500 -20.125 -12.238  1.00  0.00    -0.508 OA
ATOM     19  H   UNL     1      -6.107 -19.714 -13.077  1.00  0.00     0.293 HD
ENDBRANCH  15  18
BRANCH  17  20
ATOM     20  O   UNL     1      -4.530 -19.160  -7.914  1.00  0.00    -0.507 OA
ATOM     21  H   UNL     1      -4.141 -20.085  -7.767  1.00  0.00     0.293 HD
ENDBRANCH  17  20
ENDBRANCH   1  12
BRANCH   2  22
ATOM     22  O   UNL     1      -9.051 -17.178  -7.416  1.00  0.00    -0.502 OA
ATOM     23  H   UNL     1      -9.784 -16.497  -7.575  1.00  0.00     0.293 HD
ENDBRANCH   2  22
BRANCH   6  24
ATOM     24  O   UNL     1      -7.584 -14.801  -2.875  1.00  0.00    -0.507 OA
ATOM     25  H   UNL     1      -7.555 -14.671  -1.877  1.00  0.00     0.293 HD
ENDBRANCH   6  24
BRANCH   8  26
ATOM     26  O   UNL     1      -2.808 -15.052  -3.297  1.00  0.00    -0.508 OA
ATOM     27  H   UNL     1      -1.965 -15.216  -3.834  1.00  0.00     0.293 HD
ENDBRANCH   8  26
TORSDOF 6
ENDMDL
MODEL 5
REMARK VINA RESULT:    -4.309      2.494      3.265
REMARK INTER + INTRA:          -4.637
REMARK INTER:                  -4.351
REMARK INTRA:                  -0.287
REMARK UNBOUND:                 0.554
REMARK SMILES O=c1c(O)c(-c2ccc(O)cc2O)oc2cc(O)cc(O)c12
REMARK SMILES IDX 5 1 3 2 2 3 1 4 22 5 20 6 19 7 17 8 16 9 15 10 14 11 6 12
REMARK SMILES IDX 8 13 7 14 9 15 11 16 12 17 10 18 13 20 4 22 21 24 18 26
REMARK H PARENT 10 19 13 21 4 23 21 25 18 27
REMARK Flexibility Score: inf
ROOT
ATOM      1  C   UNL     1      -5.308 -17.999  -7.825  1.00  0.00     0.184 A 
ATOM      2  C   UNL     1      -4.989 -16.637  -7.716  1.00  0.00     0.208 A 
ATOM      3  C   UNL     1      -4.245 -16.198  -6.610  1.00  0.00     0.238 A 
ATOM      4  O   UNL     1      -3.900 -14.989  -6.556  1.00  0.00    -0.285 OA
ATOM      5  C   UNL     1      -3.877 -17.119  -5.598  1.00  0.00     0.111 A 
ATOM      6  C   UNL     1      -3.160 -16.778  -4.411  1.00  0.00     0.134 A 
ATOM      7  C   UNL     1      -2.759 -17.792  -3.532  1.00  0.00     0.093 A 
ATOM      8  C   UNL     1      -3.102 -19.126  -3.764  1.00  0.00     0.123 A 
ATOM      9  C   UNL     1      -3.848 -19.462  -4.891  1.00  0.00     0.094 A 
ATOM     10  C   UNL     1      -4.231 -18.479  -5.807  1.00  0.00     0.146 A 
ATOM     11  O   UNL     1      -4.923 -18.847  -6.878  1.00  0.00    -0.451 OA
ENDROOT
BRANCH   1  12
ATOM     12  C   UNL     1      -6.081 -18.528  -8.967  1.00  0.00     0.063 A 
ATOM     13  C   UNL     1      -6.141 -19.878 -10.988  1.00  0.00     0.047 A 
ATOM     14  C   UNL     1      -5.440 -19.365  -9.894  1.00  0.00     0.020 A 
ATOM     15  C   UNL     1      -7.486 -19.550 -11.178  1.00  0.00     0.119 A 
ATOM     16  C   UNL     1      -8.128 -18.697 -10.272  1.00  0.00     0.093 A 
ATOM     17  C   UNL     1      -7.430 -18.174  -9.174  1.00  0.00     0.130 A 
BRANCH  15  18
ATOM     18  O   UNL     1      -8.172 -20.073 -12.272  1.00  0.00    -0.508 OA
ATOM     19  H   UNL     1      -7.918 -19.829 -13.222  1.00  0.00     0.293 HD
ENDBRANCH  15  18
BRANCH  17  20
ATOM     20  O   UNL     1      -8.067 -17.286  -8.305  1.00  0.00    -0.507 OA
ATOM     21  H   UNL     1      -9.076 -17.276  -8.202  1.00  0.00     0.293 HD
ENDBRANCH  17  20
ENDBRANCH   1  12
BRANCH   2  22
ATOM     22  O   UNL     1      -5.427 -15.737  -8.692  1.00  0.00    -0.502 OA
ATOM     23  H   UNL     1      -6.404 -15.635  -8.936  1.00  0.00     0.293 HD
ENDBRANCH   2  22
BRANCH   6  24
ATOM     24  O   UNL     1      -2.842 -15.469  -4.037  1.00  0.00    -0.507 OA
ATOM     25  H   UNL     1      -3.465 -14.837  -3.560  1.00  0.00     0.293 HD
ENDBRANCH   6  24
BRANCH   8  26
ATOM     26  O   UNL     1      -2.713 -20.125  -2.875  1.00  0.00    -0.508 OA
ATOM     27  H   UNL     1      -1.736 -20.310  -2.680  1.00  0.00     0.293 HD
ENDBRANCH   8  26
TORSDOF 6
ENDMDL
MODEL 6
REMARK VINA RESULT:    -3.926     14.911     16.158
REMARK INTER + INTRA:          -4.176
REMARK INTER:                  -3.762
REMARK INTRA:                  -0.414
REMARK UNBOUND:                 0.554
REMARK SMILES O=c1c(O)c(-c2ccc(O)cc2O)oc2cc(O)cc(O)c12
REMARK SMILES IDX 5 1 3 2 2 3 1 4 22 5 20 6 19 7 17 8 16 9 15 10 14 11 6 12
REMARK SMILES IDX 8 13 7 14 9 15 11 16 12 17 10 18 13 20 4 22 21 24 18 26
REMARK H PARENT 10 19 13 21 4 23 21 25 18 27
REMARK Flexibility Score: inf
ROOT
ATOM      1  C   UNL     1      -7.042  -1.099  -8.115  1.00  0.00     0.184 A 
ATOM      2  C   UNL     1      -7.822  -0.631  -7.046  1.00  0.00     0.208 A 
ATOM      3  C   UNL     1      -7.278  -0.640  -5.753  1.00  0.00     0.238 A 
ATOM      4  O   UNL     1      -7.955  -0.151  -4.811  1.00  0.00    -0.285 OA
ATOM      5  C   UNL     1      -5.982  -1.168  -5.536  1.00  0.00     0.111 A 
ATOM      6  C   UNL     1      -5.347  -1.267  -4.261  1.00  0.00     0.134 A 
ATOM      7  C   UNL     1      -4.020  -1.710  -4.183  1.00  0.00     0.093 A 
ATOM      8  C   UNL     1      -3.326  -2.116  -5.325  1.00  0.00     0.123 A 
ATOM      9  C   UNL     1      -3.955  -2.075  -6.567  1.00  0.00     0.094 A 
ATOM     10  C   UNL     1      -5.265  -1.603  -6.683  1.00  0.00     0.146 A 
ATOM     11  O   UNL     1      -5.818  -1.560  -7.890  1.00  0.00    -0.451 OA
ENDROOT
BRANCH   1  12
ATOM     12  C   UNL     1      -7.551  -1.110  -9.503  1.00  0.00     0.063 A 
ATOM     13  C   UNL     1      -8.105   0.125 -11.521  1.00  0.00     0.047 A 
ATOM     14  C   UNL     1      -7.623   0.099 -10.211  1.00  0.00     0.020 A 
ATOM     15  C   UNL     1      -8.532  -1.055 -12.138  1.00  0.00     0.119 A 
ATOM     16  C   UNL     1      -8.484  -2.263 -11.432  1.00  0.00     0.093 A 
ATOM     17  C   UNL     1      -8.008  -2.297 -10.113  1.00  0.00     0.130 A 
BRANCH  15  18
ATOM     18  O   UNL     1      -9.005  -1.014 -13.446  1.00  0.00    -0.508 OA
ATOM     19  H   UNL     1      -9.061  -1.851 -14.015  1.00  0.00     0.293 HD
ENDBRANCH  15  18
BRANCH  17  20
ATOM     20  O   UNL     1      -8.011  -3.498  -9.403  1.00  0.00    -0.507 OA
ATOM     21  H   UNL     1      -8.815  -3.791  -8.858  1.00  0.00     0.293 HD
ENDBRANCH  17  20
ENDBRANCH   1  12
BRANCH   2  22
ATOM     22  O   UNL     1      -9.125  -0.182  -7.277  1.00  0.00    -0.502 OA
ATOM     23  H   UNL     1      -9.596   0.461  -6.650  1.00  0.00     0.293 HD
ENDBRANCH   2  22
BRANCH   6  24
ATOM     24  O   UNL     1      -5.976  -0.972  -3.048  1.00  0.00    -0.507 OA
ATOM     25  H   UNL     1      -6.733  -1.503  -2.646  1.00  0.00     0.293 HD
ENDBRANCH   6  24
BRANCH   8  26
ATOM     26  O   UNL     1      -2.013  -2.571  -5.235  1.00  0.00    -0.508 OA
ATOM     27  H   UNL     1      -1.266  -1.971  -4.906  1.00  0.00     0.293 HD
ENDBRANCH   8  26
TORSDOF 6
ENDMDL
