MODEL 1
REMARK VINA RESULT:    -4.011      0.000      0.000
REMARK INTER + INTRA:          -7.942
REMARK INTER:                  -7.293
REMARK INTRA:                  -0.649
REMARK UNBOUND:                -0.649
REMARK SMILES CCCCCCCCCCCCCC[C@@H](C)C(=O)[O-]
REMARK SMILES IDX 9 1 10 2 11 3 12 4 13 5 14 6 15 7 16 8 17 9 18 10 19 11 8 12
REMARK SMILES IDX 7 13 6 14 5 15 4 16 3 17 2 18 1 19
REMARK H PARENT
REMARK Flexibility Score: inf
ROOT
ATOM      1  C   UNL     1     -32.378 -22.268 -34.625  1.00  0.00     0.000 C 
ENDROOT
BRANCH   1   2
ATOM      2  C   UNL     1     -31.583 -20.974 -34.393  1.00  0.00     0.000 C 
BRANCH   2   3
ATOM      3  C   UNL     1     -30.181 -21.235 -33.820  1.00  0.00     0.000 C 
BRANCH   3   4
ATOM      4  C   UNL     1     -29.375 -19.933 -33.728  1.00  0.00     0.000 C 
BRANCH   4   5
ATOM      5  C   UNL     1     -30.057 -18.926 -32.788  1.00  0.00     0.001 C 
BRANCH   5   6
ATOM      6  C   UNL     1     -29.940 -19.338 -31.305  1.00  0.00     0.009 C 
BRANCH   6   7
ATOM      7  C   UNL     1     -31.097 -20.242 -30.820  1.00  0.00     0.032 C 
ATOM      8  C   UNL     1     -30.661 -21.218 -29.721  1.00  0.00     0.014 C 
BRANCH   7   9
ATOM      9  C   UNL     1     -32.237 -19.392 -30.326  1.00  0.00     0.044 C 
ATOM     10  O   UNL     1     -33.051 -18.879 -31.139  1.00  0.00    -0.550 OA
ATOM     11  O   UNL     1     -32.400 -19.175 -28.964  1.00  0.00    -0.550 OA
ENDBRANCH   7   9
ENDBRANCH   6   7
ENDBRANCH   5   6
ENDBRANCH   4   5
ENDBRANCH   3   4
ENDBRANCH   2   3
ENDBRANCH   1   2
BRANCH   1  12
ATOM     12  C   UNL     1     -32.886 -22.402 -36.071  1.00  0.00     0.000 C 
BRANCH  12  13
ATOM     13  C   UNL     1     -31.765 -22.168 -37.106  1.00  0.00    -0.000 C 
BRANCH  13  14
ATOM     14  C   UNL     1     -32.175 -22.519 -38.547  1.00  0.00    -0.000 C 
BRANCH  14  15
ATOM     15  C   UNL     1     -31.571 -23.848 -39.032  1.00  0.00    -0.000 C 
BRANCH  15  16
ATOM     16  C   UNL     1     -32.072 -25.054 -38.224  1.00  0.00    -0.000 C 
BRANCH  16  17
ATOM     17  C   UNL     1     -32.705 -26.137 -39.109  1.00  0.00    -0.000 C 
BRANCH  17  18
ATOM     18  C   UNL     1     -33.009 -27.402 -38.297  1.00  0.00    -0.003 C 
ATOM     19  C   UNL     1     -33.814 -28.405 -39.118  1.00  0.00     0.004 C 
ENDBRANCH  17  18
ENDBRANCH  16  17
ENDBRANCH  15  16
ENDBRANCH  14  15
ENDBRANCH  13  14
ENDBRANCH  12  13
ENDBRANCH   1  12
TORSDOF 14
ENDMDL
MODEL 2
REMARK VINA RESULT:    -3.924      1.249      2.077
REMARK INTER + INTRA:          -7.784
REMARK INTER:                  -6.692
REMARK INTRA:                  -1.092
REMARK UNBOUND:                -0.649
REMARK SMILES CCCCCCCCCCCCCC[C@@H](C)C(=O)[O-]
REMARK SMILES IDX 9 1 10 2 11 3 12 4 13 5 14 6 15 7 16 8 17 9 18 10 19 11 8 12
REMARK SMILES IDX 7 13 6 14 5 15 4 16 3 17 2 18 1 19
REMARK H PARENT
REMARK Flexibility Score: inf
ROOT
ATOM      1  C   UNL     1     -31.619 -21.864 -33.806  1.00  0.00     0.000 C 
ENDROOT
BRANCH   1   2
ATOM      2  C   UNL     1     -30.962 -20.477 -33.886  1.00  0.00     0.000 C 
BRANCH   2   3
ATOM      3  C   UNL     1     -29.508 -20.481 -33.389  1.00  0.00     0.000 C 
BRANCH   3   4
ATOM      4  C   UNL     1     -29.109 -19.101 -32.851  1.00  0.00     0.000 C 
BRANCH   4   5
ATOM      5  C   UNL     1     -28.578 -19.202 -31.412  1.00  0.00     0.001 C 
BRANCH   5   6
ATOM      6  C   UNL     1     -29.682 -18.951 -30.363  1.00  0.00     0.009 C 
BRANCH   6   7
ATOM      7  C   UNL     1     -30.830 -19.985 -30.411  1.00  0.00     0.032 C 
ATOM      8  C   UNL     1     -30.638 -21.124 -29.401  1.00  0.00     0.014 C 
BRANCH   7   9
ATOM      9  C   UNL     1     -32.147 -19.300 -30.165  1.00  0.00     0.044 C 
ATOM     10  O   UNL     1     -32.838 -18.878 -31.130  1.00  0.00    -0.550 OA
ATOM     11  O   UNL     1     -32.611 -19.135 -28.866  1.00  0.00    -0.550 OA
ENDBRANCH   7   9
ENDBRANCH   6   7
ENDBRANCH   5   6
ENDBRANCH   4   5
ENDBRANCH   3   4
ENDBRANCH   2   3
ENDBRANCH   1   2
BRANCH   1  12
ATOM     12  C   UNL     1     -32.594 -22.127 -34.967  1.00  0.00     0.000 C 
BRANCH  12  13
ATOM     13  C   UNL     1     -33.399 -20.867 -35.349  1.00  0.00    -0.000 C 
BRANCH  13  14
ATOM     14  C   UNL     1     -33.727 -20.777 -36.849  1.00  0.00    -0.000 C 
BRANCH  14  15
ATOM     15  C   UNL     1     -33.730 -22.149 -37.542  1.00  0.00    -0.000 C 
BRANCH  15  16
ATOM     16  C   UNL     1     -33.017 -22.126 -38.903  1.00  0.00    -0.000 C 
BRANCH  16  17
ATOM     17  C   UNL     1     -31.807 -23.070 -38.953  1.00  0.00    -0.000 C 
BRANCH  17  18
ATOM     18  C   UNL     1     -31.884 -24.120 -37.837  1.00  0.00    -0.003 C 
ATOM     19  C   UNL     1     -32.098 -25.518 -38.409  1.00  0.00     0.004 C 
ENDBRANCH  17  18
ENDBRANCH  16  17
ENDBRANCH  15  16
ENDBRANCH  14  15
ENDBRANCH  13  14
ENDBRANCH  12  13
ENDBRANCH   1  12
TORSDOF 14
ENDMDL
MODEL 3
REMARK VINA RESULT:    -3.771      1.942      2.928
REMARK INTER + INTRA:          -7.507
REMARK INTER:                  -6.725
REMARK INTRA:                  -0.781
REMARK UNBOUND:                -0.649
REMARK SMILES CCCCCCCCCCCCCC[C@@H](C)C(=O)[O-]
REMARK SMILES IDX 9 1 10 2 11 3 12 4 13 5 14 6 15 7 16 8 17 9 18 10 19 11 8 12
REMARK SMILES IDX 7 13 6 14 5 15 4 16 3 17 2 18 1 19
REMARK H PARENT
REMARK Flexibility Score: inf
ROOT
ATOM      1  C   UNL     1     -31.174 -21.136 -33.606  1.00  0.00     0.000 C 
ENDROOT
BRANCH   1   2
ATOM      2  C   UNL     1     -29.803 -20.604 -34.050  1.00  0.00     0.000 C 
BRANCH   2   3
ATOM      3  C   UNL     1     -29.547 -19.162 -33.583  1.00  0.00     0.000 C 
BRANCH   3   4
ATOM      4  C   UNL     1     -28.368 -19.104 -32.603  1.00  0.00     0.000 C 
BRANCH   4   5
ATOM      5  C   UNL     1     -28.853 -19.210 -31.149  1.00  0.00     0.001 C 
BRANCH   5   6
ATOM      6  C   UNL     1     -30.353 -18.875 -31.006  1.00  0.00     0.009 C 
BRANCH   6   7
ATOM      7  C   UNL     1     -31.004 -19.476 -29.739  1.00  0.00     0.032 C 
ATOM      8  C   UNL     1     -32.505 -19.171 -29.647  1.00  0.00     0.014 C 
BRANCH   7   9
ATOM      9  C   UNL     1     -30.782 -20.964 -29.707  1.00  0.00     0.044 C 
ATOM     10  O   UNL     1     -30.259 -21.511 -28.700  1.00  0.00    -0.550 OA
ATOM     11  O   UNL     1     -31.161 -21.746 -30.791  1.00  0.00    -0.550 OA
ENDBRANCH   7   9
ENDBRANCH   6   7
ENDBRANCH   5   6
ENDBRANCH   4   5
ENDBRANCH   3   4
ENDBRANCH   2   3
ENDBRANCH   1   2
BRANCH   1  12
ATOM     12  C   UNL     1     -31.884 -21.942 -34.709  1.00  0.00     0.000 C 
BRANCH  12  13
ATOM     13  C   UNL     1     -33.153 -21.231 -35.224  1.00  0.00    -0.000 C 
BRANCH  13  14
ATOM     14  C   UNL     1     -33.724 -21.850 -36.512  1.00  0.00    -0.000 C 
BRANCH  14  15
ATOM     15  C   UNL     1     -33.651 -20.895 -37.715  1.00  0.00    -0.000 C 
BRANCH  15  16
ATOM     16  C   UNL     1     -33.287 -21.617 -39.021  1.00  0.00    -0.000 C 
BRANCH  16  17
ATOM     17  C   UNL     1     -31.907 -22.287 -38.962  1.00  0.00    -0.000 C 
BRANCH  17  18
ATOM     18  C   UNL     1     -32.028 -23.807 -39.125  1.00  0.00    -0.003 C 
ATOM     19  C   UNL     1     -31.566 -24.535 -37.866  1.00  0.00     0.004 C 
ENDBRANCH  17  18
ENDBRANCH  16  17
ENDBRANCH  15  16
ENDBRANCH  14  15
ENDBRANCH  13  14
ENDBRANCH  12  13
ENDBRANCH   1  12
TORSDOF 14
ENDMDL
MODEL 4
REMARK VINA RESULT:    -3.366      1.426      1.993
REMARK INTER + INTRA:          -6.770
REMARK INTER:                  -5.664
REMARK INTRA:                  -1.106
REMARK UNBOUND:                -0.649
REMARK SMILES CCCCCCCCCCCCCC[C@@H](C)C(=O)[O-]
REMARK SMILES IDX 9 1 10 2 11 3 12 4 13 5 14 6 15 7 16 8 17 9 18 10 19 11 8 12
REMARK SMILES IDX 7 13 6 14 5 15 4 16 3 17 2 18 1 19
REMARK H PARENT
REMARK Flexibility Score: inf
ROOT
ATOM      1  C   UNL     1     -31.664 -21.157 -33.967  1.00  0.00     0.000 C 
ENDROOT
BRANCH   1   2
ATOM      2  C   UNL     1     -30.222 -20.885 -34.422  1.00  0.00     0.000 C 
BRANCH   2   3
ATOM      3  C   UNL     1     -29.243 -20.761 -33.243  1.00  0.00     0.000 C 
BRANCH   3   4
ATOM      4  C   UNL     1     -28.940 -19.290 -32.935  1.00  0.00     0.000 C 
BRANCH   4   5
ATOM      5  C   UNL     1     -29.200 -18.971 -31.454  1.00  0.00     0.001 C 
BRANCH   5   6
ATOM      6  C   UNL     1     -30.708 -18.875 -31.133  1.00  0.00     0.009 C 
BRANCH   6   7
ATOM      7  C   UNL     1     -31.090 -19.489 -29.767  1.00  0.00     0.032 C 
ATOM      8  C   UNL     1     -32.577 -19.313 -29.437  1.00  0.00     0.014 C 
BRANCH   7   9
ATOM      9  C   UNL     1     -30.731 -20.951 -29.745  1.00  0.00     0.044 C 
ATOM     10  O   UNL     1     -30.055 -21.429 -28.796  1.00  0.00    -0.550 OA
ATOM     11  O   UNL     1     -31.154 -21.784 -30.773  1.00  0.00    -0.550 OA
ENDBRANCH   7   9
ENDBRANCH   6   7
ENDBRANCH   5   6
ENDBRANCH   4   5
ENDBRANCH   3   4
ENDBRANCH   2   3
ENDBRANCH   1   2
BRANCH   1  12
ATOM     12  C   UNL     1     -32.300 -22.354 -34.695  1.00  0.00     0.000 C 
BRANCH  12  13
ATOM     13  C   UNL     1     -33.053 -21.926 -35.973  1.00  0.00    -0.000 C 
BRANCH  13  14
ATOM     14  C   UNL     1     -32.751 -22.815 -37.192  1.00  0.00    -0.000 C 
BRANCH  14  15
ATOM     15  C   UNL     1     -31.409 -23.557 -37.072  1.00  0.00    -0.000 C 
BRANCH  15  16
ATOM     16  C   UNL     1     -31.439 -24.942 -37.734  1.00  0.00    -0.000 C 
BRANCH  16  17
ATOM     17  C   UNL     1     -32.235 -24.954 -39.047  1.00  0.00    -0.000 C 
BRANCH  17  18
ATOM     18  C   UNL     1     -33.266 -26.089 -39.053  1.00  0.00    -0.003 C 
ATOM     19  C   UNL     1     -32.646 -27.400 -38.580  1.00  0.00     0.004 C 
ENDBRANCH  17  18
ENDBRANCH  16  17
ENDBRANCH  15  16
ENDBRANCH  14  15
ENDBRANCH  13  14
ENDBRANCH  12  13
ENDBRANCH   1  12
TORSDOF 14
ENDMDL
MODEL 5
REMARK VINA RESULT:    -3.127      3.298      8.107
REMARK INTER + INTRA:          -6.335
REMARK INTER:                  -4.964
REMARK INTRA:                  -1.371
REMARK UNBOUND:                -0.649
REMARK SMILES CCCCCCCCCCCCCC[C@@H](C)C(=O)[O-]
REMARK SMILES IDX 9 1 10 2 11 3 12 4 13 5 14 6 15 7 16 8 17 9 18 10 19 11 8 12
REMARK SMILES IDX 7 13 6 14 5 15 4 16 3 17 2 18 1 19
REMARK H PARENT
REMARK Flexibility Score: inf
ROOT
ATOM      1  C   UNL     1     -29.824 -20.387 -34.299  1.00  0.00     0.000 C 
ENDROOT
BRANCH   1   2
ATOM      2  C   UNL     1     -31.158 -20.716 -33.611  1.00  0.00     0.000 C 
BRANCH   2   3
ATOM      3  C   UNL     1     -31.910 -21.866 -34.298  1.00  0.00     0.000 C 
BRANCH   3   4
ATOM      4  C   UNL     1     -33.271 -21.393 -34.827  1.00  0.00     0.000 C 
BRANCH   4   5
ATOM      5  C   UNL     1     -33.205 -21.097 -36.333  1.00  0.00     0.001 C 
BRANCH   5   6
ATOM      6  C   UNL     1     -33.745 -22.267 -37.183  1.00  0.00     0.009 C 
BRANCH   6   7
ATOM      7  C   UNL     1     -32.788 -22.703 -38.316  1.00  0.00     0.032 C 
ATOM      8  C   UNL     1     -31.960 -21.536 -38.869  1.00  0.00     0.014 C 
BRANCH   7   9
ATOM      9  C   UNL     1     -31.873 -23.791 -37.822  1.00  0.00     0.044 C 
ATOM     10  O   UNL     1     -31.133 -23.599 -36.821  1.00  0.00    -0.550 OA
ATOM     11  O   UNL     1     -31.846 -25.020 -38.469  1.00  0.00    -0.550 OA
ENDBRANCH   7   9
ENDBRANCH   6   7
ENDBRANCH   5   6
ENDBRANCH   4   5
ENDBRANCH   3   4
ENDBRANCH   2   3
ENDBRANCH   1   2
BRANCH   1  12
ATOM     12  C   UNL     1     -29.014 -19.318 -33.544  1.00  0.00     0.000 C 
BRANCH  12  13
ATOM     13  C   UNL     1     -28.311 -19.894 -32.296  1.00  0.00    -0.000 C 
BRANCH  13  14
ATOM     14  C   UNL     1     -28.155 -18.876 -31.153  1.00  0.00    -0.000 C 
BRANCH  14  15
ATOM     15  C   UNL     1     -29.175 -19.087 -30.023  1.00  0.00    -0.000 C 
BRANCH  15  16
ATOM     16  C   UNL     1     -30.624 -18.875 -30.487  1.00  0.00    -0.000 C 
BRANCH  16  17
ATOM     17  C   UNL     1     -31.553 -20.025 -30.070  1.00  0.00    -0.000 C 
BRANCH  17  18
ATOM     18  C   UNL     1     -30.745 -21.241 -29.603  1.00  0.00    -0.003 C 
ATOM     19  C   UNL     1     -30.906 -22.413 -30.566  1.00  0.00     0.004 C 
ENDBRANCH  17  18
ENDBRANCH  16  17
ENDBRANCH  15  16
ENDBRANCH  14  15
ENDBRANCH  13  14
ENDBRANCH  12  13
ENDBRANCH   1  12
TORSDOF 14
ENDMDL
MODEL 6
REMARK VINA RESULT:    -2.923      3.716      8.535
REMARK INTER + INTRA:          -5.964
REMARK INTER:                  -6.271
REMARK INTRA:                   0.307
REMARK UNBOUND:                -0.649
REMARK SMILES CCCCCCCCCCCCCC[C@@H](C)C(=O)[O-]
REMARK SMILES IDX 9 1 10 2 11 3 12 4 13 5 14 6 15 7 16 8 17 9 18 10 19 11 8 12
REMARK SMILES IDX 7 13 6 14 5 15 4 16 3 17 2 18 1 19
REMARK H PARENT
REMARK Flexibility Score: inf
ROOT
ATOM      1  C   UNL     1     -29.345 -20.716 -33.388  1.00  0.00     0.000 C 
ENDROOT
BRANCH   1   2
ATOM      2  C   UNL     1     -30.848 -20.976 -33.573  1.00  0.00     0.000 C 
BRANCH   2   3
ATOM      3  C   UNL     1     -31.160 -21.761 -34.857  1.00  0.00     0.000 C 
BRANCH   3   4
ATOM      4  C   UNL     1     -32.513 -22.474 -34.748  1.00  0.00     0.000 C 
BRANCH   4   5
ATOM      5  C   UNL     1     -32.930 -23.076 -36.099  1.00  0.00     0.001 C 
BRANCH   5   6
ATOM      6  C   UNL     1     -33.866 -22.140 -36.893  1.00  0.00     0.009 C 
BRANCH   6   7
ATOM      7  C   UNL     1     -33.598 -22.142 -38.416  1.00  0.00     0.032 C 
ATOM      8  C   UNL     1     -33.992 -20.819 -39.085  1.00  0.00     0.014 C 
BRANCH   7   9
ATOM      9  C   UNL     1     -32.146 -22.437 -38.680  1.00  0.00     0.044 C 
ATOM     10  O   UNL     1     -31.278 -21.532 -38.561  1.00  0.00    -0.550 OA
ATOM     11  O   UNL     1     -31.755 -23.717 -39.050  1.00  0.00    -0.550 OA
ENDBRANCH   7   9
ENDBRANCH   6   7
ENDBRANCH   5   6
ENDBRANCH   4   5
ENDBRANCH   3   4
ENDBRANCH   2   3
ENDBRANCH   1   2
BRANCH   1  12
ATOM     12  C   UNL     1     -29.044 -19.285 -32.910  1.00  0.00     0.000 C 
BRANCH  12  13
ATOM     13  C   UNL     1     -28.088 -19.264 -31.698  1.00  0.00    -0.000 C 
BRANCH  13  14
ATOM     14  C   UNL     1     -28.792 -19.523 -30.355  1.00  0.00    -0.000 C 
BRANCH  14  15
ATOM     15  C   UNL     1     -30.186 -18.877 -30.278  1.00  0.00    -0.000 C 
BRANCH  15  16
ATOM     16  C   UNL     1     -31.280 -19.756 -30.901  1.00  0.00    -0.000 C 
BRANCH  16  17
ATOM     17  C   UNL     1     -32.694 -19.230 -30.619  1.00  0.00    -0.000 C 
BRANCH  17  18
ATOM     18  C   UNL     1     -32.864 -18.879 -29.136  1.00  0.00    -0.003 C 
ATOM     19  C   UNL     1     -34.109 -19.539 -28.552  1.00  0.00     0.004 C 
ENDBRANCH  17  18
ENDBRANCH  16  17
ENDBRANCH  15  16
ENDBRANCH  14  15
ENDBRANCH  13  14
ENDBRANCH  12  13
ENDBRANCH   1  12
TORSDOF 14
ENDMDL
MODEL 7
REMARK VINA RESULT:    -2.770      3.423      8.073
REMARK INTER + INTRA:          -5.686
REMARK INTER:                  -4.212
REMARK INTRA:                  -1.475
REMARK UNBOUND:                -0.649
REMARK SMILES CCCCCCCCCCCCCC[C@@H](C)C(=O)[O-]
REMARK SMILES IDX 9 1 10 2 11 3 12 4 13 5 14 6 15 7 16 8 17 9 18 10 19 11 8 12
REMARK SMILES IDX 7 13 6 14 5 15 4 16 3 17 2 18 1 19
REMARK H PARENT
REMARK Flexibility Score: inf
ROOT
ATOM      1  C   UNL     1     -31.360 -21.233 -33.975  1.00  0.00     0.000 C 
ENDROOT
BRANCH   1   2
ATOM      2  C   UNL     1     -31.817 -22.158 -35.113  1.00  0.00     0.000 C 
BRANCH   2   3
ATOM      3  C   UNL     1     -33.344 -22.324 -35.165  1.00  0.00     0.000 C 
BRANCH   3   4
ATOM      4  C   UNL     1     -33.999 -21.150 -35.904  1.00  0.00     0.000 C 
BRANCH   4   5
ATOM      5  C   UNL     1     -33.348 -20.930 -37.278  1.00  0.00     0.001 C 
BRANCH   5   6
ATOM      6  C   UNL     1     -33.679 -22.066 -38.270  1.00  0.00     0.009 C 
BRANCH   6   7
ATOM      7  C   UNL     1     -32.451 -22.580 -39.056  1.00  0.00     0.032 C 
ATOM      8  C   UNL     1     -31.268 -21.605 -39.004  1.00  0.00     0.014 C 
BRANCH   7   9
ATOM      9  C   UNL     1     -32.030 -23.923 -38.525  1.00  0.00     0.044 C 
ATOM     10  O   UNL     1     -32.522 -24.982 -38.998  1.00  0.00    -0.550 OA
ATOM     11  O   UNL     1     -31.085 -24.002 -37.509  1.00  0.00    -0.550 OA
ENDBRANCH   7   9
ENDBRANCH   6   7
ENDBRANCH   5   6
ENDBRANCH   4   5
ENDBRANCH   3   4
ENDBRANCH   2   3
ENDBRANCH   1   2
BRANCH   1  12
ATOM     12  C   UNL     1     -29.842 -20.985 -33.984  1.00  0.00     0.000 C 
BRANCH  12  13
ATOM     13  C   UNL     1     -29.485 -19.538 -33.584  1.00  0.00    -0.000 C 
BRANCH  13  14
ATOM     14  C   UNL     1     -30.521 -18.883 -32.654  1.00  0.00    -0.000 C 
BRANCH  14  15
ATOM     15  C   UNL     1     -30.081 -18.879 -31.181  1.00  0.00    -0.000 C 
BRANCH  15  16
ATOM     16  C   UNL     1     -31.271 -18.877 -30.209  1.00  0.00    -0.000 C 
BRANCH  16  17
ATOM     17  C   UNL     1     -31.770 -20.291 -29.882  1.00  0.00    -0.000 C 
BRANCH  17  18
ATOM     18  C   UNL     1     -30.595 -21.245 -29.637  1.00  0.00    -0.003 C 
ATOM     19  C   UNL     1     -30.804 -22.575 -30.354  1.00  0.00     0.004 C 
ENDBRANCH  17  18
ENDBRANCH  16  17
ENDBRANCH  15  16
ENDBRANCH  14  15
ENDBRANCH  13  14
ENDBRANCH  12  13
ENDBRANCH   1  12
TORSDOF 14
ENDMDL
MODEL 8
REMARK VINA RESULT:    -2.714      3.673      7.751
REMARK INTER + INTRA:          -5.583
REMARK INTER:                  -4.109
REMARK INTRA:                  -1.474
REMARK UNBOUND:                -0.649
REMARK SMILES CCCCCCCCCCCCCC[C@@H](C)C(=O)[O-]
REMARK SMILES IDX 9 1 10 2 11 3 12 4 13 5 14 6 15 7 16 8 17 9 18 10 19 11 8 12
REMARK SMILES IDX 7 13 6 14 5 15 4 16 3 17 2 18 1 19
REMARK H PARENT
REMARK Flexibility Score: inf
ROOT
ATOM      1  C   UNL     1     -29.390 -20.600 -33.420  1.00  0.00     0.000 C 
ENDROOT
BRANCH   1   2
ATOM      2  C   UNL     1     -30.513 -20.910 -34.422  1.00  0.00     0.000 C 
BRANCH   2   3
ATOM      3  C   UNL     1     -31.902 -20.938 -33.765  1.00  0.00     0.000 C 
BRANCH   3   4
ATOM      4  C   UNL     1     -32.810 -19.852 -34.356  1.00  0.00     0.000 C 
BRANCH   4   5
ATOM      5  C   UNL     1     -33.847 -20.459 -35.313  1.00  0.00     0.001 C 
BRANCH   5   6
ATOM      6  C   UNL     1     -33.410 -21.839 -35.850  1.00  0.00     0.009 C 
BRANCH   6   7
ATOM      7  C   UNL     1     -33.530 -21.972 -37.386  1.00  0.00     0.032 C 
ATOM      8  C   UNL     1     -33.787 -20.627 -38.076  1.00  0.00     0.014 C 
BRANCH   7   9
ATOM      9  C   UNL     1     -32.282 -22.603 -37.944  1.00  0.00     0.044 C 
ATOM     10  O   UNL     1     -31.907 -23.738 -37.547  1.00  0.00    -0.550 OA
ATOM     11  O   UNL     1     -31.539 -21.934 -38.909  1.00  0.00    -0.550 OA
ENDBRANCH   7   9
ENDBRANCH   6   7
ENDBRANCH   5   6
ENDBRANCH   4   5
ENDBRANCH   3   4
ENDBRANCH   2   3
ENDBRANCH   1   2
BRANCH   1  12
ATOM     12  C   UNL     1     -29.437 -19.151 -32.905  1.00  0.00     0.000 C 
BRANCH  12  13
ATOM     13  C   UNL     1     -28.512 -18.935 -31.689  1.00  0.00    -0.000 C 
BRANCH  13  14
ATOM     14  C   UNL     1     -29.262 -18.877 -30.347  1.00  0.00    -0.000 C 
BRANCH  14  15
ATOM     15  C   UNL     1     -30.790 -18.898 -30.517  1.00  0.00    -0.000 C 
BRANCH  15  16
ATOM     16  C   UNL     1     -31.448 -20.085 -29.797  1.00  0.00    -0.000 C 
BRANCH  16  17
ATOM     17  C   UNL     1     -30.527 -21.311 -29.713  1.00  0.00    -0.000 C 
BRANCH  17  18
ATOM     18  C   UNL     1     -30.865 -22.328 -30.809  1.00  0.00    -0.003 C 
ATOM     19  C   UNL     1     -31.320 -23.655 -30.208  1.00  0.00     0.004 C 
ENDBRANCH  17  18
ENDBRANCH  16  17
ENDBRANCH  15  16
ENDBRANCH  14  15
ENDBRANCH  13  14
ENDBRANCH  12  13
ENDBRANCH   1  12
TORSDOF 14
ENDMDL
MODEL 9
REMARK VINA RESULT:    -2.522      1.860      2.512
REMARK INTER + INTRA:          -5.235
REMARK INTER:                  -4.816
REMARK INTRA:                  -0.419
REMARK UNBOUND:                -0.649
REMARK SMILES CCCCCCCCCCCCCC[C@@H](C)C(=O)[O-]
REMARK SMILES IDX 9 1 10 2 11 3 12 4 13 5 14 6 15 7 16 8 17 9 18 10 19 11 8 12
REMARK SMILES IDX 7 13 6 14 5 15 4 16 3 17 2 18 1 19
REMARK H PARENT
REMARK Flexibility Score: inf
ROOT
ATOM      1  C   UNL     1     -32.832 -21.263 -35.237  1.00  0.00     0.000 C 
ENDROOT
BRANCH   1   2
ATOM      2  C   UNL     1     -34.052 -20.369 -34.969  1.00  0.00     0.000 C 
BRANCH   2   3
ATOM      3  C   UNL     1     -33.663 -18.976 -34.450  1.00  0.00     0.000 C 
BRANCH   3   4
ATOM      4  C   UNL     1     -33.563 -18.969 -32.920  1.00  0.00     0.000 C 
BRANCH   4   5
ATOM      5  C   UNL     1     -32.099 -18.877 -32.463  1.00  0.00     0.001 C 
BRANCH   5   6
ATOM      6  C   UNL     1     -31.475 -20.267 -32.216  1.00  0.00     0.009 C 
BRANCH   6   7
ATOM      7  C   UNL     1     -29.940 -20.234 -32.033  1.00  0.00     0.032 C 
ATOM      8  C   UNL     1     -29.215 -19.650 -33.252  1.00  0.00     0.014 C 
BRANCH   7   9
ATOM      9  C   UNL     1     -29.589 -19.444 -30.802  1.00  0.00     0.044 C 
ATOM     10  O   UNL     1     -30.478 -19.130 -29.968  1.00  0.00    -0.550 OA
ATOM     11  O   UNL     1     -28.272 -19.062 -30.575  1.00  0.00    -0.550 OA
ENDBRANCH   7   9
ENDBRANCH   6   7
ENDBRANCH   5   6
ENDBRANCH   4   5
ENDBRANCH   3   4
ENDBRANCH   2   3
ENDBRANCH   1   2
BRANCH   1  12
ATOM     12  C   UNL     1     -32.983 -22.108 -36.514  1.00  0.00     0.000 C 
BRANCH  12  13
ATOM     13  C   UNL     1     -32.345 -23.505 -36.367  1.00  0.00    -0.000 C 
BRANCH  13  14
ATOM     14  C   UNL     1     -31.268 -23.804 -37.424  1.00  0.00    -0.000 C 
BRANCH  14  15
ATOM     15  C   UNL     1     -31.813 -24.598 -38.623  1.00  0.00    -0.000 C 
BRANCH  15  16
ATOM     16  C   UNL     1     -32.970 -25.532 -38.236  1.00  0.00    -0.000 C 
BRANCH  16  17
ATOM     17  C   UNL     1     -32.751 -26.975 -38.712  1.00  0.00    -0.000 C 
BRANCH  17  18
ATOM     18  C   UNL     1     -34.076 -27.745 -38.759  1.00  0.00    -0.003 C 
ATOM     19  C   UNL     1     -33.837 -29.248 -38.859  1.00  0.00     0.004 C 
ENDBRANCH  17  18
ENDBRANCH  16  17
ENDBRANCH  15  16
ENDBRANCH  14  15
ENDBRANCH  13  14
ENDBRANCH  12  13
ENDBRANCH   1  12
TORSDOF 14
ENDMDL
