MODEL 1
REMARK VINA RESULT:    -6.511      0.000      0.000
REMARK INTER + INTRA:          -7.918
REMARK INTER:                  -7.653
REMARK INTRA:                  -0.265
REMARK UNBOUND:                -0.265
REMARK SMILES O=c1c(O)c(-c2ccc(O)cc2)oc2cc(O)cc(O)c12
REMARK SMILES IDX 5 1 3 2 2 3 1 4 21 5 19 6 18 7 16 8 15 9 14 10 13 11 6 12
REMARK SMILES IDX 7 13 8 14 9 15 12 16 11 17 10 18 4 20 20 22 17 24
REMARK H PARENT 10 19 4 21 20 23 17 25
REMARK Flexibility Score: inf
ROOT
ATOM      1  C   UNL     1     121.696 124.481 139.805  1.00  0.00     0.180 A 
ATOM      2  C   UNL     1     120.654 125.067 140.549  1.00  0.00     0.208 A 
ATOM      3  C   UNL     1     120.341 124.537 141.811  1.00  0.00     0.238 A 
ATOM      4  O   UNL     1     119.417 125.059 142.492  1.00  0.00    -0.285 OA
ATOM      5  C   UNL     1     121.057 123.424 142.297  1.00  0.00     0.111 A 
ATOM      6  C   UNL     1     120.801 122.827 143.555  1.00  0.00     0.134 A 
ATOM      7  C   UNL     1     121.553 121.715 143.963  1.00  0.00     0.093 A 
ATOM      8  C   UNL     1     122.552 121.188 143.136  1.00  0.00     0.123 A 
ATOM      9  C   UNL     1     122.808 121.774 141.896  1.00  0.00     0.094 A 
ATOM     10  C   UNL     1     122.071 122.884 141.472  1.00  0.00     0.146 A 
ATOM     11  O   UNL     1     122.340 123.423 140.288  1.00  0.00    -0.452 OA
ENDROOT
BRANCH   1  12
ATOM     12  C   UNL     1     122.097 124.995 138.475  1.00  0.00     0.021 A 
ATOM     13  C   UNL     1     123.233 125.811 138.316  1.00  0.00     0.016 A 
ATOM     14  C   UNL     1     123.605 126.263 137.047  1.00  0.00     0.047 A 
ATOM     15  C   UNL     1     122.861 125.898 135.921  1.00  0.00     0.115 A 
ATOM     16  C   UNL     1     121.366 124.614 137.338  1.00  0.00     0.016 A 
ATOM     17  C   UNL     1     121.741 125.069 136.069  1.00  0.00     0.047 A 
BRANCH  15  18
ATOM     18  O   UNL     1     123.244 126.358 134.663  1.00  0.00    -0.508 OA
ATOM     19  H   UNL     1     122.704 127.059 134.169  1.00  0.00     0.293 HD
ENDBRANCH  15  18
ENDBRANCH   1  12
BRANCH   2  20
ATOM     20  O   UNL     1     119.926 126.138 140.025  1.00  0.00    -0.502 OA
ATOM     21  H   UNL     1     120.319 127.066 139.929  1.00  0.00     0.293 HD
ENDBRANCH   2  20
BRANCH   6  22
ATOM     22  O   UNL     1     119.811 123.329 144.400  1.00  0.00    -0.507 OA
ATOM     23  H   UNL     1     119.958 123.423 145.398  1.00  0.00     0.293 HD
ENDBRANCH   6  22
BRANCH   8  24
ATOM     24  O   UNL     1     123.299 120.083 143.541  1.00  0.00    -0.508 OA
ATOM     25  H   UNL     1     123.102 119.154 143.188  1.00  0.00     0.293 HD
ENDBRANCH   8  24
TORSDOF 5
ENDMDL
MODEL 2
REMARK VINA RESULT:    -6.418      2.333      6.354
REMARK INTER + INTRA:          -7.809
REMARK INTER:                  -7.546
REMARK INTRA:                  -0.263
REMARK UNBOUND:                -0.265
REMARK SMILES O=c1c(O)c(-c2ccc(O)cc2)oc2cc(O)cc(O)c12
REMARK SMILES IDX 5 1 3 2 2 3 1 4 21 5 19 6 18 7 16 8 15 9 14 10 13 11 6 12
REMARK SMILES IDX 7 13 8 14 9 15 12 16 11 17 10 18 4 20 20 22 17 24
REMARK H PARENT 10 19 4 21 20 23 17 25
REMARK Flexibility Score: inf
ROOT
ATOM      1  C   UNL     1     123.331 122.940 142.633  1.00  0.00     0.180 A 
ATOM      2  C   UNL     1     122.243 123.312 143.447  1.00  0.00     0.208 A 
ATOM      3  C   UNL     1     121.240 124.131 142.904  1.00  0.00     0.238 A 
ATOM      4  O   UNL     1     120.255 124.463 143.618  1.00  0.00    -0.285 OA
ATOM      5  C   UNL     1     121.349 124.578 141.571  1.00  0.00     0.111 A 
ATOM      6  C   UNL     1     120.385 125.408 140.950  1.00  0.00     0.134 A 
ATOM      7  C   UNL     1     120.572 125.818 139.621  1.00  0.00     0.093 A 
ATOM      8  C   UNL     1     121.705 125.414 138.904  1.00  0.00     0.123 A 
ATOM      9  C   UNL     1     122.657 124.595 139.512  1.00  0.00     0.094 A 
ATOM     10  C   UNL     1     122.488 124.175 140.834  1.00  0.00     0.146 A 
ATOM     11  O   UNL     1     123.409 123.393 141.386  1.00  0.00    -0.452 OA
ENDROOT
BRANCH   1  12
ATOM     12  C   UNL     1     124.418 122.064 143.128  1.00  0.00     0.021 A 
ATOM     13  C   UNL     1     125.462 122.570 143.924  1.00  0.00     0.016 A 
ATOM     14  C   UNL     1     126.464 121.717 144.399  1.00  0.00     0.047 A 
ATOM     15  C   UNL     1     126.430 120.353 144.098  1.00  0.00     0.115 A 
ATOM     16  C   UNL     1     124.378 120.688 142.847  1.00  0.00     0.016 A 
ATOM     17  C   UNL     1     125.382 119.839 143.323  1.00  0.00     0.047 A 
BRANCH  15  18
ATOM     18  O   UNL     1     127.436 119.517 144.577  1.00  0.00    -0.508 OA
ATOM     19  H   UNL     1     127.414 119.150 145.521  1.00  0.00     0.293 HD
ENDBRANCH  15  18
ENDBRANCH   1  12
BRANCH   2  20
ATOM     20  O   UNL     1     122.182 122.897 144.779  1.00  0.00    -0.502 OA
ATOM     21  H   UNL     1     121.348 122.488 145.183  1.00  0.00     0.293 HD
ENDBRANCH   2  20
BRANCH   6  22
ATOM     22  O   UNL     1     119.247 125.827 141.641  1.00  0.00    -0.507 OA
ATOM     23  H   UNL     1     119.045 126.809 141.791  1.00  0.00     0.293 HD
ENDBRANCH   6  22
BRANCH   8  24
ATOM     24  O   UNL     1     121.891 125.822 137.584  1.00  0.00    -0.508 OA
ATOM     25  H   UNL     1     121.302 126.530 137.161  1.00  0.00     0.293 HD
ENDBRANCH   8  24
TORSDOF 5
ENDMDL
MODEL 3
REMARK VINA RESULT:    -6.386     13.262     17.382
REMARK INTER + INTRA:          -7.771
REMARK INTER:                  -7.494
REMARK INTRA:                  -0.277
REMARK UNBOUND:                -0.265
REMARK SMILES O=c1c(O)c(-c2ccc(O)cc2)oc2cc(O)cc(O)c12
REMARK SMILES IDX 5 1 3 2 2 3 1 4 21 5 19 6 18 7 16 8 15 9 14 10 13 11 6 12
REMARK SMILES IDX 7 13 8 14 9 15 12 16 11 17 10 18 4 20 20 22 17 24
REMARK H PARENT 10 19 4 21 20 23 17 25
REMARK Flexibility Score: inf
ROOT
ATOM      1  C   UNL     1     132.709 133.046 132.838  1.00  0.00     0.180 A 
ATOM      2  C   UNL     1     134.065 133.101 132.463  1.00  0.00     0.208 A 
ATOM      3  C   UNL     1     134.814 134.241 132.792  1.00  0.00     0.238 A 
ATOM      4  O   UNL     1     136.032 134.298 132.472  1.00  0.00    -0.285 OA
ATOM      5  C   UNL     1     134.193 135.312 133.469  1.00  0.00     0.111 A 
ATOM      6  C   UNL     1     134.874 136.498 133.833  1.00  0.00     0.134 A 
ATOM      7  C   UNL     1     134.183 137.522 134.497  1.00  0.00     0.093 A 
ATOM      8  C   UNL     1     132.823 137.383 134.801  1.00  0.00     0.123 A 
ATOM      9  C   UNL     1     132.148 136.215 134.445  1.00  0.00     0.094 A 
ATOM     10  C   UNL     1     132.820 135.182 133.785  1.00  0.00     0.146 A 
ATOM     11  O   UNL     1     132.153 134.080 133.462  1.00  0.00    -0.452 OA
ENDROOT
BRANCH   1  12
ATOM     12  C   UNL     1     131.858 131.869 132.544  1.00  0.00     0.021 A 
ATOM     13  C   UNL     1     131.245 131.704 131.288  1.00  0.00     0.016 A 
ATOM     14  C   UNL     1     130.467 130.571 131.027  1.00  0.00     0.047 A 
ATOM     15  C   UNL     1     130.302 129.587 132.005  1.00  0.00     0.115 A 
ATOM     16  C   UNL     1     131.707 130.866 133.515  1.00  0.00     0.016 A 
ATOM     17  C   UNL     1     130.927 129.736 133.251  1.00  0.00     0.047 A 
BRANCH  15  18
ATOM     18  O   UNL     1     129.523 128.466 131.730  1.00  0.00    -0.508 OA
ATOM     19  H   UNL     1     129.275 127.803 132.455  1.00  0.00     0.293 HD
ENDBRANCH  15  18
ENDBRANCH   1  12
BRANCH   2  20
ATOM     20  O   UNL     1     134.644 132.048 131.751  1.00  0.00    -0.502 OA
ATOM     21  H   UNL     1     135.268 132.201 130.967  1.00  0.00     0.293 HD
ENDBRANCH   2  20
BRANCH   6  22
ATOM     22  O   UNL     1     136.229 136.666 133.541  1.00  0.00    -0.507 OA
ATOM     23  H   UNL     1     136.871 135.882 133.518  1.00  0.00     0.293 HD
ENDBRANCH   6  22
BRANCH   8  24
ATOM     24  O   UNL     1     132.136 138.400 135.460  1.00  0.00    -0.508 OA
ATOM     25  H   UNL     1     131.837 139.237 134.975  1.00  0.00     0.293 HD
ENDBRANCH   8  24
TORSDOF 5
ENDMDL
MODEL 4
REMARK VINA RESULT:    -6.178      3.497      5.152
REMARK INTER + INTRA:          -7.527
REMARK INTER:                  -7.244
REMARK INTRA:                  -0.283
REMARK UNBOUND:                -0.265
REMARK SMILES O=c1c(O)c(-c2ccc(O)cc2)oc2cc(O)cc(O)c12
REMARK SMILES IDX 5 1 3 2 2 3 1 4 21 5 19 6 18 7 16 8 15 9 14 10 13 11 6 12
REMARK SMILES IDX 7 13 8 14 9 15 12 16 11 17 10 18 4 20 20 22 17 24
REMARK H PARENT 10 19 4 21 20 23 17 25
REMARK Flexibility Score: inf
ROOT
ATOM      1  C   UNL     1     123.238 124.243 143.407  1.00  0.00     0.180 A 
ATOM      2  C   UNL     1     123.746 124.729 144.626  1.00  0.00     0.208 A 
ATOM      3  C   UNL     1     124.766 124.011 145.271  1.00  0.00     0.238 A 
ATOM      4  O   UNL     1     125.237 124.441 146.358  1.00  0.00    -0.285 OA
ATOM      5  C   UNL     1     125.243 122.813 144.699  1.00  0.00     0.111 A 
ATOM      6  C   UNL     1     126.264 122.028 145.286  1.00  0.00     0.134 A 
ATOM      7  C   UNL     1     126.678 120.843 144.659  1.00  0.00     0.093 A 
ATOM      8  C   UNL     1     126.089 120.429 143.458  1.00  0.00     0.123 A 
ATOM      9  C   UNL     1     125.083 121.201 142.875  1.00  0.00     0.094 A 
ATOM     10  C   UNL     1     124.658 122.385 143.484  1.00  0.00     0.146 A 
ATOM     11  O   UNL     1     123.702 123.102 142.905  1.00  0.00    -0.452 OA
ENDROOT
BRANCH   1  12
ATOM     12  C   UNL     1     122.176 124.954 142.657  1.00  0.00     0.021 A 
ATOM     13  C   UNL     1     122.474 126.047 141.823  1.00  0.00     0.016 A 
ATOM     14  C   UNL     1     121.458 126.687 141.107  1.00  0.00     0.047 A 
ATOM     15  C   UNL     1     120.137 126.238 141.203  1.00  0.00     0.115 A 
ATOM     16  C   UNL     1     120.851 124.494 142.733  1.00  0.00     0.016 A 
ATOM     17  C   UNL     1     119.836 125.137 142.016  1.00  0.00     0.047 A 
BRANCH  15  18
ATOM     18  O   UNL     1     119.135 126.886 140.485  1.00  0.00    -0.508 OA
ATOM     19  H   UNL     1     118.788 126.515 139.609  1.00  0.00     0.293 HD
ENDBRANCH  15  18
ENDBRANCH   1  12
BRANCH   2  20
ATOM     20  O   UNL     1     123.222 125.891 145.197  1.00  0.00    -0.502 OA
ATOM     21  H   UNL     1     122.368 126.322 144.864  1.00  0.00     0.293 HD
ENDBRANCH   2  20
BRANCH   6  22
ATOM     22  O   UNL     1     126.869 122.414 146.483  1.00  0.00    -0.507 OA
ATOM     23  H   UNL     1     127.399 121.761 147.048  1.00  0.00     0.293 HD
ENDBRANCH   6  22
BRANCH   8  24
ATOM     24  O   UNL     1     126.499 119.252 142.835  1.00  0.00    -0.508 OA
ATOM     25  H   UNL     1     127.151 118.617 143.280  1.00  0.00     0.293 HD
ENDBRANCH   8  24
TORSDOF 5
ENDMDL
MODEL 5
REMARK VINA RESULT:    -6.135      3.231      4.249
REMARK INTER + INTRA:          -7.476
REMARK INTER:                  -7.189
REMARK INTRA:                  -0.287
REMARK UNBOUND:                -0.265
REMARK SMILES O=c1c(O)c(-c2ccc(O)cc2)oc2cc(O)cc(O)c12
REMARK SMILES IDX 5 1 3 2 2 3 1 4 21 5 19 6 18 7 16 8 15 9 14 10 13 11 6 12
REMARK SMILES IDX 7 13 8 14 9 15 12 16 11 17 10 18 4 20 20 22 17 24
REMARK H PARENT 10 19 4 21 20 23 17 25
REMARK Flexibility Score: inf
ROOT
ATOM      1  C   UNL     1     123.583 123.674 142.335  1.00  0.00     0.180 A 
ATOM      2  C   UNL     1     123.463 124.505 143.465  1.00  0.00     0.208 A 
ATOM      3  C   UNL     1     124.172 124.173 144.629  1.00  0.00     0.238 A 
ATOM      4  O   UNL     1     124.082 124.915 145.645  1.00  0.00    -0.285 OA
ATOM      5  C   UNL     1     124.970 123.010 144.652  1.00  0.00     0.111 A 
ATOM      6  C   UNL     1     125.712 122.602 145.786  1.00  0.00     0.134 A 
ATOM      7  C   UNL     1     126.476 121.425 145.731  1.00  0.00     0.093 A 
ATOM      8  C   UNL     1     126.508 120.651 144.566  1.00  0.00     0.123 A 
ATOM      9  C   UNL     1     125.778 121.050 143.445  1.00  0.00     0.094 A 
ATOM     10  C   UNL     1     125.013 122.220 143.479  1.00  0.00     0.146 A 
ATOM     11  O   UNL     1     124.332 122.577 142.397  1.00  0.00    -0.452 OA
ENDROOT
BRANCH   1  12
ATOM     12  C   UNL     1     122.880 123.968 141.063  1.00  0.00     0.021 A 
ATOM     13  C   UNL     1     121.557 123.544 140.842  1.00  0.00     0.016 A 
ATOM     14  C   UNL     1     120.908 123.856 139.643  1.00  0.00     0.047 A 
ATOM     15  C   UNL     1     121.562 124.604 138.660  1.00  0.00     0.115 A 
ATOM     16  C   UNL     1     123.525 124.738 140.081  1.00  0.00     0.016 A 
ATOM     17  C   UNL     1     122.873 125.047 138.883  1.00  0.00     0.047 A 
BRANCH  15  18
ATOM     18  O   UNL     1     120.903 124.905 137.471  1.00  0.00    -0.508 OA
ATOM     19  H   UNL     1     121.315 125.519 136.778  1.00  0.00     0.293 HD
ENDBRANCH  15  18
ENDBRANCH   1  12
BRANCH   2  20
ATOM     20  O   UNL     1     122.627 125.624 143.433  1.00  0.00    -0.502 OA
ATOM     21  H   UNL     1     122.842 126.447 142.883  1.00  0.00     0.293 HD
ENDBRANCH   2  20
BRANCH   6  22
ATOM     22  O   UNL     1     125.699 123.353 146.962  1.00  0.00    -0.507 OA
ATOM     23  H   UNL     1     125.778 122.918 147.874  1.00  0.00     0.293 HD
ENDBRANCH   6  22
BRANCH   8  24
ATOM     24  O   UNL     1     127.265 119.482 144.511  1.00  0.00    -0.508 OA
ATOM     25  H   UNL     1     127.892 119.222 145.263  1.00  0.00     0.293 HD
ENDBRANCH   8  24
TORSDOF 5
ENDMDL
MODEL 6
REMARK VINA RESULT:    -6.113      1.267      1.324
REMARK INTER + INTRA:          -7.451
REMARK INTER:                  -7.156
REMARK INTRA:                  -0.295
REMARK UNBOUND:                -0.265
REMARK SMILES O=c1c(O)c(-c2ccc(O)cc2)oc2cc(O)cc(O)c12
REMARK SMILES IDX 5 1 3 2 2 3 1 4 21 5 19 6 18 7 16 8 15 9 14 10 13 11 6 12
REMARK SMILES IDX 7 13 8 14 9 15 12 16 11 17 10 18 4 20 20 22 17 24
REMARK H PARENT 10 19 4 21 20 23 17 25
REMARK Flexibility Score: inf
ROOT
ATOM      1  C   UNL     1     121.821 124.963 139.795  1.00  0.00     0.180 A 
ATOM      2  C   UNL     1     120.849 125.195 140.787  1.00  0.00     0.208 A 
ATOM      3  C   UNL     1     120.973 124.540 142.023  1.00  0.00     0.238 A 
ATOM      4  O   UNL     1     120.115 124.748 142.924  1.00  0.00    -0.285 OA
ATOM      5  C   UNL     1     122.048 123.653 142.238  1.00  0.00     0.111 A 
ATOM      6  C   UNL     1     122.242 122.951 143.451  1.00  0.00     0.134 A 
ATOM      7  C   UNL     1     123.333 122.078 143.583  1.00  0.00     0.093 A 
ATOM      8  C   UNL     1     124.230 121.895 142.525  1.00  0.00     0.123 A 
ATOM      9  C   UNL     1     124.043 122.586 141.327  1.00  0.00     0.094 A 
ATOM     10  C   UNL     1     122.963 123.461 141.177  1.00  0.00     0.146 A 
ATOM     11  O   UNL     1     122.813 124.108 140.027  1.00  0.00    -0.452 OA
ENDROOT
BRANCH   1  12
ATOM     12  C   UNL     1     121.770 125.631 138.473  1.00  0.00     0.021 A 
ATOM     13  C   UNL     1     122.443 126.844 138.239  1.00  0.00     0.016 A 
ATOM     14  C   UNL     1     122.400 127.442 136.975  1.00  0.00     0.047 A 
ATOM     15  C   UNL     1     121.699 126.834 135.930  1.00  0.00     0.115 A 
ATOM     16  C   UNL     1     121.086 125.013 137.413  1.00  0.00     0.016 A 
ATOM     17  C   UNL     1     121.044 125.615 136.151  1.00  0.00     0.047 A 
BRANCH  15  18
ATOM     18  O   UNL     1     121.664 127.442 134.678  1.00  0.00    -0.508 OA
ATOM     19  H   UNL     1     122.362 128.123 134.401  1.00  0.00     0.293 HD
ENDBRANCH  15  18
ENDBRANCH   1  12
BRANCH   2  20
ATOM     20  O   UNL     1     119.767 126.040 140.533  1.00  0.00    -0.502 OA
ATOM     21  H   UNL     1     119.532 126.355 139.599  1.00  0.00     0.293 HD
ENDBRANCH   2  20
BRANCH   6  22
ATOM     22  O   UNL     1     121.363 123.113 144.523  1.00  0.00    -0.507 OA
ATOM     23  H   UNL     1     120.521 122.556 144.611  1.00  0.00     0.293 HD
ENDBRANCH   6  22
BRANCH   8  24
ATOM     24  O   UNL     1     125.314 121.027 142.655  1.00  0.00    -0.508 OA
ATOM     25  H   UNL     1     126.128 121.105 142.059  1.00  0.00     0.293 HD
ENDBRANCH   8  24
TORSDOF 5
ENDMDL
MODEL 7
REMARK VINA RESULT:    -6.076      3.524      6.678
REMARK INTER + INTRA:          -7.407
REMARK INTER:                  -7.127
REMARK INTRA:                  -0.279
REMARK UNBOUND:                -0.265
REMARK SMILES O=c1c(O)c(-c2ccc(O)cc2)oc2cc(O)cc(O)c12
REMARK SMILES IDX 5 1 3 2 2 3 1 4 21 5 19 6 18 7 16 8 15 9 14 10 13 11 6 12
REMARK SMILES IDX 7 13 8 14 9 15 12 16 11 17 10 18 4 20 20 22 17 24
REMARK H PARENT 10 19 4 21 20 23 17 25
REMARK Flexibility Score: inf
ROOT
ATOM      1  C   UNL     1     123.338 123.241 143.080  1.00  0.00     0.180 A 
ATOM      2  C   UNL     1     122.131 122.817 142.491  1.00  0.00     0.208 A 
ATOM      3  C   UNL     1     121.229 123.785 142.023  1.00  0.00     0.238 A 
ATOM      4  O   UNL     1     120.149 123.418 141.484  1.00  0.00    -0.285 OA
ATOM      5  C   UNL     1     121.536 125.153 142.169  1.00  0.00     0.111 A 
ATOM      6  C   UNL     1     120.680 126.191 141.729  1.00  0.00     0.134 A 
ATOM      7  C   UNL     1     121.053 127.530 141.919  1.00  0.00     0.093 A 
ATOM      8  C   UNL     1     122.266 127.849 142.542  1.00  0.00     0.123 A 
ATOM      9  C   UNL     1     123.114 126.829 142.976  1.00  0.00     0.094 A 
ATOM     10  C   UNL     1     122.759 125.489 142.794  1.00  0.00     0.146 A 
ATOM     11  O   UNL     1     123.588 124.540 143.214  1.00  0.00    -0.452 OA
ENDROOT
BRANCH   1  12
ATOM     12  C   UNL     1     124.349 122.280 143.580  1.00  0.00     0.021 A 
ATOM     13  C   UNL     1     124.247 121.710 144.862  1.00  0.00     0.016 A 
ATOM     14  C   UNL     1     125.201 120.787 145.302  1.00  0.00     0.047 A 
ATOM     15  C   UNL     1     126.257 120.412 144.467  1.00  0.00     0.115 A 
ATOM     16  C   UNL     1     125.401 121.883 142.737  1.00  0.00     0.016 A 
ATOM     17  C   UNL     1     126.353 120.960 143.181  1.00  0.00     0.047 A 
BRANCH  15  18
ATOM     18  O   UNL     1     127.200 119.492 144.920  1.00  0.00    -0.508 OA
ATOM     19  H   UNL     1     126.942 118.727 145.531  1.00  0.00     0.293 HD
ENDBRANCH  15  18
ENDBRANCH   1  12
BRANCH   2  20
ATOM     20  O   UNL     1     121.828 121.457 142.403  1.00  0.00    -0.502 OA
ATOM     21  H   UNL     1     122.430 120.795 141.927  1.00  0.00     0.293 HD
ENDBRANCH   2  20
BRANCH   6  22
ATOM     22  O   UNL     1     119.464 125.903 141.105  1.00  0.00    -0.507 OA
ATOM     23  H   UNL     1     118.751 126.611 140.976  1.00  0.00     0.293 HD
ENDBRANCH   6  22
BRANCH   8  24
ATOM     24  O   UNL     1     122.637 129.179 142.731  1.00  0.00    -0.508 OA
ATOM     25  H   UNL     1     123.187 129.466 143.533  1.00  0.00     0.293 HD
ENDBRANCH   8  24
TORSDOF 5
ENDMDL
MODEL 8
REMARK VINA RESULT:    -6.070      7.397      8.623
REMARK INTER + INTRA:          -7.400
REMARK INTER:                  -7.103
REMARK INTRA:                  -0.297
REMARK UNBOUND:                -0.265
REMARK SMILES O=c1c(O)c(-c2ccc(O)cc2)oc2cc(O)cc(O)c12
REMARK SMILES IDX 5 1 3 2 2 3 1 4 21 5 19 6 18 7 16 8 15 9 14 10 13 11 6 12
REMARK SMILES IDX 7 13 8 14 9 15 12 16 11 17 10 18 4 20 20 22 17 24
REMARK H PARENT 10 19 4 21 20 23 17 25
REMARK Flexibility Score: inf
ROOT
ATOM      1  C   UNL     1     125.891 126.719 135.026  1.00  0.00     0.180 A 
ATOM      2  C   UNL     1     125.642 128.021 135.501  1.00  0.00     0.208 A 
ATOM      3  C   UNL     1     124.339 128.537 135.415  1.00  0.00     0.238 A 
ATOM      4  O   UNL     1     124.101 129.697 135.847  1.00  0.00    -0.285 OA
ATOM      5  C   UNL     1     123.316 127.755 134.840  1.00  0.00     0.111 A 
ATOM      6  C   UNL     1     121.979 128.201 134.711  1.00  0.00     0.134 A 
ATOM      7  C   UNL     1     121.020 127.366 134.118  1.00  0.00     0.093 A 
ATOM      8  C   UNL     1     121.375 126.094 133.651  1.00  0.00     0.123 A 
ATOM      9  C   UNL     1     122.692 125.650 133.777  1.00  0.00     0.094 A 
ATOM     10  C   UNL     1     123.661 126.467 134.366  1.00  0.00     0.146 A 
ATOM     11  O   UNL     1     124.905 126.016 134.476  1.00  0.00    -0.452 OA
ENDROOT
BRANCH   1  12
ATOM     12  C   UNL     1     127.234 126.099 135.099  1.00  0.00     0.021 A 
ATOM     13  C   UNL     1     127.625 125.326 136.209  1.00  0.00     0.016 A 
ATOM     14  C   UNL     1     128.890 124.731 136.244  1.00  0.00     0.047 A 
ATOM     15  C   UNL     1     129.772 124.885 135.171  1.00  0.00     0.115 A 
ATOM     16  C   UNL     1     128.117 126.232 134.015  1.00  0.00     0.016 A 
ATOM     17  C   UNL     1     129.381 125.636 134.054  1.00  0.00     0.047 A 
BRANCH  15  18
ATOM     18  O   UNL     1     131.029 124.287 135.220  1.00  0.00    -0.508 OA
ATOM     19  H   UNL     1     131.139 123.307 135.452  1.00  0.00     0.293 HD
ENDBRANCH  15  18
ENDBRANCH   1  12
BRANCH   2  20
ATOM     20  O   UNL     1     126.682 128.794 136.021  1.00  0.00    -0.502 OA
ATOM     21  H   UNL     1     127.635 128.721 135.684  1.00  0.00     0.293 HD
ENDBRANCH   2  20
BRANCH   6  22
ATOM     22  O   UNL     1     121.597 129.464 135.166  1.00  0.00    -0.507 OA
ATOM     23  H   UNL     1     121.716 130.295 134.598  1.00  0.00     0.293 HD
ENDBRANCH   6  22
BRANCH   8  24
ATOM     24  O   UNL     1     120.423 125.264 133.062  1.00  0.00    -0.508 OA
ATOM     25  H   UNL     1     119.795 124.699 133.620  1.00  0.00     0.293 HD
ENDBRANCH   8  24
TORSDOF 5
ENDMDL
MODEL 9
REMARK VINA RESULT:    -5.896      2.040      7.279
REMARK INTER + INTRA:          -7.195
REMARK INTER:                  -6.898
REMARK INTRA:                  -0.297
REMARK UNBOUND:                -0.265
REMARK SMILES O=c1c(O)c(-c2ccc(O)cc2)oc2cc(O)cc(O)c12
REMARK SMILES IDX 5 1 3 2 2 3 1 4 21 5 19 6 18 7 16 8 15 9 14 10 13 11 6 12
REMARK SMILES IDX 7 13 8 14 9 15 12 16 11 17 10 18 4 20 20 22 17 24
REMARK H PARENT 10 19 4 21 20 23 17 25
REMARK Flexibility Score: inf
ROOT
ATOM      1  C   UNL     1     121.618 125.930 139.041  1.00  0.00     0.180 A 
ATOM      2  C   UNL     1     122.485 127.034 138.941  1.00  0.00     0.208 A 
ATOM      3  C   UNL     1     122.767 127.561 137.671  1.00  0.00     0.238 A 
ATOM      4  O   UNL     1     123.534 128.557 137.568  1.00  0.00    -0.285 OA
ATOM      5  C   UNL     1     122.198 126.966 136.526  1.00  0.00     0.111 A 
ATOM      6  C   UNL     1     122.434 127.432 135.211  1.00  0.00     0.134 A 
ATOM      7  C   UNL     1     121.837 126.779 134.123  1.00  0.00     0.093 A 
ATOM      8  C   UNL     1     121.009 125.669 134.326  1.00  0.00     0.123 A 
ATOM      9  C   UNL     1     120.772 125.206 135.621  1.00  0.00     0.094 A 
ATOM     10  C   UNL     1     121.357 125.844 136.718  1.00  0.00     0.146 A 
ATOM     11  O   UNL     1     121.111 125.385 137.940  1.00  0.00    -0.452 OA
ENDROOT
BRANCH   1  12
ATOM     12  C   UNL     1     121.257 125.329 140.347  1.00  0.00     0.021 A 
ATOM     13  C   UNL     1     120.177 125.819 141.105  1.00  0.00     0.016 A 
ATOM     14  C   UNL     1     119.841 125.220 142.323  1.00  0.00     0.047 A 
ATOM     15  C   UNL     1     120.565 124.120 142.792  1.00  0.00     0.115 A 
ATOM     16  C   UNL     1     121.967 124.211 140.813  1.00  0.00     0.016 A 
ATOM     17  C   UNL     1     121.628 123.614 142.032  1.00  0.00     0.047 A 
BRANCH  15  18
ATOM     18  O   UNL     1     120.219 123.535 144.008  1.00  0.00    -0.508 OA
ATOM     19  H   UNL     1     119.703 124.046 144.713  1.00  0.00     0.293 HD
ENDBRANCH  15  18
ENDBRANCH   1  12
BRANCH   2  20
ATOM     20  O   UNL     1     123.076 127.575 140.085  1.00  0.00    -0.502 OA
ATOM     21  H   UNL     1     123.008 128.558 140.319  1.00  0.00     0.293 HD
ENDBRANCH   2  20
BRANCH   6  22
ATOM     22  O   UNL     1     123.256 128.537 134.978  1.00  0.00    -0.507 OA
ATOM     23  H   UNL     1     124.161 128.632 135.424  1.00  0.00     0.293 HD
ENDBRANCH   6  22
BRANCH   8  24
ATOM     24  O   UNL     1     120.415 125.019 133.245  1.00  0.00    -0.508 OA
ATOM     25  H   UNL     1     120.912 124.880 132.373  1.00  0.00     0.293 HD
ENDBRANCH   8  24
TORSDOF 5
ENDMDL
