MODEL 1
REMARK VINA RESULT:    -5.020      0.000      0.000
REMARK INTER + INTRA:          -5.506
REMARK INTER:                  -5.460
REMARK INTRA:                  -0.046
REMARK UNBOUND:                -0.046
REMARK SMILES COc1cc2ccc(=O)oc2cc1O
REMARK SMILES IDX 3 1 13 2 12 3 11 4 5 5 4 6 6 7 7 8 8 9 9 10 10 11 2 12 1 13
REMARK SMILES IDX 14 14
REMARK H PARENT 14 15
REMARK Flexibility Score: inf
ROOT
ATOM      1  C   UNL     1       8.033  -6.757  -6.771  1.00  0.00     0.161 A 
ATOM      2  C   UNL     1       8.282  -8.070  -7.216  1.00  0.00     0.161 A 
ATOM      3  C   UNL     1       8.417  -8.339  -8.583  1.00  0.00     0.098 A 
ATOM      4  C   UNL     1       8.308  -7.309  -9.519  1.00  0.00     0.142 A 
ATOM      5  C   UNL     1       8.059  -5.990  -9.085  1.00  0.00     0.022 A 
ATOM      6  C   UNL     1       7.924  -5.717  -7.717  1.00  0.00     0.062 A 
ATOM      7  C   UNL     1       7.955  -4.980 -10.048  1.00  0.00     0.019 A 
ATOM      8  C   UNL     1       8.098  -5.303 -11.397  1.00  0.00     0.094 A 
ATOM      9  C   UNL     1       8.343  -6.633 -11.753  1.00  0.00     0.336 A 
ATOM     10  O   UNL     1       8.475  -6.945 -12.966  1.00  0.00    -0.246 OA
ATOM     11  O   UNL     1       8.437  -7.575 -10.817  1.00  0.00    -0.423 OA
ENDROOT
BRANCH   1  12
ATOM     12  O   UNL     1       7.903  -6.522  -5.393  1.00  0.00    -0.493 OA
ATOM     13  C   UNL     1       8.262  -5.307  -4.742  1.00  0.00     0.278 C 
ENDBRANCH   1  12
BRANCH   2  14
ATOM     14  O   UNL     1       8.397  -9.125  -6.310  1.00  0.00    -0.504 OA
ATOM     15  H   UNL     1       8.060 -10.056  -6.519  1.00  0.00     0.293 HD
ENDBRANCH   2  14
TORSDOF 2
ENDMDL
MODEL 2
REMARK VINA RESULT:    -4.992     15.175     17.147
REMARK INTER + INTRA:          -5.476
REMARK INTER:                  -5.430
REMARK INTRA:                  -0.046
REMARK UNBOUND:                -0.046
REMARK SMILES COc1cc2ccc(=O)oc2cc1O
REMARK SMILES IDX 3 1 13 2 12 3 11 4 5 5 4 6 6 7 7 8 8 9 9 10 10 11 2 12 1 13
REMARK SMILES IDX 14 14
REMARK H PARENT 14 15
REMARK Flexibility Score: inf
ROOT
ATOM      1  C   UNL     1      19.126  -1.655 -17.990  1.00  0.00     0.161 A 
ATOM      2  C   UNL     1      19.239  -2.732 -18.892  1.00  0.00     0.161 A 
ATOM      3  C   UNL     1      19.891  -2.559 -20.118  1.00  0.00     0.098 A 
ATOM      4  C   UNL     1      20.437  -1.321 -20.460  1.00  0.00     0.142 A 
ATOM      5  C   UNL     1      20.330  -0.237 -19.565  1.00  0.00     0.022 A 
ATOM      6  C   UNL     1      19.678  -0.405 -18.336  1.00  0.00     0.062 A 
ATOM      7  C   UNL     1      20.887   0.992 -19.936  1.00  0.00     0.019 A 
ATOM      8  C   UNL     1      21.526   1.109 -21.171  1.00  0.00     0.094 A 
ATOM      9  C   UNL     1      21.594  -0.010 -22.007  1.00  0.00     0.336 A 
ATOM     10  O   UNL     1      22.167   0.075 -23.125  1.00  0.00    -0.246 OA
ATOM     11  O   UNL     1      21.055  -1.167 -21.629  1.00  0.00    -0.423 OA
ENDROOT
BRANCH   1  12
ATOM     12  O   UNL     1      18.466  -1.862 -16.768  1.00  0.00    -0.493 OA
ATOM     13  C   UNL     1      17.754  -0.857 -16.053  1.00  0.00     0.278 C 
ENDBRANCH   1  12
BRANCH   2  14
ATOM     14  O   UNL     1      18.706  -3.984 -18.585  1.00  0.00    -0.504 OA
ATOM     15  H   UNL     1      18.300  -4.192 -17.681  1.00  0.00     0.293 HD
ENDBRANCH   2  14
TORSDOF 2
ENDMDL
MODEL 3
REMARK VINA RESULT:    -4.977      1.551      2.546
REMARK INTER + INTRA:          -5.460
REMARK INTER:                  -5.417
REMARK INTRA:                  -0.043
REMARK UNBOUND:                -0.046
REMARK SMILES COc1cc2ccc(=O)oc2cc1O
REMARK SMILES IDX 3 1 13 2 12 3 11 4 5 5 4 6 6 7 7 8 8 9 9 10 10 11 2 12 1 13
REMARK SMILES IDX 14 14
REMARK H PARENT 14 15
REMARK Flexibility Score: inf
ROOT
ATOM      1  C   UNL     1       8.122  -7.162  -7.508  1.00  0.00     0.161 A 
ATOM      2  C   UNL     1       7.827  -5.803  -7.285  1.00  0.00     0.161 A 
ATOM      3  C   UNL     1       7.680  -4.926  -8.366  1.00  0.00     0.098 A 
ATOM      4  C   UNL     1       7.822  -5.389  -9.675  1.00  0.00     0.142 A 
ATOM      5  C   UNL     1       8.116  -6.748  -9.910  1.00  0.00     0.022 A 
ATOM      6  C   UNL     1       8.265  -7.630  -8.830  1.00  0.00     0.062 A 
ATOM      7  C   UNL     1       8.253  -7.182 -11.233  1.00  0.00     0.019 A 
ATOM      8  C   UNL     1       8.096  -6.266 -12.273  1.00  0.00     0.094 A 
ATOM      9  C   UNL     1       7.804  -4.934 -11.965  1.00  0.00     0.336 A 
ATOM     10  O   UNL     1       7.658  -4.092 -12.889  1.00  0.00    -0.246 OA
ATOM     11  O   UNL     1       7.680  -4.548 -10.697  1.00  0.00    -0.423 OA
ENDROOT
BRANCH   1  12
ATOM     12  O   UNL     1       8.263  -8.014  -6.401  1.00  0.00    -0.493 OA
ATOM     13  C   UNL     1       7.191  -8.711  -5.773  1.00  0.00     0.278 C 
ENDBRANCH   1  12
BRANCH   2  14
ATOM     14  O   UNL     1       7.678  -5.304  -5.991  1.00  0.00    -0.504 OA
ATOM     15  H   UNL     1       7.043  -5.718  -5.320  1.00  0.00     0.293 HD
ENDBRANCH   2  14
TORSDOF 2
ENDMDL
MODEL 4
REMARK VINA RESULT:    -4.894      2.170      2.700
REMARK INTER + INTRA:          -5.369
REMARK INTER:                  -5.377
REMARK INTRA:                   0.008
REMARK UNBOUND:                -0.046
REMARK SMILES COc1cc2ccc(=O)oc2cc1O
REMARK SMILES IDX 3 1 13 2 12 3 11 4 5 5 4 6 6 7 7 8 8 9 9 10 10 11 2 12 1 13
REMARK SMILES IDX 14 14
REMARK H PARENT 14 15
REMARK Flexibility Score: inf
ROOT
ATOM      1  C   UNL     1       8.514  -5.799  -5.926  1.00  0.00     0.161 A 
ATOM      2  C   UNL     1       9.828  -5.483  -6.325  1.00  0.00     0.161 A 
ATOM      3  C   UNL     1      10.353  -6.015  -7.508  1.00  0.00     0.098 A 
ATOM      4  C   UNL     1       9.582  -6.863  -8.305  1.00  0.00     0.142 A 
ATOM      5  C   UNL     1       8.265  -7.186  -7.915  1.00  0.00     0.022 A 
ATOM      6  C   UNL     1       7.735  -6.655  -6.732  1.00  0.00     0.062 A 
ATOM      7  C   UNL     1       7.517  -8.038  -8.735  1.00  0.00     0.019 A 
ATOM      8  C   UNL     1       8.090  -8.540  -9.904  1.00  0.00     0.094 A 
ATOM      9  C   UNL     1       9.402  -8.177 -10.226  1.00  0.00     0.336 A 
ATOM     10  O   UNL     1       9.936  -8.619 -11.277  1.00  0.00    -0.246 OA
ATOM     11  O   UNL     1      10.091  -7.365  -9.428  1.00  0.00    -0.423 OA
ENDROOT
BRANCH   1  12
ATOM     12  O   UNL     1       8.017  -5.249  -4.734  1.00  0.00    -0.493 OA
ATOM     13  C   UNL     1       8.316  -5.739  -3.430  1.00  0.00     0.278 C 
ENDBRANCH   1  12
BRANCH   2  14
ATOM     14  O   UNL     1      10.628  -4.640  -5.554  1.00  0.00    -0.504 OA
ATOM     15  H   UNL     1      10.460  -3.644  -5.490  1.00  0.00     0.293 HD
ENDBRANCH   2  14
TORSDOF 2
ENDMDL
MODEL 5
REMARK VINA RESULT:    -4.767      1.933      2.752
REMARK INTER + INTRA:          -5.231
REMARK INTER:                  -5.186
REMARK INTRA:                  -0.045
REMARK UNBOUND:                -0.046
REMARK SMILES COc1cc2ccc(=O)oc2cc1O
REMARK SMILES IDX 3 1 13 2 12 3 11 4 5 5 4 6 6 7 7 8 8 9 9 10 10 11 2 12 1 13
REMARK SMILES IDX 14 14
REMARK H PARENT 14 15
REMARK Flexibility Score: inf
ROOT
ATOM      1  C   UNL     1       8.010  -5.765  -7.039  1.00  0.00     0.161 A 
ATOM      2  C   UNL     1       7.308  -5.331  -8.180  1.00  0.00     0.161 A 
ATOM      3  C   UNL     1       7.775  -5.652  -9.460  1.00  0.00     0.098 A 
ATOM      4  C   UNL     1       8.939  -6.406  -9.620  1.00  0.00     0.142 A 
ATOM      5  C   UNL     1       9.649  -6.847  -8.484  1.00  0.00     0.022 A 
ATOM      6  C   UNL     1       9.186  -6.527  -7.200  1.00  0.00     0.062 A 
ATOM      7  C   UNL     1      10.812  -7.601  -8.675  1.00  0.00     0.019 A 
ATOM      8  C   UNL     1      11.232  -7.892  -9.973  1.00  0.00     0.094 A 
ATOM      9  C   UNL     1      10.476  -7.422 -11.052  1.00  0.00     0.336 A 
ATOM     10  O   UNL     1      10.839  -7.676 -12.231  1.00  0.00    -0.246 OA
ATOM     11  O   UNL     1       9.374  -6.707 -10.841  1.00  0.00    -0.423 OA
ENDROOT
BRANCH   1  12
ATOM     12  O   UNL     1       7.516  -5.425  -5.770  1.00  0.00    -0.493 OA
ATOM     13  C   UNL     1       8.312  -5.313  -4.594  1.00  0.00     0.278 C 
ENDBRANCH   1  12
BRANCH   2  14
ATOM     14  O   UNL     1       6.142  -4.575  -8.061  1.00  0.00    -0.504 OA
ATOM     15  H   UNL     1       6.138  -3.567  -8.155  1.00  0.00     0.293 HD
ENDBRANCH   2  14
TORSDOF 2
ENDMDL
MODEL 6
REMARK VINA RESULT:    -4.737      1.152      4.899
REMARK INTER + INTRA:          -5.198
REMARK INTER:                  -5.154
REMARK INTRA:                  -0.044
REMARK UNBOUND:                -0.046
REMARK SMILES COc1cc2ccc(=O)oc2cc1O
REMARK SMILES IDX 3 1 13 2 12 3 11 4 5 5 4 6 6 7 7 8 8 9 9 10 10 11 2 12 1 13
REMARK SMILES IDX 14 14
REMARK H PARENT 14 15
REMARK Flexibility Score: inf
ROOT
ATOM      1  C   UNL     1       7.993  -5.679 -11.533  1.00  0.00     0.161 A 
ATOM      2  C   UNL     1       8.013  -7.078 -11.698  1.00  0.00     0.161 A 
ATOM      3  C   UNL     1       8.021  -7.920 -10.580  1.00  0.00     0.098 A 
ATOM      4  C   UNL     1       8.007  -7.384  -9.291  1.00  0.00     0.142 A 
ATOM      5  C   UNL     1       7.987  -5.985  -9.114  1.00  0.00     0.022 A 
ATOM      6  C   UNL     1       7.979  -5.137 -10.231  1.00  0.00     0.062 A 
ATOM      7  C   UNL     1       7.974  -5.477  -7.810  1.00  0.00     0.019 A 
ATOM      8  C   UNL     1       7.982  -6.362  -6.732  1.00  0.00     0.094 A 
ATOM      9  C   UNL     1       8.002  -7.738  -6.984  1.00  0.00     0.336 A 
ATOM     10  O   UNL     1       8.009  -8.552  -6.024  1.00  0.00    -0.246 OA
ATOM     11  O   UNL     1       8.015  -8.193  -8.234  1.00  0.00    -0.423 OA
ENDROOT
BRANCH   1  12
ATOM     12  O   UNL     1       7.987  -4.863 -12.675  1.00  0.00    -0.493 OA
ATOM     13  C   UNL     1       7.558  -3.504 -12.696  1.00  0.00     0.278 C 
ENDBRANCH   1  12
BRANCH   2  14
ATOM     14  O   UNL     1       8.028  -7.650 -12.970  1.00  0.00    -0.504 OA
ATOM     15  H   UNL     1       8.820  -8.175 -13.318  1.00  0.00     0.293 HD
ENDBRANCH   2  14
TORSDOF 2
ENDMDL
MODEL 7
REMARK VINA RESULT:    -4.732      1.386      5.390
REMARK INTER + INTRA:          -5.192
REMARK INTER:                  -5.142
REMARK INTRA:                  -0.051
REMARK UNBOUND:                -0.046
REMARK SMILES COc1cc2ccc(=O)oc2cc1O
REMARK SMILES IDX 3 1 13 2 12 3 11 4 5 5 4 6 6 7 7 8 8 9 9 10 10 11 2 12 1 13
REMARK SMILES IDX 14 14
REMARK H PARENT 14 15
REMARK Flexibility Score: inf
ROOT
ATOM      1  C   UNL     1       8.022  -6.908 -11.172  1.00  0.00     0.161 A 
ATOM      2  C   UNL     1       8.008  -5.513 -10.980  1.00  0.00     0.161 A 
ATOM      3  C   UNL     1       7.987  -4.979  -9.687  1.00  0.00     0.098 A 
ATOM      4  C   UNL     1       7.981  -5.823  -8.574  1.00  0.00     0.142 A 
ATOM      5  C   UNL     1       7.995  -7.221  -8.755  1.00  0.00     0.022 A 
ATOM      6  C   UNL     1       8.016  -7.760 -10.049  1.00  0.00     0.062 A 
ATOM      7  C   UNL     1       7.988  -8.041  -7.621  1.00  0.00     0.019 A 
ATOM      8  C   UNL     1       7.967  -7.456  -6.354  1.00  0.00     0.094 A 
ATOM      9  C   UNL     1       7.954  -6.061  -6.252  1.00  0.00     0.336 A 
ATOM     10  O   UNL     1       7.936  -5.514  -5.118  1.00  0.00    -0.246 OA
ATOM     11  O   UNL     1       7.961  -5.305  -7.348  1.00  0.00    -0.423 OA
ENDROOT
BRANCH   1  12
ATOM     12  O   UNL     1       8.043  -7.411 -12.483  1.00  0.00    -0.493 OA
ATOM     13  C   UNL     1       8.912  -8.442 -12.941  1.00  0.00     0.278 C 
ENDBRANCH   1  12
BRANCH   2  14
ATOM     14  O   UNL     1       8.014  -4.638 -12.067  1.00  0.00    -0.504 OA
ATOM     15  H   UNL     1       8.064  -3.634 -11.953  1.00  0.00     0.293 HD
ENDBRANCH   2  14
TORSDOF 2
ENDMDL
MODEL 8
REMARK VINA RESULT:    -4.709      2.106      5.287
REMARK INTER + INTRA:          -5.168
REMARK INTER:                  -5.103
REMARK INTRA:                  -0.065
REMARK UNBOUND:                -0.046
REMARK SMILES COc1cc2ccc(=O)oc2cc1O
REMARK SMILES IDX 3 1 13 2 12 3 11 4 5 5 4 6 6 7 7 8 8 9 9 10 10 11 2 12 1 13
REMARK SMILES IDX 14 14
REMARK H PARENT 14 15
REMARK Flexibility Score: inf
ROOT
ATOM      1  C   UNL     1       9.511  -7.007 -11.367  1.00  0.00     0.161 A 
ATOM      2  C   UNL     1      10.809  -6.681 -10.926  1.00  0.00     0.161 A 
ATOM      3  C   UNL     1      11.020  -6.247  -9.612  1.00  0.00     0.098 A 
ATOM      4  C   UNL     1       9.948  -6.134  -8.725  1.00  0.00     0.142 A 
ATOM      5  C   UNL     1       8.645  -6.459  -9.155  1.00  0.00     0.022 A 
ATOM      6  C   UNL     1       8.429  -6.893 -10.470  1.00  0.00     0.062 A 
ATOM      7  C   UNL     1       7.591  -6.336  -8.243  1.00  0.00     0.019 A 
ATOM      8  C   UNL     1       7.857  -5.899  -6.945  1.00  0.00     0.094 A 
ATOM      9  C   UNL     1       9.176  -5.595  -6.589  1.00  0.00     0.336 A 
ATOM     10  O   UNL     1       9.436  -5.200  -5.422  1.00  0.00    -0.246 OA
ATOM     11  O   UNL     1      10.159  -5.721  -7.477  1.00  0.00    -0.423 OA
ENDROOT
BRANCH   1  12
ATOM     12  O   UNL     1       9.334  -7.438 -12.691  1.00  0.00    -0.493 OA
ATOM     13  C   UNL     1       9.244  -8.801 -13.093  1.00  0.00     0.278 C 
ENDBRANCH   1  12
BRANCH   2  14
ATOM     14  O   UNL     1      11.904  -6.780 -11.784  1.00  0.00    -0.504 OA
ATOM     15  H   UNL     1      11.837  -6.575 -12.773  1.00  0.00     0.293 HD
ENDBRANCH   2  14
TORSDOF 2
ENDMDL
