MODEL 1
REMARK VINA RESULT:    -3.723      0.000      0.000
REMARK INTER + INTRA:          -7.544
REMARK INTER:                  -6.553
REMARK INTRA:                  -0.991
REMARK UNBOUND:                -0.991
REMARK SMILES CCCCCCCCCCCCCCC(=O)[O-]
REMARK SMILES IDX 9 1 10 2 11 3 12 4 13 5 14 6 15 7 16 8 17 9 8 10 7 11 6 12
REMARK SMILES IDX 5 13 4 14 3 15 2 16 1 17
REMARK H PARENT
REMARK Flexibility Score: inf
ROOT
ATOM      1  C   UNL     1      60.515  44.209  18.160  1.00  0.00     0.000 C 
ENDROOT
BRANCH   1   2
ATOM      2  C   UNL     1      59.624  44.902  17.116  1.00  0.00     0.000 C 
BRANCH   2   3
ATOM      3  C   UNL     1      58.275  44.187  16.924  1.00  0.00     0.000 C 
BRANCH   3   4
ATOM      4  C   UNL     1      57.557  44.622  15.637  1.00  0.00     0.000 C 
BRANCH   4   5
ATOM      5  C   UNL     1      57.214  46.122  15.625  1.00  0.00     0.006 C 
BRANCH   5   6
ATOM      6  C   UNL     1      56.898  46.632  14.213  1.00  0.00     0.053 C 
BRANCH   6   7
ATOM      7  C   UNL     1      55.738  47.581  14.214  1.00  0.00     0.041 C 
ATOM      8  O   UNL     1      55.756  48.606  14.945  1.00  0.00    -0.550 OA
ATOM      9  O   UNL     1      54.652  47.349  13.381  1.00  0.00    -0.550 OA
ENDBRANCH   6   7
ENDBRANCH   5   6
ENDBRANCH   4   5
ENDBRANCH   3   4
ENDBRANCH   2   3
ENDBRANCH   1   2
BRANCH   1  10
ATOM     10  C   UNL     1      62.014  44.387  17.873  1.00  0.00     0.000 C 
BRANCH  10  11
ATOM     11  C   UNL     1      62.258  44.681  16.388  1.00  0.00    -0.000 C 
BRANCH  11  12
ATOM     12  C   UNL     1      63.582  45.426  16.184  1.00  0.00    -0.000 C 
BRANCH  12  13
ATOM     13  C   UNL     1      64.496  44.667  15.211  1.00  0.00    -0.000 C 
BRANCH  13  14
ATOM     14  C   UNL     1      63.971  43.260  14.872  1.00  0.00    -0.000 C 
BRANCH  14  15
ATOM     15  C   UNL     1      64.921  42.101  15.240  1.00  0.00    -0.000 C 
BRANCH  15  16
ATOM     16  C   UNL     1      64.238  40.882  15.884  1.00  0.00    -0.003 C 
ATOM     17  C   UNL     1      63.821  41.130  17.333  1.00  0.00     0.004 C 
ENDBRANCH  15  16
ENDBRANCH  14  15
ENDBRANCH  13  14
ENDBRANCH  12  13
ENDBRANCH  11  12
ENDBRANCH  10  11
ENDBRANCH   1  10
TORSDOF 13
ENDMDL
MODEL 2
REMARK VINA RESULT:    -3.662     10.582     13.027
REMARK INTER + INTRA:          -7.437
REMARK INTER:                  -6.389
REMARK INTRA:                  -1.048
REMARK UNBOUND:                -0.991
REMARK SMILES CCCCCCCCCCCCCCC(=O)[O-]
REMARK SMILES IDX 9 1 10 2 11 3 12 4 13 5 14 6 15 7 16 8 17 9 8 10 7 11 6 12
REMARK SMILES IDX 5 13 4 14 3 15 2 16 1 17
REMARK H PARENT
REMARK Flexibility Score: inf
ROOT
ATOM      1  C   UNL     1      50.739  46.478  15.052  1.00  0.00     0.000 C 
ENDROOT
BRANCH   1   2
ATOM      2  C   UNL     1      49.694  47.288  15.837  1.00  0.00     0.000 C 
BRANCH   2   3
ATOM      3  C   UNL     1      49.531  48.720  15.299  1.00  0.00     0.000 C 
BRANCH   3   4
ATOM      4  C   UNL     1      48.993  48.750  13.860  1.00  0.00     0.000 C 
BRANCH   4   5
ATOM      5  C   UNL     1      49.376  50.038  13.110  1.00  0.00     0.006 C 
BRANCH   5   6
ATOM      6  C   UNL     1      50.293  49.759  11.911  1.00  0.00     0.053 C 
BRANCH   6   7
ATOM      7  C   UNL     1      51.631  49.243  12.347  1.00  0.00     0.041 C 
ATOM      8  O   UNL     1      52.425  49.990  12.976  1.00  0.00    -0.550 OA
ATOM      9  O   UNL     1      51.985  47.925  12.086  1.00  0.00    -0.550 OA
ENDBRANCH   6   7
ENDBRANCH   5   6
ENDBRANCH   4   5
ENDBRANCH   3   4
ENDBRANCH   2   3
ENDBRANCH   1   2
BRANCH   1  10
ATOM     10  C   UNL     1      50.125  45.289  14.297  1.00  0.00     0.000 C 
BRANCH  10  11
ATOM     11  C   UNL     1      48.751  44.924  14.872  1.00  0.00    -0.000 C 
BRANCH  11  12
ATOM     12  C   UNL     1      48.599  43.405  15.013  1.00  0.00    -0.000 C 
BRANCH  12  13
ATOM     13  C   UNL     1      47.309  42.916  14.338  1.00  0.00    -0.000 C 
BRANCH  13  14
ATOM     14  C   UNL     1      46.054  43.652  14.841  1.00  0.00    -0.000 C 
BRANCH  14  15
ATOM     15  C   UNL     1      44.878  42.739  15.245  1.00  0.00    -0.000 C 
BRANCH  15  16
ATOM     16  C   UNL     1      45.248  41.261  15.457  1.00  0.00    -0.003 C 
ATOM     17  C   UNL     1      45.622  40.942  16.905  1.00  0.00     0.004 C 
ENDBRANCH  15  16
ENDBRANCH  14  15
ENDBRANCH  13  14
ENDBRANCH  12  13
ENDBRANCH  11  12
ENDBRANCH  10  11
ENDBRANCH   1  10
TORSDOF 13
ENDMDL
MODEL 3
REMARK VINA RESULT:    -3.645     10.282     13.377
REMARK INTER + INTRA:          -7.406
REMARK INTER:                  -5.712
REMARK INTRA:                  -1.694
REMARK UNBOUND:                -0.991
REMARK SMILES CCCCCCCCCCCCCCC(=O)[O-]
REMARK SMILES IDX 9 1 10 2 11 3 12 4 13 5 14 6 15 7 16 8 17 9 8 10 7 11 6 12
REMARK SMILES IDX 5 13 4 14 3 15 2 16 1 17
REMARK H PARENT
REMARK Flexibility Score: inf
ROOT
ATOM      1  C   UNL     1      47.508  44.625  15.132  1.00  0.00     0.000 C 
ENDROOT
BRANCH   1   2
ATOM      2  C   UNL     1      48.897  44.036  14.838  1.00  0.00     0.000 C 
BRANCH   2   3
ATOM      3  C   UNL     1      49.931  44.398  15.918  1.00  0.00     0.000 C 
BRANCH   3   4
ATOM      4  C   UNL     1      50.900  45.499  15.459  1.00  0.00     0.000 C 
BRANCH   4   5
ATOM      5  C   UNL     1      50.576  46.027  14.050  1.00  0.00     0.006 C 
BRANCH   5   6
ATOM      6  C   UNL     1      50.301  47.537  14.046  1.00  0.00     0.053 C 
BRANCH   6   7
ATOM      7  C   UNL     1      50.994  48.223  12.908  1.00  0.00     0.041 C 
ATOM      8  O   UNL     1      52.071  47.759  12.449  1.00  0.00    -0.550 OA
ATOM      9  O   UNL     1      50.431  49.354  12.333  1.00  0.00    -0.550 OA
ENDBRANCH   6   7
ENDBRANCH   5   6
ENDBRANCH   4   5
ENDBRANCH   3   4
ENDBRANCH   2   3
ENDBRANCH   1   2
BRANCH   1  10
ATOM     10  C   UNL     1      46.367  43.769  14.562  1.00  0.00     0.000 C 
BRANCH  10  11
ATOM     11  C   UNL     1      46.898  42.435  14.023  1.00  0.00    -0.000 C 
BRANCH  11  12
ATOM     12  C   UNL     1      46.249  41.249  14.748  1.00  0.00    -0.000 C 
BRANCH  12  13
ATOM     13  C   UNL     1      45.169  41.729  15.728  1.00  0.00    -0.000 C 
BRANCH  13  14
ATOM     14  C   UNL     1      45.524  41.442  17.198  1.00  0.00    -0.000 C 
BRANCH  14  15
ATOM     15  C   UNL     1      47.034  41.329  17.496  1.00  0.00    -0.000 C 
BRANCH  15  16
ATOM     16  C   UNL     1      47.624  42.494  18.309  1.00  0.00    -0.003 C 
ATOM     17  C   UNL     1      46.630  43.637  18.519  1.00  0.00     0.004 C 
ENDBRANCH  15  16
ENDBRANCH  14  15
ENDBRANCH  13  14
ENDBRANCH  12  13
ENDBRANCH  11  12
ENDBRANCH  10  11
ENDBRANCH   1  10
TORSDOF 13
ENDMDL
MODEL 4
REMARK VINA RESULT:    -3.640      9.366     12.660
REMARK INTER + INTRA:          -7.398
REMARK INTER:                  -6.050
REMARK INTRA:                  -1.348
REMARK UNBOUND:                -0.991
REMARK SMILES CCCCCCCCCCCCCCC(=O)[O-]
REMARK SMILES IDX 9 1 10 2 11 3 12 4 13 5 14 6 15 7 16 8 17 9 8 10 7 11 6 12
REMARK SMILES IDX 5 13 4 14 3 15 2 16 1 17
REMARK H PARENT
REMARK Flexibility Score: inf
ROOT
ATOM      1  C   UNL     1      49.121  47.443  15.793  1.00  0.00     0.000 C 
ENDROOT
BRANCH   1   2
ATOM      2  C   UNL     1      49.608  48.835  15.359  1.00  0.00     0.000 C 
BRANCH   2   3
ATOM      3  C   UNL     1      49.402  49.089  13.856  1.00  0.00     0.000 C 
BRANCH   3   4
ATOM      4  C   UNL     1      50.593  49.820  13.214  1.00  0.00     0.000 C 
BRANCH   4   5
ATOM      5  C   UNL     1      51.228  49.022  12.062  1.00  0.00     0.006 C 
BRANCH   5   6
ATOM      6  C   UNL     1      51.720  47.641  12.515  1.00  0.00     0.053 C 
BRANCH   6   7
ATOM      7  C   UNL     1      52.884  47.748  13.453  1.00  0.00     0.041 C 
ATOM      8  O   UNL     1      53.969  48.254  13.062  1.00  0.00    -0.550 OA
ATOM      9  O   UNL     1      52.758  47.319  14.767  1.00  0.00    -0.550 OA
ENDBRANCH   6   7
ENDBRANCH   5   6
ENDBRANCH   4   5
ENDBRANCH   3   4
ENDBRANCH   2   3
ENDBRANCH   1   2
BRANCH   1  10
ATOM     10  C   UNL     1      48.820  46.520  14.603  1.00  0.00     0.000 C 
BRANCH  10  11
ATOM     11  C   UNL     1      49.712  45.273  14.635  1.00  0.00    -0.000 C 
BRANCH  11  12
ATOM     12  C   UNL     1      48.895  44.019  14.972  1.00  0.00    -0.000 C 
BRANCH  12  13
ATOM     13  C   UNL     1      47.417  44.370  15.197  1.00  0.00    -0.000 C 
BRANCH  13  14
ATOM     14  C   UNL     1      46.459  43.465  14.401  1.00  0.00    -0.000 C 
BRANCH  14  15
ATOM     15  C   UNL     1      46.880  41.983  14.316  1.00  0.00    -0.000 C 
BRANCH  15  16
ATOM     16  C   UNL     1      45.910  40.993  14.984  1.00  0.00    -0.003 C 
ATOM     17  C   UNL     1      45.773  41.218  16.490  1.00  0.00     0.004 C 
ENDBRANCH  15  16
ENDBRANCH  14  15
ENDBRANCH  13  14
ENDBRANCH  12  13
ENDBRANCH  11  12
ENDBRANCH  10  11
ENDBRANCH   1  10
TORSDOF 13
ENDMDL
MODEL 5
REMARK VINA RESULT:    -3.581      1.280      2.074
REMARK INTER + INTRA:          -7.293
REMARK INTER:                  -6.237
REMARK INTRA:                  -1.056
REMARK UNBOUND:                -0.991
REMARK SMILES CCCCCCCCCCCCCCC(=O)[O-]
REMARK SMILES IDX 9 1 10 2 11 3 12 4 13 5 14 6 15 7 16 8 17 9 8 10 7 11 6 12
REMARK SMILES IDX 5 13 4 14 3 15 2 16 1 17
REMARK H PARENT
REMARK Flexibility Score: inf
ROOT
ATOM      1  C   UNL     1      58.739  43.940  17.502  1.00  0.00     0.000 C 
ENDROOT
BRANCH   1   2
ATOM      2  C   UNL     1      57.750  42.899  16.951  1.00  0.00     0.000 C 
BRANCH   2   3
ATOM      3  C   UNL     1      57.115  43.335  15.620  1.00  0.00     0.000 C 
BRANCH   3   4
ATOM      4  C   UNL     1      55.696  43.898  15.802  1.00  0.00     0.000 C 
BRANCH   4   5
ATOM      5  C   UNL     1      55.660  45.436  15.789  1.00  0.00     0.006 C 
BRANCH   5   6
ATOM      6  C   UNL     1      56.856  46.037  15.037  1.00  0.00     0.053 C 
BRANCH   6   7
ATOM      7  C   UNL     1      56.418  46.823  13.839  1.00  0.00     0.041 C 
ATOM      8  O   UNL     1      55.193  46.995  13.606  1.00  0.00    -0.550 OA
ATOM      9  O   UNL     1      57.366  47.395  13.001  1.00  0.00    -0.550 OA
ENDBRANCH   6   7
ENDBRANCH   5   6
ENDBRANCH   4   5
ENDBRANCH   3   4
ENDBRANCH   2   3
ENDBRANCH   1   2
BRANCH   1  10
ATOM     10  C   UNL     1      59.845  43.313  18.363  1.00  0.00     0.000 C 
BRANCH  10  11
ATOM     11  C   UNL     1      61.231  43.792  17.912  1.00  0.00    -0.000 C 
BRANCH  11  12
ATOM     12  C   UNL     1      61.141  45.146  17.198  1.00  0.00    -0.000 C 
BRANCH  12  13
ATOM     13  C   UNL     1      62.478  45.508  16.537  1.00  0.00    -0.000 C 
BRANCH  13  14
ATOM     14  C   UNL     1      63.449  44.317  16.458  1.00  0.00    -0.000 C 
BRANCH  14  15
ATOM     15  C   UNL     1      63.783  43.839  15.030  1.00  0.00    -0.000 C 
BRANCH  15  16
ATOM     16  C   UNL     1      64.222  42.368  14.924  1.00  0.00    -0.003 C 
ATOM     17  C   UNL     1      64.095  41.612  16.246  1.00  0.00     0.004 C 
ENDBRANCH  15  16
ENDBRANCH  14  15
ENDBRANCH  13  14
ENDBRANCH  12  13
ENDBRANCH  11  12
ENDBRANCH  10  11
ENDBRANCH   1  10
TORSDOF 13
ENDMDL
MODEL 6
REMARK VINA RESULT:    -3.516      8.423     11.989
REMARK INTER + INTRA:          -7.179
REMARK INTER:                  -5.579
REMARK INTRA:                  -1.600
REMARK UNBOUND:                -0.991
REMARK SMILES CCCCCCCCCCCCCCC(=O)[O-]
REMARK SMILES IDX 9 1 10 2 11 3 12 4 13 5 14 6 15 7 16 8 17 9 8 10 7 11 6 12
REMARK SMILES IDX 5 13 4 14 3 15 2 16 1 17
REMARK H PARENT
REMARK Flexibility Score: inf
ROOT
ATOM      1  C   UNL     1      49.998  47.060  15.143  1.00  0.00     0.000 C 
ENDROOT
BRANCH   1   2
ATOM      2  C   UNL     1      50.262  45.777  14.338  1.00  0.00     0.000 C 
BRANCH   2   3
ATOM      3  C   UNL     1      49.966  44.502  15.146  1.00  0.00     0.000 C 
BRANCH   3   4
ATOM      4  C   UNL     1      48.643  43.837  14.734  1.00  0.00     0.000 C 
BRANCH   4   5
ATOM      5  C   UNL     1      47.560  43.944  15.821  1.00  0.00     0.006 C 
BRANCH   5   6
ATOM      6  C   UNL     1      46.535  45.043  15.511  1.00  0.00     0.053 C 
BRANCH   6   7
ATOM      7  C   UNL     1      46.236  45.878  16.719  1.00  0.00     0.041 C 
ATOM      8  O   UNL     1      47.095  46.685  17.161  1.00  0.00    -0.550 OA
ATOM      9  O   UNL     1      44.994  45.788  17.335  1.00  0.00    -0.550 OA
ENDBRANCH   6   7
ENDBRANCH   5   6
ENDBRANCH   4   5
ENDBRANCH   3   4
ENDBRANCH   2   3
ENDBRANCH   1   2
BRANCH   1  10
ATOM     10  C   UNL     1      48.966  47.980  14.474  1.00  0.00     0.000 C 
BRANCH  10  11
ATOM     11  C   UNL     1      49.457  49.433  14.454  1.00  0.00    -0.000 C 
BRANCH  11  12
ATOM     12  C   UNL     1      49.235  50.071  13.078  1.00  0.00    -0.000 C 
BRANCH  12  13
ATOM     13  C   UNL     1      50.327  49.639  12.089  1.00  0.00    -0.000 C 
BRANCH  13  14
ATOM     14  C   UNL     1      51.736  49.657  12.709  1.00  0.00    -0.000 C 
BRANCH  14  15
ATOM     15  C   UNL     1      52.532  48.343  12.562  1.00  0.00    -0.000 C 
BRANCH  15  16
ATOM     16  C   UNL     1      53.310  47.911  13.817  1.00  0.00    -0.003 C 
ATOM     17  C   UNL     1      54.740  47.467  13.508  1.00  0.00     0.004 C 
ENDBRANCH  15  16
ENDBRANCH  14  15
ENDBRANCH  13  14
ENDBRANCH  12  13
ENDBRANCH  11  12
ENDBRANCH  10  11
ENDBRANCH   1  10
TORSDOF 13
ENDMDL
MODEL 7
REMARK VINA RESULT:    -3.492     11.082     14.308
REMARK INTER + INTRA:          -7.137
REMARK INTER:                  -5.460
REMARK INTRA:                  -1.678
REMARK UNBOUND:                -0.991
REMARK SMILES CCCCCCCCCCCCCCC(=O)[O-]
REMARK SMILES IDX 9 1 10 2 11 3 12 4 13 5 14 6 15 7 16 8 17 9 8 10 7 11 6 12
REMARK SMILES IDX 5 13 4 14 3 15 2 16 1 17
REMARK H PARENT
REMARK Flexibility Score: inf
ROOT
ATOM      1  C   UNL     1      47.034  42.901  14.189  1.00  0.00     0.000 C 
ENDROOT
BRANCH   1   2
ATOM      2  C   UNL     1      48.179  43.311  15.130  1.00  0.00     0.000 C 
BRANCH   2   3
ATOM      3  C   UNL     1      48.574  44.789  14.971  1.00  0.00     0.000 C 
BRANCH   3   4
ATOM      4  C   UNL     1      49.949  44.962  14.307  1.00  0.00     0.000 C 
BRANCH   4   5
ATOM      5  C   UNL     1      50.406  46.431  14.261  1.00  0.00     0.006 C 
BRANCH   5   6
ATOM      6  C   UNL     1      49.897  47.233  15.467  1.00  0.00     0.053 C 
BRANCH   6   7
ATOM      7  C   UNL     1      49.489  48.621  15.075  1.00  0.00     0.041 C 
ATOM      8  O   UNL     1      49.418  49.530  15.943  1.00  0.00    -0.550 OA
ATOM      9  O   UNL     1      49.220  48.916  13.745  1.00  0.00    -0.550 OA
ENDBRANCH   6   7
ENDBRANCH   5   6
ENDBRANCH   4   5
ENDBRANCH   3   4
ENDBRANCH   2   3
ENDBRANCH   1   2
BRANCH   1  10
ATOM     10  C   UNL     1      46.449  41.523  14.529  1.00  0.00     0.000 C 
BRANCH  10  11
ATOM     11  C   UNL     1      45.339  41.642  15.581  1.00  0.00    -0.000 C 
BRANCH  11  12
ATOM     12  C   UNL     1      45.767  41.008  16.910  1.00  0.00    -0.000 C 
BRANCH  12  13
ATOM     13  C   UNL     1      45.331  41.875  18.099  1.00  0.00    -0.000 C 
BRANCH  13  14
ATOM     14  C   UNL     1      44.903  43.294  17.680  1.00  0.00    -0.000 C 
BRANCH  14  15
ATOM     15  C   UNL     1      45.948  44.397  17.945  1.00  0.00    -0.000 C 
BRANCH  15  16
ATOM     16  C   UNL     1      45.709  45.714  17.186  1.00  0.00    -0.003 C 
ATOM     17  C   UNL     1      44.877  45.527  15.917  1.00  0.00     0.004 C 
ENDBRANCH  15  16
ENDBRANCH  14  15
ENDBRANCH  13  14
ENDBRANCH  12  13
ENDBRANCH  11  12
ENDBRANCH  10  11
ENDBRANCH   1  10
TORSDOF 13
ENDMDL
MODEL 8
REMARK VINA RESULT:    -3.487      1.992      3.988
REMARK INTER + INTRA:          -7.128
REMARK INTER:                  -5.472
REMARK INTRA:                  -1.657
REMARK UNBOUND:                -0.991
REMARK SMILES CCCCCCCCCCCCCCC(=O)[O-]
REMARK SMILES IDX 9 1 10 2 11 3 12 4 13 5 14 6 15 7 16 8 17 9 8 10 7 11 6 12
REMARK SMILES IDX 5 13 4 14 3 15 2 16 1 17
REMARK H PARENT
REMARK Flexibility Score: inf
ROOT
ATOM      1  C   UNL     1      63.835  45.320  15.915  1.00  0.00     0.000 C 
ENDROOT
BRANCH   1   2
ATOM      2  C   UNL     1      63.202  45.311  17.316  1.00  0.00     0.000 C 
BRANCH   2   3
ATOM      3  C   UNL     1      62.296  46.530  17.562  1.00  0.00     0.000 C 
BRANCH   3   4
ATOM      4  C   UNL     1      60.841  46.133  17.857  1.00  0.00     0.000 C 
BRANCH   4   5
ATOM      5  C   UNL     1      60.384  44.908  17.046  1.00  0.00     0.006 C 
BRANCH   5   6
ATOM      6  C   UNL     1      58.933  44.515  17.358  1.00  0.00     0.053 C 
BRANCH   6   7
ATOM      7  C   UNL     1      58.012  44.855  16.226  1.00  0.00     0.041 C 
ATOM      8  O   UNL     1      57.546  43.944  15.492  1.00  0.00    -0.550 OA
ATOM      9  O   UNL     1      57.640  46.174  16.006  1.00  0.00    -0.550 OA
ENDBRANCH   6   7
ENDBRANCH   5   6
ENDBRANCH   4   5
ENDBRANCH   3   4
ENDBRANCH   2   3
ENDBRANCH   1   2
BRANCH   1  10
ATOM     10  C   UNL     1      63.473  44.076  15.091  1.00  0.00     0.000 C 
BRANCH  10  11
ATOM     11  C   UNL     1      64.637  43.078  15.064  1.00  0.00    -0.000 C 
BRANCH  11  12
ATOM     12  C   UNL     1      64.127  41.633  15.113  1.00  0.00    -0.000 C 
BRANCH  12  13
ATOM     13  C   UNL     1      64.615  40.920  16.381  1.00  0.00    -0.000 C 
BRANCH  13  14
ATOM     14  C   UNL     1      63.498  40.713  17.420  1.00  0.00    -0.000 C 
BRANCH  14  15
ATOM     15  C   UNL     1      63.230  41.921  18.342  1.00  0.00    -0.000 C 
BRANCH  15  16
ATOM     16  C   UNL     1      61.805  41.995  18.918  1.00  0.00    -0.003 C 
ATOM     17  C   UNL     1      61.706  42.899  20.147  1.00  0.00     0.004 C 
ENDBRANCH  15  16
ENDBRANCH  14  15
ENDBRANCH  13  14
ENDBRANCH  12  13
ENDBRANCH  11  12
ENDBRANCH  10  11
ENDBRANCH   1  10
TORSDOF 13
ENDMDL
MODEL 9
REMARK VINA RESULT:    -3.418      9.854     12.916
REMARK INTER + INTRA:          -7.007
REMARK INTER:                  -5.180
REMARK INTRA:                  -1.827
REMARK UNBOUND:                -0.991
REMARK SMILES CCCCCCCCCCCCCCC(=O)[O-]
REMARK SMILES IDX 9 1 10 2 11 3 12 4 13 5 14 6 15 7 16 8 17 9 8 10 7 11 6 12
REMARK SMILES IDX 5 13 4 14 3 15 2 16 1 17
REMARK H PARENT
REMARK Flexibility Score: inf
ROOT
ATOM      1  C   UNL     1      49.015  45.758  17.791  1.00  0.00     0.000 C 
ENDROOT
BRANCH   1   2
ATOM      2  C   UNL     1      48.972  47.086  17.017  1.00  0.00     0.000 C 
BRANCH   2   3
ATOM      3  C   UNL     1      48.227  46.964  15.677  1.00  0.00     0.000 C 
BRANCH   3   4
ATOM      4  C   UNL     1      49.165  47.096  14.467  1.00  0.00     0.000 C 
BRANCH   4   5
ATOM      5  C   UNL     1      50.298  46.055  14.477  1.00  0.00     0.006 C 
BRANCH   5   6
ATOM      6  C   UNL     1      51.669  46.694  14.735  1.00  0.00     0.053 C 
BRANCH   6   7
ATOM      7  C   UNL     1      51.954  47.802  13.768  1.00  0.00     0.041 C 
ATOM      8  O   UNL     1      52.154  48.973  14.186  1.00  0.00    -0.550 OA
ATOM      9  O   UNL     1      52.033  47.534  12.408  1.00  0.00    -0.550 OA
ENDBRANCH   6   7
ENDBRANCH   5   6
ENDBRANCH   4   5
ENDBRANCH   3   4
ENDBRANCH   2   3
ENDBRANCH   1   2
BRANCH   1  10
ATOM     10  C   UNL     1      47.999  44.732  17.267  1.00  0.00     0.000 C 
BRANCH  10  11
ATOM     11  C   UNL     1      48.631  43.338  17.164  1.00  0.00    -0.000 C 
BRANCH  11  12
ATOM     12  C   UNL     1      48.899  42.960  15.703  1.00  0.00    -0.000 C 
BRANCH  12  13
ATOM     13  C   UNL     1      47.741  43.406  14.799  1.00  0.00    -0.000 C 
BRANCH  13  14
ATOM     14  C   UNL     1      47.020  42.225  14.123  1.00  0.00    -0.000 C 
BRANCH  14  15
ATOM     15  C   UNL     1      45.821  41.654  14.909  1.00  0.00    -0.000 C 
BRANCH  15  16
ATOM     16  C   UNL     1      44.904  42.709  15.550  1.00  0.00    -0.003 C 
ATOM     17  C   UNL     1      44.876  42.626  17.076  1.00  0.00     0.004 C 
ENDBRANCH  15  16
ENDBRANCH  14  15
ENDBRANCH  13  14
ENDBRANCH  12  13
ENDBRANCH  11  12
ENDBRANCH  10  11
ENDBRANCH   1  10
TORSDOF 13
ENDMDL
