MODEL 1
REMARK VINA RESULT:    -3.364      0.000      0.000
REMARK INTER + INTRA:          -4.027
REMARK INTER:                  -3.953
REMARK INTRA:                  -0.074
REMARK UNBOUND:                -0.074
REMARK SMILES O=C([O-])CCC(=O)[O-]
REMARK SMILES IDX 4 1 2 2 1 3 3 4 5 5 6 6 7 7 8 8
REMARK H PARENT
REMARK Flexibility Score: inf
ROOT
ATOM      1  C   UNL     1      15.564  51.246 159.929  1.00  0.00     0.059 C 
ENDROOT
BRANCH   1   2
ATOM      2  C   UNL     1      14.193  51.799 159.682  1.00  0.00     0.042 C 
ATOM      3  O   UNL     1      13.979  52.549 158.694  1.00  0.00    -0.550 OA
ATOM      4  O   UNL     1      13.142  51.451 160.522  1.00  0.00    -0.550 OA
ENDBRANCH   1   2
BRANCH   1   5
ATOM      5  C   UNL     1      16.462  51.400 158.697  1.00  0.00     0.059 C 
BRANCH   5   6
ATOM      6  C   UNL     1      17.384  52.573 158.830  1.00  0.00     0.042 C 
ATOM      7  O   UNL     1      18.076  52.951 157.849  1.00  0.00    -0.550 OA
ATOM      8  O   UNL     1      17.449  53.275 160.028  1.00  0.00    -0.550 OA
ENDBRANCH   5   6
ENDBRANCH   1   5
TORSDOF 3
ENDMDL
MODEL 2
REMARK VINA RESULT:    -3.350      0.165      1.626
REMARK INTER + INTRA:          -4.011
REMARK INTER:                  -3.922
REMARK INTRA:                  -0.089
REMARK UNBOUND:                -0.074
REMARK SMILES O=C([O-])CCC(=O)[O-]
REMARK SMILES IDX 4 1 2 2 1 3 3 4 5 5 6 6 7 7 8 8
REMARK H PARENT
REMARK Flexibility Score: inf
ROOT
ATOM      1  C   UNL     1      15.560  51.298 159.829  1.00  0.00     0.059 C 
ENDROOT
BRANCH   1   2
ATOM      2  C   UNL     1      14.189  51.853 159.587  1.00  0.00     0.042 C 
ATOM      3  O   UNL     1      13.246  51.580 160.374  1.00  0.00    -0.550 OA
ATOM      4  O   UNL     1      13.965  52.704 158.513  1.00  0.00    -0.550 OA
ENDBRANCH   1   2
BRANCH   1   5
ATOM      5  C   UNL     1      16.465  51.479 158.607  1.00  0.00     0.059 C 
BRANCH   5   6
ATOM      6  C   UNL     1      17.426  52.613 158.795  1.00  0.00     0.042 C 
ATOM      7  O   UNL     1      17.510  53.194 159.909  1.00  0.00    -0.550 OA
ATOM      8  O   UNL     1      18.257  53.002 157.752  1.00  0.00    -0.550 OA
ENDBRANCH   5   6
ENDBRANCH   1   5
TORSDOF 3
ENDMDL
MODEL 3
REMARK VINA RESULT:    -3.309      2.424      3.059
REMARK INTER + INTRA:          -3.963
REMARK INTER:                  -3.903
REMARK INTRA:                  -0.060
REMARK UNBOUND:                -0.074
REMARK SMILES O=C([O-])CCC(=O)[O-]
REMARK SMILES IDX 4 1 2 2 1 3 3 4 5 5 6 6 7 7 8 8
REMARK H PARENT
REMARK Flexibility Score: inf
ROOT
ATOM      1  C   UNL     1      15.560  52.425 158.699  1.00  0.00     0.059 C 
ENDROOT
BRANCH   1   2
ATOM      2  C   UNL     1      14.898  51.489 159.664  1.00  0.00     0.042 C 
ATOM      3  O   UNL     1      13.713  51.694 160.037  1.00  0.00    -0.550 OA
ATOM      4  O   UNL     1      15.577  50.365 160.118  1.00  0.00    -0.550 OA
ENDBRANCH   1   2
BRANCH   1   5
ATOM      5  C   UNL     1      14.732  52.594 157.421  1.00  0.00     0.059 C 
BRANCH   5   6
ATOM      6  C   UNL     1      14.553  54.039 157.067  1.00  0.00     0.042 C 
ATOM      7  O   UNL     1      15.408  54.890 157.425  1.00  0.00    -0.550 OA
ATOM      8  O   UNL     1      13.460  54.438 156.307  1.00  0.00    -0.550 OA
ENDBRANCH   5   6
ENDBRANCH   1   5
TORSDOF 3
ENDMDL
MODEL 4
REMARK VINA RESULT:    -3.270      2.437      3.694
REMARK INTER + INTRA:          -3.918
REMARK INTER:                  -3.859
REMARK INTRA:                  -0.058
REMARK UNBOUND:                -0.074
REMARK SMILES O=C([O-])CCC(=O)[O-]
REMARK SMILES IDX 4 1 2 2 1 3 3 4 5 5 6 6 7 7 8 8
REMARK H PARENT
REMARK Flexibility Score: inf
ROOT
ATOM      1  C   UNL     1      14.366  52.856 157.556  1.00  0.00     0.059 C 
ENDROOT
BRANCH   1   2
ATOM      2  C   UNL     1      14.752  54.230 157.101  1.00  0.00     0.042 C 
ATOM      3  O   UNL     1      14.049  54.838 156.251  1.00  0.00    -0.550 OA
ATOM      4  O   UNL     1      15.866  54.855 157.645  1.00  0.00    -0.550 OA
ENDBRANCH   1   2
BRANCH   1   5
ATOM      5  C   UNL     1      15.420  52.256 158.493  1.00  0.00     0.059 C 
BRANCH   5   6
ATOM      6  C   UNL     1      14.788  51.500 159.622  1.00  0.00     0.042 C 
ATOM      7  O   UNL     1      13.627  51.794 160.010  1.00  0.00    -0.550 OA
ATOM      8  O   UNL     1      15.466  50.444 160.218  1.00  0.00    -0.550 OA
ENDBRANCH   5   6
ENDBRANCH   1   5
TORSDOF 3
ENDMDL
MODEL 5
REMARK VINA RESULT:    -3.250      0.560      3.863
REMARK INTER + INTRA:          -3.894
REMARK INTER:                  -3.799
REMARK INTRA:                  -0.095
REMARK UNBOUND:                -0.074
REMARK SMILES O=C([O-])CCC(=O)[O-]
REMARK SMILES IDX 4 1 2 2 1 3 3 4 5 5 6 6 7 7 8 8
REMARK H PARENT
REMARK Flexibility Score: inf
ROOT
ATOM      1  C   UNL     1      16.687  51.989 158.630  1.00  0.00     0.059 C 
ENDROOT
BRANCH   1   2
ATOM      2  C   UNL     1      17.583  53.010 159.265  1.00  0.00     0.042 C 
ATOM      3  O   UNL     1      17.326  53.451 160.416  1.00  0.00    -0.550 OA
ATOM      4  O   UNL     1      18.723  53.442 158.601  1.00  0.00    -0.550 OA
ENDBRANCH   1   2
BRANCH   1   5
ATOM      5  C   UNL     1      15.764  51.332 159.660  1.00  0.00     0.059 C 
BRANCH   5   6
ATOM      6  C   UNL     1      14.354  51.822 159.529  1.00  0.00     0.042 C 
ATOM      7  O   UNL     1      14.042  52.614 158.602  1.00  0.00    -0.550 OA
ATOM      8  O   UNL     1      13.376  51.373 160.409  1.00  0.00    -0.550 OA
ENDBRANCH   5   6
ENDBRANCH   1   5
TORSDOF 3
ENDMDL
MODEL 6
REMARK VINA RESULT:    -3.236      2.251      3.067
REMARK INTER + INTRA:          -3.878
REMARK INTER:                  -3.756
REMARK INTRA:                  -0.122
REMARK UNBOUND:                -0.074
REMARK SMILES O=C([O-])CCC(=O)[O-]
REMARK SMILES IDX 4 1 2 2 1 3 3 4 5 5 6 6 7 7 8 8
REMARK H PARENT
REMARK Flexibility Score: inf
ROOT
ATOM      1  C   UNL     1      15.735  52.437 158.929  1.00  0.00     0.059 C 
ENDROOT
BRANCH   1   2
ATOM      2  C   UNL     1      14.906  51.458 159.703  1.00  0.00     0.042 C 
ATOM      3  O   UNL     1      15.404  50.367 160.085  1.00  0.00    -0.550 OA
ATOM      4  O   UNL     1      13.594  51.770 160.039  1.00  0.00    -0.550 OA
ENDBRANCH   1   2
BRANCH   1   5
ATOM      5  C   UNL     1      14.884  53.229 157.930  1.00  0.00     0.059 C 
BRANCH   5   6
ATOM      6  C   UNL     1      14.675  52.465 156.658  1.00  0.00     0.042 C 
ATOM      7  O   UNL     1      13.571  52.529 156.055  1.00  0.00    -0.550 OA
ATOM      8  O   UNL     1      15.712  51.715 156.118  1.00  0.00    -0.550 OA
ENDBRANCH   5   6
ENDBRANCH   1   5
TORSDOF 3
ENDMDL
MODEL 7
REMARK VINA RESULT:    -3.223      2.379      3.297
REMARK INTER + INTRA:          -3.862
REMARK INTER:                  -3.739
REMARK INTRA:                  -0.123
REMARK UNBOUND:                -0.074
REMARK SMILES O=C([O-])CCC(=O)[O-]
REMARK SMILES IDX 4 1 2 2 1 3 3 4 5 5 6 6 7 7 8 8
REMARK H PARENT
REMARK Flexibility Score: inf
ROOT
ATOM      1  C   UNL     1      14.771  52.568 157.448  1.00  0.00     0.059 C 
ENDROOT
BRANCH   1   2
ATOM      2  C   UNL     1      14.883  54.051 157.262  1.00  0.00     0.042 C 
ATOM      3  O   UNL     1      15.817  54.691 157.814  1.00  0.00    -0.550 OA
ATOM      4  O   UNL     1      13.981  54.719 156.445  1.00  0.00    -0.550 OA
ENDBRANCH   1   2
BRANCH   1   5
ATOM      5  C   UNL     1      14.536  52.202 158.917  1.00  0.00     0.059 C 
BRANCH   5   6
ATOM      6  C   UNL     1      15.688  51.430 159.484  1.00  0.00     0.042 C 
ATOM      7  O   UNL     1      15.485  50.359 160.113  1.00  0.00    -0.550 OA
ATOM      8  O   UNL     1      16.989  51.875 159.283  1.00  0.00    -0.550 OA
ENDBRANCH   5   6
ENDBRANCH   1   5
TORSDOF 3
ENDMDL
MODEL 8
REMARK VINA RESULT:    -3.200      2.044      3.265
REMARK INTER + INTRA:          -3.835
REMARK INTER:                  -3.690
REMARK INTRA:                  -0.145
REMARK UNBOUND:                -0.074
REMARK SMILES O=C([O-])CCC(=O)[O-]
REMARK SMILES IDX 4 1 2 2 1 3 3 4 5 5 6 6 7 7 8 8
REMARK H PARENT
REMARK Flexibility Score: inf
ROOT
ATOM      1  C   UNL     1      16.534  52.171 157.964  1.00  0.00     0.059 C 
ENDROOT
BRANCH   1   2
ATOM      2  C   UNL     1      15.450  52.703 157.076  1.00  0.00     0.042 C 
ATOM      3  O   UNL     1      15.191  52.137 155.981  1.00  0.00    -0.550 OA
ATOM      4  O   UNL     1      14.699  53.800 157.478  1.00  0.00    -0.550 OA
ENDBRANCH   1   2
BRANCH   1   5
ATOM      5  C   UNL     1      16.174  52.325 159.445  1.00  0.00     0.059 C 
BRANCH   5   6
ATOM      6  C   UNL     1      15.219  51.262 159.894  1.00  0.00     0.042 C 
ATOM      7  O   UNL     1      15.639  50.110 160.176  1.00  0.00    -0.550 OA
ATOM      8  O   UNL     1      13.869  51.557 160.040  1.00  0.00    -0.550 OA
ENDBRANCH   5   6
ENDBRANCH   1   5
TORSDOF 3
ENDMDL
MODEL 9
REMARK VINA RESULT:    -2.997      1.956      2.464
REMARK INTER + INTRA:          -3.596
REMARK INTER:                  -3.450
REMARK INTRA:                  -0.146
REMARK UNBOUND:                -0.074
REMARK SMILES O=C([O-])CCC(=O)[O-]
REMARK SMILES IDX 4 1 2 2 1 3 3 4 5 5 6 6 7 7 8 8
REMARK H PARENT
REMARK Flexibility Score: inf
ROOT
ATOM      1  C   UNL     1      14.739  52.363 158.611  1.00  0.00     0.059 C 
ENDROOT
BRANCH   1   2
ATOM      2  C   UNL     1      14.516  53.056 157.302  1.00  0.00     0.042 C 
ATOM      3  O   UNL     1      14.543  54.313 157.236  1.00  0.00    -0.550 OA
ATOM      4  O   UNL     1      14.320  52.311 156.146  1.00  0.00    -0.550 OA
ENDBRANCH   1   2
BRANCH   1   5
ATOM      5  C   UNL     1      16.090  51.641 158.643  1.00  0.00     0.059 C 
BRANCH   5   6
ATOM      6  C   UNL     1      17.224  52.600 158.839  1.00  0.00     0.042 C 
ATOM      7  O   UNL     1      17.442  53.100 159.974  1.00  0.00    -0.550 OA
ATOM      8  O   UNL     1      18.064  52.911 157.777  1.00  0.00    -0.550 OA
ENDBRANCH   5   6
ENDBRANCH   1   5
TORSDOF 3
ENDMDL
