MODEL 1
REMARK VINA RESULT:    -3.028      0.000      0.000
REMARK INTER + INTRA:          -5.422
REMARK INTER:                  -4.621
REMARK INTRA:                  -0.800
REMARK UNBOUND:                -0.800
REMARK SMILES CCCCCCCCCCC(=O)[O-]
REMARK SMILES IDX 7 1 8 2 9 3 10 4 11 5 12 6 13 7 6 8 5 9 4 10 3 11 2 12 1 13
REMARK H PARENT
REMARK Flexibility Score: inf
ROOT
ATOM      1  C   UNL     1      -5.114  20.935  14.828  1.00  0.00     0.000 C 
ENDROOT
BRANCH   1   2
ATOM      2  C   UNL     1      -4.663  20.118  16.048  1.00  0.00     0.000 C 
BRANCH   2   3
ATOM      3  C   UNL     1      -3.146  19.878  16.073  1.00  0.00     0.006 C 
BRANCH   3   4
ATOM      4  C   UNL     1      -2.564  20.189  17.455  1.00  0.00     0.053 C 
BRANCH   4   5
ATOM      5  C   UNL     1      -1.331  21.026  17.330  1.00  0.00     0.041 C 
ATOM      6  O   UNL     1      -0.982  21.785  18.272  1.00  0.00    -0.550 OA
ATOM      7  O   UNL     1      -0.595  21.007  16.153  1.00  0.00    -0.550 OA
ENDBRANCH   4   5
ENDBRANCH   3   4
ENDBRANCH   2   3
ENDBRANCH   1   2
BRANCH   1   8
ATOM      8  C   UNL     1      -6.639  21.113  14.765  1.00  0.00     0.000 C 
BRANCH   8   9
ATOM      9  C   UNL     1      -7.317  20.473  15.982  1.00  0.00    -0.000 C 
BRANCH   9  10
ATOM     10  C   UNL     1      -8.208  21.488  16.713  1.00  0.00    -0.000 C 
BRANCH  10  11
ATOM     11  C   UNL     1      -8.013  21.466  18.240  1.00  0.00    -0.000 C 
BRANCH  11  12
ATOM     12  C   UNL     1      -7.416  20.162  18.798  1.00  0.00    -0.003 C 
ATOM     13  C   UNL     1      -6.064  20.367  19.480  1.00  0.00     0.004 C 
ENDBRANCH  11  12
ENDBRANCH  10  11
ENDBRANCH   9  10
ENDBRANCH   8   9
ENDBRANCH   1   8
TORSDOF 9
ENDMDL
MODEL 2
REMARK VINA RESULT:    -2.573      2.970      5.530
REMARK INTER + INTRA:          -4.728
REMARK INTER:                  -4.189
REMARK INTRA:                  -0.539
REMARK UNBOUND:                -0.800
REMARK SMILES CCCCCCCCCCC(=O)[O-]
REMARK SMILES IDX 7 1 8 2 9 3 10 4 11 5 12 6 13 7 6 8 5 9 4 10 3 11 2 12 1 13
REMARK H PARENT
REMARK Flexibility Score: inf
ROOT
ATOM      1  C   UNL     1      -6.762  21.372  15.175  1.00  0.00     0.000 C 
ENDROOT
BRANCH   1   2
ATOM      2  C   UNL     1      -7.816  20.283  15.428  1.00  0.00     0.000 C 
BRANCH   2   3
ATOM      3  C   UNL     1      -8.494  20.421  16.799  1.00  0.00     0.006 C 
BRANCH   3   4
ATOM      4  C   UNL     1      -8.375  21.854  17.328  1.00  0.00     0.053 C 
BRANCH   4   5
ATOM      5  C   UNL     1      -8.160  21.851  18.808  1.00  0.00     0.041 C 
ATOM      6  O   UNL     1      -7.491  20.932  19.350  1.00  0.00    -0.550 OA
ATOM      7  O   UNL     1      -8.740  22.836  19.596  1.00  0.00    -0.550 OA
ENDBRANCH   4   5
ENDBRANCH   3   4
ENDBRANCH   2   3
ENDBRANCH   1   2
BRANCH   1   8
ATOM      8  C   UNL     1      -5.376  20.793  14.855  1.00  0.00     0.000 C 
BRANCH   8   9
ATOM      9  C   UNL     1      -4.871  19.912  16.005  1.00  0.00    -0.000 C 
BRANCH   9  10
ATOM     10  C   UNL     1      -3.336  19.877  16.038  1.00  0.00    -0.000 C 
BRANCH  10  11
ATOM     11  C   UNL     1      -2.758  20.208  17.426  1.00  0.00    -0.000 C 
BRANCH  11  12
ATOM     12  C   UNL     1      -1.426  20.978  17.406  1.00  0.00    -0.003 C 
ATOM     13  C   UNL     1      -0.863  21.161  15.997  1.00  0.00     0.004 C 
ENDBRANCH  11  12
ENDBRANCH  10  11
ENDBRANCH   9  10
ENDBRANCH   8   9
ENDBRANCH   1   8
TORSDOF 9
ENDMDL
MODEL 3
REMARK VINA RESULT:    -2.237      3.046      5.634
REMARK INTER + INTRA:          -4.215
REMARK INTER:                  -3.567
REMARK INTRA:                  -0.648
REMARK UNBOUND:                -0.800
REMARK SMILES CCCCCCCCCCC(=O)[O-]
REMARK SMILES IDX 7 1 8 2 9 3 10 4 11 5 12 6 13 7 6 8 5 9 4 10 3 11 2 12 1 13
REMARK H PARENT
REMARK Flexibility Score: inf
ROOT
ATOM      1  C   UNL     1      -5.393  20.863  14.840  1.00  0.00     0.000 C 
ENDROOT
BRANCH   1   2
ATOM      2  C   UNL     1      -6.887  21.219  14.780  1.00  0.00     0.000 C 
BRANCH   2   3
ATOM      3  C   UNL     1      -7.741  20.349  15.713  1.00  0.00     0.006 C 
BRANCH   3   4
ATOM      4  C   UNL     1      -8.887  21.161  16.324  1.00  0.00     0.053 C 
BRANCH   4   5
ATOM      5  C   UNL     1      -8.447  21.816  17.595  1.00  0.00     0.041 C 
ATOM      6  O   UNL     1      -8.793  23.000  17.851  1.00  0.00    -0.550 OA
ATOM      7  O   UNL     1      -7.613  21.138  18.474  1.00  0.00    -0.550 OA
ENDBRANCH   4   5
ENDBRANCH   3   4
ENDBRANCH   2   3
ENDBRANCH   1   2
BRANCH   1   8
ATOM      8  C   UNL     1      -5.036  20.011  16.067  1.00  0.00     0.000 C 
BRANCH   8   9
ATOM      9  C   UNL     1      -3.516  19.875  16.218  1.00  0.00    -0.000 C 
BRANCH   9  10
ATOM     10  C   UNL     1      -2.782  20.885  15.323  1.00  0.00    -0.000 C 
BRANCH  10  11
ATOM     11  C   UNL     1      -1.433  21.338  15.912  1.00  0.00    -0.000 C 
BRANCH  11  12
ATOM     12  C   UNL     1      -1.066  20.691  17.259  1.00  0.00    -0.003 C 
ATOM     13  C   UNL     1      -0.981  21.699  18.404  1.00  0.00     0.004 C 
ENDBRANCH  11  12
ENDBRANCH  10  11
ENDBRANCH   9  10
ENDBRANCH   8   9
ENDBRANCH   1   8
TORSDOF 9
ENDMDL
MODEL 4
REMARK VINA RESULT:    -1.926     10.630     14.614
REMARK INTER + INTRA:          -3.739
REMARK INTER:                  -3.231
REMARK INTRA:                  -0.508
REMARK UNBOUND:                -0.800
REMARK SMILES CCCCCCCCCCC(=O)[O-]
REMARK SMILES IDX 7 1 8 2 9 3 10 4 11 5 12 6 13 7 6 8 5 9 4 10 3 11 2 12 1 13
REMARK H PARENT
REMARK Flexibility Score: inf
ROOT
ATOM      1  C   UNL     1       8.436  20.767  14.030  1.00  0.00     0.000 C 
ENDROOT
BRANCH   1   2
ATOM      2  C   UNL     1       7.500  19.877  13.198  1.00  0.00     0.000 C 
BRANCH   2   3
ATOM      3  C   UNL     1       6.057  19.880  13.725  1.00  0.00     0.006 C 
BRANCH   3   4
ATOM      4  C   UNL     1       5.730  21.204  14.420  1.00  0.00     0.053 C 
BRANCH   4   5
ATOM      5  C   UNL     1       5.078  20.955  15.744  1.00  0.00     0.041 C 
ATOM      6  O   UNL     1       5.393  21.650  16.745  1.00  0.00    -0.550 OA
ATOM      7  O   UNL     1       4.159  19.924  15.883  1.00  0.00    -0.550 OA
ENDBRANCH   4   5
ENDBRANCH   3   4
ENDBRANCH   2   3
ENDBRANCH   1   2
BRANCH   1   8
ATOM      8  C   UNL     1       9.760  20.070  14.379  1.00  0.00     0.000 C 
BRANCH   8   9
ATOM      9  C   UNL     1      10.926  20.676  13.589  1.00  0.00    -0.000 C 
BRANCH   9  10
ATOM     10  C   UNL     1      10.588  22.097  13.114  1.00  0.00    -0.000 C 
BRANCH  10  11
ATOM     11  C   UNL     1      11.044  22.370  11.669  1.00  0.00    -0.000 C 
BRANCH  11  12
ATOM     12  C   UNL     1      10.982  23.846  11.239  1.00  0.00    -0.003 C 
ATOM     13  C   UNL     1      11.108  24.817  12.412  1.00  0.00     0.004 C 
ENDBRANCH  11  12
ENDBRANCH  10  11
ENDBRANCH   9  10
ENDBRANCH   8   9
ENDBRANCH   1   8
TORSDOF 9
ENDMDL
MODEL 5
REMARK VINA RESULT:    -1.762      3.193      5.625
REMARK INTER + INTRA:          -3.489
REMARK INTER:                  -2.835
REMARK INTRA:                  -0.654
REMARK UNBOUND:                -0.800
REMARK SMILES CCCCCCCCCCC(=O)[O-]
REMARK SMILES IDX 7 1 8 2 9 3 10 4 11 5 12 6 13 7 6 8 5 9 4 10 3 11 2 12 1 13
REMARK H PARENT
REMARK Flexibility Score: inf
ROOT
ATOM      1  C   UNL     1      -5.125  21.175  15.604  1.00  0.00     0.000 C 
ENDROOT
BRANCH   1   2
ATOM      2  C   UNL     1      -6.190  20.927  14.525  1.00  0.00     0.000 C 
BRANCH   2   3
ATOM      3  C   UNL     1      -7.601  21.327  14.983  1.00  0.00     0.006 C 
BRANCH   3   4
ATOM      4  C   UNL     1      -8.094  20.408  16.105  1.00  0.00     0.053 C 
BRANCH   4   5
ATOM      5  C   UNL     1      -8.185  21.158  17.396  1.00  0.00     0.041 C 
ATOM      6  O   UNL     1      -8.187  20.537  18.491  1.00  0.00    -0.550 OA
ATOM      7  O   UNL     1      -8.318  22.541  17.389  1.00  0.00    -0.550 OA
ENDBRANCH   4   5
ENDBRANCH   3   4
ENDBRANCH   2   3
ENDBRANCH   1   2
BRANCH   1   8
ATOM      8  C   UNL     1      -4.494  19.875  16.125  1.00  0.00     0.000 C 
BRANCH   8   9
ATOM      9  C   UNL     1      -4.408  19.881  17.656  1.00  0.00    -0.000 C 
BRANCH   9  10
ATOM     10  C   UNL     1      -2.949  19.972  18.126  1.00  0.00    -0.000 C 
BRANCH  10  11
ATOM     11  C   UNL     1      -1.943  19.973  16.961  1.00  0.00    -0.000 C 
BRANCH  11  12
ATOM     12  C   UNL     1      -0.946  21.145  16.968  1.00  0.00    -0.003 C 
ATOM     13  C   UNL     1      -0.540  21.594  15.565  1.00  0.00     0.004 C 
ENDBRANCH  11  12
ENDBRANCH  10  11
ENDBRANCH   9  10
ENDBRANCH   8   9
ENDBRANCH   1   8
TORSDOF 9
ENDMDL
MODEL 6
REMARK VINA RESULT:    -1.498     11.410     14.483
REMARK INTER + INTRA:          -3.086
REMARK INTER:                  -2.656
REMARK INTRA:                  -0.430
REMARK UNBOUND:                -0.800
REMARK SMILES CCCCCCCCCCC(=O)[O-]
REMARK SMILES IDX 7 1 8 2 9 3 10 4 11 5 12 6 13 7 6 8 5 9 4 10 3 11 2 12 1 13
REMARK H PARENT
REMARK Flexibility Score: inf
ROOT
ATOM      1  C   UNL     1       8.986  20.785  12.032  1.00  0.00     0.000 C 
ENDROOT
BRANCH   1   2
ATOM      2  C   UNL     1       9.948  20.033  11.100  1.00  0.00     0.000 C 
BRANCH   2   3
ATOM      3  C   UNL     1      11.044  20.940  10.522  1.00  0.00     0.006 C 
BRANCH   3   4
ATOM      4  C   UNL     1      11.119  22.265  11.286  1.00  0.00     0.053 C 
BRANCH   4   5
ATOM      5  C   UNL     1      10.955  23.421  10.351  1.00  0.00     0.041 C 
ATOM      6  O   UNL     1      10.789  23.220   9.119  1.00  0.00    -0.550 OA
ATOM      7  O   UNL     1      11.036  24.721  10.832  1.00  0.00    -0.550 OA
ENDBRANCH   4   5
ENDBRANCH   3   4
ENDBRANCH   2   3
ENDBRANCH   1   2
BRANCH   1   8
ATOM      8  C   UNL     1       8.364  19.875  13.101  1.00  0.00     0.000 C 
BRANCH   8   9
ATOM      9  C   UNL     1       8.153  20.637  14.415  1.00  0.00    -0.000 C 
BRANCH   9  10
ATOM     10  C   UNL     1       7.153  19.904  15.322  1.00  0.00    -0.000 C 
BRANCH  10  11
ATOM     11  C   UNL     1       5.719  19.910  14.764  1.00  0.00    -0.000 C 
BRANCH  11  12
ATOM     12  C   UNL     1       4.694  20.671  15.623  1.00  0.00    -0.003 C 
ATOM     13  C   UNL     1       5.333  21.728  16.521  1.00  0.00     0.004 C 
ENDBRANCH  11  12
ENDBRANCH  10  11
ENDBRANCH   9  10
ENDBRANCH   8   9
ENDBRANCH   1   8
TORSDOF 9
ENDMDL
MODEL 7
REMARK VINA RESULT:    -1.365      3.292      4.874
REMARK INTER + INTRA:          -2.884
REMARK INTER:                  -2.120
REMARK INTRA:                  -0.764
REMARK UNBOUND:                -0.800
REMARK SMILES CCCCCCCCCCC(=O)[O-]
REMARK SMILES IDX 7 1 8 2 9 3 10 4 11 5 12 6 13 7 6 8 5 9 4 10 3 11 2 12 1 13
REMARK H PARENT
REMARK Flexibility Score: inf
ROOT
ATOM      1  C   UNL     1      -3.970  20.403  17.525  1.00  0.00     0.000 C 
ENDROOT
BRANCH   1   2
ATOM      2  C   UNL     1      -4.591  19.875  18.828  1.00  0.00     0.000 C 
BRANCH   2   3
ATOM      3  C   UNL     1      -6.036  20.355  19.032  1.00  0.00     0.006 C 
BRANCH   3   4
ATOM      4  C   UNL     1      -6.443  20.258  20.506  1.00  0.00     0.053 C 
BRANCH   4   5
ATOM      5  C   UNL     1      -7.517  21.250  20.820  1.00  0.00     0.041 C 
ATOM      6  O   UNL     1      -8.050  21.265  21.961  1.00  0.00    -0.550 OA
ATOM      7  O   UNL     1      -7.964  22.124  19.839  1.00  0.00    -0.550 OA
ENDBRANCH   4   5
ENDBRANCH   3   4
ENDBRANCH   2   3
ENDBRANCH   1   2
BRANCH   1   8
ATOM      8  C   UNL     1      -4.702  19.899  16.273  1.00  0.00     0.000 C 
BRANCH   8   9
ATOM      9  C   UNL     1      -4.648  20.941  15.149  1.00  0.00    -0.000 C 
BRANCH   9  10
ATOM     10  C   UNL     1      -5.887  20.844  14.247  1.00  0.00    -0.000 C 
BRANCH  10  11
ATOM     11  C   UNL     1      -7.138  20.352  14.998  1.00  0.00    -0.000 C 
BRANCH  11  12
ATOM     12  C   UNL     1      -7.943  21.456  15.706  1.00  0.00    -0.003 C 
ATOM     13  C   UNL     1      -8.885  20.914  16.779  1.00  0.00     0.004 C 
ENDBRANCH  11  12
ENDBRANCH  10  11
ENDBRANCH   9  10
ENDBRANCH   8   9
ENDBRANCH   1   8
TORSDOF 9
ENDMDL
