MODEL 1
REMARK VINA RESULT:    -5.335      0.000      0.000
REMARK INTER + INTRA:         -13.141
REMARK INTER:                 -10.013
REMARK INTRA:                  -3.128
REMARK UNBOUND:                -3.128
REMARK SMILES CCCCCCCCC=CCCCCCCCC(=O)[O-]
REMARK SMILES IDX 10 1 9 2 11 3 12 4 13 5 14 6 15 7 16 8 17 9 18 10 19 11
REMARK SMILES IDX 20 12 8 13 7 14 6 15 5 16 4 17 3 18 2 19 1 20
REMARK H PARENT
REMARK Flexibility Score: inf
ROOT
ATOM      1  C   UNL     1     -14.553   5.151 -23.150  1.00  0.00    -0.031 C 
ATOM      2  C   UNL     1     -14.429   5.394 -21.837  1.00  0.00    -0.031 C 
ENDROOT
BRANCH   1   3
ATOM      3  C   UNL     1     -15.697   4.344 -23.699  1.00  0.00     0.027 C 
BRANCH   3   4
ATOM      4  C   UNL     1     -17.043   4.864 -23.177  1.00  0.00     0.004 C 
BRANCH   4   5
ATOM      5  C   UNL     1     -17.684   3.855 -22.212  1.00  0.00     0.000 C 
BRANCH   5   6
ATOM      6  C   UNL     1     -17.655   4.334 -20.752  1.00  0.00     0.000 C 
BRANCH   6   7
ATOM      7  C   UNL     1     -16.688   3.511 -19.883  1.00  0.00     0.000 C 
BRANCH   7   8
ATOM      8  C   UNL     1     -16.078   2.322 -20.640  1.00  0.00     0.006 C 
BRANCH   8   9
ATOM      9  C   UNL     1     -14.623   2.045 -20.241  1.00  0.00     0.053 C 
BRANCH   9  10
ATOM     10  C   UNL     1     -13.935   1.240 -21.298  1.00  0.00     0.041 C 
ATOM     11  O   UNL     1     -13.610   0.044 -21.071  1.00  0.00    -0.550 OA
ATOM     12  O   UNL     1     -13.703   1.790 -22.551  1.00  0.00    -0.550 OA
ENDBRANCH   9  10
ENDBRANCH   8   9
ENDBRANCH   7   8
ENDBRANCH   6   7
ENDBRANCH   5   6
ENDBRANCH   4   5
ENDBRANCH   3   4
ENDBRANCH   1   3
BRANCH   2  13
ATOM     13  C   UNL     1     -13.279   6.195 -21.291  1.00  0.00     0.027 C 
BRANCH  13  14
ATOM     14  C   UNL     1     -13.782   7.396 -20.473  1.00  0.00     0.004 C 
BRANCH  14  15
ATOM     15  C   UNL     1     -15.246   7.237 -20.033  1.00  0.00     0.000 C 
BRANCH  15  16
ATOM     16  C   UNL     1     -16.127   8.414 -20.487  1.00  0.00     0.000 C 
BRANCH  16  17
ATOM     17  C   UNL     1     -17.327   7.966 -21.337  1.00  0.00    -0.000 C 
BRANCH  17  18
ATOM     18  C   UNL     1     -17.441   8.741 -22.660  1.00  0.00    -0.000 C 
BRANCH  18  19
ATOM     19  C   UNL     1     -16.080   8.932 -23.348  1.00  0.00    -0.003 C 
ATOM     20  C   UNL     1     -15.963   8.151 -24.658  1.00  0.00     0.004 C 
ENDBRANCH  18  19
ENDBRANCH  17  18
ENDBRANCH  16  17
ENDBRANCH  15  16
ENDBRANCH  14  15
ENDBRANCH  13  14
ENDBRANCH   2  13
TORSDOF 15
ENDMDL
MODEL 2
REMARK VINA RESULT:    -5.128      2.846      6.414
REMARK INTER + INTRA:         -12.753
REMARK INTER:                  -9.706
REMARK INTRA:                  -3.048
REMARK UNBOUND:                -3.128
REMARK SMILES CCCCCCCCC=CCCCCCCCC(=O)[O-]
REMARK SMILES IDX 10 1 9 2 11 3 12 4 13 5 14 6 15 7 16 8 17 9 18 10 19 11
REMARK SMILES IDX 20 12 8 13 7 14 6 15 5 16 4 17 3 18 2 19 1 20
REMARK H PARENT
REMARK Flexibility Score: inf
ROOT
ATOM      1  C   UNL     1     -16.505   3.277 -23.257  1.00  0.00    -0.031 C 
ATOM      2  C   UNL     1     -17.265   2.208 -23.542  1.00  0.00    -0.031 C 
ENDROOT
BRANCH   1   3
ATOM      3  C   UNL     1     -15.895   4.122 -24.340  1.00  0.00     0.027 C 
BRANCH   3   4
ATOM      4  C   UNL     1     -15.092   5.289 -23.749  1.00  0.00     0.004 C 
BRANCH   4   5
ATOM      5  C   UNL     1     -14.011   4.779 -22.785  1.00  0.00     0.000 C 
BRANCH   5   6
ATOM      6  C   UNL     1     -14.012   5.531 -21.444  1.00  0.00     0.000 C 
BRANCH   6   7
ATOM      7  C   UNL     1     -15.069   6.648 -21.399  1.00  0.00     0.000 C 
BRANCH   7   8
ATOM      8  C   UNL     1     -16.002   6.530 -20.184  1.00  0.00     0.006 C 
BRANCH   8   9
ATOM      9  C   UNL     1     -17.397   6.008 -20.553  1.00  0.00     0.053 C 
BRANCH   9  10
ATOM     10  C   UNL     1     -18.067   6.943 -21.509  1.00  0.00     0.041 C 
ATOM     11  O   UNL     1     -18.349   8.118 -21.154  1.00  0.00    -0.550 OA
ATOM     12  O   UNL     1     -18.332   6.536 -22.810  1.00  0.00    -0.550 OA
ENDBRANCH   9  10
ENDBRANCH   8   9
ENDBRANCH   7   8
ENDBRANCH   6   7
ENDBRANCH   5   6
ENDBRANCH   4   5
ENDBRANCH   3   4
ENDBRANCH   1   3
BRANCH   2  13
ATOM     13  C   UNL     1     -17.868   1.361 -22.456  1.00  0.00     0.027 C 
BRANCH  13  14
ATOM     14  C   UNL     1     -17.677  -0.136 -22.753  1.00  0.00     0.004 C 
BRANCH  14  15
ATOM     15  C   UNL     1     -16.199  -0.516 -22.934  1.00  0.00     0.000 C 
BRANCH  15  16
ATOM     16  C   UNL     1     -15.384  -0.333 -21.642  1.00  0.00     0.000 C 
BRANCH  16  17
ATOM     17  C   UNL     1     -14.126   0.526 -21.849  1.00  0.00    -0.000 C 
BRANCH  17  18
ATOM     18  C   UNL     1     -14.049   1.714 -20.877  1.00  0.00    -0.000 C 
BRANCH  18  19
ATOM     19  C   UNL     1     -15.069   1.603 -19.732  1.00  0.00    -0.003 C 
ATOM     20  C   UNL     1     -15.970   2.833 -19.618  1.00  0.00     0.004 C 
ENDBRANCH  18  19
ENDBRANCH  17  18
ENDBRANCH  16  17
ENDBRANCH  15  16
ENDBRANCH  14  15
ENDBRANCH  13  14
ENDBRANCH   2  13
TORSDOF 15
ENDMDL
MODEL 3
REMARK VINA RESULT:    -5.064      2.367      4.686
REMARK INTER + INTRA:         -12.633
REMARK INTER:                  -9.896
REMARK INTRA:                  -2.738
REMARK UNBOUND:                -3.128
REMARK SMILES CCCCCCCCC=CCCCCCCCC(=O)[O-]
REMARK SMILES IDX 10 1 9 2 11 3 12 4 13 5 14 6 15 7 16 8 17 9 18 10 19 11
REMARK SMILES IDX 20 12 8 13 7 14 6 15 5 16 4 17 3 18 2 19 1 20
REMARK H PARENT
REMARK Flexibility Score: inf
ROOT
ATOM      1  C   UNL     1     -15.651   2.382 -20.171  1.00  0.00    -0.031 C 
ATOM      2  C   UNL     1     -16.386   2.610 -21.270  1.00  0.00    -0.031 C 
ENDROOT
BRANCH   1   3
ATOM      3  C   UNL     1     -14.472   1.449 -20.190  1.00  0.00     0.027 C 
BRANCH   3   4
ATOM      4  C   UNL     1     -14.835   0.081 -19.598  1.00  0.00     0.004 C 
BRANCH   4   5
ATOM      5  C   UNL     1     -15.357  -0.868 -20.687  1.00  0.00     0.000 C 
BRANCH   5   6
ATOM      6  C   UNL     1     -14.229  -1.450 -21.553  1.00  0.00     0.000 C 
BRANCH   6   7
ATOM      7  C   UNL     1     -14.488  -1.261 -23.058  1.00  0.00     0.000 C 
BRANCH   7   8
ATOM      8  C   UNL     1     -15.589  -0.228 -23.345  1.00  0.00     0.006 C 
BRANCH   8   9
ATOM      9  C   UNL     1     -15.253   0.686 -24.530  1.00  0.00     0.053 C 
BRANCH   9  10
ATOM     10  C   UNL     1     -16.486   1.374 -25.024  1.00  0.00     0.041 C 
ATOM     11  O   UNL     1     -16.515   1.866 -26.183  1.00  0.00    -0.550 OA
ATOM     12  O   UNL     1     -17.621   1.425 -24.227  1.00  0.00    -0.550 OA
ENDBRANCH   9  10
ENDBRANCH   8   9
ENDBRANCH   7   8
ENDBRANCH   6   7
ENDBRANCH   5   6
ENDBRANCH   4   5
ENDBRANCH   3   4
ENDBRANCH   1   3
BRANCH   2  13
ATOM     13  C   UNL     1     -17.570   3.538 -21.244  1.00  0.00     0.027 C 
BRANCH  13  14
ATOM     14  C   UNL     1     -17.435   4.575 -20.117  1.00  0.00     0.004 C 
BRANCH  14  15
ATOM     15  C   UNL     1     -16.893   5.922 -20.619  1.00  0.00     0.000 C 
BRANCH  15  16
ATOM     16  C   UNL     1     -15.401   6.113 -20.294  1.00  0.00     0.000 C 
BRANCH  16  17
ATOM     17  C   UNL     1     -14.505   6.023 -21.539  1.00  0.00    -0.000 C 
BRANCH  17  18
ATOM     18  C   UNL     1     -15.303   6.076 -22.852  1.00  0.00    -0.000 C 
BRANCH  18  19
ATOM     19  C   UNL     1     -14.952   4.919 -23.800  1.00  0.00    -0.003 C 
ATOM     20  C   UNL     1     -13.792   4.064 -23.288  1.00  0.00     0.004 C 
ENDBRANCH  18  19
ENDBRANCH  17  18
ENDBRANCH  16  17
ENDBRANCH  15  16
ENDBRANCH  14  15
ENDBRANCH  13  14
ENDBRANCH   2  13
TORSDOF 15
ENDMDL
MODEL 4
REMARK VINA RESULT:    -5.032      3.583      5.887
REMARK INTER + INTRA:         -12.572
REMARK INTER:                  -9.739
REMARK INTRA:                  -2.834
REMARK UNBOUND:                -3.128
REMARK SMILES CCCCCCCCC=CCCCCCCCC(=O)[O-]
REMARK SMILES IDX 10 1 9 2 11 3 12 4 13 5 14 6 15 7 16 8 17 9 18 10 19 11
REMARK SMILES IDX 20 12 8 13 7 14 6 15 5 16 4 17 3 18 2 19 1 20
REMARK H PARENT
REMARK Flexibility Score: inf
ROOT
ATOM      1  C   UNL     1     -14.518   5.581 -20.234  1.00  0.00    -0.031 C 
ATOM      2  C   UNL     1     -14.792   4.325 -20.617  1.00  0.00    -0.031 C 
ENDROOT
BRANCH   1   3
ATOM      3  C   UNL     1     -13.257   6.279 -20.662  1.00  0.00     0.027 C 
BRANCH   3   4
ATOM      4  C   UNL     1     -13.366   7.797 -20.461  1.00  0.00     0.004 C 
BRANCH   4   5
ATOM      5  C   UNL     1     -14.795   8.197 -20.065  1.00  0.00     0.000 C 
BRANCH   5   6
ATOM      6  C   UNL     1     -15.495   9.037 -21.145  1.00  0.00     0.000 C 
BRANCH   6   7
ATOM      7  C   UNL     1     -17.004   9.188 -20.886  1.00  0.00     0.000 C 
BRANCH   7   8
ATOM      8  C   UNL     1     -17.779   7.884 -21.126  1.00  0.00     0.006 C 
BRANCH   8   9
ATOM      9  C   UNL     1     -18.878   8.031 -22.186  1.00  0.00     0.053 C 
BRANCH   9  10
ATOM     10  C   UNL     1     -19.919   9.002 -21.728  1.00  0.00     0.041 C 
ATOM     11  O   UNL     1     -20.634   8.738 -20.725  1.00  0.00    -0.550 OA
ATOM     12  O   UNL     1     -20.064  10.223 -22.373  1.00  0.00    -0.550 OA
ENDBRANCH   9  10
ENDBRANCH   8   9
ENDBRANCH   7   8
ENDBRANCH   6   7
ENDBRANCH   5   6
ENDBRANCH   4   5
ENDBRANCH   3   4
ENDBRANCH   1   3
BRANCH   2  13
ATOM     13  C   UNL     1     -16.052   3.628 -20.180  1.00  0.00     0.027 C 
BRANCH  13  14
ATOM     14  C   UNL     1     -17.297   4.339 -20.735  1.00  0.00     0.004 C 
BRANCH  14  15
ATOM     15  C   UNL     1     -17.756   3.758 -22.081  1.00  0.00     0.000 C 
BRANCH  15  16
ATOM     16  C   UNL     1     -17.593   4.759 -23.238  1.00  0.00     0.000 C 
BRANCH  16  17
ATOM     17  C   UNL     1     -16.147   4.843 -23.753  1.00  0.00    -0.000 C 
BRANCH  17  18
ATOM     18  C   UNL     1     -15.606   6.282 -23.772  1.00  0.00    -0.000 C 
BRANCH  18  19
ATOM     19  C   UNL     1     -16.204   7.119 -24.914  1.00  0.00    -0.003 C 
ATOM     20  C   UNL     1     -16.169   8.621 -24.630  1.00  0.00     0.004 C 
ENDBRANCH  18  19
ENDBRANCH  17  18
ENDBRANCH  16  17
ENDBRANCH  15  16
ENDBRANCH  14  15
ENDBRANCH  13  14
ENDBRANCH   2  13
TORSDOF 15
ENDMDL
MODEL 5
REMARK VINA RESULT:    -5.009      3.056      5.779
REMARK INTER + INTRA:         -12.529
REMARK INTER:                  -9.908
REMARK INTRA:                  -2.621
REMARK UNBOUND:                -3.128
REMARK SMILES CCCCCCCCC=CCCCCCCCC(=O)[O-]
REMARK SMILES IDX 10 1 9 2 11 3 12 4 13 5 14 6 15 7 16 8 17 9 18 10 19 11
REMARK SMILES IDX 20 12 8 13 7 14 6 15 5 16 4 17 3 18 2 19 1 20
REMARK H PARENT
REMARK Flexibility Score: inf
ROOT
ATOM      1  C   UNL     1     -15.641   6.627 -23.814  1.00  0.00    -0.031 C 
ATOM      2  C   UNL     1     -15.342   5.320 -23.861  1.00  0.00    -0.031 C 
ENDROOT
BRANCH   1   3
ATOM      3  C   UNL     1     -16.704   7.225 -24.693  1.00  0.00     0.027 C 
BRANCH   3   4
ATOM      4  C   UNL     1     -17.769   7.953 -23.860  1.00  0.00     0.004 C 
BRANCH   4   5
ATOM      5  C   UNL     1     -18.316   7.041 -22.752  1.00  0.00     0.000 C 
BRANCH   5   6
ATOM      6  C   UNL     1     -18.485   7.776 -21.413  1.00  0.00     0.000 C 
BRANCH   6   7
ATOM      7  C   UNL     1     -17.463   8.912 -21.233  1.00  0.00     0.000 C 
BRANCH   7   8
ATOM      8  C   UNL     1     -16.159   8.436 -20.575  1.00  0.00     0.006 C 
BRANCH   8   9
ATOM      9  C   UNL     1     -14.918   9.149 -21.129  1.00  0.00     0.053 C 
BRANCH   9  10
ATOM     10  C   UNL     1     -14.093   9.704 -20.011  1.00  0.00     0.041 C 
ATOM     11  O   UNL     1     -14.615  10.469 -19.158  1.00  0.00    -0.550 OA
ATOM     12  O   UNL     1     -12.762   9.333 -19.878  1.00  0.00    -0.550 OA
ENDBRANCH   9  10
ENDBRANCH   8   9
ENDBRANCH   7   8
ENDBRANCH   6   7
ENDBRANCH   5   6
ENDBRANCH   4   5
ENDBRANCH   3   4
ENDBRANCH   1   3
BRANCH   2  13
ATOM     13  C   UNL     1     -14.273   4.726 -22.985  1.00  0.00     0.027 C 
BRANCH  13  14
ATOM     14  C   UNL     1     -13.998   5.621 -21.765  1.00  0.00     0.004 C 
BRANCH  14  15
ATOM     15  C   UNL     1     -14.434   4.966 -20.445  1.00  0.00     0.000 C 
BRANCH  15  16
ATOM     16  C   UNL     1     -15.954   4.740 -20.376  1.00  0.00     0.000 C 
BRANCH  16  17
ATOM     17  C   UNL     1     -16.331   3.252 -20.300  1.00  0.00    -0.000 C 
BRANCH  17  18
ATOM     18  C   UNL     1     -15.320   2.423 -19.491  1.00  0.00    -0.000 C 
BRANCH  18  19
ATOM     19  C   UNL     1     -14.934   1.114 -20.199  1.00  0.00    -0.003 C 
ATOM     20  C   UNL     1     -13.994   1.336 -21.384  1.00  0.00     0.004 C 
ENDBRANCH  18  19
ENDBRANCH  17  18
ENDBRANCH  16  17
ENDBRANCH  15  16
ENDBRANCH  14  15
ENDBRANCH  13  14
ENDBRANCH   2  13
TORSDOF 15
ENDMDL
MODEL 6
REMARK VINA RESULT:    -4.998      1.423      2.352
REMARK INTER + INTRA:         -12.510
REMARK INTER:                  -9.591
REMARK INTRA:                  -2.919
REMARK UNBOUND:                -3.128
REMARK SMILES CCCCCCCCC=CCCCCCCCC(=O)[O-]
REMARK SMILES IDX 10 1 9 2 11 3 12 4 13 5 14 6 15 7 16 8 17 9 18 10 19 11
REMARK SMILES IDX 20 12 8 13 7 14 6 15 5 16 4 17 3 18 2 19 1 20
REMARK H PARENT
REMARK Flexibility Score: inf
ROOT
ATOM      1  C   UNL     1     -14.733   5.344 -20.274  1.00  0.00    -0.031 C 
ATOM      2  C   UNL     1     -13.739   6.177 -20.615  1.00  0.00    -0.031 C 
ENDROOT
BRANCH   1   3
ATOM      3  C   UNL     1     -14.556   3.851 -20.305  1.00  0.00     0.027 C 
BRANCH   3   4
ATOM      4  C   UNL     1     -15.861   3.129 -19.940  1.00  0.00     0.004 C 
BRANCH   4   5
ATOM      5  C   UNL     1     -17.083   3.973 -20.332  1.00  0.00     0.000 C 
BRANCH   5   6
ATOM      6  C   UNL     1     -17.592   3.652 -21.747  1.00  0.00     0.000 C 
BRANCH   6   7
ATOM      7  C   UNL     1     -17.253   2.215 -22.181  1.00  0.00     0.000 C 
BRANCH   7   8
ATOM      8  C   UNL     1     -16.860   2.122 -23.663  1.00  0.00     0.006 C 
BRANCH   8   9
ATOM      9  C   UNL     1     -15.731   1.114 -23.918  1.00  0.00     0.053 C 
BRANCH   9  10
ATOM     10  C   UNL     1     -14.513   1.484 -23.132  1.00  0.00     0.041 C 
ATOM     11  O   UNL     1     -14.102   0.731 -22.210  1.00  0.00    -0.550 OA
ATOM     12  O   UNL     1     -13.800   2.632 -23.452  1.00  0.00    -0.550 OA
ENDBRANCH   9  10
ENDBRANCH   8   9
ENDBRANCH   7   8
ENDBRANCH   6   7
ENDBRANCH   5   6
ENDBRANCH   4   5
ENDBRANCH   3   4
ENDBRANCH   1   3
BRANCH   2  13
ATOM     13  C   UNL     1     -13.922   7.670 -20.589  1.00  0.00     0.027 C 
BRANCH  13  14
ATOM     14  C   UNL     1     -15.199   8.057 -19.826  1.00  0.00     0.004 C 
BRANCH  14  15
ATOM     15  C   UNL     1     -16.225   8.771 -20.720  1.00  0.00     0.000 C 
BRANCH  15  16
ATOM     16  C   UNL     1     -17.448   7.890 -21.029  1.00  0.00     0.000 C 
BRANCH  16  17
ATOM     17  C   UNL     1     -17.346   7.188 -22.393  1.00  0.00    -0.000 C 
BRANCH  17  18
ATOM     18  C   UNL     1     -16.605   8.033 -23.443  1.00  0.00    -0.000 C 
BRANCH  18  19
ATOM     19  C   UNL     1     -15.804   7.171 -24.432  1.00  0.00    -0.003 C 
ATOM     20  C   UNL     1     -15.532   5.762 -23.904  1.00  0.00     0.004 C 
ENDBRANCH  18  19
ENDBRANCH  17  18
ENDBRANCH  16  17
ENDBRANCH  15  16
ENDBRANCH  14  15
ENDBRANCH  13  14
ENDBRANCH   2  13
TORSDOF 15
ENDMDL
MODEL 7
REMARK VINA RESULT:    -4.990      2.494      6.129
REMARK INTER + INTRA:         -12.494
REMARK INTER:                  -9.927
REMARK INTRA:                  -2.567
REMARK UNBOUND:                -3.128
REMARK SMILES CCCCCCCCC=CCCCCCCCC(=O)[O-]
REMARK SMILES IDX 10 1 9 2 11 3 12 4 13 5 14 6 15 7 16 8 17 9 18 10 19 11
REMARK SMILES IDX 20 12 8 13 7 14 6 15 5 16 4 17 3 18 2 19 1 20
REMARK H PARENT
REMARK Flexibility Score: inf
ROOT
ATOM      1  C   UNL     1     -13.764   5.318 -21.341  1.00  0.00    -0.031 C 
ATOM      2  C   UNL     1     -14.147   5.183 -22.620  1.00  0.00    -0.031 C 
ENDROOT
BRANCH   1   3
ATOM      3  C   UNL     1     -13.287   6.635 -20.796  1.00  0.00     0.027 C 
BRANCH   3   4
ATOM      4  C   UNL     1     -14.449   7.624 -20.636  1.00  0.00     0.004 C 
BRANCH   4   5
ATOM      5  C   UNL     1     -15.623   6.976 -19.887  1.00  0.00     0.000 C 
BRANCH   5   6
ATOM      6  C   UNL     1     -16.907   6.928 -20.730  1.00  0.00     0.000 C 
BRANCH   6   7
ATOM      7  C   UNL     1     -17.394   8.329 -21.139  1.00  0.00     0.000 C 
BRANCH   7   8
ATOM      8  C   UNL     1     -17.557   8.479 -22.659  1.00  0.00     0.006 C 
BRANCH   8   9
ATOM      9  C   UNL     1     -17.178   7.205 -23.426  1.00  0.00     0.053 C 
BRANCH   9  10
ATOM     10  C   UNL     1     -16.275   7.536 -24.572  1.00  0.00     0.041 C 
ATOM     11  O   UNL     1     -15.775   8.688 -24.672  1.00  0.00    -0.550 OA
ATOM     12  O   UNL     1     -15.940   6.558 -25.499  1.00  0.00    -0.550 OA
ENDBRANCH   9  10
ENDBRANCH   8   9
ENDBRANCH   7   8
ENDBRANCH   6   7
ENDBRANCH   5   6
ENDBRANCH   4   5
ENDBRANCH   3   4
ENDBRANCH   1   3
BRANCH   2  13
ATOM     13  C   UNL     1     -14.617   3.861 -23.164  1.00  0.00     0.027 C 
BRANCH  13  14
ATOM     14  C   UNL     1     -16.129   3.681 -22.947  1.00  0.00     0.004 C 
BRANCH  14  15
ATOM     15  C   UNL     1     -16.448   2.615 -21.887  1.00  0.00     0.000 C 
BRANCH  15  16
ATOM     16  C   UNL     1     -16.504   3.200 -20.465  1.00  0.00     0.000 C 
BRANCH  16  17
ATOM     17  C   UNL     1     -15.536   2.503 -19.496  1.00  0.00    -0.000 C 
BRANCH  17  18
ATOM     18  C   UNL     1     -14.577   1.534 -20.208  1.00  0.00    -0.000 C 
BRANCH  18  19
ATOM     19  C   UNL     1     -14.736   0.086 -19.719  1.00  0.00    -0.003 C 
ATOM     20  C   UNL     1     -15.153  -0.874 -20.833  1.00  0.00     0.004 C 
ENDBRANCH  18  19
ENDBRANCH  17  18
ENDBRANCH  16  17
ENDBRANCH  15  16
ENDBRANCH  14  15
ENDBRANCH  13  14
ENDBRANCH   2  13
TORSDOF 15
ENDMDL
MODEL 8
REMARK VINA RESULT:    -4.980      3.213      6.440
REMARK INTER + INTRA:         -12.475
REMARK INTER:                  -9.803
REMARK INTRA:                  -2.672
REMARK UNBOUND:                -3.128
REMARK SMILES CCCCCCCCC=CCCCCCCCC(=O)[O-]
REMARK SMILES IDX 10 1 9 2 11 3 12 4 13 5 14 6 15 7 16 8 17 9 18 10 19 11
REMARK SMILES IDX 20 12 8 13 7 14 6 15 5 16 4 17 3 18 2 19 1 20
REMARK H PARENT
REMARK Flexibility Score: inf
ROOT
ATOM      1  C   UNL     1     -13.754   5.564 -21.475  1.00  0.00    -0.031 C 
ATOM      2  C   UNL     1     -14.573   5.460 -22.533  1.00  0.00    -0.031 C 
ENDROOT
BRANCH   1   3
ATOM      3  C   UNL     1     -14.029   6.531 -20.357  1.00  0.00     0.027 C 
BRANCH   3   4
ATOM      4  C   UNL     1     -13.277   7.852 -20.567  1.00  0.00     0.004 C 
BRANCH   4   5
ATOM      5  C   UNL     1     -14.258   9.021 -20.738  1.00  0.00     0.000 C 
BRANCH   5   6
ATOM      6  C   UNL     1     -15.708   8.627 -20.414  1.00  0.00     0.000 C 
BRANCH   6   7
ATOM      7  C   UNL     1     -16.685   9.006 -21.540  1.00  0.00     0.000 C 
BRANCH   7   8
ATOM      8  C   UNL     1     -16.486   8.160 -22.806  1.00  0.00     0.006 C 
BRANCH   8   9
ATOM      9  C   UNL     1     -16.171   9.008 -24.045  1.00  0.00     0.053 C 
BRANCH   9  10
ATOM     10  C   UNL     1     -17.433   9.386 -24.754  1.00  0.00     0.041 C 
ATOM     11  O   UNL     1     -17.731  10.600 -24.911  1.00  0.00    -0.550 OA
ATOM     12  O   UNL     1     -18.252   8.402 -25.291  1.00  0.00    -0.550 OA
ENDBRANCH   9  10
ENDBRANCH   8   9
ENDBRANCH   7   8
ENDBRANCH   6   7
ENDBRANCH   5   6
ENDBRANCH   4   5
ENDBRANCH   3   4
ENDBRANCH   1   3
BRANCH   2  13
ATOM     13  C   UNL     1     -14.291   4.497 -23.653  1.00  0.00     0.027 C 
BRANCH  13  14
ATOM     14  C   UNL     1     -13.797   3.147 -23.109  1.00  0.00     0.004 C 
BRANCH  14  15
ATOM     15  C   UNL     1     -14.775   1.999 -23.406  1.00  0.00     0.000 C 
BRANCH  15  16
ATOM     16  C   UNL     1     -15.750   1.743 -22.244  1.00  0.00     0.000 C 
BRANCH  16  17
ATOM     17  C   UNL     1     -15.127   2.036 -20.869  1.00  0.00    -0.000 C 
BRANCH  17  18
ATOM     18  C   UNL     1     -16.018   2.930 -19.991  1.00  0.00    -0.000 C 
BRANCH  18  19
ATOM     19  C   UNL     1     -17.143   3.605 -20.791  1.00  0.00    -0.003 C 
ATOM     20  C   UNL     1     -17.423   5.035 -20.330  1.00  0.00     0.004 C 
ENDBRANCH  18  19
ENDBRANCH  17  18
ENDBRANCH  16  17
ENDBRANCH  15  16
ENDBRANCH  14  15
ENDBRANCH  13  14
ENDBRANCH   2  13
TORSDOF 15
ENDMDL
MODEL 9
REMARK VINA RESULT:    -4.970      3.011      6.618
REMARK INTER + INTRA:         -12.456
REMARK INTER:                 -10.111
REMARK INTRA:                  -2.345
REMARK UNBOUND:                -3.128
REMARK SMILES CCCCCCCCC=CCCCCCCCC(=O)[O-]
REMARK SMILES IDX 10 1 9 2 11 3 12 4 13 5 14 6 15 7 16 8 17 9 18 10 19 11
REMARK SMILES IDX 20 12 8 13 7 14 6 15 5 16 4 17 3 18 2 19 1 20
REMARK H PARENT
REMARK Flexibility Score: inf
ROOT
ATOM      1  C   UNL     1     -16.548   3.270 -20.741  1.00  0.00    -0.031 C 
ATOM      2  C   UNL     1     -15.404   2.760 -20.262  1.00  0.00    -0.031 C 
ENDROOT
BRANCH   1   3
ATOM      3  C   UNL     1     -16.556   4.293 -21.843  1.00  0.00     0.027 C 
BRANCH   3   4
ATOM      4  C   UNL     1     -15.222   4.303 -22.602  1.00  0.00     0.004 C 
BRANCH   4   5
ATOM      5  C   UNL     1     -14.564   5.689 -22.537  1.00  0.00     0.000 C 
BRANCH   5   6
ATOM      6  C   UNL     1     -13.604   5.832 -21.345  1.00  0.00     0.000 C 
BRANCH   6   7
ATOM      7  C   UNL     1     -13.735   7.196 -20.646  1.00  0.00     0.000 C 
BRANCH   7   8
ATOM      8  C   UNL     1     -15.107   7.393 -19.984  1.00  0.00     0.006 C 
BRANCH   8   9
ATOM      9  C   UNL     1     -15.689   8.792 -20.225  1.00  0.00     0.053 C 
BRANCH   9  10
ATOM     10  C   UNL     1     -16.622   8.775 -21.395  1.00  0.00     0.041 C 
ATOM     11  O   UNL     1     -16.170   8.883 -22.566  1.00  0.00    -0.550 OA
ATOM     12  O   UNL     1     -17.982   8.586 -21.197  1.00  0.00    -0.550 OA
ENDBRANCH   9  10
ENDBRANCH   8   9
ENDBRANCH   7   8
ENDBRANCH   6   7
ENDBRANCH   5   6
ENDBRANCH   4   5
ENDBRANCH   3   4
ENDBRANCH   1   3
BRANCH   2  13
ATOM     13  C   UNL     1     -15.399   1.741 -19.155  1.00  0.00     0.027 C 
BRANCH  13  14
ATOM     14  C   UNL     1     -14.794   0.411 -19.632  1.00  0.00     0.004 C 
BRANCH  14  15
ATOM     15  C   UNL     1     -14.160   0.519 -21.028  1.00  0.00     0.000 C 
BRANCH  15  16
ATOM     16  C   UNL     1     -14.456  -0.710 -21.904  1.00  0.00     0.000 C 
BRANCH  16  17
ATOM     17  C   UNL     1     -15.518  -0.431 -22.980  1.00  0.00    -0.000 C 
BRANCH  17  18
ATOM     18  C   UNL     1     -16.954  -0.534 -22.439  1.00  0.00    -0.000 C 
BRANCH  18  19
ATOM     19  C   UNL     1     -17.870   0.570 -22.991  1.00  0.00    -0.003 C 
ATOM     20  C   UNL     1     -17.199   1.405 -24.082  1.00  0.00     0.004 C 
ENDBRANCH  18  19
ENDBRANCH  17  18
ENDBRANCH  16  17
ENDBRANCH  15  16
ENDBRANCH  14  15
ENDBRANCH  13  14
ENDBRANCH   2  13
TORSDOF 15
ENDMDL
