MODEL 1
REMARK VINA RESULT:    -7.178      0.000      0.000
REMARK INTER + INTRA:          -9.191
REMARK INTER:                  -8.856
REMARK INTRA:                  -0.335
REMARK UNBOUND:                -0.335
REMARK SMILES O=c1c(O)c(-c2cc(O)c(O)c(O)c2)oc2cc(O)cc(O)c12
REMARK SMILES IDX 5 1 3 2 2 3 1 4 23 5 21 6 20 7 18 8 17 9 16 10 15 11 6 12
REMARK SMILES IDX 7 13 8 14 14 15 10 16 12 17 9 18 11 20 13 22 4 24 22 26
REMARK SMILES IDX 19 28
REMARK H PARENT 9 19 11 21 13 23 4 25 22 27 19 29
REMARK Flexibility Score: inf
ROOT
ATOM      1  C   UNL     1      20.455 -36.913  -7.578  1.00  0.00     0.180 A 
ATOM      2  C   UNL     1      20.823 -35.576  -7.349  1.00  0.00     0.208 A 
ATOM      3  C   UNL     1      21.828 -35.001  -8.143  1.00  0.00     0.238 A 
ATOM      4  O   UNL     1      22.192 -33.821  -7.897  1.00  0.00    -0.285 OA
ATOM      5  C   UNL     1      22.441 -35.763  -9.167  1.00  0.00     0.111 A 
ATOM      6  C   UNL     1      23.440 -35.270 -10.058  1.00  0.00     0.134 A 
ATOM      7  C   UNL     1      24.069 -36.150 -10.946  1.00  0.00     0.093 A 
ATOM      8  C   UNL     1      23.689 -37.490 -11.023  1.00  0.00     0.123 A 
ATOM      9  C   UNL     1      22.671 -37.970 -10.199  1.00  0.00     0.094 A 
ATOM     10  C   UNL     1      22.050 -37.124  -9.275  1.00  0.00     0.146 A 
ATOM     11  O   UNL     1      21.093 -37.622  -8.502  1.00  0.00    -0.452 OA
ENDROOT
BRANCH   1  12
ATOM     12  C   UNL     1      19.387 -37.581  -6.799  1.00  0.00     0.029 A 
ATOM     13  C   UNL     1      18.030 -37.357  -7.079  1.00  0.00     0.062 A 
ATOM     14  C   UNL     1      17.035 -38.016  -6.345  1.00  0.00     0.162 A 
ATOM     15  C   UNL     1      19.735 -38.500  -5.798  1.00  0.00     0.062 A 
ATOM     16  C   UNL     1      17.385 -38.917  -5.329  1.00  0.00     0.200 A 
ATOM     17  C   UNL     1      18.751 -39.165  -5.057  1.00  0.00     0.162 A 
BRANCH  14  18
ATOM     18  O   UNL     1      15.690 -37.783  -6.624  1.00  0.00    -0.504 OA
ATOM     19  H   UNL     1      15.180 -38.349  -7.292  1.00  0.00     0.293 HD
ENDBRANCH  14  18
BRANCH  16  20
ATOM     20  O   UNL     1      16.353 -39.542  -4.623  1.00  0.00    -0.502 OA
ATOM     21  H   UNL     1      15.377 -39.474  -4.870  1.00  0.00     0.293 HD
ENDBRANCH  16  20
BRANCH  17  22
ATOM     22  O   UNL     1      19.174 -40.057  -4.069  1.00  0.00    -0.504 OA
ATOM     23  H   UNL     1      19.027 -39.917  -3.080  1.00  0.00     0.293 HD
ENDBRANCH  17  22
ENDBRANCH   1  12
BRANCH   2  24
ATOM     24  O   UNL     1      20.222 -34.848  -6.319  1.00  0.00    -0.502 OA
ATOM     25  H   UNL     1      20.445 -35.001  -5.343  1.00  0.00     0.293 HD
ENDBRANCH   2  24
BRANCH   6  26
ATOM     26  O   UNL     1      23.830 -33.929 -10.128  1.00  0.00    -0.507 OA
ATOM     27  H   UNL     1      24.032 -33.346  -9.329  1.00  0.00     0.293 HD
ENDBRANCH   6  26
BRANCH   8  28
ATOM     28  O   UNL     1      24.325 -38.334 -11.931  1.00  0.00    -0.508 OA
ATOM     29  H   UNL     1      24.872 -39.129 -11.621  1.00  0.00     0.293 HD
ENDBRANCH   8  28
TORSDOF 7
ENDMDL
MODEL 2
REMARK VINA RESULT:    -6.460      1.549      3.759
REMARK INTER + INTRA:          -8.306
REMARK INTER:                  -8.103
REMARK INTRA:                  -0.203
REMARK UNBOUND:                -0.335
REMARK SMILES O=c1c(O)c(-c2cc(O)c(O)c(O)c2)oc2cc(O)cc(O)c12
REMARK SMILES IDX 5 1 3 2 2 3 1 4 23 5 21 6 20 7 18 8 17 9 16 10 15 11 6 12
REMARK SMILES IDX 7 13 8 14 14 15 10 16 12 17 9 18 11 20 13 22 4 24 22 26
REMARK SMILES IDX 19 28
REMARK H PARENT 9 19 11 21 13 23 4 25 22 27 19 29
REMARK Flexibility Score: inf
ROOT
ATOM      1  C   UNL     1      20.350 -36.518  -7.326  1.00  0.00     0.180 A 
ATOM      2  C   UNL     1      21.481 -36.955  -8.037  1.00  0.00     0.208 A 
ATOM      3  C   UNL     1      22.364 -35.998  -8.564  1.00  0.00     0.238 A 
ATOM      4  O   UNL     1      23.346 -36.393  -9.247  1.00  0.00    -0.285 OA
ATOM      5  C   UNL     1      22.115 -34.620  -8.360  1.00  0.00     0.111 A 
ATOM      6  C   UNL     1      22.964 -33.566  -8.814  1.00  0.00     0.134 A 
ATOM      7  C   UNL     1      22.552 -32.236  -8.668  1.00  0.00     0.093 A 
ATOM      8  C   UNL     1      21.355 -31.918  -8.028  1.00  0.00     0.123 A 
ATOM      9  C   UNL     1      20.545 -32.938  -7.527  1.00  0.00     0.094 A 
ATOM     10  C   UNL     1      20.912 -34.277  -7.689  1.00  0.00     0.146 A 
ATOM     11  O   UNL     1      20.109 -35.218  -7.207  1.00  0.00    -0.452 OA
ENDROOT
BRANCH   1  12
ATOM     12  C   UNL     1      19.387 -37.466  -6.720  1.00  0.00     0.029 A 
ATOM     13  C   UNL     1      19.777 -38.355  -5.707  1.00  0.00     0.062 A 
ATOM     14  C   UNL     1      18.846 -39.229  -5.130  1.00  0.00     0.162 A 
ATOM     15  C   UNL     1      18.043 -37.438  -7.123  1.00  0.00     0.062 A 
ATOM     16  C   UNL     1      17.508 -39.215  -5.551  1.00  0.00     0.200 A 
ATOM     17  C   UNL     1      17.103 -38.304  -6.555  1.00  0.00     0.162 A 
BRANCH  14  18
ATOM     18  O   UNL     1      19.243 -40.114  -4.129  1.00  0.00    -0.504 OA
ATOM     19  H   UNL     1      19.016 -39.951  -3.155  1.00  0.00     0.293 HD
ENDBRANCH  14  18
BRANCH  16  20
ATOM     20  O   UNL     1      16.622 -40.111  -4.947  1.00  0.00    -0.502 OA
ATOM     21  H   UNL     1      15.629 -39.952  -4.859  1.00  0.00     0.293 HD
ENDBRANCH  16  20
BRANCH  17  22
ATOM     22  O   UNL     1      15.786 -38.227  -7.016  1.00  0.00    -0.504 OA
ATOM     23  H   UNL     1      15.352 -38.919  -7.608  1.00  0.00     0.293 HD
ENDBRANCH  17  22
ENDBRANCH   1  12
BRANCH   2  24
ATOM     24  O   UNL     1      21.697 -38.319  -8.246  1.00  0.00    -0.502 OA
ATOM     25  H   UNL     1      21.726 -38.988  -7.486  1.00  0.00     0.293 HD
ENDBRANCH   2  24
BRANCH   6  26
ATOM     26  O   UNL     1      24.224 -33.771  -9.384  1.00  0.00    -0.507 OA
ATOM     27  H   UNL     1      25.097 -33.492  -8.964  1.00  0.00     0.293 HD
ENDBRANCH   6  26
BRANCH   8  28
ATOM     28  O   UNL     1      20.984 -30.583  -7.887  1.00  0.00    -0.508 OA
ATOM     29  H   UNL     1      21.575 -29.831  -8.224  1.00  0.00     0.293 HD
ENDBRANCH   8  28
TORSDOF 7
ENDMDL
MODEL 3
REMARK VINA RESULT:    -6.426      1.782      7.346
REMARK INTER + INTRA:          -8.263
REMARK INTER:                  -8.172
REMARK INTRA:                  -0.091
REMARK UNBOUND:                -0.335
REMARK SMILES O=c1c(O)c(-c2cc(O)c(O)c(O)c2)oc2cc(O)cc(O)c12
REMARK SMILES IDX 5 1 3 2 2 3 1 4 23 5 21 6 20 7 18 8 17 9 16 10 15 11 6 12
REMARK SMILES IDX 7 13 8 14 14 15 10 16 12 17 9 18 11 20 13 22 4 24 22 26
REMARK SMILES IDX 19 28
REMARK H PARENT 9 19 11 21 13 23 4 25 22 27 19 29
REMARK Flexibility Score: inf
ROOT
ATOM      1  C   UNL     1      20.227 -37.255  -7.270  1.00  0.00     0.180 A 
ATOM      2  C   UNL     1      19.897 -38.603  -7.047  1.00  0.00     0.208 A 
ATOM      3  C   UNL     1      18.712 -38.909  -6.359  1.00  0.00     0.238 A 
ATOM      4  O   UNL     1      18.450 -40.116  -6.114  1.00  0.00    -0.285 OA
ATOM      5  C   UNL     1      17.864 -37.866  -5.917  1.00  0.00     0.111 A 
ATOM      6  C   UNL     1      16.620 -38.061  -5.246  1.00  0.00     0.134 A 
ATOM      7  C   UNL     1      15.927 -36.956  -4.739  1.00  0.00     0.093 A 
ATOM      8  C   UNL     1      16.399 -35.658  -4.935  1.00  0.00     0.123 A 
ATOM      9  C   UNL     1      17.584 -35.451  -5.642  1.00  0.00     0.094 A 
ATOM     10  C   UNL     1      18.317 -36.537  -6.128  1.00  0.00     0.146 A 
ATOM     11  O   UNL     1      19.444 -36.298  -6.786  1.00  0.00    -0.452 OA
ENDROOT
BRANCH   1  12
ATOM     12  C   UNL     1      21.446 -36.854  -8.009  1.00  0.00     0.029 A 
ATOM     13  C   UNL     1      21.727 -37.364  -9.286  1.00  0.00     0.062 A 
ATOM     14  C   UNL     1      22.873 -36.956  -9.979  1.00  0.00     0.162 A 
ATOM     15  C   UNL     1      22.311 -35.901  -7.451  1.00  0.00     0.062 A 
ATOM     16  C   UNL     1      23.749 -36.020  -9.408  1.00  0.00     0.200 A 
ATOM     17  C   UNL     1      23.460 -35.484  -8.131  1.00  0.00     0.162 A 
BRANCH  14  18
ATOM     18  O   UNL     1      23.149 -37.473 -11.243  1.00  0.00    -0.504 OA
ATOM     19  H   UNL     1      22.821 -38.389 -11.525  1.00  0.00     0.293 HD
ENDBRANCH  14  18
BRANCH  16  20
ATOM     20  O   UNL     1      24.882 -35.652 -10.139  1.00  0.00    -0.502 OA
ATOM     21  H   UNL     1      25.001 -34.753 -10.582  1.00  0.00     0.293 HD
ENDBRANCH  16  20
BRANCH  17  22
ATOM     22  O   UNL     1      24.279 -34.541  -7.506  1.00  0.00    -0.504 OA
ATOM     23  H   UNL     1      25.143 -34.194  -7.897  1.00  0.00     0.293 HD
ENDBRANCH  17  22
ENDBRANCH   1  12
BRANCH   2  24
ATOM     24  O   UNL     1      20.759 -39.617  -7.472  1.00  0.00    -0.502 OA
ATOM     25  H   UNL     1      21.691 -39.734  -7.092  1.00  0.00     0.293 HD
ENDBRANCH   2  24
BRANCH   6  26
ATOM     26  O   UNL     1      16.012 -39.309  -5.077  1.00  0.00    -0.507 OA
ATOM     27  H   UNL     1      15.211 -39.634  -5.597  1.00  0.00     0.293 HD
ENDBRANCH   6  26
BRANCH   8  28
ATOM     28  O   UNL     1      15.675 -34.580  -4.430  1.00  0.00    -0.508 OA
ATOM     29  H   UNL     1      14.664 -34.609  -4.355  1.00  0.00     0.293 HD
ENDBRANCH   8  28
TORSDOF 7
ENDMDL
MODEL 4
REMARK VINA RESULT:    -6.312      2.164      7.520
REMARK INTER + INTRA:          -8.123
REMARK INTER:                  -7.766
REMARK INTRA:                  -0.357
REMARK UNBOUND:                -0.335
REMARK SMILES O=c1c(O)c(-c2cc(O)c(O)c(O)c2)oc2cc(O)cc(O)c12
REMARK SMILES IDX 5 1 3 2 2 3 1 4 23 5 21 6 20 7 18 8 17 9 16 10 15 11 6 12
REMARK SMILES IDX 7 13 8 14 14 15 10 16 12 17 9 18 11 20 13 22 4 24 22 26
REMARK SMILES IDX 19 28
REMARK H PARENT 9 19 11 21 13 23 4 25 22 27 19 29
REMARK Flexibility Score: inf
ROOT
ATOM      1  C   UNL     1      20.472 -35.930  -7.464  1.00  0.00     0.180 A 
ATOM      2  C   UNL     1      20.697 -37.317  -7.512  1.00  0.00     0.208 A 
ATOM      3  C   UNL     1      19.752 -38.180  -6.935  1.00  0.00     0.238 A 
ATOM      4  O   UNL     1      19.985 -39.417  -6.932  1.00  0.00    -0.285 OA
ATOM      5  C   UNL     1      18.587 -37.648  -6.332  1.00  0.00     0.111 A 
ATOM      6  C   UNL     1      17.543 -38.431  -5.753  1.00  0.00     0.134 A 
ATOM      7  C   UNL     1      16.500 -37.795  -5.070  1.00  0.00     0.093 A 
ATOM      8  C   UNL     1      16.427 -36.404  -5.001  1.00  0.00     0.123 A 
ATOM      9  C   UNL     1      17.409 -35.627  -5.615  1.00  0.00     0.094 A 
ATOM     10  C   UNL     1      18.483 -36.234  -6.273  1.00  0.00     0.146 A 
ATOM     11  O   UNL     1      19.403 -35.459  -6.835  1.00  0.00    -0.452 OA
ENDROOT
BRANCH   1  12
ATOM     12  C   UNL     1      21.411 -34.959  -8.072  1.00  0.00     0.029 A 
ATOM     13  C   UNL     1      22.497 -34.442  -7.349  1.00  0.00     0.062 A 
ATOM     14  C   UNL     1      23.387 -33.542  -7.948  1.00  0.00     0.162 A 
ATOM     15  C   UNL     1      21.248 -34.589  -9.416  1.00  0.00     0.062 A 
ATOM     16  C   UNL     1      23.209 -33.155  -9.285  1.00  0.00     0.200 A 
ATOM     17  C   UNL     1      22.129 -33.691 -10.027  1.00  0.00     0.162 A 
BRANCH  14  18
ATOM     18  O   UNL     1      24.458 -33.027  -7.221  1.00  0.00    -0.504 OA
ATOM     19  H   UNL     1      25.340 -33.521  -7.154  1.00  0.00     0.293 HD
ENDBRANCH  14  18
BRANCH  16  20
ATOM     20  O   UNL     1      24.121 -32.250  -9.833  1.00  0.00    -0.502 OA
ATOM     21  H   UNL     1      24.884 -32.513 -10.438  1.00  0.00     0.293 HD
ENDBRANCH  16  20
BRANCH  17  22
ATOM     22  O   UNL     1      21.897 -33.361 -11.365  1.00  0.00    -0.504 OA
ATOM     23  H   UNL     1      22.329 -33.830 -12.147  1.00  0.00     0.293 HD
ENDBRANCH  17  22
ENDBRANCH   1  12
BRANCH   2  24
ATOM     24  O   UNL     1      21.865 -37.820  -8.091  1.00  0.00    -0.502 OA
ATOM     25  H   UNL     1      21.859 -38.346  -8.958  1.00  0.00     0.293 HD
ENDBRANCH   2  24
BRANCH   6  26
ATOM     26  O   UNL     1      17.471 -39.824  -5.844  1.00  0.00    -0.507 OA
ATOM     27  H   UNL     1      17.580 -40.457  -5.067  1.00  0.00     0.293 HD
ENDBRANCH   6  26
BRANCH   8  28
ATOM     28  O   UNL     1      15.365 -35.804  -4.326  1.00  0.00    -0.508 OA
ATOM     29  H   UNL     1      15.451 -34.879  -3.922  1.00  0.00     0.293 HD
ENDBRANCH   8  28
TORSDOF 7
ENDMDL
MODEL 5
REMARK VINA RESULT:    -6.280      3.524      5.767
REMARK INTER + INTRA:          -8.084
REMARK INTER:                  -7.722
REMARK INTRA:                  -0.362
REMARK UNBOUND:                -0.335
REMARK SMILES O=c1c(O)c(-c2cc(O)c(O)c(O)c2)oc2cc(O)cc(O)c12
REMARK SMILES IDX 5 1 3 2 2 3 1 4 23 5 21 6 20 7 18 8 17 9 16 10 15 11 6 12
REMARK SMILES IDX 7 13 8 14 14 15 10 16 12 17 9 18 11 20 13 22 4 24 22 26
REMARK SMILES IDX 19 28
REMARK H PARENT 9 19 11 21 13 23 4 25 22 27 19 29
REMARK Flexibility Score: inf
ROOT
ATOM      1  C   UNL     1      22.408 -33.207  -9.611  1.00  0.00     0.180 A 
ATOM      2  C   UNL     1      21.827 -32.804 -10.826  1.00  0.00     0.208 A 
ATOM      3  C   UNL     1      22.456 -31.800 -11.581  1.00  0.00     0.238 A 
ATOM      4  O   UNL     1      21.902 -31.404 -12.640  1.00  0.00    -0.285 OA
ATOM      5  C   UNL     1      23.664 -31.223 -11.121  1.00  0.00     0.111 A 
ATOM      6  C   UNL     1      24.407 -30.228 -11.824  1.00  0.00     0.134 A 
ATOM      7  C   UNL     1      25.519 -29.637 -11.212  1.00  0.00     0.093 A 
ATOM      8  C   UNL     1      25.954 -30.049  -9.953  1.00  0.00     0.123 A 
ATOM      9  C   UNL     1      25.270 -31.063  -9.282  1.00  0.00     0.094 A 
ATOM     10  C   UNL     1      24.134 -31.647  -9.850  1.00  0.00     0.146 A 
ATOM     11  O   UNL     1      23.506 -32.602  -9.175  1.00  0.00    -0.452 OA
ENDROOT
BRANCH   1  12
ATOM     12  C   UNL     1      21.818 -34.276  -8.773  1.00  0.00     0.029 A 
ATOM     13  C   UNL     1      22.216 -35.615  -8.910  1.00  0.00     0.062 A 
ATOM     14  C   UNL     1      21.663 -36.608  -8.092  1.00  0.00     0.162 A 
ATOM     15  C   UNL     1      20.886 -33.940  -7.780  1.00  0.00     0.062 A 
ATOM     16  C   UNL     1      20.713 -36.274  -7.116  1.00  0.00     0.200 A 
ATOM     17  C   UNL     1      20.325 -34.922  -6.956  1.00  0.00     0.162 A 
BRANCH  14  18
ATOM     18  O   UNL     1      22.057 -37.937  -8.240  1.00  0.00    -0.504 OA
ATOM     19  H   UNL     1      23.033 -38.194  -8.331  1.00  0.00     0.293 HD
ENDBRANCH  14  18
BRANCH  16  20
ATOM     20  O   UNL     1      20.188 -37.304  -6.331  1.00  0.00    -0.502 OA
ATOM     21  H   UNL     1      19.212 -37.557  -6.310  1.00  0.00     0.293 HD
ENDBRANCH  16  20
BRANCH  17  22
ATOM     22  O   UNL     1      19.394 -34.513  -5.999  1.00  0.00    -0.504 OA
ATOM     23  H   UNL     1      19.627 -34.282  -5.044  1.00  0.00     0.293 HD
ENDBRANCH  17  22
ENDBRANCH   1  12
BRANCH   2  24
ATOM     24  O   UNL     1      20.623 -33.369 -11.251  1.00  0.00    -0.502 OA
ATOM     25  H   UNL     1      20.516 -33.803 -12.160  1.00  0.00     0.293 HD
ENDBRANCH   2  24
BRANCH   6  26
ATOM     26  O   UNL     1      24.113 -29.809 -13.125  1.00  0.00    -0.507 OA
ATOM     27  H   UNL     1      23.302 -30.095 -13.651  1.00  0.00     0.293 HD
ENDBRANCH   6  26
BRANCH   8  28
ATOM     28  O   UNL     1      27.074 -29.449  -9.382  1.00  0.00    -0.508 OA
ATOM     29  H   UNL     1      27.155 -29.326  -8.379  1.00  0.00     0.293 HD
ENDBRANCH   8  28
TORSDOF 7
ENDMDL
MODEL 6
REMARK VINA RESULT:    -6.277      5.960      7.640
REMARK INTER + INTRA:          -8.079
REMARK INTER:                  -7.737
REMARK INTRA:                  -0.343
REMARK UNBOUND:                -0.335
REMARK SMILES O=c1c(O)c(-c2cc(O)c(O)c(O)c2)oc2cc(O)cc(O)c12
REMARK SMILES IDX 5 1 3 2 2 3 1 4 23 5 21 6 20 7 18 8 17 9 16 10 15 11 6 12
REMARK SMILES IDX 7 13 8 14 14 15 10 16 12 17 9 18 11 20 13 22 4 24 22 26
REMARK SMILES IDX 19 28
REMARK H PARENT 9 19 11 21 13 23 4 25 22 27 19 29
REMARK Flexibility Score: inf
ROOT
ATOM      1  C   UNL     1      21.898 -31.434  -9.985  1.00  0.00     0.180 A 
ATOM      2  C   UNL     1      22.199 -32.377  -8.987  1.00  0.00     0.208 A 
ATOM      3  C   UNL     1      23.517 -32.466  -8.510  1.00  0.00     0.238 A 
ATOM      4  O   UNL     1      23.793 -33.349  -7.656  1.00  0.00    -0.285 OA
ATOM      5  C   UNL     1      24.513 -31.602  -9.024  1.00  0.00     0.111 A 
ATOM      6  C   UNL     1      25.871 -31.577  -8.586  1.00  0.00     0.134 A 
ATOM      7  C   UNL     1      26.799 -30.771  -9.256  1.00  0.00     0.093 A 
ATOM      8  C   UNL     1      26.406 -29.940 -10.305  1.00  0.00     0.123 A 
ATOM      9  C   UNL     1      25.070 -29.911 -10.703  1.00  0.00     0.094 A 
ATOM     10  C   UNL     1      24.127 -30.732 -10.078  1.00  0.00     0.146 A 
ATOM     11  O   UNL     1      22.867 -30.683 -10.493  1.00  0.00    -0.452 OA
ENDROOT
BRANCH   1  12
ATOM     12  C   UNL     1      20.528 -31.264 -10.519  1.00  0.00     0.029 A 
ATOM     13  C   UNL     1      19.681 -30.249 -10.049  1.00  0.00     0.062 A 
ATOM     14  C   UNL     1      18.396 -30.090 -10.583  1.00  0.00     0.162 A 
ATOM     15  C   UNL     1      20.083 -32.096 -11.558  1.00  0.00     0.062 A 
ATOM     16  C   UNL     1      17.945 -30.938 -11.606  1.00  0.00     0.200 A 
ATOM     17  C   UNL     1      18.802 -31.948 -12.102  1.00  0.00     0.162 A 
BRANCH  14  18
ATOM     18  O   UNL     1      17.558 -29.084 -10.105  1.00  0.00    -0.504 OA
ATOM     19  H   UNL     1      17.871 -28.123 -10.032  1.00  0.00     0.293 HD
ENDBRANCH  14  18
BRANCH  16  20
ATOM     20  O   UNL     1      16.653 -30.740 -12.099  1.00  0.00    -0.502 OA
ATOM     21  H   UNL     1      15.984 -30.102 -11.693  1.00  0.00     0.293 HD
ENDBRANCH  16  20
BRANCH  17  22
ATOM     22  O   UNL     1      18.426 -32.822 -13.125  1.00  0.00    -0.504 OA
ATOM     23  H   UNL     1      18.646 -32.680 -14.100  1.00  0.00     0.293 HD
ENDBRANCH  17  22
ENDBRANCH   1  12
BRANCH   2  24
ATOM     24  O   UNL     1      21.207 -33.236  -8.508  1.00  0.00    -0.502 OA
ATOM     25  H   UNL     1      21.205 -34.230  -8.707  1.00  0.00     0.293 HD
ENDBRANCH   2  24
BRANCH   6  26
ATOM     26  O   UNL     1      26.350 -32.299  -7.488  1.00  0.00    -0.507 OA
ATOM     27  H   UNL     1      25.809 -32.521  -6.666  1.00  0.00     0.293 HD
ENDBRANCH   6  26
BRANCH   8  28
ATOM     28  O   UNL     1      27.354 -29.139 -10.939  1.00  0.00    -0.508 OA
ATOM     29  H   UNL     1      28.340 -29.372 -10.921  1.00  0.00     0.293 HD
ENDBRANCH   8  28
TORSDOF 7
ENDMDL
MODEL 7
REMARK VINA RESULT:    -6.271      2.855      4.069
REMARK INTER + INTRA:          -8.072
REMARK INTER:                  -8.162
REMARK INTRA:                   0.090
REMARK UNBOUND:                -0.335
REMARK SMILES O=c1c(O)c(-c2cc(O)c(O)c(O)c2)oc2cc(O)cc(O)c12
REMARK SMILES IDX 5 1 3 2 2 3 1 4 23 5 21 6 20 7 18 8 17 9 16 10 15 11 6 12
REMARK SMILES IDX 7 13 8 14 14 15 10 16 12 17 9 18 11 20 13 22 4 24 22 26
REMARK SMILES IDX 19 28
REMARK H PARENT 9 19 11 21 13 23 4 25 22 27 19 29
REMARK Flexibility Score: inf
ROOT
ATOM      1  C   UNL     1      21.970 -34.137  -7.809  1.00  0.00     0.180 A 
ATOM      2  C   UNL     1      21.563 -32.970  -8.478  1.00  0.00     0.208 A 
ATOM      3  C   UNL     1      22.538 -32.044  -8.885  1.00  0.00     0.238 A 
ATOM      4  O   UNL     1      22.164 -30.975  -9.435  1.00  0.00    -0.285 OA
ATOM      5  C   UNL     1      23.906 -32.304  -8.633  1.00  0.00     0.111 A 
ATOM      6  C   UNL     1      24.981 -31.456  -9.037  1.00  0.00     0.134 A 
ATOM      7  C   UNL     1      26.285 -31.748  -8.620  1.00  0.00     0.093 A 
ATOM      8  C   UNL     1      26.564 -32.891  -7.871  1.00  0.00     0.123 A 
ATOM      9  C   UNL     1      25.529 -33.759  -7.521  1.00  0.00     0.094 A 
ATOM     10  C   UNL     1      24.211 -33.475  -7.891  1.00  0.00     0.146 A 
ATOM     11  O   UNL     1      23.254 -34.322  -7.530  1.00  0.00    -0.452 OA
ENDROOT
BRANCH   1  12
ATOM     12  C   UNL     1      21.004 -35.171  -7.372  1.00  0.00     0.029 A 
ATOM     13  C   UNL     1      19.785 -34.823  -6.770  1.00  0.00     0.062 A 
ATOM     14  C   UNL     1      18.874 -35.815  -6.384  1.00  0.00     0.162 A 
ATOM     15  C   UNL     1      21.283 -36.524  -7.614  1.00  0.00     0.062 A 
ATOM     16  C   UNL     1      19.166 -37.169  -6.605  1.00  0.00     0.200 A 
ATOM     17  C   UNL     1      20.383 -37.525  -7.233  1.00  0.00     0.162 A 
BRANCH  14  18
ATOM     18  O   UNL     1      17.669 -35.462  -5.780  1.00  0.00    -0.504 OA
ATOM     19  H   UNL     1      16.906 -36.123  -5.691  1.00  0.00     0.293 HD
ENDBRANCH  14  18
BRANCH  16  20
ATOM     20  O   UNL     1      18.226 -38.118  -6.195  1.00  0.00    -0.502 OA
ATOM     21  H   UNL     1      17.249 -38.092  -6.447  1.00  0.00     0.293 HD
ENDBRANCH  16  20
BRANCH  17  22
ATOM     22  O   UNL     1      20.736 -38.851  -7.496  1.00  0.00    -0.504 OA
ATOM     23  H   UNL     1      21.525 -39.321  -7.077  1.00  0.00     0.293 HD
ENDBRANCH  17  22
ENDBRANCH   1  12
BRANCH   2  24
ATOM     24  O   UNL     1      20.206 -32.722  -8.697  1.00  0.00    -0.502 OA
ATOM     25  H   UNL     1      19.486 -33.028  -8.054  1.00  0.00     0.293 HD
ENDBRANCH   2  24
BRANCH   6  26
ATOM     26  O   UNL     1      24.825 -30.339  -9.863  1.00  0.00    -0.507 OA
ATOM     27  H   UNL     1      25.119 -29.404  -9.627  1.00  0.00     0.293 HD
ENDBRANCH   6  26
BRANCH   8  28
ATOM     28  O   UNL     1      27.876 -33.157  -7.487  1.00  0.00    -0.508 OA
ATOM     29  H   UNL     1      28.090 -33.858  -6.787  1.00  0.00     0.293 HD
ENDBRANCH   8  28
TORSDOF 7
ENDMDL
MODEL 8
REMARK VINA RESULT:    -6.174      2.501      7.796
REMARK INTER + INTRA:          -7.952
REMARK INTER:                  -7.633
REMARK INTRA:                  -0.320
REMARK UNBOUND:                -0.335
REMARK SMILES O=c1c(O)c(-c2cc(O)c(O)c(O)c2)oc2cc(O)cc(O)c12
REMARK SMILES IDX 5 1 3 2 2 3 1 4 23 5 21 6 20 7 18 8 17 9 16 10 15 11 6 12
REMARK SMILES IDX 7 13 8 14 14 15 10 16 12 17 9 18 11 20 13 22 4 24 22 26
REMARK SMILES IDX 19 28
REMARK H PARENT 9 19 11 21 13 23 4 25 22 27 19 29
REMARK Flexibility Score: inf
ROOT
ATOM      1  C   UNL     1      21.781 -34.617  -9.004  1.00  0.00     0.180 A 
ATOM      2  C   UNL     1      22.324 -35.908  -9.119  1.00  0.00     0.208 A 
ATOM      3  C   UNL     1      21.714 -36.967  -8.427  1.00  0.00     0.238 A 
ATOM      4  O   UNL     1      22.236 -38.111  -8.490  1.00  0.00    -0.285 OA
ATOM      5  C   UNL     1      20.561 -36.725  -7.642  1.00  0.00     0.111 A 
ATOM      6  C   UNL     1      19.839 -37.730  -6.930  1.00  0.00     0.134 A 
ATOM      7  C   UNL     1      18.791 -37.356  -6.081  1.00  0.00     0.093 A 
ATOM      8  C   UNL     1      18.395 -36.023  -5.968  1.00  0.00     0.123 A 
ATOM      9  C   UNL     1      19.056 -35.039  -6.704  1.00  0.00     0.094 A 
ATOM     10  C   UNL     1      20.130 -35.377  -7.532  1.00  0.00     0.146 A 
ATOM     11  O   UNL     1      20.739 -34.410  -8.208  1.00  0.00    -0.452 OA
ENDROOT
BRANCH   1  12
ATOM     12  C   UNL     1      22.353 -33.455  -9.723  1.00  0.00     0.029 A 
ATOM     13  C   UNL     1      23.508 -32.807  -9.261  1.00  0.00     0.062 A 
ATOM     14  C   UNL     1      24.047 -31.724  -9.967  1.00  0.00     0.162 A 
ATOM     15  C   UNL     1      21.765 -33.027 -10.923  1.00  0.00     0.062 A 
ATOM     16  C   UNL     1      23.444 -31.283 -11.154  1.00  0.00     0.200 A 
ATOM     17  C   UNL     1      22.292 -31.947 -11.639  1.00  0.00     0.162 A 
BRANCH  14  18
ATOM     18  O   UNL     1      25.191 -31.081  -9.497  1.00  0.00    -0.504 OA
ATOM     19  H   UNL     1      26.119 -31.424  -9.712  1.00  0.00     0.293 HD
ENDBRANCH  14  18
BRANCH  16  20
ATOM     20  O   UNL     1      24.018 -30.195 -11.816  1.00  0.00    -0.502 OA
ATOM     21  H   UNL     1      24.394 -30.236 -12.752  1.00  0.00     0.293 HD
ENDBRANCH  16  20
BRANCH  17  22
ATOM     22  O   UNL     1      21.645 -31.571 -12.818  1.00  0.00    -0.504 OA
ATOM     23  H   UNL     1      20.672 -31.308 -12.870  1.00  0.00     0.293 HD
ENDBRANCH  17  22
ENDBRANCH   1  12
BRANCH   2  24
ATOM     24  O   UNL     1      23.475 -36.122  -9.882  1.00  0.00    -0.502 OA
ATOM     25  H   UNL     1      24.040 -36.957  -9.791  1.00  0.00     0.293 HD
ENDBRANCH   2  24
BRANCH   6  26
ATOM     26  O   UNL     1      20.092 -39.100  -7.044  1.00  0.00    -0.507 OA
ATOM     27  H   UNL     1      19.780 -39.681  -7.807  1.00  0.00     0.293 HD
ENDBRANCH   6  26
BRANCH   8  28
ATOM     28  O   UNL     1      17.337 -35.689  -5.125  1.00  0.00    -0.508 OA
ATOM     29  H   UNL     1      17.061 -34.725  -4.978  1.00  0.00     0.293 HD
ENDBRANCH   8  28
TORSDOF 7
ENDMDL
MODEL 9
REMARK VINA RESULT:    -6.071      2.643      4.386
REMARK INTER + INTRA:          -7.826
REMARK INTER:                  -8.258
REMARK INTRA:                   0.432
REMARK UNBOUND:                -0.335
REMARK SMILES O=c1c(O)c(-c2cc(O)c(O)c(O)c2)oc2cc(O)cc(O)c12
REMARK SMILES IDX 5 1 3 2 2 3 1 4 23 5 21 6 20 7 18 8 17 9 16 10 15 11 6 12
REMARK SMILES IDX 7 13 8 14 14 15 10 16 12 17 9 18 11 20 13 22 4 24 22 26
REMARK SMILES IDX 19 28
REMARK H PARENT 9 19 11 21 13 23 4 25 22 27 19 29
REMARK Flexibility Score: inf
ROOT
ATOM      1  C   UNL     1      20.917 -34.685  -7.682  1.00  0.00     0.180 A 
ATOM      2  C   UNL     1      22.231 -35.035  -8.041  1.00  0.00     0.208 A 
ATOM      3  C   UNL     1      23.048 -34.071  -8.653  1.00  0.00     0.238 A 
ATOM      4  O   UNL     1      24.205 -34.405  -9.022  1.00  0.00    -0.285 OA
ATOM      5  C   UNL     1      22.550 -32.766  -8.883  1.00  0.00     0.111 A 
ATOM      6  C   UNL     1      23.304 -31.700  -9.459  1.00  0.00     0.134 A 
ATOM      7  C   UNL     1      22.669 -30.489  -9.759  1.00  0.00     0.093 A 
ATOM      8  C   UNL     1      21.325 -30.282  -9.445  1.00  0.00     0.123 A 
ATOM      9  C   UNL     1      20.594 -31.297  -8.828  1.00  0.00     0.094 A 
ATOM     10  C   UNL     1      21.191 -32.530  -8.549  1.00  0.00     0.146 A 
ATOM     11  O   UNL     1      20.457 -33.473  -7.971  1.00  0.00    -0.452 OA
ENDROOT
BRANCH   1  12
ATOM     12  C   UNL     1      20.004 -35.638  -7.012  1.00  0.00     0.029 A 
ATOM     13  C   UNL     1      20.444 -36.907  -6.604  1.00  0.00     0.062 A 
ATOM     14  C   UNL     1      19.571 -37.786  -5.951  1.00  0.00     0.162 A 
ATOM     15  C   UNL     1      18.687 -35.248  -6.725  1.00  0.00     0.062 A 
ATOM     16  C   UNL     1      18.248 -37.403  -5.686  1.00  0.00     0.200 A 
ATOM     17  C   UNL     1      17.805 -36.116  -6.073  1.00  0.00     0.162 A 
BRANCH  14  18
ATOM     18  O   UNL     1      20.013 -39.048  -5.556  1.00  0.00    -0.504 OA
ATOM     19  H   UNL     1      20.998 -39.250  -5.433  1.00  0.00     0.293 HD
ENDBRANCH  14  18
BRANCH  16  20
ATOM     20  O   UNL     1      17.417 -38.321  -5.037  1.00  0.00    -0.502 OA
ATOM     21  H   UNL     1      17.346 -39.295  -5.289  1.00  0.00     0.293 HD
ENDBRANCH  16  20
BRANCH  17  22
ATOM     22  O   UNL     1      16.506 -35.662  -5.832  1.00  0.00    -0.504 OA
ATOM     23  H   UNL     1      16.283 -34.741  -5.486  1.00  0.00     0.293 HD
ENDBRANCH  17  22
ENDBRANCH   1  12
BRANCH   2  24
ATOM     24  O   UNL     1      22.696 -36.334  -7.826  1.00  0.00    -0.502 OA
ATOM     25  H   UNL     1      22.692 -37.041  -8.551  1.00  0.00     0.293 HD
ENDBRANCH   2  24
BRANCH   6  26
ATOM     26  O   UNL     1      24.674 -31.769  -9.727  1.00  0.00    -0.507 OA
ATOM     27  H   UNL     1      25.137 -31.288 -10.483  1.00  0.00     0.293 HD
ENDBRANCH   6  26
BRANCH   8  28
ATOM     28  O   UNL     1      20.730 -29.058  -9.745  1.00  0.00    -0.508 OA
ATOM     29  H   UNL     1      21.041 -28.198  -9.308  1.00  0.00     0.293 HD
ENDBRANCH   8  28
TORSDOF 7
ENDMDL
