MODEL 1
REMARK VINA RESULT:    -5.178      0.000      0.000
REMARK INTER + INTRA:          -7.656
REMARK INTER:                  -6.995
REMARK INTRA:                  -0.661
REMARK UNBOUND:                -0.661
REMARK SMILES CCCCCCC=CC(=O)[O-]
REMARK SMILES IDX 5 1 6 2 7 3 8 4 9 5 10 6 11 7 4 8 3 9 2 10 1 11
REMARK H PARENT
REMARK Flexibility Score: inf
ROOT
ATOM      1  C   UNL     1       8.507 -55.744 -29.055  1.00  0.00     0.004 C 
ENDROOT
BRANCH   1   2
ATOM      2  C   UNL     1       9.769 -55.349 -29.834  1.00  0.00     0.027 C 
BRANCH   2   3
ATOM      3  C   UNL     1       9.470 -54.284 -30.854  1.00  0.00    -0.025 C 
ATOM      4  C   UNL     1       9.702 -54.369 -32.175  1.00  0.00     0.020 C 
BRANCH   4   5
ATOM      5  C   UNL     1      10.258 -55.530 -32.901  1.00  0.00     0.064 C 
ATOM      6  O   UNL     1       9.586 -56.575 -33.108  1.00  0.00    -0.545 OA
ATOM      7  O   UNL     1      11.556 -55.458 -33.388  1.00  0.00    -0.545 OA
ENDBRANCH   4   5
ENDBRANCH   2   3
ENDBRANCH   1   2
BRANCH   1   8
ATOM      8  C   UNL     1       7.455 -56.355 -29.986  1.00  0.00     0.000 C 
BRANCH   8   9
ATOM      9  C   UNL     1       6.046 -55.880 -29.612  1.00  0.00    -0.000 C 
BRANCH   9  10
ATOM     10  C   UNL     1       5.179 -55.691 -30.863  1.00  0.00    -0.003 C 
ATOM     11  C   UNL     1       5.948 -54.964 -31.961  1.00  0.00     0.004 C 
ENDBRANCH   9  10
ENDBRANCH   8   9
ENDBRANCH   1   8
TORSDOF 6
ENDMDL
MODEL 2
REMARK VINA RESULT:    -4.984      1.694      2.308
REMARK INTER + INTRA:          -7.394
REMARK INTER:                  -6.941
REMARK INTRA:                  -0.453
REMARK UNBOUND:                -0.661
REMARK SMILES CCCCCCC=CC(=O)[O-]
REMARK SMILES IDX 5 1 6 2 7 3 8 4 9 5 10 6 11 7 4 8 3 9 2 10 1 11
REMARK H PARENT
REMARK Flexibility Score: inf
ROOT
ATOM      1  C   UNL     1       7.085 -55.755 -28.849  1.00  0.00     0.004 C 
ENDROOT
BRANCH   1   2
ATOM      2  C   UNL     1       8.599 -55.999 -28.896  1.00  0.00     0.027 C 
BRANCH   2   3
ATOM      3  C   UNL     1       9.362 -54.703 -28.861  1.00  0.00    -0.025 C 
ATOM      4  C   UNL     1       9.701 -53.958 -29.926  1.00  0.00     0.020 C 
BRANCH   4   5
ATOM      5  C   UNL     1       9.365 -54.232 -31.339  1.00  0.00     0.064 C 
ATOM      6  O   UNL     1       8.223 -53.994 -31.813  1.00  0.00    -0.545 OA
ATOM      7  O   UNL     1      10.346 -54.749 -32.174  1.00  0.00    -0.545 OA
ENDBRANCH   4   5
ENDBRANCH   2   3
ENDBRANCH   1   2
BRANCH   1   8
ATOM      8  C   UNL     1       6.387 -56.394 -30.056  1.00  0.00     0.000 C 
BRANCH   8   9
ATOM      9  C   UNL     1       5.043 -55.715 -30.338  1.00  0.00    -0.000 C 
BRANCH   9  10
ATOM     10  C   UNL     1       3.878 -56.554 -29.799  1.00  0.00    -0.003 C 
ATOM     11  C   UNL     1       3.248 -55.901 -28.573  1.00  0.00     0.004 C 
ENDBRANCH   9  10
ENDBRANCH   8   9
ENDBRANCH   1   8
TORSDOF 6
ENDMDL
MODEL 3
REMARK VINA RESULT:    -4.904      2.003      2.610
REMARK INTER + INTRA:          -7.285
REMARK INTER:                  -6.790
REMARK INTRA:                  -0.495
REMARK UNBOUND:                -0.661
REMARK SMILES CCCCCCC=CC(=O)[O-]
REMARK SMILES IDX 5 1 6 2 7 3 8 4 9 5 10 6 11 7 4 8 3 9 2 10 1 11
REMARK H PARENT
REMARK Flexibility Score: inf
ROOT
ATOM      1  C   UNL     1       7.144 -55.776 -28.874  1.00  0.00     0.004 C 
ENDROOT
BRANCH   1   2
ATOM      2  C   UNL     1       7.208 -56.178 -30.354  1.00  0.00     0.027 C 
BRANCH   2   3
ATOM      3  C   UNL     1       7.110 -54.975 -31.252  1.00  0.00    -0.025 C 
ATOM      4  C   UNL     1       8.135 -54.203 -31.651  1.00  0.00     0.020 C 
BRANCH   4   5
ATOM      5  C   UNL     1       9.564 -54.396 -31.328  1.00  0.00     0.064 C 
ATOM      6  O   UNL     1      10.384 -54.854 -32.166  1.00  0.00    -0.545 OA
ATOM      7  O   UNL     1      10.020 -54.041 -30.065  1.00  0.00    -0.545 OA
ENDBRANCH   4   5
ENDBRANCH   2   3
ENDBRANCH   1   2
BRANCH   1   8
ATOM      8  C   UNL     1       5.801 -56.176 -28.253  1.00  0.00     0.000 C 
BRANCH   8   9
ATOM      9  C   UNL     1       4.924 -56.917 -29.268  1.00  0.00    -0.000 C 
BRANCH   9  10
ATOM     10  C   UNL     1       3.498 -56.353 -29.279  1.00  0.00    -0.003 C 
ATOM     11  C   UNL     1       3.417 -55.045 -28.497  1.00  0.00     0.004 C 
ENDBRANCH   9  10
ENDBRANCH   8   9
ENDBRANCH   1   8
TORSDOF 6
ENDMDL
MODEL 4
REMARK VINA RESULT:    -4.865      2.042      3.365
REMARK INTER + INTRA:          -7.233
REMARK INTER:                  -6.603
REMARK INTRA:                  -0.630
REMARK UNBOUND:                -0.661
REMARK SMILES CCCCCCC=CC(=O)[O-]
REMARK SMILES IDX 5 1 6 2 7 3 8 4 9 5 10 6 11 7 4 8 3 9 2 10 1 11
REMARK H PARENT
REMARK Flexibility Score: inf
ROOT
ATOM      1  C   UNL     1       5.105 -55.411 -31.470  1.00  0.00     0.004 C 
ENDROOT
BRANCH   1   2
ATOM      2  C   UNL     1       6.587 -55.014 -31.454  1.00  0.00     0.027 C 
BRANCH   2   3
ATOM      3  C   UNL     1       7.372 -55.873 -30.500  1.00  0.00    -0.025 C 
ATOM      4  C   UNL     1       8.634 -55.651 -30.094  1.00  0.00     0.020 C 
BRANCH   4   5
ATOM      5  C   UNL     1       9.492 -54.507 -30.464  1.00  0.00     0.064 C 
ATOM      6  O   UNL     1       9.656 -53.519 -29.701  1.00  0.00    -0.545 OA
ATOM      7  O   UNL     1      10.155 -54.532 -31.684  1.00  0.00    -0.545 OA
ENDBRANCH   4   5
ENDBRANCH   2   3
ENDBRANCH   1   2
BRANCH   1   8
ATOM      8  C   UNL     1       4.503 -55.345 -30.062  1.00  0.00     0.000 C 
BRANCH   8   9
ATOM      9  C   UNL     1       3.850 -56.679 -29.680  1.00  0.00    -0.000 C 
BRANCH   9  10
ATOM     10  C   UNL     1       4.530 -57.292 -28.451  1.00  0.00    -0.003 C 
ATOM     11  C   UNL     1       5.110 -56.211 -27.544  1.00  0.00     0.004 C 
ENDBRANCH   9  10
ENDBRANCH   8   9
ENDBRANCH   1   8
TORSDOF 6
ENDMDL
MODEL 5
REMARK VINA RESULT:    -4.808      2.692      3.457
REMARK INTER + INTRA:          -7.155
REMARK INTER:                  -6.801
REMARK INTRA:                  -0.354
REMARK UNBOUND:                -0.661
REMARK SMILES CCCCCCC=CC(=O)[O-]
REMARK SMILES IDX 5 1 6 2 7 3 8 4 9 5 10 6 11 7 4 8 3 9 2 10 1 11
REMARK H PARENT
REMARK Flexibility Score: inf
ROOT
ATOM      1  C   UNL     1       6.655 -55.007 -31.501  1.00  0.00     0.004 C 
ENDROOT
BRANCH   1   2
ATOM      2  C   UNL     1       7.648 -55.525 -30.451  1.00  0.00     0.027 C 
BRANCH   2   3
ATOM      3  C   UNL     1       9.070 -55.333 -30.903  1.00  0.00    -0.025 C 
ATOM      4  C   UNL     1      10.139 -55.191 -30.103  1.00  0.00     0.020 C 
BRANCH   4   5
ATOM      5  C   UNL     1      10.149 -55.233 -28.626  1.00  0.00     0.064 C 
ATOM      6  O   UNL     1      10.148 -56.318 -27.987  1.00  0.00    -0.545 OA
ATOM      7  O   UNL     1      10.180 -54.037 -27.920  1.00  0.00    -0.545 OA
ENDBRANCH   4   5
ENDBRANCH   2   3
ENDBRANCH   1   2
BRANCH   1   8
ATOM      8  C   UNL     1       5.214 -55.363 -31.118  1.00  0.00     0.000 C 
BRANCH   8   9
ATOM      9  C   UNL     1       5.184 -56.358 -29.952  1.00  0.00    -0.000 C 
BRANCH   9  10
ATOM     10  C   UNL     1       3.771 -56.482 -29.371  1.00  0.00    -0.003 C 
ATOM     11  C   UNL     1       3.396 -55.244 -28.563  1.00  0.00     0.004 C 
ENDBRANCH   9  10
ENDBRANCH   8   9
ENDBRANCH   1   8
TORSDOF 6
ENDMDL
MODEL 6
REMARK VINA RESULT:    -4.780      3.603      5.337
REMARK INTER + INTRA:          -7.118
REMARK INTER:                  -6.647
REMARK INTRA:                  -0.470
REMARK UNBOUND:                -0.661
REMARK SMILES CCCCCCC=CC(=O)[O-]
REMARK SMILES IDX 5 1 6 2 7 3 8 4 9 5 10 6 11 7 4 8 3 9 2 10 1 11
REMARK H PARENT
REMARK Flexibility Score: inf
ROOT
ATOM      1  C   UNL     1       7.035 -54.919 -31.054  1.00  0.00     0.004 C 
ENDROOT
BRANCH   1   2
ATOM      2  C   UNL     1       7.318 -56.246 -30.339  1.00  0.00     0.027 C 
BRANCH   2   3
ATOM      3  C   UNL     1       7.056 -56.138 -28.862  1.00  0.00    -0.025 C 
ATOM      4  C   UNL     1       5.849 -56.158 -28.271  1.00  0.00     0.020 C 
BRANCH   4   5
ATOM      5  C   UNL     1       4.542 -56.330 -28.938  1.00  0.00     0.064 C 
ATOM      6  O   UNL     1       4.068 -57.467 -29.198  1.00  0.00    -0.545 OA
ATOM      7  O   UNL     1       3.805 -55.202 -29.271  1.00  0.00    -0.545 OA
ENDBRANCH   4   5
ENDBRANCH   2   3
ENDBRANCH   1   2
BRANCH   1   8
ATOM      8  C   UNL     1       8.312 -54.352 -31.686  1.00  0.00     0.000 C 
BRANCH   8   9
ATOM      9  C   UNL     1       9.545 -54.701 -30.845  1.00  0.00    -0.000 C 
BRANCH   9  10
ATOM     10  C   UNL     1       9.721 -53.708 -29.690  1.00  0.00    -0.003 C 
ATOM     11  C   UNL     1      10.294 -54.395 -28.454  1.00  0.00     0.004 C 
ENDBRANCH   9  10
ENDBRANCH   8   9
ENDBRANCH   1   8
TORSDOF 6
ENDMDL
MODEL 7
REMARK VINA RESULT:    -4.767      3.492      5.082
REMARK INTER + INTRA:          -7.100
REMARK INTER:                  -6.514
REMARK INTRA:                  -0.585
REMARK UNBOUND:                -0.661
REMARK SMILES CCCCCCC=CC(=O)[O-]
REMARK SMILES IDX 5 1 6 2 7 3 8 4 9 5 10 6 11 7 4 8 3 9 2 10 1 11
REMARK H PARENT
REMARK Flexibility Score: inf
ROOT
ATOM      1  C   UNL     1       8.667 -55.788 -28.842  1.00  0.00     0.004 C 
ENDROOT
BRANCH   1   2
ATOM      2  C   UNL     1       7.161 -56.075 -28.901  1.00  0.00     0.027 C 
BRANCH   2   3
ATOM      3  C   UNL     1       6.582 -55.684 -30.234  1.00  0.00    -0.025 C 
ATOM      4  C   UNL     1       5.279 -55.686 -30.559  1.00  0.00     0.020 C 
BRANCH   4   5
ATOM      5  C   UNL     1       4.148 -56.030 -29.672  1.00  0.00     0.064 C 
ATOM      6  O   UNL     1       3.736 -57.213 -29.541  1.00  0.00    -0.545 OA
ATOM      7  O   UNL     1       3.533 -55.019 -28.945  1.00  0.00    -0.545 OA
ENDBRANCH   4   5
ENDBRANCH   2   3
ENDBRANCH   1   2
BRANCH   1   8
ATOM      8  C   UNL     1       9.014 -54.511 -29.616  1.00  0.00     0.000 C 
BRANCH   8   9
ATOM      9  C   UNL     1      10.120 -54.774 -30.645  1.00  0.00    -0.000 C 
BRANCH   9  10
ATOM     10  C   UNL     1       9.583 -54.644 -32.075  1.00  0.00    -0.003 C 
ATOM     11  C   UNL     1       9.555 -55.997 -32.779  1.00  0.00     0.004 C 
ENDBRANCH   9  10
ENDBRANCH   8   9
ENDBRANCH   1   8
TORSDOF 6
ENDMDL
MODEL 8
REMARK VINA RESULT:    -4.684      1.298      3.019
REMARK INTER + INTRA:          -6.988
REMARK INTER:                  -6.361
REMARK INTRA:                  -0.627
REMARK UNBOUND:                -0.661
REMARK SMILES CCCCCCC=CC(=O)[O-]
REMARK SMILES IDX 5 1 6 2 7 3 8 4 9 5 10 6 11 7 4 8 3 9 2 10 1 11
REMARK H PARENT
REMARK Flexibility Score: inf
ROOT
ATOM      1  C   UNL     1       6.727 -55.591 -30.195  1.00  0.00     0.004 C 
ENDROOT
BRANCH   1   2
ATOM      2  C   UNL     1       6.875 -54.999 -31.603  1.00  0.00     0.027 C 
BRANCH   2   3
ATOM      3  C   UNL     1       8.177 -54.260 -31.750  1.00  0.00    -0.025 C 
ATOM      4  C   UNL     1       9.223 -54.647 -32.500  1.00  0.00     0.020 C 
BRANCH   4   5
ATOM      5  C   UNL     1       9.297 -55.846 -33.361  1.00  0.00     0.064 C 
ATOM      6  O   UNL     1       9.780 -56.934 -32.952  1.00  0.00    -0.545 OA
ATOM      7  O   UNL     1       8.797 -55.776 -34.654  1.00  0.00    -0.545 OA
ENDBRANCH   4   5
ENDBRANCH   2   3
ENDBRANCH   1   2
BRANCH   1   8
ATOM      8  C   UNL     1       7.837 -55.085 -29.266  1.00  0.00     0.000 C 
BRANCH   8   9
ATOM      9  C   UNL     1       8.657 -56.250 -28.701  1.00  0.00    -0.000 C 
BRANCH   9  10
ATOM     10  C   UNL     1      10.091 -55.811 -28.384  1.00  0.00    -0.003 C 
ATOM     11  C   UNL     1      10.283 -54.322 -28.652  1.00  0.00     0.004 C 
ENDBRANCH   9  10
ENDBRANCH   8   9
ENDBRANCH   1   8
TORSDOF 6
ENDMDL
MODEL 9
REMARK VINA RESULT:    -4.439      3.862      5.918
REMARK INTER + INTRA:          -6.657
REMARK INTER:                  -6.014
REMARK INTRA:                  -0.643
REMARK UNBOUND:                -0.661
REMARK SMILES CCCCCCC=CC(=O)[O-]
REMARK SMILES IDX 5 1 6 2 7 3 8 4 9 5 10 6 11 7 4 8 3 9 2 10 1 11
REMARK H PARENT
REMARK Flexibility Score: inf
ROOT
ATOM      1  C   UNL     1       2.657 -55.193 -27.114  1.00  0.00     0.004 C 
ENDROOT
BRANCH   1   2
ATOM      2  C   UNL     1       3.393 -55.016 -28.449  1.00  0.00     0.027 C 
BRANCH   2   3
ATOM      3  C   UNL     1       3.384 -56.290 -29.250  1.00  0.00    -0.025 C 
ATOM      4  C   UNL     1       4.373 -56.728 -30.047  1.00  0.00     0.020 C 
BRANCH   4   5
ATOM      5  C   UNL     1       5.681 -56.077 -30.270  1.00  0.00     0.064 C 
ATOM      6  O   UNL     1       6.705 -56.388 -29.608  1.00  0.00    -0.545 OA
ATOM      7  O   UNL     1       5.787 -55.105 -31.256  1.00  0.00    -0.545 OA
ENDBRANCH   4   5
ENDBRANCH   2   3
ENDBRANCH   1   2
BRANCH   1   8
ATOM      8  C   UNL     1       3.646 -55.429 -25.968  1.00  0.00     0.000 C 
BRANCH   8   9
ATOM      9  C   UNL     1       3.295 -56.703 -25.191  1.00  0.00    -0.000 C 
BRANCH   9  10
ATOM     10  C   UNL     1       4.507 -57.636 -25.088  1.00  0.00    -0.003 C 
ATOM     11  C   UNL     1       5.354 -57.581 -26.356  1.00  0.00     0.004 C 
ENDBRANCH   9  10
ENDBRANCH   8   9
ENDBRANCH   1   8
TORSDOF 6
ENDMDL
