MODEL 1
REMARK VINA RESULT:    -6.201      0.000      0.000
REMARK INTER + INTRA:         -10.869
REMARK INTER:                  -9.644
REMARK INTRA:                  -1.224
REMARK UNBOUND:                -1.224
REMARK SMILES COc1cc(CNC(=O)CCCCC=CC(C)C)ccc1O
REMARK SMILES IDX 11 1 12 2 13 3 14 4 15 5 16 6 17 7 18 8 10 9 8 10 9 11 7 12
REMARK SMILES IDX 6 14 5 15 4 16 19 17 3 18 20 19 21 20 2 21 1 22 22 23
REMARK H PARENT 7 13 22 24
REMARK Flexibility Score: inf
ROOT
ATOM      1  C   UNL     1      42.368  19.748  13.259  1.00  0.00     0.010 C 
ENDROOT
BRANCH   1   2
ATOM      2  C   UNL     1      43.048  18.401  12.949  1.00  0.00     0.005 C 
BRANCH   2   3
ATOM      3  C   UNL     1      42.310  17.552  11.900  1.00  0.00     0.027 C 
BRANCH   3   4
ATOM      4  C   UNL     1      41.244  18.346  11.194  1.00  0.00    -0.031 C 
ATOM      5  C   UNL     1      39.949  18.001  11.265  1.00  0.00    -0.028 C 
BRANCH   5   6
ATOM      6  C   UNL     1      38.904  18.706  10.435  1.00  0.00     0.005 C 
ATOM      7  C   UNL     1      39.370  20.123  10.086  1.00  0.00     0.012 C 
ATOM      8  C   UNL     1      37.579  18.749  11.199  1.00  0.00     0.012 C 
ENDBRANCH   5   6
ENDBRANCH   3   4
ENDBRANCH   2   3
ENDBRANCH   1   2
BRANCH   1   9
ATOM      9  C   UNL     1      43.360  20.916  13.313  1.00  0.00     0.100 C 
BRANCH   9  10
ATOM     10  C   UNL     1      43.065  21.888  12.212  1.00  0.00     0.220 C 
ATOM     11  O   UNL     1      42.717  23.065  12.502  1.00  0.00    -0.275 OA
ATOM     12  N   UNL     1      43.121  21.461  10.842  1.00  0.00    -0.352 N 
ATOM     13  H   UNL     1      43.507  20.515  10.630  1.00  0.00     0.163 HD
BRANCH  12  14
ATOM     14  C   UNL     1      42.409  22.159   9.774  1.00  0.00     0.151 C 
BRANCH  14  15
ATOM     15  C   UNL     1      42.888  21.664   8.435  1.00  0.00    -0.025 A 
ATOM     16  C   UNL     1      43.884  22.369   7.739  1.00  0.00     0.056 A 
ATOM     17  C   UNL     1      42.328  20.514   7.858  1.00  0.00     0.009 A 
ATOM     18  C   UNL     1      44.310  21.939   6.467  1.00  0.00     0.160 A 
ATOM     19  C   UNL     1      42.757  20.077   6.602  1.00  0.00     0.050 A 
ATOM     20  C   UNL     1      43.744  20.786   5.906  1.00  0.00     0.157 A 
BRANCH  18  21
ATOM     21  O   UNL     1      45.283  22.633   5.731  1.00  0.00    -0.493 OA
ATOM     22  C   UNL     1      46.684  22.552   5.971  1.00  0.00     0.278 C 
ENDBRANCH  18  21
BRANCH  20  23
ATOM     23  O   UNL     1      44.165  20.353   4.650  1.00  0.00    -0.504 OA
ATOM     24  H   UNL     1      43.791  19.511   4.228  1.00  0.00     0.293 HD
ENDBRANCH  20  23
ENDBRANCH  14  15
ENDBRANCH  12  14
ENDBRANCH   9  10
ENDBRANCH   1   9
TORSDOF 10
ENDMDL
MODEL 2
REMARK VINA RESULT:    -6.031      2.798      7.419
REMARK INTER + INTRA:         -10.606
REMARK INTER:                  -9.347
REMARK INTRA:                  -1.259
REMARK UNBOUND:                -1.224
REMARK SMILES COc1cc(CNC(=O)CCCCC=CC(C)C)ccc1O
REMARK SMILES IDX 11 1 12 2 13 3 14 4 15 5 16 6 17 7 18 8 10 9 8 10 9 11 7 12
REMARK SMILES IDX 6 14 5 15 4 16 19 17 3 18 20 19 21 20 2 21 1 22 22 23
REMARK H PARENT 7 13 22 24
REMARK Flexibility Score: inf
ROOT
ATOM      1  C   UNL     1      40.677  21.238   8.434  1.00  0.00     0.010 C 
ENDROOT
BRANCH   1   2
ATOM      2  C   UNL     1      41.761  22.053   9.164  1.00  0.00     0.005 C 
BRANCH   2   3
ATOM      3  C   UNL     1      43.200  21.617   8.839  1.00  0.00     0.027 C 
BRANCH   3   4
ATOM      4  C   UNL     1      43.651  22.146   7.504  1.00  0.00    -0.031 C 
ATOM      5  C   UNL     1      44.010  21.322   6.507  1.00  0.00    -0.028 C 
BRANCH   5   6
ATOM      6  C   UNL     1      44.606  21.855   5.227  1.00  0.00     0.005 C 
ATOM      7  C   UNL     1      44.892  20.705   4.256  1.00  0.00     0.012 C 
ATOM      8  C   UNL     1      45.889  22.629   5.537  1.00  0.00     0.012 C 
ENDBRANCH   5   6
ENDBRANCH   3   4
ENDBRANCH   2   3
ENDBRANCH   1   2
BRANCH   1   9
ATOM      9  C   UNL     1      41.007  19.743   8.358  1.00  0.00     0.100 C 
BRANCH   9  10
ATOM     10  C   UNL     1      40.586  19.062   9.625  1.00  0.00     0.220 C 
ATOM     11  O   UNL     1      39.436  19.280  10.092  1.00  0.00    -0.275 OA
ATOM     12  N   UNL     1      41.510  18.216  10.326  1.00  0.00    -0.352 N 
ATOM     13  H   UNL     1      42.416  17.976   9.867  1.00  0.00     0.163 HD
BRANCH  12  14
ATOM     14  C   UNL     1      41.372  17.916  11.750  1.00  0.00     0.151 C 
BRANCH  14  15
ATOM     15  C   UNL     1      41.764  19.120  12.564  1.00  0.00    -0.025 A 
ATOM     16  C   UNL     1      41.051  19.443  13.732  1.00  0.00     0.056 A 
ATOM     17  C   UNL     1      42.821  19.946  12.152  1.00  0.00     0.009 A 
ATOM     18  C   UNL     1      41.381  20.591  14.478  1.00  0.00     0.160 A 
ATOM     19  C   UNL     1      43.160  21.078  12.897  1.00  0.00     0.050 A 
ATOM     20  C   UNL     1      42.444  21.403  14.056  1.00  0.00     0.157 A 
BRANCH  18  21
ATOM     21  O   UNL     1      40.676  20.959  15.634  1.00  0.00    -0.493 OA
ATOM     22  C   UNL     1      39.648  20.177  16.233  1.00  0.00     0.278 C 
ENDBRANCH  18  21
BRANCH  20  23
ATOM     23  O   UNL     1      42.778  22.538  14.793  1.00  0.00    -0.504 OA
ATOM     24  H   UNL     1      43.187  22.466  15.717  1.00  0.00     0.293 HD
ENDBRANCH  20  23
ENDBRANCH  14  15
ENDBRANCH  12  14
ENDBRANCH   9  10
ENDBRANCH   1   9
TORSDOF 10
ENDMDL
MODEL 3
REMARK VINA RESULT:    -5.841      2.263      5.173
REMARK INTER + INTRA:         -10.310
REMARK INTER:                  -8.570
REMARK INTRA:                  -1.740
REMARK UNBOUND:                -1.224
REMARK SMILES COc1cc(CNC(=O)CCCCC=CC(C)C)ccc1O
REMARK SMILES IDX 11 1 12 2 13 3 14 4 15 5 16 6 17 7 18 8 10 9 8 10 9 11 7 12
REMARK SMILES IDX 6 14 5 15 4 16 19 17 3 18 20 19 21 20 2 21 1 22 22 23
REMARK H PARENT 7 13 22 24
REMARK Flexibility Score: inf
ROOT
ATOM      1  C   UNL     1      43.001  21.948  12.823  1.00  0.00     0.010 C 
ENDROOT
BRANCH   1   2
ATOM      2  C   UNL     1      43.451  22.171  11.367  1.00  0.00     0.005 C 
BRANCH   2   3
ATOM      3  C   UNL     1      42.376  22.804  10.467  1.00  0.00     0.027 C 
BRANCH   3   4
ATOM      4  C   UNL     1      42.880  23.013   9.064  1.00  0.00    -0.031 C 
ATOM      5  C   UNL     1      43.227  21.980   8.282  1.00  0.00    -0.028 C 
BRANCH   5   6
ATOM      6  C   UNL     1      43.875  22.200   6.936  1.00  0.00     0.005 C 
ATOM      7  C   UNL     1      43.974  20.876   6.171  1.00  0.00     0.012 C 
ATOM      8  C   UNL     1      45.263  22.815   7.126  1.00  0.00     0.012 C 
ENDBRANCH   5   6
ENDBRANCH   3   4
ENDBRANCH   2   3
ENDBRANCH   1   2
BRANCH   1   9
ATOM      9  C   UNL     1      43.809  20.857  13.534  1.00  0.00     0.100 C 
BRANCH   9  10
ATOM     10  C   UNL     1      43.448  19.512  12.981  1.00  0.00     0.220 C 
ATOM     11  O   UNL     1      44.275  18.900  12.252  1.00  0.00    -0.275 OA
ATOM     12  N   UNL     1      42.149  18.957  13.234  1.00  0.00    -0.352 N 
ATOM     13  H   UNL     1      41.525  19.437  13.919  1.00  0.00     0.163 HD
BRANCH  12  14
ATOM     14  C   UNL     1      41.553  17.933  12.377  1.00  0.00     0.151 C 
BRANCH  14  15
ATOM     15  C   UNL     1      41.236  18.521  11.027  1.00  0.00    -0.025 A 
ATOM     16  C   UNL     1      41.789  17.955   9.866  1.00  0.00     0.056 A 
ATOM     17  C   UNL     1      40.413  19.651  10.918  1.00  0.00     0.009 A 
ATOM     18  C   UNL     1      41.534  18.521   8.602  1.00  0.00     0.160 A 
ATOM     19  C   UNL     1      40.147  20.208   9.664  1.00  0.00     0.050 A 
ATOM     20  C   UNL     1      40.705  19.648   8.509  1.00  0.00     0.157 A 
BRANCH  18  21
ATOM     21  O   UNL     1      42.089  17.999   7.423  1.00  0.00    -0.493 OA
ATOM     22  C   UNL     1      42.415  16.628   7.225  1.00  0.00     0.278 C 
ENDBRANCH  18  21
BRANCH  20  23
ATOM     23  O   UNL     1      40.444  20.210   7.260  1.00  0.00    -0.504 OA
ATOM     24  H   UNL     1      41.106  20.833   6.813  1.00  0.00     0.293 HD
ENDBRANCH  20  23
ENDBRANCH  14  15
ENDBRANCH  12  14
ENDBRANCH   9  10
ENDBRANCH   1   9
TORSDOF 10
ENDMDL
MODEL 4
REMARK VINA RESULT:    -5.801      1.861      3.689
REMARK INTER + INTRA:         -10.247
REMARK INTER:                  -9.115
REMARK INTRA:                  -1.132
REMARK UNBOUND:                -1.224
REMARK SMILES COc1cc(CNC(=O)CCCCC=CC(C)C)ccc1O
REMARK SMILES IDX 11 1 12 2 13 3 14 4 15 5 16 6 17 7 18 8 10 9 8 10 9 11 7 12
REMARK SMILES IDX 6 14 5 15 4 16 19 17 3 18 20 19 21 20 2 21 1 22 22 23
REMARK H PARENT 7 13 22 24
REMARK Flexibility Score: inf
ROOT
ATOM      1  C   UNL     1      41.253  17.868  12.210  1.00  0.00     0.010 C 
ENDROOT
BRANCH   1   2
ATOM      2  C   UNL     1      42.601  17.832  11.464  1.00  0.00     0.005 C 
BRANCH   2   3
ATOM      3  C   UNL     1      43.785  18.381  12.278  1.00  0.00     0.027 C 
BRANCH   3   4
ATOM      4  C   UNL     1      43.788  19.886  12.304  1.00  0.00    -0.031 C 
ATOM      5  C   UNL     1      43.397  20.570  13.391  1.00  0.00    -0.028 C 
BRANCH   5   6
ATOM      6  C   UNL     1      43.255  22.073  13.361  1.00  0.00     0.005 C 
ATOM      7  C   UNL     1      42.297  22.538  14.462  1.00  0.00     0.012 C 
ATOM      8  C   UNL     1      42.752  22.518  11.986  1.00  0.00     0.012 C 
ENDBRANCH   5   6
ENDBRANCH   3   4
ENDBRANCH   2   3
ENDBRANCH   1   2
BRANCH   1   9
ATOM      9  C   UNL     1      40.455  19.147  11.932  1.00  0.00     0.100 C 
BRANCH   9  10
ATOM     10  C   UNL     1      40.221  19.293  10.459  1.00  0.00     0.220 C 
ATOM     11  O   UNL     1      39.355  18.572   9.895  1.00  0.00    -0.275 OA
ATOM     12  N   UNL     1      41.020  20.207   9.693  1.00  0.00    -0.352 N 
ATOM     13  H   UNL     1      41.657  20.860  10.199  1.00  0.00     0.163 HD
BRANCH  12  14
ATOM     14  C   UNL     1      41.198  20.071   8.248  1.00  0.00     0.151 C 
BRANCH  14  15
ATOM     15  C   UNL     1      42.389  20.879   7.804  1.00  0.00    -0.025 A 
ATOM     16  C   UNL     1      43.192  20.425   6.744  1.00  0.00     0.056 A 
ATOM     17  C   UNL     1      42.726  22.073   8.460  1.00  0.00     0.009 A 
ATOM     18  C   UNL     1      44.333  21.149   6.348  1.00  0.00     0.160 A 
ATOM     19  C   UNL     1      43.848  22.801   8.061  1.00  0.00     0.050 A 
ATOM     20  C   UNL     1      44.652  22.344   7.010  1.00  0.00     0.157 A 
BRANCH  18  21
ATOM     21  O   UNL     1      45.172  20.713   5.311  1.00  0.00    -0.493 OA
ATOM     22  C   UNL     1      44.720  20.328   4.017  1.00  0.00     0.278 C 
ENDBRANCH  18  21
BRANCH  20  23
ATOM     23  O   UNL     1      45.777  23.068   6.618  1.00  0.00    -0.504 OA
ATOM     24  H   UNL     1      46.199  22.937   5.707  1.00  0.00     0.293 HD
ENDBRANCH  20  23
ENDBRANCH  14  15
ENDBRANCH  12  14
ENDBRANCH   9  10
ENDBRANCH   1   9
TORSDOF 10
ENDMDL
MODEL 5
REMARK VINA RESULT:    -5.779      1.591      3.370
REMARK INTER + INTRA:         -10.213
REMARK INTER:                  -9.400
REMARK INTRA:                  -0.814
REMARK UNBOUND:                -1.224
REMARK SMILES COc1cc(CNC(=O)CCCCC=CC(C)C)ccc1O
REMARK SMILES IDX 11 1 12 2 13 3 14 4 15 5 16 6 17 7 18 8 10 9 8 10 9 11 7 12
REMARK SMILES IDX 6 14 5 15 4 16 19 17 3 18 20 19 21 20 2 21 1 22 22 23
REMARK H PARENT 7 13 22 24
REMARK Flexibility Score: inf
ROOT
ATOM      1  C   UNL     1      40.293  19.479   9.514  1.00  0.00     0.010 C 
ENDROOT
BRANCH   1   2
ATOM      2  C   UNL     1      39.223  18.776  10.371  1.00  0.00     0.005 C 
BRANCH   2   3
ATOM      3  C   UNL     1      39.797  17.871  11.475  1.00  0.00     0.027 C 
BRANCH   3   4
ATOM      4  C   UNL     1      41.248  18.169  11.738  1.00  0.00    -0.031 C 
ATOM      5  C   UNL     1      42.034  17.305  12.399  1.00  0.00    -0.028 C 
BRANCH   5   6
ATOM      6  C   UNL     1      43.444  17.673  12.794  1.00  0.00     0.005 C 
ATOM      7  C   UNL     1      43.799  19.064  12.259  1.00  0.00     0.012 C 
ATOM      8  C   UNL     1      44.421  16.625  12.259  1.00  0.00     0.012 C 
ENDBRANCH   5   6
ENDBRANCH   3   4
ENDBRANCH   2   3
ENDBRANCH   1   2
BRANCH   1   9
ATOM      9  C   UNL     1      40.211  21.007   9.595  1.00  0.00     0.100 C 
BRANCH   9  10
ATOM     10  C   UNL     1      41.586  21.598   9.521  1.00  0.00     0.220 C 
ATOM     11  O   UNL     1      41.989  22.348  10.450  1.00  0.00    -0.275 OA
ATOM     12  N   UNL     1      42.411  21.355   8.371  1.00  0.00    -0.352 N 
ATOM     13  H   UNL     1      42.092  20.653   7.667  1.00  0.00     0.163 HD
BRANCH  12  14
ATOM     14  C   UNL     1      43.513  22.238   7.996  1.00  0.00     0.151 C 
BRANCH  14  15
ATOM     15  C   UNL     1      44.104  21.787   6.686  1.00  0.00    -0.025 A 
ATOM     16  C   UNL     1      45.027  22.604   6.012  1.00  0.00     0.056 A 
ATOM     17  C   UNL     1      43.718  20.566   6.113  1.00  0.00     0.009 A 
ATOM     18  C   UNL     1      45.553  22.212   4.766  1.00  0.00     0.160 A 
ATOM     19  C   UNL     1      44.248  20.167   4.884  1.00  0.00     0.050 A 
ATOM     20  C   UNL     1      45.163  20.986   4.209  1.00  0.00     0.157 A 
BRANCH  18  21
ATOM     21  O   UNL     1      46.457  23.014   4.051  1.00  0.00    -0.493 OA
ATOM     22  C   UNL     1      47.849  23.107   4.335  1.00  0.00     0.278 C 
ENDBRANCH  18  21
BRANCH  20  23
ATOM     23  O   UNL     1      45.684  20.591   2.979  1.00  0.00    -0.504 OA
ATOM     24  H   UNL     1      46.674  20.660   2.778  1.00  0.00     0.293 HD
ENDBRANCH  20  23
ENDBRANCH  14  15
ENDBRANCH  12  14
ENDBRANCH   9  10
ENDBRANCH   1   9
TORSDOF 10
ENDMDL
MODEL 6
REMARK VINA RESULT:    -5.714      1.096      2.171
REMARK INTER + INTRA:         -10.112
REMARK INTER:                  -8.914
REMARK INTRA:                  -1.197
REMARK UNBOUND:                -1.224
REMARK SMILES COc1cc(CNC(=O)CCCCC=CC(C)C)ccc1O
REMARK SMILES IDX 11 1 12 2 13 3 14 4 15 5 16 6 17 7 18 8 10 9 8 10 9 11 7 12
REMARK SMILES IDX 6 14 5 15 4 16 19 17 3 18 20 19 21 20 2 21 1 22 22 23
REMARK H PARENT 7 13 22 24
REMARK Flexibility Score: inf
ROOT
ATOM      1  C   UNL     1      42.486  19.960  13.466  1.00  0.00     0.010 C 
ENDROOT
BRANCH   1   2
ATOM      2  C   UNL     1      43.111  18.701  12.835  1.00  0.00     0.005 C 
BRANCH   2   3
ATOM      3  C   UNL     1      42.085  17.724  12.235  1.00  0.00     0.027 C 
BRANCH   3   4
ATOM      4  C   UNL     1      40.801  18.421  11.873  1.00  0.00    -0.031 C 
ATOM      5  C   UNL     1      39.959  17.911  10.962  1.00  0.00    -0.028 C 
BRANCH   5   6
ATOM      6  C   UNL     1      38.752  18.687  10.491  1.00  0.00     0.005 C 
ATOM      7  C   UNL     1      39.149  20.124  10.139  1.00  0.00     0.012 C 
ATOM      8  C   UNL     1      37.675  18.677  11.578  1.00  0.00     0.012 C 
ENDBRANCH   5   6
ENDBRANCH   3   4
ENDBRANCH   2   3
ENDBRANCH   1   2
BRANCH   1   9
ATOM      9  C   UNL     1      43.464  21.138  13.534  1.00  0.00     0.100 C 
BRANCH   9  10
ATOM     10  C   UNL     1      43.036  22.213  12.581  1.00  0.00     0.220 C 
ATOM     11  O   UNL     1      42.265  23.125  12.982  1.00  0.00    -0.275 OA
ATOM     12  N   UNL     1      43.458  22.165  11.209  1.00  0.00    -0.352 N 
ATOM     13  H   UNL     1      44.173  21.458  10.930  1.00  0.00     0.163 HD
BRANCH  12  14
ATOM     14  C   UNL     1      42.733  22.853  10.142  1.00  0.00     0.151 C 
BRANCH  14  15
ATOM     15  C   UNL     1      42.957  22.141   8.834  1.00  0.00    -0.025 A 
ATOM     16  C   UNL     1      42.329  20.909   8.588  1.00  0.00     0.056 A 
ATOM     17  C   UNL     1      43.812  22.685   7.864  1.00  0.00     0.009 A 
ATOM     18  C   UNL     1      42.564  20.213   7.386  1.00  0.00     0.160 A 
ATOM     19  C   UNL     1      44.037  22.004   6.665  1.00  0.00     0.050 A 
ATOM     20  C   UNL     1      43.417  20.772   6.424  1.00  0.00     0.157 A 
BRANCH  18  21
ATOM     21  O   UNL     1      41.975  18.968   7.116  1.00  0.00    -0.493 OA
ATOM     22  C   UNL     1      42.031  17.845   7.989  1.00  0.00     0.278 C 
ENDBRANCH  18  21
BRANCH  20  23
ATOM     23  O   UNL     1      43.649  20.091   5.230  1.00  0.00    -0.504 OA
ATOM     24  H   UNL     1      43.199  20.369   4.367  1.00  0.00     0.293 HD
ENDBRANCH  20  23
ENDBRANCH  14  15
ENDBRANCH  12  14
ENDBRANCH   9  10
ENDBRANCH   1   9
TORSDOF 10
ENDMDL
MODEL 7
REMARK VINA RESULT:    -5.440      2.574      6.606
REMARK INTER + INTRA:          -9.685
REMARK INTER:                  -8.331
REMARK INTRA:                  -1.354
REMARK UNBOUND:                -1.224
REMARK SMILES COc1cc(CNC(=O)CCCCC=CC(C)C)ccc1O
REMARK SMILES IDX 11 1 12 2 13 3 14 4 15 5 16 6 17 7 18 8 10 9 8 10 9 11 7 12
REMARK SMILES IDX 6 14 5 15 4 16 19 17 3 18 20 19 21 20 2 21 1 22 22 23
REMARK H PARENT 7 13 22 24
REMARK Flexibility Score: inf
ROOT
ATOM      1  C   UNL     1      42.949  22.759  10.633  1.00  0.00     0.010 C 
ENDROOT
BRANCH   1   2
ATOM      2  C   UNL     1      41.611  22.213  10.099  1.00  0.00     0.005 C 
BRANCH   2   3
ATOM      3  C   UNL     1      41.749  21.313   8.860  1.00  0.00     0.027 C 
BRANCH   3   4
ATOM      4  C   UNL     1      42.953  21.685   8.036  1.00  0.00    -0.031 C 
ATOM      5  C   UNL     1      43.311  20.974   6.956  1.00  0.00    -0.028 C 
BRANCH   5   6
ATOM      6  C   UNL     1      44.601  21.257   6.224  1.00  0.00     0.005 C 
ATOM      7  C   UNL     1      44.754  22.762   5.981  1.00  0.00     0.012 C 
ATOM      8  C   UNL     1      44.623  20.493   4.899  1.00  0.00     0.012 C 
ENDBRANCH   5   6
ENDBRANCH   3   4
ENDBRANCH   2   3
ENDBRANCH   1   2
BRANCH   1   9
ATOM      9  C   UNL     1      43.118  22.546  12.142  1.00  0.00     0.100 C 
BRANCH   9  10
ATOM     10  C   UNL     1      43.073  21.082  12.458  1.00  0.00     0.220 C 
ATOM     11  O   UNL     1      43.877  20.299  11.884  1.00  0.00    -0.275 OA
ATOM     12  N   UNL     1      42.082  20.574  13.365  1.00  0.00    -0.352 N 
ATOM     13  H   UNL     1      41.497  21.254  13.899  1.00  0.00     0.163 HD
BRANCH  12  14
ATOM     14  C   UNL     1      41.659  19.175  13.360  1.00  0.00     0.151 C 
BRANCH  14  15
ATOM     15  C   UNL     1      40.659  18.949  12.258  1.00  0.00    -0.025 A 
ATOM     16  C   UNL     1      39.300  19.233  12.471  1.00  0.00     0.056 A 
ATOM     17  C   UNL     1      41.067  18.427  11.021  1.00  0.00     0.009 A 
ATOM     18  C   UNL     1      38.349  18.986  11.462  1.00  0.00     0.160 A 
ATOM     19  C   UNL     1      40.129  18.193  10.013  1.00  0.00     0.050 A 
ATOM     20  C   UNL     1      38.773  18.470  10.230  1.00  0.00     0.157 A 
BRANCH  18  21
ATOM     21  O   UNL     1      36.980  19.234  11.649  1.00  0.00    -0.493 OA
ATOM     22  C   UNL     1      36.030  18.250  12.044  1.00  0.00     0.278 C 
ENDBRANCH  18  21
BRANCH  20  23
ATOM     23  O   UNL     1      37.837  18.228   9.226  1.00  0.00    -0.504 OA
ATOM     24  H   UNL     1      37.701  18.879   8.462  1.00  0.00     0.293 HD
ENDBRANCH  20  23
ENDBRANCH  14  15
ENDBRANCH  12  14
ENDBRANCH   9  10
ENDBRANCH   1   9
TORSDOF 10
ENDMDL
MODEL 8
REMARK VINA RESULT:    -5.404      2.494      7.373
REMARK INTER + INTRA:          -9.629
REMARK INTER:                  -8.927
REMARK INTRA:                  -0.703
REMARK UNBOUND:                -1.224
REMARK SMILES COc1cc(CNC(=O)CCCCC=CC(C)C)ccc1O
REMARK SMILES IDX 11 1 12 2 13 3 14 4 15 5 16 6 17 7 18 8 10 9 8 10 9 11 7 12
REMARK SMILES IDX 6 14 5 15 4 16 19 17 3 18 20 19 21 20 2 21 1 22 22 23
REMARK H PARENT 7 13 22 24
REMARK Flexibility Score: inf
ROOT
ATOM      1  C   UNL     1      42.367  20.160   7.808  1.00  0.00     0.010 C 
ENDROOT
BRANCH   1   2
ATOM      2  C   UNL     1      43.175  20.677   6.603  1.00  0.00     0.005 C 
BRANCH   2   3
ATOM      3  C   UNL     1      44.316  21.639   6.976  1.00  0.00     0.027 C 
BRANCH   3   4
ATOM      4  C   UNL     1      45.434  21.588   5.970  1.00  0.00    -0.031 C 
ATOM      5  C   UNL     1      45.331  22.189   4.774  1.00  0.00    -0.028 C 
BRANCH   5   6
ATOM      6  C   UNL     1      46.389  22.007   3.712  1.00  0.00     0.005 C 
ATOM      7  C   UNL     1      46.092  20.759   2.875  1.00  0.00     0.012 C 
ATOM      8  C   UNL     1      47.767  21.899   4.369  1.00  0.00     0.012 C 
ENDBRANCH   5   6
ENDBRANCH   3   4
ENDBRANCH   2   3
ENDBRANCH   1   2
BRANCH   1   9
ATOM      9  C   UNL     1      40.871  20.477   7.701  1.00  0.00     0.100 C 
BRANCH   9  10
ATOM     10  C   UNL     1      40.280  20.622   9.070  1.00  0.00     0.220 C 
ATOM     11  O   UNL     1      40.490  21.678   9.727  1.00  0.00    -0.275 OA
ATOM     12  N   UNL     1      39.532  19.541   9.648  1.00  0.00    -0.352 N 
ATOM     13  H   UNL     1      39.292  18.722   9.046  1.00  0.00     0.163 HD
BRANCH  12  14
ATOM     14  C   UNL     1      39.346  19.400  11.091  1.00  0.00     0.151 C 
BRANCH  14  15
ATOM     15  C   UNL     1      40.618  18.900  11.722  1.00  0.00    -0.025 A 
ATOM     16  C   UNL     1      41.496  19.802  12.346  1.00  0.00     0.056 A 
ATOM     17  C   UNL     1      40.953  17.538  11.670  1.00  0.00     0.009 A 
ATOM     18  C   UNL     1      42.709  19.353  12.902  1.00  0.00     0.160 A 
ATOM     19  C   UNL     1      42.148  17.087  12.233  1.00  0.00     0.050 A 
ATOM     20  C   UNL     1      43.026  17.988  12.847  1.00  0.00     0.157 A 
BRANCH  18  21
ATOM     21  O   UNL     1      43.622  20.228  13.510  1.00  0.00    -0.493 OA
ATOM     22  C   UNL     1      43.460  21.641  13.579  1.00  0.00     0.278 C 
ENDBRANCH  18  21
BRANCH  20  23
ATOM     23  O   UNL     1      44.223  17.537  13.401  1.00  0.00    -0.504 OA
ATOM     24  H   UNL     1      44.662  16.680  13.085  1.00  0.00     0.293 HD
ENDBRANCH  20  23
ENDBRANCH  14  15
ENDBRANCH  12  14
ENDBRANCH   9  10
ENDBRANCH   1   9
TORSDOF 10
ENDMDL
