MODEL 1
REMARK VINA RESULT:    -5.244      0.000      0.000
REMARK INTER + INTRA:          -6.064
REMARK INTER:                  -5.857
REMARK INTRA:                  -0.206
REMARK UNBOUND:                -0.206
REMARK SMILES CC(C)c1ccc(C(=O)[O-])cc1
REMARK SMILES IDX 7 1 6 2 11 3 5 4 12 5 4 6 8 7 9 8 10 9 2 10 1 11 3 12
REMARK H PARENT
REMARK Flexibility Score: inf
ROOT
ATOM      1  C   UNL     1      89.568  77.249  71.267  1.00  0.00    -0.003 A 
ATOM      2  C   UNL     1      89.490  76.273  72.273  1.00  0.00     0.010 A 
ATOM      3  C   UNL     1      88.475  78.111  71.068  1.00  0.00     0.010 A 
ATOM      4  C   UNL     1      88.344  76.160  73.066  1.00  0.00     0.004 A 
ATOM      5  C   UNL     1      87.328  77.998  71.861  1.00  0.00     0.004 A 
ATOM      6  C   UNL     1      87.250  77.022  72.868  1.00  0.00    -0.045 A 
ENDROOT
BRANCH   1   7
ATOM      7  C   UNL     1      90.782  77.366  70.430  1.00  0.00     0.071 C 
ATOM      8  O   UNL     1      91.507  76.360  70.209  1.00  0.00    -0.545 OA
ATOM      9  O   UNL     1      91.141  78.590  69.875  1.00  0.00    -0.545 OA
ENDBRANCH   1   7
BRANCH   6  10
ATOM     10  C   UNL     1      86.000  76.910  73.721  1.00  0.00     0.013 C 
ATOM     11  C   UNL     1      85.136  75.722  73.283  1.00  0.00     0.012 C 
ATOM     12  C   UNL     1      86.353  76.816  75.209  1.00  0.00     0.012 C 
ENDBRANCH   6  10
TORSDOF 2
ENDMDL
MODEL 2
REMARK VINA RESULT:    -5.081      3.080      5.267
REMARK INTER + INTRA:          -5.881
REMARK INTER:                  -5.664
REMARK INTRA:                  -0.218
REMARK UNBOUND:                -0.206
REMARK SMILES CC(C)c1ccc(C(=O)[O-])cc1
REMARK SMILES IDX 7 1 6 2 11 3 5 4 12 5 4 6 8 7 9 8 10 9 2 10 1 11 3 12
REMARK H PARENT
REMARK Flexibility Score: inf
ROOT
ATOM      1  C   UNL     1      87.027  77.040  72.875  1.00  0.00    -0.003 A 
ATOM      2  C   UNL     1      87.140  78.031  71.886  1.00  0.00     0.010 A 
ATOM      3  C   UNL     1      88.001  76.028  72.940  1.00  0.00     0.010 A 
ATOM      4  C   UNL     1      88.205  78.012  70.981  1.00  0.00     0.004 A 
ATOM      5  C   UNL     1      89.066  76.010  72.034  1.00  0.00     0.004 A 
ATOM      6  C   UNL     1      89.180  77.000  71.045  1.00  0.00    -0.045 A 
ENDROOT
BRANCH   1   7
ATOM      7  C   UNL     1      85.900  77.064  73.832  1.00  0.00     0.071 C 
ATOM      8  O   UNL     1      84.895  77.794  73.622  1.00  0.00    -0.545 OA
ATOM      9  O   UNL     1      85.932  76.278  74.979  1.00  0.00    -0.545 OA
ENDBRANCH   1   7
BRANCH   6  10
ATOM     10  C   UNL     1      90.340  76.967  70.067  1.00  0.00     0.013 C 
ATOM     11  C   UNL     1      91.143  78.272  70.118  1.00  0.00     0.012 C 
ATOM     12  C   UNL     1      91.243  75.755  70.323  1.00  0.00     0.012 C 
ENDBRANCH   6  10
TORSDOF 2
ENDMDL
MODEL 3
REMARK VINA RESULT:    -4.931      2.743      3.937
REMARK INTER + INTRA:          -5.714
REMARK INTER:                  -5.501
REMARK INTRA:                  -0.213
REMARK UNBOUND:                -0.206
REMARK SMILES CC(C)c1ccc(C(=O)[O-])cc1
REMARK SMILES IDX 7 1 6 2 11 3 5 4 12 5 4 6 8 7 9 8 10 9 2 10 1 11 3 12
REMARK H PARENT
REMARK Flexibility Score: inf
ROOT
ATOM      1  C   UNL     1      90.251  75.573  73.975  1.00  0.00    -0.003 A 
ATOM      2  C   UNL     1      89.122  76.194  74.533  1.00  0.00     0.010 A 
ATOM      3  C   UNL     1      90.505  75.729  72.601  1.00  0.00     0.010 A 
ATOM      4  C   UNL     1      88.264  76.957  73.735  1.00  0.00     0.004 A 
ATOM      5  C   UNL     1      89.646  76.492  71.803  1.00  0.00     0.004 A 
ATOM      6  C   UNL     1      88.517  77.114  72.361  1.00  0.00    -0.045 A 
ENDROOT
BRANCH   1   7
ATOM      7  C   UNL     1      91.156  74.767  74.822  1.00  0.00     0.071 C 
ATOM      8  O   UNL     1      90.994  74.719  76.070  1.00  0.00    -0.545 OA
ATOM      9  O   UNL     1      92.202  74.048  74.252  1.00  0.00    -0.545 OA
ENDBRANCH   1   7
BRANCH   6  10
ATOM     10  C   UNL     1      87.594  77.939  71.483  1.00  0.00     0.013 C 
ATOM     11  C   UNL     1      86.221  78.120  72.141  1.00  0.00     0.012 C 
ATOM     12  C   UNL     1      88.223  79.294  71.139  1.00  0.00     0.012 C 
ENDBRANCH   6  10
TORSDOF 2
ENDMDL
MODEL 4
REMARK VINA RESULT:    -4.874     15.169     15.702
REMARK INTER + INTRA:          -5.650
REMARK INTER:                  -5.437
REMARK INTRA:                  -0.213
REMARK UNBOUND:                -0.206
REMARK SMILES CC(C)c1ccc(C(=O)[O-])cc1
REMARK SMILES IDX 7 1 6 2 11 3 5 4 12 5 4 6 8 7 9 8 10 9 2 10 1 11 3 12
REMARK H PARENT
REMARK Flexibility Score: inf
ROOT
ATOM      1  C   UNL     1      99.209  84.311  82.094  1.00  0.00    -0.003 A 
ATOM      2  C   UNL     1      99.118  85.527  81.398  1.00  0.00     0.010 A 
ATOM      3  C   UNL     1      98.083  83.471  82.151  1.00  0.00     0.010 A 
ATOM      4  C   UNL     1      97.924  85.898  80.771  1.00  0.00     0.004 A 
ATOM      5  C   UNL     1      96.889  83.843  81.523  1.00  0.00     0.004 A 
ATOM      6  C   UNL     1      96.797  85.059  80.827  1.00  0.00    -0.045 A 
ENDROOT
BRANCH   1   7
ATOM      7  C   UNL     1     100.473  83.922  82.756  1.00  0.00     0.071 C 
ATOM      8  O   UNL     1     101.492  83.633  82.074  1.00  0.00    -0.545 OA
ATOM      9  O   UNL     1     100.555  83.869  84.144  1.00  0.00    -0.545 OA
ENDBRANCH   1   7
BRANCH   6  10
ATOM     10  C   UNL     1      95.495  85.450  80.151  1.00  0.00     0.013 C 
ATOM     11  C   UNL     1      95.751  86.356  78.942  1.00  0.00     0.012 C 
ATOM     12  C   UNL     1      94.687  84.210  79.751  1.00  0.00     0.012 C 
ENDBRANCH   6  10
TORSDOF 2
ENDMDL
MODEL 5
REMARK VINA RESULT:    -4.762     11.688     12.676
REMARK INTER + INTRA:          -5.526
REMARK INTER:                  -5.305
REMARK INTRA:                  -0.221
REMARK UNBOUND:                -0.206
REMARK SMILES CC(C)c1ccc(C(=O)[O-])cc1
REMARK SMILES IDX 7 1 6 2 11 3 5 4 12 5 4 6 8 7 9 8 10 9 2 10 1 11 3 12
REMARK H PARENT
REMARK Flexibility Score: inf
ROOT
ATOM      1  C   UNL     1      90.959  84.800  79.625  1.00  0.00    -0.003 A 
ATOM      2  C   UNL     1      91.546  85.729  78.751  1.00  0.00     0.010 A 
ATOM      3  C   UNL     1      91.791  84.004  80.432  1.00  0.00     0.010 A 
ATOM      4  C   UNL     1      92.936  85.861  78.684  1.00  0.00     0.004 A 
ATOM      5  C   UNL     1      93.181  84.136  80.365  1.00  0.00     0.004 A 
ATOM      6  C   UNL     1      93.769  85.065  79.491  1.00  0.00    -0.045 A 
ENDROOT
BRANCH   1   7
ATOM      7  C   UNL     1      89.488  84.664  79.693  1.00  0.00     0.071 C 
ATOM      8  O   UNL     1      88.740  85.476  79.087  1.00  0.00    -0.545 OA
ATOM      9  O   UNL     1      88.909  83.635  80.428  1.00  0.00    -0.545 OA
ENDBRANCH   1   7
BRANCH   6  10
ATOM     10  C   UNL     1      95.280  85.197  79.428  1.00  0.00     0.013 C 
ATOM     11  C   UNL     1      95.692  86.536  78.807  1.00  0.00     0.012 C 
ATOM     12  C   UNL     1      95.909  85.016  80.814  1.00  0.00     0.012 C 
ENDBRANCH   6  10
TORSDOF 2
ENDMDL
MODEL 6
REMARK VINA RESULT:    -4.755     12.247     12.774
REMARK INTER + INTRA:          -5.518
REMARK INTER:                  -5.316
REMARK INTRA:                  -0.202
REMARK UNBOUND:                -0.206
REMARK SMILES CC(C)c1ccc(C(=O)[O-])cc1
REMARK SMILES IDX 7 1 6 2 11 3 5 4 12 5 4 6 8 7 9 8 10 9 2 10 1 11 3 12
REMARK H PARENT
REMARK Flexibility Score: inf
ROOT
ATOM      1  C   UNL     1      95.075  85.071  80.449  1.00  0.00    -0.003 A 
ATOM      2  C   UNL     1      94.621  84.109  79.532  1.00  0.00     0.010 A 
ATOM      3  C   UNL     1      94.134  85.885  81.105  1.00  0.00     0.010 A 
ATOM      4  C   UNL     1      93.254  83.963  79.275  1.00  0.00     0.004 A 
ATOM      5  C   UNL     1      92.768  85.738  80.847  1.00  0.00     0.004 A 
ATOM      6  C   UNL     1      92.313  84.777  79.930  1.00  0.00    -0.045 A 
ENDROOT
BRANCH   1   7
ATOM      7  C   UNL     1      96.521  85.223  80.719  1.00  0.00     0.071 C 
ATOM      8  O   UNL     1      97.227  85.995  80.017  1.00  0.00    -0.545 OA
ATOM      9  O   UNL     1      97.124  84.513  81.752  1.00  0.00    -0.545 OA
ENDBRANCH   1   7
BRANCH   6  10
ATOM     10  C   UNL     1      90.826  84.629  79.660  1.00  0.00     0.013 C 
ATOM     11  C   UNL     1      90.092  84.089  80.892  1.00  0.00     0.012 C 
ATOM     12  C   UNL     1      90.216  85.955  79.191  1.00  0.00     0.012 C 
ENDBRANCH   6  10
TORSDOF 2
ENDMDL
MODEL 7
REMARK VINA RESULT:    -4.751     10.808     11.563
REMARK INTER + INTRA:          -5.513
REMARK INTER:                  -5.304
REMARK INTRA:                  -0.208
REMARK UNBOUND:                -0.206
REMARK SMILES CC(C)c1ccc(C(=O)[O-])cc1
REMARK SMILES IDX 7 1 6 2 11 3 5 4 12 5 4 6 8 7 9 8 10 9 2 10 1 11 3 12
REMARK H PARENT
REMARK Flexibility Score: inf
ROOT
ATOM      1  C   UNL     1      93.009  85.095  79.564  1.00  0.00    -0.003 A 
ATOM      2  C   UNL     1      92.005  85.522  78.680  1.00  0.00     0.010 A 
ATOM      3  C   UNL     1      92.649  84.326  80.684  1.00  0.00     0.010 A 
ATOM      4  C   UNL     1      90.667  85.185  78.910  1.00  0.00     0.004 A 
ATOM      5  C   UNL     1      91.311  83.989  80.913  1.00  0.00     0.004 A 
ATOM      6  C   UNL     1      90.306  84.415  80.030  1.00  0.00    -0.045 A 
ENDROOT
BRANCH   1   7
ATOM      7  C   UNL     1      94.422  85.453  79.318  1.00  0.00     0.071 C 
ATOM      8  O   UNL     1      95.354  84.764  79.812  1.00  0.00    -0.545 OA
ATOM      9  O   UNL     1      94.744  86.558  78.536  1.00  0.00    -0.545 OA
ENDBRANCH   1   7
BRANCH   6  10
ATOM     10  C   UNL     1      88.858  84.043  80.291  1.00  0.00     0.013 C 
ATOM     11  C   UNL     1      88.111  85.186  80.988  1.00  0.00     0.012 C 
ATOM     12  C   UNL     1      88.151  83.631  78.995  1.00  0.00     0.012 C 
ENDBRANCH   6  10
TORSDOF 2
ENDMDL
MODEL 8
REMARK VINA RESULT:    -4.724      2.548      3.651
REMARK INTER + INTRA:          -5.483
REMARK INTER:                  -5.264
REMARK INTRA:                  -0.218
REMARK UNBOUND:                -0.206
REMARK SMILES CC(C)c1ccc(C(=O)[O-])cc1
REMARK SMILES IDX 7 1 6 2 11 3 5 4 12 5 4 6 8 7 9 8 10 9 2 10 1 11 3 12
REMARK H PARENT
REMARK Flexibility Score: inf
ROOT
ATOM      1  C   UNL     1      89.551  75.520  74.303  1.00  0.00    -0.003 A 
ATOM      2  C   UNL     1      89.434  76.135  73.046  1.00  0.00     0.010 A 
ATOM      3  C   UNL     1      88.413  75.423  75.123  1.00  0.00     0.010 A 
ATOM      4  C   UNL     1      88.205  76.643  72.616  1.00  0.00     0.004 A 
ATOM      5  C   UNL     1      87.184  75.932  74.693  1.00  0.00     0.004 A 
ATOM      6  C   UNL     1      87.066  76.547  73.436  1.00  0.00    -0.045 A 
ENDROOT
BRANCH   1   7
ATOM      7  C   UNL     1      90.853  74.984  74.754  1.00  0.00     0.071 C 
ATOM      8  O   UNL     1      91.153  74.971  75.978  1.00  0.00    -0.545 OA
ATOM      9  O   UNL     1      91.768  74.485  73.833  1.00  0.00    -0.545 OA
ENDBRANCH   1   7
BRANCH   6  10
ATOM     10  C   UNL     1      85.725  77.095  72.982  1.00  0.00     0.013 C 
ATOM     11  C   UNL     1      84.875  77.538  74.177  1.00  0.00     0.012 C 
ATOM     12  C   UNL     1      85.907  78.240  71.979  1.00  0.00     0.012 C 
ENDBRANCH   6  10
TORSDOF 2
ENDMDL
MODEL 9
REMARK VINA RESULT:    -4.666     12.703     13.566
REMARK INTER + INTRA:          -5.418
REMARK INTER:                  -5.215
REMARK INTRA:                  -0.203
REMARK UNBOUND:                -0.206
REMARK SMILES CC(C)c1ccc(C(=O)[O-])cc1
REMARK SMILES IDX 7 1 6 2 11 3 5 4 12 5 4 6 8 7 9 8 10 9 2 10 1 11 3 12
REMARK H PARENT
REMARK Flexibility Score: inf
ROOT
ATOM      1  C   UNL     1      92.446  84.605  80.352  1.00  0.00    -0.003 A 
ATOM      2  C   UNL     1      93.304  83.977  79.435  1.00  0.00     0.010 A 
ATOM      3  C   UNL     1      92.967  85.589  81.210  1.00  0.00     0.010 A 
ATOM      4  C   UNL     1      94.657  84.326  79.377  1.00  0.00     0.004 A 
ATOM      5  C   UNL     1      94.320  85.937  81.151  1.00  0.00     0.004 A 
ATOM      6  C   UNL     1      95.179  85.310  80.235  1.00  0.00    -0.045 A 
ENDROOT
BRANCH   1   7
ATOM      7  C   UNL     1      91.015  84.234  80.411  1.00  0.00     0.071 C 
ATOM      8  O   UNL     1      90.565  83.566  81.379  1.00  0.00    -0.545 OA
ATOM      9  O   UNL     1      90.145  84.618  79.396  1.00  0.00    -0.545 OA
ENDBRANCH   1   7
BRANCH   6  10
ATOM     10  C   UNL     1      96.646  85.697  80.182  1.00  0.00     0.013 C 
ATOM     11  C   UNL     1      96.816  87.221  80.179  1.00  0.00     0.012 C 
ATOM     12  C   UNL     1      97.428  85.058  81.335  1.00  0.00     0.012 C 
ENDBRANCH   6  10
TORSDOF 2
ENDMDL
