MODEL 1
REMARK VINA RESULT:    -5.136      0.000      0.000
REMARK INTER + INTRA:          -5.592
REMARK INTER:                  -5.437
REMARK INTRA:                  -0.155
REMARK UNBOUND:                -0.155
REMARK SMILES CC1=C[C@H]2C(=C(C)CC[C@@H]2C(C)C)CC1
REMARK SMILES IDX 1 1 2 2 3 3 4 4 10 5 9 6 8 7 6 8 5 9 14 10 15 11 7 12 11 13
REMARK SMILES IDX 12 14 13 15
REMARK H PARENT
REMARK Flexibility Score: inf
ROOT
ATOM      1  C   UNL     1     138.238 133.795 138.489  1.00  0.00     0.039 C 
ATOM      2  C   UNL     1     138.345 133.290 137.078  1.00  0.00    -0.076 C 
ATOM      3  C   UNL     1     138.757 134.110 136.096  1.00  0.00    -0.020 C 
ATOM      4  C   UNL     1     138.820 133.606 134.666  1.00  0.00     0.041 C 
ATOM      5  C   UNL     1     139.082 134.759 133.659  1.00  0.00     0.003 C 
ATOM      6  C   UNL     1     138.791 134.262 132.231  1.00  0.00     0.009 C 
ATOM      7  C   UNL     1     137.325 133.861 132.107  1.00  0.00     0.031 C 
ATOM      8  C   UNL     1     136.893 132.887 133.181  1.00  0.00    -0.073 C 
ATOM      9  C   UNL     1     137.541 132.809 134.379  1.00  0.00    -0.064 C 
ATOM     10  C   UNL     1     137.034 131.874 135.478  1.00  0.00     0.036 C 
ATOM     11  C   UNL     1     137.940 131.878 136.722  1.00  0.00     0.035 C 
ATOM     12  C   UNL     1     135.636 132.089 132.919  1.00  0.00     0.039 C 
ENDROOT
BRANCH   5  13
ATOM     13  C   UNL     1     140.519 135.372 133.801  1.00  0.00    -0.013 C 
ATOM     14  C   UNL     1     140.489 136.694 134.584  1.00  0.00     0.007 C 
ATOM     15  C   UNL     1     141.251 135.574 132.462  1.00  0.00     0.007 C 
ENDBRANCH   5  13
TORSDOF 1
ENDMDL
MODEL 2
REMARK VINA RESULT:    -5.129      2.075      4.327
REMARK INTER + INTRA:          -5.584
REMARK INTER:                  -5.319
REMARK INTRA:                  -0.265
REMARK UNBOUND:                -0.155
REMARK SMILES CC1=C[C@H]2C(=C(C)CC[C@@H]2C(C)C)CC1
REMARK SMILES IDX 1 1 2 2 3 3 4 4 10 5 9 6 8 7 6 8 5 9 14 10 15 11 7 12 11 13
REMARK SMILES IDX 12 14 13 15
REMARK H PARENT
REMARK Flexibility Score: inf
ROOT
ATOM      1  C   UNL     1     138.152 131.942 136.366  1.00  0.00     0.039 C 
ATOM      2  C   UNL     1     138.149 133.444 136.413  1.00  0.00    -0.076 C 
ATOM      3  C   UNL     1     138.961 134.148 135.606  1.00  0.00    -0.020 C 
ATOM      4  C   UNL     1     138.985 135.663 135.690  1.00  0.00     0.041 C 
ATOM      5  C   UNL     1     140.150 136.269 134.860  1.00  0.00     0.003 C 
ATOM      6  C   UNL     1     140.341 137.745 135.255  1.00  0.00     0.009 C 
ATOM      7  C   UNL     1     140.718 137.847 136.729  1.00  0.00     0.031 C 
ATOM      8  C   UNL     1     139.757 137.103 137.630  1.00  0.00    -0.073 C 
ATOM      9  C   UNL     1     139.004 136.062 137.171  1.00  0.00    -0.064 C 
ATOM     10  C   UNL     1     138.101 135.277 138.123  1.00  0.00     0.036 C 
ATOM     11  C   UNL     1     137.282 134.192 137.400  1.00  0.00     0.035 C 
ATOM     12  C   UNL     1     139.757 137.482 139.094  1.00  0.00     0.039 C 
ENDROOT
BRANCH   5  13
ATOM     13  C   UNL     1     139.956 136.080 133.316  1.00  0.00    -0.013 C 
ATOM     14  C   UNL     1     141.244 135.579 132.646  1.00  0.00     0.007 C 
ATOM     15  C   UNL     1     139.442 137.335 132.588  1.00  0.00     0.007 C 
ENDBRANCH   5  13
TORSDOF 1
ENDMDL
MODEL 3
REMARK VINA RESULT:    -5.124      4.943      6.462
REMARK INTER + INTRA:          -5.578
REMARK INTER:                  -5.299
REMARK INTRA:                  -0.279
REMARK UNBOUND:                -0.155
REMARK SMILES CC1=C[C@H]2C(=C(C)CC[C@@H]2C(C)C)CC1
REMARK SMILES IDX 1 1 2 2 3 3 4 4 10 5 9 6 8 7 6 8 5 9 14 10 15 11 7 12 11 13
REMARK SMILES IDX 12 14 13 15
REMARK H PARENT
REMARK Flexibility Score: inf
ROOT
ATOM      1  C   UNL     1     140.885 137.883 136.383  1.00  0.00     0.039 C 
ATOM      2  C   UNL     1     139.397 137.963 136.189  1.00  0.00    -0.076 C 
ATOM      3  C   UNL     1     138.871 138.882 135.359  1.00  0.00    -0.020 C 
ATOM      4  C   UNL     1     137.366 138.987 135.202  1.00  0.00     0.041 C 
ATOM      5  C   UNL     1     136.956 140.252 134.399  1.00  0.00     0.003 C 
ATOM      6  C   UNL     1     135.446 140.494 134.568  1.00  0.00     0.009 C 
ATOM      7  C   UNL     1     135.118 140.748 136.036  1.00  0.00     0.031 C 
ATOM      8  C   UNL     1     135.660 139.671 136.950  1.00  0.00    -0.073 C 
ATOM      9  C   UNL     1     136.729 138.901 136.594  1.00  0.00    -0.064 C 
ATOM     10  C   UNL     1     137.307 137.876 137.570  1.00  0.00     0.036 C 
ATOM     11  C   UNL     1     138.459 137.060 136.957  1.00  0.00     0.035 C 
ATOM     12  C   UNL     1     135.046 139.567 138.327  1.00  0.00     0.039 C 
ENDROOT
BRANCH   5  13
ATOM     13  C   UNL     1     137.389 140.181 132.893  1.00  0.00    -0.013 C 
ATOM     14  C   UNL     1     136.812 141.355 132.088  1.00  0.00     0.007 C 
ATOM     15  C   UNL     1     137.042 138.850 132.201  1.00  0.00     0.007 C 
ENDBRANCH   5  13
TORSDOF 1
ENDMDL
MODEL 4
REMARK VINA RESULT:    -5.118      2.880      5.114
REMARK INTER + INTRA:          -5.572
REMARK INTER:                  -5.281
REMARK INTRA:                  -0.291
REMARK UNBOUND:                -0.155
REMARK SMILES CC1=C[C@H]2C(=C(C)CC[C@@H]2C(C)C)CC1
REMARK SMILES IDX 1 1 2 2 3 3 4 4 10 5 9 6 8 7 6 8 5 9 14 10 15 11 7 12 11 13
REMARK SMILES IDX 12 14 13 15
REMARK H PARENT
REMARK Flexibility Score: inf
ROOT
ATOM      1  C   UNL     1     131.672 134.549 136.403  1.00  0.00     0.039 C 
ATOM      2  C   UNL     1     133.169 134.534 136.281  1.00  0.00    -0.076 C 
ATOM      3  C   UNL     1     133.770 133.680 135.433  1.00  0.00    -0.020 C 
ATOM      4  C   UNL     1     135.284 133.639 135.348  1.00  0.00     0.041 C 
ATOM      5  C   UNL     1     135.782 132.434 134.504  1.00  0.00     0.003 C 
ATOM      6  C   UNL     1     137.291 132.238 134.737  1.00  0.00     0.009 C 
ATOM      7  C   UNL     1     137.556 131.919 136.205  1.00  0.00     0.031 C 
ATOM      8  C   UNL     1     136.928 132.925 137.144  1.00  0.00    -0.073 C 
ATOM      9  C   UNL     1     135.848 133.673 136.774  1.00  0.00    -0.064 C 
ATOM     10  C   UNL     1     135.184 134.624 137.770  1.00  0.00     0.036 C 
ATOM     11  C   UNL     1     134.032 135.429 137.141  1.00  0.00     0.035 C 
ATOM     12  C   UNL     1     137.470 132.979 138.554  1.00  0.00     0.039 C 
ENDROOT
BRANCH   5  13
ATOM     13  C   UNL     1     135.421 132.568 132.983  1.00  0.00    -0.013 C 
ATOM     14  C   UNL     1     135.854 131.325 132.192  1.00  0.00     0.007 C 
ATOM     15  C   UNL     1     135.981 133.836 132.314  1.00  0.00     0.007 C 
ENDBRANCH   5  13
TORSDOF 1
ENDMDL
MODEL 5
REMARK VINA RESULT:    -5.114      5.851      7.298
REMARK INTER + INTRA:          -5.568
REMARK INTER:                  -5.303
REMARK INTRA:                  -0.265
REMARK UNBOUND:                -0.155
REMARK SMILES CC1=C[C@H]2C(=C(C)CC[C@@H]2C(C)C)CC1
REMARK SMILES IDX 1 1 2 2 3 3 4 4 10 5 9 6 8 7 6 8 5 9 14 10 15 11 7 12 11 13
REMARK SMILES IDX 12 14 13 15
REMARK H PARENT
REMARK Flexibility Score: inf
ROOT
ATOM      1  C   UNL     1     134.539 140.803 136.352  1.00  0.00     0.039 C 
ATOM      2  C   UNL     1     134.549 139.302 136.419  1.00  0.00    -0.076 C 
ATOM      3  C   UNL     1     133.734 138.583 135.626  1.00  0.00    -0.020 C 
ATOM      4  C   UNL     1     133.717 137.070 135.731  1.00  0.00     0.041 C 
ATOM      5  C   UNL     1     132.551 136.448 134.916  1.00  0.00     0.003 C 
ATOM      6  C   UNL     1     132.368 134.977 135.331  1.00  0.00     0.009 C 
ATOM      7  C   UNL     1     131.998 134.894 136.809  1.00  0.00     0.031 C 
ATOM      8  C   UNL     1     132.962 135.653 137.695  1.00  0.00    -0.073 C 
ATOM      9  C   UNL     1     133.708 136.691 137.217  1.00  0.00    -0.064 C 
ATOM     10  C   UNL     1     134.612 137.493 138.153  1.00  0.00     0.036 C 
ATOM     11  C   UNL     1     135.423 138.570 137.412  1.00  0.00     0.035 C 
ATOM     12  C   UNL     1     132.971 135.294 139.163  1.00  0.00     0.039 C 
ENDROOT
BRANCH   5  13
ATOM     13  C   UNL     1     132.735 136.617 133.367  1.00  0.00    -0.013 C 
ATOM     14  C   UNL     1     131.444 137.115 132.700  1.00  0.00     0.007 C 
ATOM     15  C   UNL     1     133.240 135.351 132.652  1.00  0.00     0.007 C 
ENDBRANCH   5  13
TORSDOF 1
ENDMDL
MODEL 6
REMARK VINA RESULT:    -5.111      6.291      7.766
REMARK INTER + INTRA:          -5.564
REMARK INTER:                  -5.406
REMARK INTRA:                  -0.158
REMARK UNBOUND:                -0.155
REMARK SMILES CC1=C[C@H]2C(=C(C)CC[C@@H]2C(C)C)CC1
REMARK SMILES IDX 1 1 2 2 3 3 4 4 10 5 9 6 8 7 6 8 5 9 14 10 15 11 7 12 11 13
REMARK SMILES IDX 12 14 13 15
REMARK H PARENT
REMARK Flexibility Score: inf
ROOT
ATOM      1  C   UNL     1     134.135 138.856 138.440  1.00  0.00     0.039 C 
ATOM      2  C   UNL     1     134.098 139.370 137.029  1.00  0.00    -0.076 C 
ATOM      3  C   UNL     1     133.746 138.553 136.020  1.00  0.00    -0.020 C 
ATOM      4  C   UNL     1     133.754 139.066 134.593  1.00  0.00     0.041 C 
ATOM      5  C   UNL     1     133.556 137.918 133.565  1.00  0.00     0.003 C 
ATOM      6  C   UNL     1     133.918 138.427 132.159  1.00  0.00     0.009 C 
ATOM      7  C   UNL     1     135.385 138.843 132.115  1.00  0.00     0.031 C 
ATOM      8  C   UNL     1     135.750 139.813 133.217  1.00  0.00    -0.073 C 
ATOM      9  C   UNL     1     135.039 139.876 134.379  1.00  0.00    -0.064 C 
ATOM     10  C   UNL     1     135.478 140.808 135.509  1.00  0.00     0.036 C 
ATOM     11  C   UNL     1     134.507 140.788 136.703  1.00  0.00     0.035 C 
ATOM     12  C   UNL     1     137.011 140.624 133.027  1.00  0.00     0.039 C 
ENDROOT
BRANCH   5  13
ATOM     13  C   UNL     1     132.121 137.290 133.627  1.00  0.00    -0.013 C 
ATOM     14  C   UNL     1     132.123 135.960 134.395  1.00  0.00     0.007 C 
ATOM     15  C   UNL     1     131.458 137.099 132.251  1.00  0.00     0.007 C 
ENDBRANCH   5  13
TORSDOF 1
ENDMDL
MODEL 7
REMARK VINA RESULT:    -5.107      2.688      5.432
REMARK INTER + INTRA:          -5.560
REMARK INTER:                  -5.294
REMARK INTRA:                  -0.266
REMARK UNBOUND:                -0.155
REMARK SMILES CC1=C[C@H]2C(=C(C)CC[C@@H]2C(C)C)CC1
REMARK SMILES IDX 1 1 2 2 3 3 4 4 10 5 9 6 8 7 6 8 5 9 14 10 15 11 7 12 11 13
REMARK SMILES IDX 12 14 13 15
REMARK H PARENT
REMARK Flexibility Score: inf
ROOT
ATOM      1  C   UNL     1     138.959 132.527 135.273  1.00  0.00     0.039 C 
ATOM      2  C   UNL     1     138.478 133.367 136.422  1.00  0.00    -0.076 C 
ATOM      3  C   UNL     1     139.054 134.555 136.679  1.00  0.00    -0.020 C 
ATOM      4  C   UNL     1     138.593 135.378 137.868  1.00  0.00     0.041 C 
ATOM      5  C   UNL     1     139.535 136.584 138.134  1.00  0.00     0.003 C 
ATOM      6  C   UNL     1     139.234 137.165 139.527  1.00  0.00     0.009 C 
ATOM      7  C   UNL     1     139.506 136.117 140.601  1.00  0.00     0.031 C 
ATOM      8  C   UNL     1     138.798 134.808 140.331  1.00  0.00    -0.073 C 
ATOM      9  C   UNL     1     138.431 134.439 139.070  1.00  0.00    -0.064 C 
ATOM     10  C   UNL     1     137.791 133.074 138.815  1.00  0.00     0.036 C 
ATOM     11  C   UNL     1     137.384 132.878 137.343  1.00  0.00     0.035 C 
ATOM     12  C   UNL     1     138.626 133.867 141.502  1.00  0.00     0.039 C 
ENDROOT
BRANCH   5  13
ATOM     13  C   UNL     1     139.466 137.668 137.003  1.00  0.00    -0.013 C 
ATOM     14  C   UNL     1     140.839 137.878 136.344  1.00  0.00     0.007 C 
ATOM     15  C   UNL     1     138.893 139.020 137.461  1.00  0.00     0.007 C 
ENDBRANCH   5  13
TORSDOF 1
ENDMDL
MODEL 8
REMARK VINA RESULT:    -5.070      3.987      5.487
REMARK INTER + INTRA:          -5.521
REMARK INTER:                  -5.353
REMARK INTRA:                  -0.168
REMARK UNBOUND:                -0.155
REMARK SMILES CC1=C[C@H]2C(=C(C)CC[C@@H]2C(C)C)CC1
REMARK SMILES IDX 1 1 2 2 3 3 4 4 10 5 9 6 8 7 6 8 5 9 14 10 15 11 7 12 11 13
REMARK SMILES IDX 12 14 13 15
REMARK H PARENT
REMARK Flexibility Score: inf
ROOT
ATOM      1  C   UNL     1     133.991 134.157 138.413  1.00  0.00     0.039 C 
ATOM      2  C   UNL     1     133.392 134.115 137.035  1.00  0.00    -0.076 C 
ATOM      3  C   UNL     1     134.152 133.782 135.977  1.00  0.00    -0.020 C 
ATOM      4  C   UNL     1     133.552 133.785 134.583  1.00  0.00     0.041 C 
ATOM      5  C   UNL     1     134.639 133.614 133.487  1.00  0.00     0.003 C 
ATOM      6  C   UNL     1     134.037 133.970 132.116  1.00  0.00     0.009 C 
ATOM      7  C   UNL     1     133.590 135.428 132.104  1.00  0.00     0.031 C 
ATOM      8  C   UNL     1     132.683 135.770 133.265  1.00  0.00    -0.073 C 
ATOM      9  C   UNL     1     132.705 135.054 134.426  1.00  0.00    -0.064 C 
ATOM     10  C   UNL     1     131.836 135.471 135.613  1.00  0.00     0.036 C 
ATOM     11  C   UNL     1     131.949 134.496 136.799  1.00  0.00     0.035 C 
ATOM     12  C   UNL     1     131.837 137.016 133.131  1.00  0.00     0.039 C 
ENDROOT
BRANCH   5  13
ATOM     13  C   UNL     1     135.298 132.191 133.503  1.00  0.00    -0.013 C 
ATOM     14  C   UNL     1     136.682 132.222 134.168  1.00  0.00     0.007 C 
ATOM     15  C   UNL     1     135.396 131.528 132.117  1.00  0.00     0.007 C 
ENDBRANCH   5  13
TORSDOF 1
ENDMDL
MODEL 9
REMARK VINA RESULT:    -5.064      5.473      7.387
REMARK INTER + INTRA:          -5.514
REMARK INTER:                  -5.223
REMARK INTRA:                  -0.291
REMARK UNBOUND:                -0.155
REMARK SMILES CC1=C[C@H]2C(=C(C)CC[C@@H]2C(C)C)CC1
REMARK SMILES IDX 1 1 2 2 3 3 4 4 10 5 9 6 8 7 6 8 5 9 14 10 15 11 7 12 11 13
REMARK SMILES IDX 12 14 13 15
REMARK H PARENT
REMARK Flexibility Score: inf
ROOT
ATOM      1  C   UNL     1     140.155 137.528 136.972  1.00  0.00     0.039 C 
ATOM      2  C   UNL     1     139.078 138.547 136.731  1.00  0.00    -0.076 C 
ATOM      3  C   UNL     1     137.825 138.322 137.164  1.00  0.00    -0.020 C 
ATOM      4  C   UNL     1     136.732 139.335 136.877  1.00  0.00     0.041 C 
ATOM      5  C   UNL     1     135.326 138.785 137.241  1.00  0.00     0.003 C 
ATOM      6  C   UNL     1     134.249 139.691 136.617  1.00  0.00     0.009 C 
ATOM      7  C   UNL     1     134.373 139.680 135.097  1.00  0.00     0.031 C 
ATOM      8  C   UNL     1     135.775 139.999 134.624  1.00  0.00    -0.073 C 
ATOM      9  C   UNL     1     136.864 139.785 135.417  1.00  0.00    -0.064 C 
ATOM     10  C   UNL     1     138.275 140.040 134.884  1.00  0.00     0.036 C 
ATOM     11  C   UNL     1     139.360 139.811 135.952  1.00  0.00     0.035 C 
ATOM     12  C   UNL     1     135.929 140.447 133.188  1.00  0.00     0.039 C 
ENDROOT
BRANCH   5  13
ATOM     13  C   UNL     1     135.130 138.595 138.785  1.00  0.00    -0.013 C 
ATOM     14  C   UNL     1     133.757 137.984 139.106  1.00  0.00     0.007 C 
ATOM     15  C   UNL     1     135.337 139.879 139.608  1.00  0.00     0.007 C 
ENDBRANCH   5  13
TORSDOF 1
ENDMDL
