MODEL 1
REMARK VINA RESULT:    -3.893      0.000      0.000
REMARK INTER + INTRA:          -4.293
REMARK INTER:                  -4.121
REMARK INTRA:                  -0.172
REMARK UNBOUND:                -0.172
REMARK SMILES CC(C)[C@H]1CC[C@@H](C)CC1=O
REMARK SMILES IDX 8 1 7 2 6 3 5 4 4 5 10 6 11 7 9 8 2 9 1 10 3 11
REMARK H PARENT
REMARK Flexibility Score: inf
ROOT
ATOM      1  C   UNL     1     119.764 120.384 118.029  1.00  0.00     0.008 C 
ATOM      2  C   UNL     1     119.325 119.377 119.104  1.00  0.00    -0.007 C 
ATOM      3  C   UNL     1     119.605 117.917 118.685  1.00  0.00     0.004 C 
ATOM      4  C   UNL     1     118.694 117.450 117.538  1.00  0.00     0.012 C 
ATOM      5  C   UNL     1     117.197 117.605 117.895  1.00  0.00     0.058 C 
ATOM      6  C   UNL     1     116.935 119.006 118.422  1.00  0.00     0.136 C 
ATOM      7  O   UNL     1     115.946 119.640 118.082  1.00  0.00    -0.299 OA
ATOM      8  C   UNL     1     117.844 119.567 119.482  1.00  0.00     0.079 C 
ENDROOT
BRANCH   5   9
ATOM      9  C   UNL     1     116.237 117.197 116.732  1.00  0.00    -0.007 C 
ATOM     10  C   UNL     1     116.961 116.933 115.398  1.00  0.00     0.008 C 
ATOM     11  C   UNL     1     115.367 115.988 117.108  1.00  0.00     0.008 C 
ENDBRANCH   5   9
TORSDOF 1
ENDMDL
MODEL 2
REMARK VINA RESULT:    -3.893      2.774      4.181
REMARK INTER + INTRA:          -4.293
REMARK INTER:                  -4.113
REMARK INTRA:                  -0.180
REMARK UNBOUND:                -0.172
REMARK SMILES CC(C)[C@H]1CC[C@@H](C)CC1=O
REMARK SMILES IDX 8 1 7 2 6 3 5 4 4 5 10 6 11 7 9 8 2 9 1 10 3 11
REMARK H PARENT
REMARK Flexibility Score: inf
ROOT
ATOM      1  C   UNL     1     114.235 116.640 120.638  1.00  0.00     0.008 C 
ATOM      2  C   UNL     1     113.487 117.035 119.355  1.00  0.00    -0.007 C 
ATOM      3  C   UNL     1     113.406 115.869 118.345  1.00  0.00     0.004 C 
ATOM      4  C   UNL     1     114.774 115.531 117.727  1.00  0.00     0.012 C 
ATOM      5  C   UNL     1     115.413 116.763 117.043  1.00  0.00     0.058 C 
ATOM      6  C   UNL     1     115.388 117.951 117.990  1.00  0.00     0.136 C 
ATOM      7  O   UNL     1     116.350 118.696 118.103  1.00  0.00    -0.299 OA
ATOM      8  C   UNL     1     114.106 118.285 118.704  1.00  0.00     0.079 C 
ENDROOT
BRANCH   5   9
ATOM      9  C   UNL     1     116.832 116.477 116.455  1.00  0.00    -0.007 C 
ATOM     10  C   UNL     1     117.523 115.249 117.076  1.00  0.00     0.008 C 
ATOM     11  C   UNL     1     116.798 116.344 114.925  1.00  0.00     0.008 C 
ENDBRANCH   5   9
TORSDOF 1
ENDMDL
MODEL 3
REMARK VINA RESULT:    -3.875      2.899      5.537
REMARK INTER + INTRA:          -4.274
REMARK INTER:                  -4.103
REMARK INTRA:                  -0.171
REMARK UNBOUND:                -0.172
REMARK SMILES CC(C)[C@H]1CC[C@@H](C)CC1=O
REMARK SMILES IDX 8 1 7 2 6 3 5 4 4 5 10 6 11 7 9 8 2 9 1 10 3 11
REMARK H PARENT
REMARK Flexibility Score: inf
ROOT
ATOM      1  C   UNL     1     113.407 112.884 118.116  1.00  0.00     0.008 C 
ATOM      2  C   UNL     1     113.843 113.917 119.167  1.00  0.00    -0.007 C 
ATOM      3  C   UNL     1     113.578 115.367 118.704  1.00  0.00     0.004 C 
ATOM      4  C   UNL     1     114.504 115.795 117.553  1.00  0.00     0.012 C 
ATOM      5  C   UNL     1     115.997 115.638 117.931  1.00  0.00     0.058 C 
ATOM      6  C   UNL     1     116.243 114.252 118.500  1.00  0.00     0.136 C 
ATOM      7  O   UNL     1     117.230 113.601 118.189  1.00  0.00    -0.299 OA
ATOM      8  C   UNL     1     115.318 113.728 119.566  1.00  0.00     0.079 C 
ENDROOT
BRANCH   5   9
ATOM      9  C   UNL     1     116.972 116.006 116.767  1.00  0.00    -0.007 C 
ATOM     10  C   UNL     1     116.260 116.285 115.430  1.00  0.00     0.008 C 
ATOM     11  C   UNL     1     117.880 117.188 117.137  1.00  0.00     0.008 C 
ENDBRANCH   5   9
TORSDOF 1
ENDMDL
MODEL 4
REMARK VINA RESULT:    -3.867      2.871      3.914
REMARK INTER + INTRA:          -4.266
REMARK INTER:                  -4.095
REMARK INTRA:                  -0.171
REMARK UNBOUND:                -0.172
REMARK SMILES CC(C)[C@H]1CC[C@@H](C)CC1=O
REMARK SMILES IDX 8 1 7 2 6 3 5 4 4 5 10 6 11 7 9 8 2 9 1 10 3 11
REMARK H PARENT
REMARK Flexibility Score: inf
ROOT
ATOM      1  C   UNL     1     112.848 119.827 118.077  1.00  0.00     0.008 C 
ATOM      2  C   UNL     1     113.864 119.383 119.142  1.00  0.00    -0.007 C 
ATOM      3  C   UNL     1     115.322 119.630 118.694  1.00  0.00     0.004 C 
ATOM      4  C   UNL     1     115.752 118.694 117.551  1.00  0.00     0.012 C 
ATOM      5  C   UNL     1     115.574 117.205 117.932  1.00  0.00     0.058 C 
ATOM      6  C   UNL     1     114.178 116.977 118.487  1.00  0.00     0.136 C 
ATOM      7  O   UNL     1     113.520 115.997 118.171  1.00  0.00    -0.299 OA
ATOM      8  C   UNL     1     113.653 117.911 119.543  1.00  0.00     0.079 C 
ENDROOT
BRANCH   5   9
ATOM      9  C   UNL     1     115.943 116.222 116.776  1.00  0.00    -0.007 C 
ATOM     10  C   UNL     1     116.240 116.925 115.438  1.00  0.00     0.008 C 
ATOM     11  C   UNL     1     117.114 115.305 117.159  1.00  0.00     0.008 C 
ENDBRANCH   5   9
TORSDOF 1
ENDMDL
MODEL 5
REMARK VINA RESULT:    -3.865      2.310      3.220
REMARK INTER + INTRA:          -4.263
REMARK INTER:                  -4.086
REMARK INTRA:                  -0.177
REMARK UNBOUND:                -0.172
REMARK SMILES CC(C)[C@H]1CC[C@@H](C)CC1=O
REMARK SMILES IDX 8 1 7 2 6 3 5 4 4 5 10 6 11 7 9 8 2 9 1 10 3 11
REMARK H PARENT
REMARK Flexibility Score: inf
ROOT
ATOM      1  C   UNL     1     118.944 116.595 120.612  1.00  0.00     0.008 C 
ATOM      2  C   UNL     1     119.707 116.212 119.334  1.00  0.00    -0.007 C 
ATOM      3  C   UNL     1     119.745 117.368 118.310  1.00  0.00     0.004 C 
ATOM      4  C   UNL     1     118.367 117.648 117.688  1.00  0.00     0.012 C 
ATOM      5  C   UNL     1     117.773 116.385 117.019  1.00  0.00     0.058 C 
ATOM      6  C   UNL     1     117.840 115.211 117.981  1.00  0.00     0.136 C 
ATOM      7  O   UNL     1     116.906 114.432 118.102  1.00  0.00    -0.299 OA
ATOM      8  C   UNL     1     119.133 114.932 118.698  1.00  0.00     0.079 C 
ENDROOT
BRANCH   5   9
ATOM      9  C   UNL     1     116.345 116.612 116.427  1.00  0.00    -0.007 C 
ATOM     10  C   UNL     1     115.664 117.898 116.932  1.00  0.00     0.008 C 
ATOM     11  C   UNL     1     116.355 116.590 114.891  1.00  0.00     0.008 C 
ENDBRANCH   5   9
TORSDOF 1
ENDMDL
MODEL 6
REMARK VINA RESULT:    -3.853      2.864      3.949
REMARK INTER + INTRA:          -4.250
REMARK INTER:                  -4.076
REMARK INTRA:                  -0.174
REMARK UNBOUND:                -0.172
REMARK SMILES CC(C)[C@H]1CC[C@@H](C)CC1=O
REMARK SMILES IDX 8 1 7 2 6 3 5 4 4 5 10 6 11 7 9 8 2 9 1 10 3 11
REMARK H PARENT
REMARK Flexibility Score: inf
ROOT
ATOM      1  C   UNL     1     120.282 113.378 118.110  1.00  0.00     0.008 C 
ATOM      2  C   UNL     1     119.301 113.871 119.186  1.00  0.00    -0.007 C 
ATOM      3  C   UNL     1     117.828 113.628 118.788  1.00  0.00     0.004 C 
ATOM      4  C   UNL     1     117.377 114.530 117.626  1.00  0.00     0.012 C 
ATOM      5  C   UNL     1     117.584 116.028 117.951  1.00  0.00     0.058 C 
ATOM      6  C   UNL     1     118.997 116.257 118.459  1.00  0.00     0.136 C 
ATOM      7  O   UNL     1     119.658 117.218 118.092  1.00  0.00    -0.299 OA
ATOM      8  C   UNL     1     119.541 115.352 119.531  1.00  0.00     0.079 C 
ENDROOT
BRANCH   5   9
ATOM      9  C   UNL     1     117.194 116.976 116.773  1.00  0.00    -0.007 C 
ATOM     10  C   UNL     1     116.950 116.240 115.442  1.00  0.00     0.008 C 
ATOM     11  C   UNL     1     115.979 117.849 117.121  1.00  0.00     0.008 C 
ENDBRANCH   5   9
TORSDOF 1
ENDMDL
MODEL 7
REMARK VINA RESULT:    -3.838      1.648      2.821
REMARK INTER + INTRA:          -4.235
REMARK INTER:                  -4.055
REMARK INTRA:                  -0.180
REMARK UNBOUND:                -0.172
REMARK SMILES CC(C)[C@H]1CC[C@@H](C)CC1=O
REMARK SMILES IDX 8 1 7 2 6 3 5 4 4 5 10 6 11 7 9 8 2 9 1 10 3 11
REMARK H PARENT
REMARK Flexibility Score: inf
ROOT
ATOM      1  C   UNL     1     116.613 118.819 120.665  1.00  0.00     0.008 C 
ATOM      2  C   UNL     1     117.053 119.593 119.412  1.00  0.00    -0.007 C 
ATOM      3  C   UNL     1     115.909 119.736 118.384  1.00  0.00     0.004 C 
ATOM      4  C   UNL     1     115.545 118.397 117.720  1.00  0.00     0.012 C 
ATOM      5  C   UNL     1     116.771 117.743 117.040  1.00  0.00     0.058 C 
ATOM      6  C   UNL     1     117.941 117.707 118.009  1.00  0.00     0.136 C 
ATOM      7  O   UNL     1     118.657 116.721 118.106  1.00  0.00    -0.299 OA
ATOM      8  C   UNL     1     118.298 118.957 118.766  1.00  0.00     0.079 C 
ENDROOT
BRANCH   5   9
ATOM      9  C   UNL     1     116.457 116.351 116.405  1.00  0.00    -0.007 C 
ATOM     10  C   UNL     1     115.203 115.674 116.988  1.00  0.00     0.008 C 
ATOM     11  C   UNL     1     116.346 116.434 114.875  1.00  0.00     0.008 C 
ENDBRANCH   5   9
TORSDOF 1
ENDMDL
MODEL 8
REMARK VINA RESULT:    -3.810      2.443      4.417
REMARK INTER + INTRA:          -4.205
REMARK INTER:                  -4.026
REMARK INTRA:                  -0.179
REMARK UNBOUND:                -0.172
REMARK SMILES CC(C)[C@H]1CC[C@@H](C)CC1=O
REMARK SMILES IDX 8 1 7 2 6 3 5 4 4 5 10 6 11 7 9 8 2 9 1 10 3 11
REMARK H PARENT
REMARK Flexibility Score: inf
ROOT
ATOM      1  C   UNL     1     116.308 114.464 120.735  1.00  0.00     0.008 C 
ATOM      2  C   UNL     1     115.884 113.698 119.472  1.00  0.00    -0.007 C 
ATOM      3  C   UNL     1     117.062 113.483 118.497  1.00  0.00     0.004 C 
ATOM      4  C   UNL     1     117.523 114.793 117.835  1.00  0.00     0.012 C 
ATOM      5  C   UNL     1     116.363 115.500 117.095  1.00  0.00     0.058 C 
ATOM      6  C   UNL     1     115.156 115.609 118.011  1.00  0.00     0.136 C 
ATOM      7  O   UNL     1     114.488 116.631 118.067  1.00  0.00    -0.299 OA
ATOM      8  C   UNL     1     114.702 114.388 118.765  1.00  0.00     0.079 C 
ENDROOT
BRANCH   5   9
ATOM      9  C   UNL     1     116.776 116.866 116.459  1.00  0.00    -0.007 C 
ATOM     10  C   UNL     1     118.067 117.460 117.054  1.00  0.00     0.008 C 
ATOM     11  C   UNL     1     116.896 116.770 114.931  1.00  0.00     0.008 C 
ENDBRANCH   5   9
TORSDOF 1
ENDMDL
MODEL 9
REMARK VINA RESULT:    -3.496      2.299      3.649
REMARK INTER + INTRA:          -3.873
REMARK INTER:                  -3.689
REMARK INTRA:                  -0.184
REMARK UNBOUND:                -0.172
REMARK SMILES CC(C)[C@H]1CC[C@@H](C)CC1=O
REMARK SMILES IDX 8 1 7 2 6 3 5 4 4 5 10 6 11 7 9 8 2 9 1 10 3 11
REMARK H PARENT
REMARK Flexibility Score: inf
ROOT
ATOM      1  C   UNL     1     116.772 116.937 115.334  1.00  0.00     0.008 C 
ATOM      2  C   UNL     1     117.379 116.997 116.745  1.00  0.00    -0.007 C 
ATOM      3  C   UNL     1     117.488 115.598 117.392  1.00  0.00     0.004 C 
ATOM      4  C   UNL     1     116.113 115.008 117.750  1.00  0.00     0.012 C 
ATOM      5  C   UNL     1     115.312 115.947 118.683  1.00  0.00     0.058 C 
ATOM      6  C   UNL     1     115.301 117.355 118.112  1.00  0.00     0.136 C 
ATOM      7  O   UNL     1     114.285 118.036 118.116  1.00  0.00    -0.299 OA
ATOM      8  C   UNL     1     116.598 117.964 117.653  1.00  0.00     0.079 C 
ENDROOT
BRANCH   5   9
ATOM      9  C   UNL     1     113.885 115.411 119.023  1.00  0.00    -0.007 C 
ATOM     10  C   UNL     1     113.241 114.601 117.882  1.00  0.00     0.008 C 
ATOM     11  C   UNL     1     113.878 114.589 120.320  1.00  0.00     0.008 C 
ENDBRANCH   5   9
TORSDOF 1
ENDMDL
