MODEL 1
REMARK VINA RESULT:    -2.279      0.000      0.000
REMARK INTER + INTRA:          -3.458
REMARK INTER:                  -3.078
REMARK INTRA:                  -0.380
REMARK UNBOUND:                -0.380
REMARK SMILES O=C[C@@H](O)[C@@H](O)[C@@H](O)CO
REMARK SMILES IDX 7 1 9 2 10 3 5 5 3 6 2 7 1 8 4 9 6 11 8 13
REMARK H PARENT 10 4 4 10 6 12 8 14
REMARK Flexibility Score: inf
ROOT
ATOM      1  C   UNL     1       8.835   1.489   7.974  1.00  0.00     0.171 C 
ENDROOT
BRANCH   1   2
ATOM      2  C   UNL     1       9.806   0.896   6.936  1.00  0.00     0.190 C 
BRANCH   2   3
ATOM      3  O   UNL     1       9.208  -0.135   6.197  1.00  0.00    -0.394 OA
ATOM      4  H   UNL     1       8.924   0.257   5.330  1.00  0.00     0.210 HD
ENDBRANCH   2   3
ENDBRANCH   1   2
BRANCH   1   5
ATOM      5  C   UNL     1       8.293   0.432   8.983  1.00  0.00     0.181 C 
BRANCH   5   6
ATOM      6  C   UNL     1       6.751   0.256   9.021  1.00  0.00     0.209 C 
BRANCH   6   7
ATOM      7  C   UNL     1       6.279  -0.657  10.125  1.00  0.00     0.258 C 
ATOM      8  O   UNL     1       5.974  -1.817   9.895  1.00  0.00    -0.300 OA
ENDBRANCH   6   7
BRANCH   6   9
ATOM      9  O   UNL     1       6.147   1.516   9.161  1.00  0.00    -0.383 OA
ATOM     10  H   UNL     1       6.708   2.164   8.658  1.00  0.00     0.211 HD
ENDBRANCH   6   9
ENDBRANCH   5   6
BRANCH   5  11
ATOM     11  O   UNL     1       8.943  -0.804   8.813  1.00  0.00    -0.387 OA
ATOM     12  H   UNL     1       8.256  -1.518   8.817  1.00  0.00     0.211 HD
ENDBRANCH   5  11
ENDBRANCH   1   5
BRANCH   1  13
ATOM     13  O   UNL     1       9.449   2.569   8.634  1.00  0.00    -0.388 OA
ATOM     14  H   UNL     1      10.167   2.911   8.040  1.00  0.00     0.211 HD
ENDBRANCH   1  13
TORSDOF 8
ENDMDL
MODEL 2
REMARK VINA RESULT:    -2.210      1.120      3.840
REMARK INTER + INTRA:          -3.365
REMARK INTER:                  -3.286
REMARK INTRA:                  -0.079
REMARK UNBOUND:                -0.380
REMARK SMILES O=C[C@@H](O)[C@@H](O)[C@@H](O)CO
REMARK SMILES IDX 7 1 9 2 10 3 5 5 3 6 2 7 1 8 4 9 6 11 8 13
REMARK H PARENT 10 4 4 10 6 12 8 14
REMARK Flexibility Score: inf
ROOT
ATOM      1  C   UNL     1       6.848   0.150   9.515  1.00  0.00     0.171 C 
ENDROOT
BRANCH   1   2
ATOM      2  C   UNL     1       6.042  -1.159   9.615  1.00  0.00     0.190 C 
BRANCH   2   3
ATOM      3  O   UNL     1       4.923  -1.144   8.770  1.00  0.00    -0.394 OA
ATOM      4  H   UNL     1       4.209  -0.643   9.245  1.00  0.00     0.210 HD
ENDBRANCH   2   3
ENDBRANCH   1   2
BRANCH   1   5
ATOM      5  C   UNL     1       8.093   0.036   8.583  1.00  0.00     0.181 C 
BRANCH   5   6
ATOM      6  C   UNL     1       8.460   1.311   7.777  1.00  0.00     0.209 C 
BRANCH   6   7
ATOM      7  C   UNL     1       8.756   2.505   8.649  1.00  0.00     0.258 C 
ATOM      8  O   UNL     1       7.939   3.403   8.783  1.00  0.00    -0.300 OA
ENDBRANCH   6   7
BRANCH   6   9
ATOM      9  O   UNL     1       9.571   1.036   6.962  1.00  0.00    -0.383 OA
ATOM     10  H   UNL     1       9.577   0.055   6.801  1.00  0.00     0.211 HD
ENDBRANCH   6   9
ENDBRANCH   5   6
BRANCH   5  11
ATOM     11  O   UNL     1       9.205  -0.459   9.289  1.00  0.00    -0.387 OA
ATOM     12  H   UNL     1       9.098  -0.216  10.244  1.00  0.00     0.211 HD
ENDBRANCH   5  11
ENDBRANCH   1   5
BRANCH   1  13
ATOM     13  O   UNL     1       6.001   1.200   9.120  1.00  0.00    -0.388 OA
ATOM     14  H   UNL     1       6.528   1.802   8.532  1.00  0.00     0.211 HD
ENDBRANCH   1  13
TORSDOF 8
ENDMDL
MODEL 3
REMARK VINA RESULT:    -1.976      0.678      3.804
REMARK INTER + INTRA:          -3.050
REMARK INTER:                  -2.596
REMARK INTRA:                  -0.454
REMARK UNBOUND:                -0.380
REMARK SMILES O=C[C@@H](O)[C@@H](O)[C@@H](O)CO
REMARK SMILES IDX 7 1 9 2 10 3 5 5 3 6 2 7 1 8 4 9 6 11 8 13
REMARK H PARENT 10 4 4 10 6 12 8 14
REMARK Flexibility Score: inf
ROOT
ATOM      1  C   UNL     1       6.994   0.489   9.583  1.00  0.00     0.171 C 
ENDROOT
BRANCH   1   2
ATOM      2  C   UNL     1       6.370  -0.811  10.125  1.00  0.00     0.190 C 
BRANCH   2   3
ATOM      3  O   UNL     1       5.241  -1.191   9.384  1.00  0.00    -0.394 OA
ATOM      4  H   UNL     1       4.821  -1.951   9.867  1.00  0.00     0.210 HD
ENDBRANCH   2   3
ENDBRANCH   1   2
BRANCH   1   5
ATOM      5  C   UNL     1       8.163   0.239   8.582  1.00  0.00     0.181 C 
BRANCH   5   6
ATOM      6  C   UNL     1       9.016   1.481   8.208  1.00  0.00     0.209 C 
BRANCH   6   7
ATOM      7  C   UNL     1       9.689   1.363   6.864  1.00  0.00     0.258 C 
ATOM      8  O   UNL     1       9.807   0.280   6.312  1.00  0.00    -0.300 OA
ENDBRANCH   6   7
BRANCH   6   9
ATOM      9  O   UNL     1       8.199   2.624   8.227  1.00  0.00    -0.383 OA
ATOM     10  H   UNL     1       7.589   2.530   9.007  1.00  0.00     0.211 HD
ENDBRANCH   6   9
ENDBRANCH   5   6
BRANCH   5  11
ATOM     11  O   UNL     1       8.976  -0.826   9.014  1.00  0.00    -0.387 OA
ATOM     12  H   UNL     1       8.456  -1.368   9.661  1.00  0.00     0.211 HD
ENDBRANCH   5  11
ENDBRANCH   1   5
BRANCH   1  13
ATOM     13  O   UNL     1       5.992   1.297   9.018  1.00  0.00    -0.388 OA
ATOM     14  H   UNL     1       5.693   1.933   9.719  1.00  0.00     0.211 HD
ENDBRANCH   1  13
TORSDOF 8
ENDMDL
MODEL 4
REMARK VINA RESULT:    -0.874      1.455      3.053
REMARK INTER + INTRA:          -1.560
REMARK INTER:                  -1.996
REMARK INTRA:                   0.435
REMARK UNBOUND:                -0.380
REMARK SMILES O=C[C@@H](O)[C@@H](O)[C@@H](O)CO
REMARK SMILES IDX 7 1 9 2 10 3 5 5 3 6 2 7 1 8 4 9 6 11 8 13
REMARK H PARENT 10 4 4 10 6 12 8 14
REMARK Flexibility Score: inf
ROOT
ATOM      1  C   UNL     1       8.083   2.419   8.296  1.00  0.00     0.171 C 
ENDROOT
BRANCH   1   2
ATOM      2  C   UNL     1       8.776   3.589   9.018  1.00  0.00     0.190 C 
BRANCH   2   3
ATOM      3  O   UNL     1       7.865   4.598   9.363  1.00  0.00    -0.394 OA
ATOM      4  H   UNL     1       7.289   4.232  10.085  1.00  0.00     0.210 HD
ENDBRANCH   2   3
ENDBRANCH   1   2
BRANCH   1   5
ATOM      5  C   UNL     1       9.024   1.199   8.055  1.00  0.00     0.181 C 
BRANCH   5   6
ATOM      6  C   UNL     1       8.873   0.016   9.048  1.00  0.00     0.209 C 
BRANCH   6   7
ATOM      7  C   UNL     1       7.481  -0.560   9.087  1.00  0.00     0.258 C 
ATOM      8  O   UNL     1       6.837  -0.579  10.125  1.00  0.00    -0.300 OA
ENDBRANCH   6   7
BRANCH   6   9
ATOM      9  O   UNL     1       9.791  -0.992   8.706  1.00  0.00    -0.383 OA
ATOM     10  H   UNL     1      10.515  -0.558   8.183  1.00  0.00     0.211 HD
ENDBRANCH   6   9
ENDBRANCH   5   6
BRANCH   5  11
ATOM     11  O   UNL     1       8.944   0.758   6.721  1.00  0.00    -0.387 OA
ATOM     12  H   UNL     1       8.890   1.555   6.135  1.00  0.00     0.211 HD
ENDBRANCH   5  11
ENDBRANCH   1   5
BRANCH   1  13
ATOM     13  O   UNL     1       6.924   2.047   8.999  1.00  0.00    -0.388 OA
ATOM     14  H   UNL     1       6.501   1.300   8.501  1.00  0.00     0.211 HD
ENDBRANCH   1  13
TORSDOF 8
ENDMDL
MODEL 5
REMARK VINA RESULT:    -0.534      1.823      3.231
REMARK INTER + INTRA:          -1.102
REMARK INTER:                  -0.707
REMARK INTRA:                  -0.395
REMARK UNBOUND:                -0.380
REMARK SMILES O=C[C@@H](O)[C@@H](O)[C@@H](O)CO
REMARK SMILES IDX 7 1 9 2 10 3 5 5 3 6 2 7 1 8 4 9 6 11 8 13
REMARK H PARENT 10 4 4 10 6 12 8 14
REMARK Flexibility Score: inf
ROOT
ATOM      1  C   UNL     1       9.464  -0.183   8.572  1.00  0.00     0.171 C 
ENDROOT
BRANCH   1   2
ATOM      2  C   UNL     1      10.125  -1.119   7.543  1.00  0.00     0.190 C 
BRANCH   2   3
ATOM      3  O   UNL     1       9.925  -0.669   6.229  1.00  0.00    -0.394 OA
ATOM      4  H   UNL     1       9.622  -1.452   5.699  1.00  0.00     0.210 HD
ENDBRANCH   2   3
ENDBRANCH   1   2
BRANCH   1   5
ATOM      5  C   UNL     1       8.876   1.113   7.936  1.00  0.00     0.181 C 
BRANCH   5   6
ATOM      6  C   UNL     1       8.108   2.057   8.899  1.00  0.00     0.209 C 
BRANCH   6   7
ATOM      7  C   UNL     1       8.216   3.513   8.525  1.00  0.00     0.258 C 
ATOM      8  O   UNL     1       7.417   4.333   8.952  1.00  0.00    -0.300 OA
ENDBRANCH   6   7
BRANCH   6   9
ATOM      9  O   UNL     1       6.755   1.678   8.932  1.00  0.00    -0.383 OA
ATOM     10  H   UNL     1       6.602   1.081   8.153  1.00  0.00     0.211 HD
ENDBRANCH   6   9
ENDBRANCH   5   6
BRANCH   5  11
ATOM     11  O   UNL     1       9.864   1.813   7.218  1.00  0.00    -0.387 OA
ATOM     12  H   UNL     1      10.643   1.948   7.816  1.00  0.00     0.211 HD
ENDBRANCH   5  11
ENDBRANCH   1   5
BRANCH   1  13
ATOM     13  O   UNL     1       8.490  -0.890   9.300  1.00  0.00    -0.388 OA
ATOM     14  H   UNL     1       7.715  -1.034   8.696  1.00  0.00     0.211 HD
ENDBRANCH   1  13
TORSDOF 8
ENDMDL
MODEL 6
REMARK VINA RESULT:    -0.506     19.000     20.084
REMARK INTER + INTRA:          -1.064
REMARK INTER:                  -0.789
REMARK INTRA:                  -0.275
REMARK UNBOUND:                -0.380
REMARK SMILES O=C[C@@H](O)[C@@H](O)[C@@H](O)CO
REMARK SMILES IDX 7 1 9 2 10 3 5 5 3 6 2 7 1 8 4 9 6 11 8 13
REMARK H PARENT 10 4 4 10 6 12 8 14
REMARK Flexibility Score: inf
ROOT
ATOM      1  C   UNL     1       4.818  -7.431  -9.558  1.00  0.00     0.171 C 
ENDROOT
BRANCH   1   2
ATOM      2  C   UNL     1       5.385  -8.852  -9.742  1.00  0.00     0.190 C 
BRANCH   2   3
ATOM      3  O   UNL     1       4.528  -9.824  -9.205  1.00  0.00    -0.394 OA
ATOM      4  H   UNL     1       5.102 -10.492  -8.744  1.00  0.00     0.210 HD
ENDBRANCH   2   3
ENDBRANCH   1   2
BRANCH   1   5
ATOM      5  C   UNL     1       5.751  -6.318 -10.124  1.00  0.00     0.181 C 
BRANCH   5   6
ATOM      6  C   UNL     1       5.446  -4.870  -9.656  1.00  0.00     0.209 C 
BRANCH   6   7
ATOM      7  C   UNL     1       6.473  -3.864 -10.111  1.00  0.00     0.258 C 
ATOM      8  O   UNL     1       6.439  -2.709  -9.716  1.00  0.00    -0.300 OA
ENDBRANCH   6   7
BRANCH   6   9
ATOM      9  O   UNL     1       4.176  -4.493 -10.125  1.00  0.00    -0.383 OA
ATOM     10  H   UNL     1       4.033  -3.550  -9.846  1.00  0.00     0.211 HD
ENDBRANCH   6   9
ENDBRANCH   5   6
BRANCH   5  11
ATOM     11  O   UNL     1       7.105  -6.646  -9.919  1.00  0.00    -0.387 OA
ATOM     12  H   UNL     1       7.486  -5.994  -9.278  1.00  0.00     0.211 HD
ENDBRANCH   5  11
ENDBRANCH   1   5
BRANCH   1  13
ATOM     13  O   UNL     1       3.529  -7.360 -10.116  1.00  0.00    -0.388 OA
ATOM     14  H   UNL     1       2.896  -7.731  -9.448  1.00  0.00     0.211 HD
ENDBRANCH   1  13
TORSDOF 8
ENDMDL
MODEL 7
REMARK VINA RESULT:    -0.324      1.870      3.722
REMARK INTER + INTRA:          -0.818
REMARK INTER:                  -0.138
REMARK INTRA:                  -0.679
REMARK UNBOUND:                -0.380
REMARK SMILES O=C[C@@H](O)[C@@H](O)[C@@H](O)CO
REMARK SMILES IDX 7 1 9 2 10 3 5 5 3 6 2 7 1 8 4 9 6 11 8 13
REMARK H PARENT 10 4 4 10 6 12 8 14
REMARK Flexibility Score: inf
ROOT
ATOM      1  C   UNL     1       7.606   2.018   8.264  1.00  0.00     0.171 C 
ENDROOT
BRANCH   1   2
ATOM      2  C   UNL     1       7.671   3.455   8.816  1.00  0.00     0.190 C 
BRANCH   2   3
ATOM      3  O   UNL     1       8.991   3.849   9.080  1.00  0.00    -0.394 OA
ATOM      4  H   UNL     1       9.272   4.438   8.332  1.00  0.00     0.210 HD
ENDBRANCH   2   3
ENDBRANCH   1   2
BRANCH   1   5
ATOM      5  C   UNL     1       9.005   1.340   8.147  1.00  0.00     0.181 C 
BRANCH   5   6
ATOM      6  C   UNL     1       9.007  -0.210   8.080  1.00  0.00     0.209 C 
BRANCH   6   7
ATOM      7  C   UNL     1      10.096  -0.771   7.201  1.00  0.00     0.258 C 
ATOM      8  O   UNL     1       9.961  -0.823   5.988  1.00  0.00    -0.300 OA
ENDBRANCH   6   7
BRANCH   6   9
ATOM      9  O   UNL     1       9.138  -0.727   9.380  1.00  0.00    -0.383 OA
ATOM     10  H   UNL     1       9.147   0.050  10.000  1.00  0.00     0.211 HD
ENDBRANCH   6   9
ENDBRANCH   5   6
BRANCH   5  11
ATOM     11  O   UNL     1       9.745   1.897   7.087  1.00  0.00    -0.387 OA
ATOM     12  H   UNL     1      10.325   1.188   6.710  1.00  0.00     0.211 HD
ENDBRANCH   5  11
ENDBRANCH   1   5
BRANCH   1  13
ATOM     13  O   UNL     1       6.722   1.251   9.043  1.00  0.00    -0.388 OA
ATOM     14  H   UNL     1       6.593   1.729   9.904  1.00  0.00     0.211 HD
ENDBRANCH   1  13
TORSDOF 8
ENDMDL
