MODEL 1
REMARK VINA RESULT:    -1.485      0.000      0.000
REMARK INTER + INTRA:          -1.670
REMARK INTER:                  -2.093
REMARK INTRA:                   0.423
REMARK UNBOUND:                 0.423
REMARK SMILES CC1=CCC(=C(C)C)C(=O)CC(C)=CCC1
REMARK SMILES IDX 12 1 14 2 13 3 15 4 16 5 2 6 1 7 3 8 11 10 9 11 10 12 5 13
REMARK SMILES IDX 6 14 7 15 8 16 4 17
REMARK H PARENT
REMARK Flexibility Score: 60.00
ROOT
ATOM      1  C   UNL     1      87.189  27.577  64.642  1.00  0.00    -0.070 C 
ATOM      2  C   UNL     1      85.859  27.476  64.388  1.00  0.00    -0.027 C 
ATOM      3  C   UNL     1      88.088  26.527  64.034  1.00  0.00     0.039 C 
ENDROOT
BRANCH   2   4
ATOM      4  C   UNL     1      84.773  28.349  64.972  1.00  0.00     0.032 C 
BRANCH   4   5
ATOM      5  C   UNL     1      84.273  29.427  64.001  1.00  0.00     0.034 C 
BRANCH   5   6
ATOM      6  C   UNL     1      84.073  30.740  64.734  1.00  0.00    -0.077 C 
ATOM      7  C   UNL     1      82.807  30.929  65.529  1.00  0.00     0.039 C 
ATOM      8  C   UNL     1      85.007  31.720  64.775  1.00  0.00    -0.023 CG0
ATOM      9  G   UNL     1      86.323  31.715  64.033  1.00  0.00     0.000 G0
ENDBRANCH   5   6
ENDBRANCH   4   5
ENDBRANCH   2   4
BRANCH   1  10
ATOM     10  C   UNL     1      87.836  28.714  65.427  1.00  0.00     0.111 C 
BRANCH  10  11
ATOM     11  C   UNL     1      88.116  29.945  64.602  1.00  0.00     0.163 C 
ATOM     12  O   UNL     1      88.878  29.821  63.606  1.00  0.00    -0.294 OA
BRANCH  11  13
ATOM     13  C   UNL     1      87.481  31.276  64.890  1.00  0.00    -0.002 C 
ATOM     14  C   UNL     1      87.907  32.042  65.941  1.00  0.00    -0.069 C 
ATOM     15  C   UNL     1      89.119  31.661  66.764  1.00  0.00     0.039 C 
ATOM     16  C   UNL     1      87.221  33.338  66.310  1.00  0.00     0.039 C 
BRANCH  13  17
ATOM     17  C   UNL     1      86.312  31.733  64.020  1.00  0.00     0.066 CG0
ATOM     18  G   UNL     1      85.002  31.717  64.771  1.00  0.00     0.000 G0
ENDBRANCH  13  17
ENDBRANCH  11  13
ENDBRANCH  10  11
ENDBRANCH   1  10
TORSDOF 0
ENDMDL
MODEL 2
REMARK VINA RESULT:    -0.992      1.587      3.704
REMARK INTER + INTRA:          -0.975
REMARK INTER:                  -2.549
REMARK INTRA:                   1.575
REMARK UNBOUND:                 0.423
REMARK SMILES CC1=CCC(=C(C)C)C(=O)CC(C)=CCC1
REMARK SMILES IDX 12 1 14 2 13 3 15 4 16 5 2 6 1 7 3 8 11 10 9 11 10 12 5 13
REMARK SMILES IDX 6 14 7 15 8 16 4 17
REMARK H PARENT
REMARK Flexibility Score: 60.00
ROOT
ATOM      1  C   UNL     1      88.659  28.856  64.847  1.00  0.00    -0.070 C 
ATOM      2  C   UNL     1      89.092  29.173  66.095  1.00  0.00    -0.027 C 
ATOM      3  C   UNL     1      89.078  27.517  64.290  1.00  0.00     0.039 C 
ENDROOT
BRANCH   2   4
ATOM      4  C   UNL     1      88.881  30.490  66.803  1.00  0.00     0.032 C 
BRANCH   4   5
ATOM      5  C   UNL     1      89.030  31.706  65.878  1.00  0.00     0.034 C 
BRANCH   5   6
ATOM      6  C   UNL     1      88.088  32.813  66.314  1.00  0.00    -0.077 C 
ATOM      7  C   UNL     1      88.444  33.612  67.541  1.00  0.00     0.039 C 
ATOM      8  C   UNL     1      86.986  33.173  65.614  1.00  0.00    -0.023 CG0
ATOM      9  G   UNL     1      86.465  32.484  64.376  1.00  0.00     0.000 G0
ENDBRANCH   5   6
ENDBRANCH   4   5
ENDBRANCH   2   4
BRANCH   1  10
ATOM     10  C   UNL     1      87.722  29.724  64.012  1.00  0.00     0.111 C 
BRANCH  10  11
ATOM     11  C   UNL     1      86.349  29.895  64.611  1.00  0.00     0.163 C 
ATOM     12  O   UNL     1      85.798  28.876  65.110  1.00  0.00    -0.294 OA
BRANCH  11  13
ATOM     13  C   UNL     1      85.655  31.225  64.684  1.00  0.00    -0.002 C 
ATOM     14  C   UNL     1      84.320  31.302  64.977  1.00  0.00    -0.069 C 
ATOM     15  C   UNL     1      83.522  30.083  65.383  1.00  0.00     0.039 C 
ATOM     16  C   UNL     1      83.578  32.620  64.962  1.00  0.00     0.039 C 
BRANCH  13  17
ATOM     17  C   UNL     1      86.455  32.488  64.368  1.00  0.00     0.066 CG0
ATOM     18  G   UNL     1      86.970  33.163  65.617  1.00  0.00     0.000 G0
ENDBRANCH  13  17
ENDBRANCH  11  13
ENDBRANCH  10  11
ENDBRANCH   1  10
TORSDOF 0
ENDMDL
MODEL 3
REMARK VINA RESULT:    -0.988     14.384     15.955
REMARK INTER + INTRA:          -0.968
REMARK INTER:                  -2.318
REMARK INTRA:                   1.349
REMARK UNBOUND:                 0.423
REMARK SMILES CC1=CCC(=C(C)C)C(=O)CC(C)=CCC1
REMARK SMILES IDX 12 1 14 2 13 3 15 4 16 5 2 6 1 7 3 8 11 10 9 11 10 12 5 13
REMARK SMILES IDX 6 14 7 15 8 16 4 17
REMARK H PARENT
REMARK Flexibility Score: 60.00
ROOT
ATOM      1  C   UNL     1      79.884  32.219  52.166  1.00  0.00    -0.070 C 
ATOM      2  C   UNL     1      80.884  33.015  51.707  1.00  0.00    -0.027 C 
ATOM      3  C   UNL     1      80.161  31.413  53.412  1.00  0.00     0.039 C 
ENDROOT
BRANCH   2   4
ATOM      4  C   UNL     1      80.864  33.824  50.431  1.00  0.00     0.032 C 
BRANCH   4   5
ATOM      5  C   UNL     1      80.878  35.339  50.673  1.00  0.00     0.034 C 
BRANCH   5   6
ATOM      6  C   UNL     1      80.343  35.654  52.057  1.00  0.00    -0.077 C 
ATOM      7  C   UNL     1      81.320  36.092  53.118  1.00  0.00     0.039 C 
ATOM      8  C   UNL     1      79.025  35.639  52.368  1.00  0.00    -0.023 CG0
ATOM      9  G   UNL     1      77.907  35.215  51.446  1.00  0.00     0.000 G0
ENDBRANCH   5   6
ENDBRANCH   4   5
ENDBRANCH   2   4
BRANCH   1  10
ATOM     10  C   UNL     1      78.488  32.148  51.555  1.00  0.00     0.111 C 
BRANCH  10  11
ATOM     11  C   UNL     1      77.420  32.810  52.388  1.00  0.00     0.163 C 
ATOM     12  O   UNL     1      76.945  32.157  53.357  1.00  0.00    -0.294 OA
BRANCH  11  13
ATOM     13  C   UNL     1      76.956  34.218  52.144  1.00  0.00    -0.002 C 
ATOM     14  C   UNL     1      75.687  34.605  52.483  1.00  0.00    -0.069 C 
ATOM     15  C   UNL     1      74.753  33.691  53.246  1.00  0.00     0.039 C 
ATOM     16  C   UNL     1      75.164  35.987  52.160  1.00  0.00     0.039 C 
BRANCH  13  17
ATOM     17  C   UNL     1      77.908  35.195  51.457  1.00  0.00     0.066 CG0
ATOM     18  G   UNL     1      79.017  35.651  52.376  1.00  0.00     0.000 G0
ENDBRANCH  13  17
ENDBRANCH  11  13
ENDBRANCH  10  11
ENDBRANCH   1  10
TORSDOF 0
ENDMDL
MODEL 4
REMARK VINA RESULT:    -0.958      1.746      4.544
REMARK INTER + INTRA:          -0.927
REMARK INTER:                  -2.107
REMARK INTRA:                   1.180
REMARK UNBOUND:                 0.423
REMARK SMILES CC1=CCC(=C(C)C)C(=O)CC(C)=CCC1
REMARK SMILES IDX 12 1 14 2 13 3 15 4 16 5 2 6 1 7 3 8 11 10 9 11 10 12 5 13
REMARK SMILES IDX 6 14 7 15 8 16 4 17
REMARK H PARENT
REMARK Flexibility Score: 60.00
ROOT
ATOM      1  C   UNL     1      84.013  30.860  65.106  1.00  0.00    -0.070 C 
ATOM      2  C   UNL     1      84.426  32.153  65.140  1.00  0.00    -0.027 C 
ATOM      3  C   UNL     1      82.927  30.457  66.074  1.00  0.00     0.039 C 
ENDROOT
BRANCH   2   4
ATOM      4  C   UNL     1      85.561  32.746  64.339  1.00  0.00     0.032 C 
BRANCH   4   5
ATOM      5  C   UNL     1      86.779  33.119  65.196  1.00  0.00     0.034 C 
BRANCH   5   6
ATOM      6  C   UNL     1      87.985  32.300  64.779  1.00  0.00    -0.077 C 
ATOM      7  C   UNL     1      89.087  32.989  64.016  1.00  0.00     0.039 C 
ATOM      8  C   UNL     1      88.160  31.003  65.123  1.00  0.00    -0.023 CG0
ATOM      9  G   UNL     1      87.165  30.147  65.869  1.00  0.00     0.000 G0
ENDBRANCH   5   6
ENDBRANCH   4   5
ENDBRANCH   2   4
BRANCH   1  10
ATOM     10  C   UNL     1      84.513  29.819  64.109  1.00  0.00     0.111 C 
BRANCH  10  11
ATOM     11  C   UNL     1      85.325  28.712  64.734  1.00  0.00     0.163 C 
ATOM     12  O   UNL     1      84.766  27.592  64.888  1.00  0.00    -0.294 OA
BRANCH  11  13
ATOM     13  C   UNL     1      86.767  28.881  65.118  1.00  0.00    -0.002 C 
ATOM     14  C   UNL     1      87.687  27.910  64.825  1.00  0.00    -0.069 C 
ATOM     15  C   UNL     1      87.331  26.704  63.983  1.00  0.00     0.039 C 
ATOM     16  C   UNL     1      89.124  28.011  65.285  1.00  0.00     0.039 C 
BRANCH  13  17
ATOM     17  C   UNL     1      87.179  30.132  65.891  1.00  0.00     0.066 CG0
ATOM     18  G   UNL     1      88.141  30.994  65.110  1.00  0.00     0.000 G0
ENDBRANCH  13  17
ENDBRANCH  11  13
ENDBRANCH  10  11
ENDBRANCH   1  10
TORSDOF 0
ENDMDL
MODEL 5
REMARK VINA RESULT:    -0.848      1.821      4.613
REMARK INTER + INTRA:          -0.772
REMARK INTER:                  -1.603
REMARK INTRA:                   0.831
REMARK UNBOUND:                 0.423
REMARK SMILES CC1=CCC(=C(C)C)C(=O)CC(C)=CCC1
REMARK SMILES IDX 12 1 14 2 13 3 15 4 16 5 2 6 1 7 3 8 11 10 9 11 10 12 5 13
REMARK SMILES IDX 6 14 7 15 8 16 4 17
REMARK H PARENT
REMARK Flexibility Score: 60.00
ROOT
ATOM      1  C   UNL     1      87.586  32.674  66.350  1.00  0.00    -0.070 C 
ATOM      2  C   UNL     1      88.711  32.043  65.925  1.00  0.00    -0.027 C 
ATOM      3  C   UNL     1      87.322  32.689  67.836  1.00  0.00     0.039 C 
ENDROOT
BRANCH   2   4
ATOM      4  C   UNL     1      89.118  31.819  64.488  1.00  0.00     0.032 C 
BRANCH   4   5
ATOM      5  C   UNL     1      88.662  30.462  63.933  1.00  0.00     0.034 C 
BRANCH   5   6
ATOM      6  C   UNL     1      88.083  29.609  65.046  1.00  0.00    -0.077 C 
ATOM      7  C   UNL     1      89.032  28.995  66.043  1.00  0.00     0.039 C 
ATOM      8  C   UNL     1      86.754  29.434  65.236  1.00  0.00    -0.023 CG0
ATOM      9  G   UNL     1      85.659  29.956  64.338  1.00  0.00     0.000 G0
ENDBRANCH   5   6
ENDBRANCH   4   5
ENDBRANCH   2   4
BRANCH   1  10
ATOM     10  C   UNL     1      86.622  33.427  65.438  1.00  0.00     0.111 C 
BRANCH  10  11
ATOM     11  C   UNL     1      85.956  32.559  64.400  1.00  0.00     0.163 C 
ATOM     12  O   UNL     1      86.142  32.851  63.187  1.00  0.00    -0.294 OA
BRANCH  11  13
ATOM     13  C   UNL     1      85.142  31.347  64.756  1.00  0.00    -0.002 C 
ATOM     14  C   UNL     1      83.994  31.467  65.490  1.00  0.00    -0.069 C 
ATOM     15  C   UNL     1      83.414  32.819  65.848  1.00  0.00     0.039 C 
ATOM     16  C   UNL     1      83.209  30.256  65.943  1.00  0.00     0.039 C 
BRANCH  13  17
ATOM     17  C   UNL     1      85.652  29.972  64.330  1.00  0.00     0.066 CG0
ATOM     18  G   UNL     1      86.728  29.452  65.254  1.00  0.00     0.000 G0
ENDBRANCH  13  17
ENDBRANCH  11  13
ENDBRANCH  10  11
ENDBRANCH   1  10
TORSDOF 0
ENDMDL
MODEL 6
REMARK VINA RESULT:    -0.280      1.844      4.343
REMARK INTER + INTRA:           0.028
REMARK INTER:                  -2.852
REMARK INTRA:                   2.881
REMARK UNBOUND:                 0.423
REMARK SMILES CC1=CCC(=C(C)C)C(=O)CC(C)=CCC1
REMARK SMILES IDX 12 1 14 2 13 3 15 4 16 5 2 6 1 7 3 8 11 10 9 11 10 12 5 13
REMARK SMILES IDX 6 14 7 15 8 16 4 17
REMARK H PARENT
REMARK Flexibility Score: 60.00
ROOT
ATOM      1  C   UNL     1      85.572  31.033  65.045  1.00  0.00    -0.070 C 
ATOM      2  C   UNL     1      85.391  31.438  66.329  1.00  0.00    -0.027 C 
ATOM      3  C   UNL     1      84.664  29.941  64.532  1.00  0.00     0.039 C 
ENDROOT
BRANCH   2   4
ATOM      4  C   UNL     1      86.244  32.435  67.076  1.00  0.00     0.032 C 
BRANCH   4   5
ATOM      5  C   UNL     1      86.875  33.497  66.166  1.00  0.00     0.034 C 
BRANCH   5   6
ATOM      6  C   UNL     1      88.385  33.479  66.308  1.00  0.00    -0.077 C 
ATOM      7  C   UNL     1      89.125  34.791  66.244  1.00  0.00     0.039 C 
ATOM      8  C   UNL     1      89.096  32.356  66.567  1.00  0.00    -0.023 CG0
ATOM      9  G   UNL     1      88.535  30.957  66.650  1.00  0.00     0.000 G0
ENDBRANCH   5   6
ENDBRANCH   4   5
ENDBRANCH   2   4
BRANCH   1  10
ATOM     10  C   UNL     1      86.570  31.657  64.075  1.00  0.00     0.111 C 
BRANCH  10  11
ATOM     11  C   UNL     1      87.945  31.039  64.128  1.00  0.00     0.163 C 
ATOM     12  O   UNL     1      88.718  31.250  63.155  1.00  0.00    -0.294 OA
BRANCH  11  13
ATOM     13  C   UNL     1      88.433  30.246  65.307  1.00  0.00    -0.002 C 
ATOM     14  C   UNL     1      88.724  28.914  65.181  1.00  0.00    -0.069 C 
ATOM     15  C   UNL     1      88.713  28.220  63.837  1.00  0.00     0.039 C 
ATOM     16  C   UNL     1      89.124  28.072  66.372  1.00  0.00     0.039 C 
BRANCH  13  17
ATOM     17  C   UNL     1      88.543  30.940  66.663  1.00  0.00     0.066 CG0
ATOM     18  G   UNL     1      89.069  32.350  66.540  1.00  0.00     0.000 G0
ENDBRANCH  13  17
ENDBRANCH  11  13
ENDBRANCH  10  11
ENDBRANCH   1  10
TORSDOF 0
ENDMDL
MODEL 7
REMARK VINA RESULT:     0.827     14.598     16.332
REMARK INTER + INTRA:           1.588
REMARK INTER:                  -0.146
REMARK INTRA:                   1.734
REMARK UNBOUND:                 0.423
REMARK SMILES CC1=CCC(=C(C)C)C(=O)CC(C)=CCC1
REMARK SMILES IDX 12 1 14 2 13 3 15 4 16 5 2 6 1 7 3 8 11 10 9 11 10 12 5 13
REMARK SMILES IDX 6 14 7 15 8 16 4 17
REMARK H PARENT
REMARK Flexibility Score: 60.00
ROOT
ATOM      1  C   UNL     1      80.049  35.455  51.163  1.00  0.00    -0.070 C 
ATOM      2  C   UNL     1      81.101  34.637  51.427  1.00  0.00    -0.027 C 
ATOM      3  C   UNL     1      80.006  36.105  49.802  1.00  0.00     0.039 C 
ENDROOT
BRANCH   2   4
ATOM      4  C   UNL     1      81.398  33.967  52.748  1.00  0.00     0.032 C 
BRANCH   4   5
ATOM      5  C   UNL     1      80.664  32.632  52.931  1.00  0.00     0.034 C 
BRANCH   5   6
ATOM      6  C   UNL     1      79.893  32.281  51.672  1.00  0.00    -0.077 C 
ATOM      7  C   UNL     1      80.669  31.818  50.466  1.00  0.00     0.039 C 
ATOM      8  C   UNL     1      78.541  32.287  51.600  1.00  0.00    -0.023 CG0
ATOM      9  G   UNL     1      77.602  32.733  52.696  1.00  0.00     0.000 G0
ENDBRANCH   5   6
ENDBRANCH   4   5
ENDBRANCH   2   4
BRANCH   1  10
ATOM     10  C   UNL     1      78.881  35.694  52.115  1.00  0.00     0.111 C 
BRANCH  10  11
ATOM     11  C   UNL     1      77.574  35.112  51.638  1.00  0.00     0.163 C 
ATOM     12  O   UNL     1      77.106  35.541  50.548  1.00  0.00    -0.294 OA
BRANCH  11  13
ATOM     13  C   UNL     1      76.856  34.017  52.375  1.00  0.00    -0.002 C 
ATOM     14  C   UNL     1      75.564  34.187  52.793  1.00  0.00    -0.069 C 
ATOM     15  C   UNL     1      74.756  35.408  52.411  1.00  0.00     0.039 C 
ATOM     16  C   UNL     1      74.852  33.139  53.620  1.00  0.00     0.039 C 
BRANCH  13  17
ATOM     17  C   UNL     1      77.615  32.731  52.698  1.00  0.00     0.066 CG0
ATOM     18  G   UNL     1      78.526  32.308  51.570  1.00  0.00     0.000 G0
ENDBRANCH  13  17
ENDBRANCH  11  13
ENDBRANCH  10  11
ENDBRANCH   1  10
TORSDOF 0
ENDMDL
MODEL 8
REMARK VINA RESULT:     0.964      1.792      2.285
REMARK INTER + INTRA:           1.782
REMARK INTER:                  -0.667
REMARK INTRA:                   2.449
REMARK UNBOUND:                 0.423
REMARK SMILES CC1=CCC(=C(C)C)C(=O)CC(C)=CCC1
REMARK SMILES IDX 12 1 14 2 13 3 15 4 16 5 2 6 1 7 3 8 11 10 9 11 10 12 5 13
REMARK SMILES IDX 6 14 7 15 8 16 4 17
REMARK H PARENT
REMARK Flexibility Score: 60.00
ROOT
ATOM      1  C   UNL     1      87.454  29.911  65.308  1.00  0.00    -0.070 C 
ATOM      2  C   UNL     1      86.400  29.380  64.636  1.00  0.00    -0.027 C 
ATOM      3  C   UNL     1      88.815  29.785  64.666  1.00  0.00     0.039 C 
ENDROOT
BRANCH   2   4
ATOM      4  C   UNL     1      84.976  29.300  65.134  1.00  0.00     0.032 C 
BRANCH   4   5
ATOM      5  C   UNL     1      83.973  30.019  64.221  1.00  0.00     0.034 C 
BRANCH   5   6
ATOM      6  C   UNL     1      83.694  31.415  64.746  1.00  0.00    -0.077 C 
ATOM      7  C   UNL     1      82.328  31.705  65.313  1.00  0.00     0.039 C 
ATOM      8  C   UNL     1      84.631  32.391  64.804  1.00  0.00    -0.023 CG0
ATOM      9  G   UNL     1      86.042  32.290  64.275  1.00  0.00     0.000 G0
ENDBRANCH   5   6
ENDBRANCH   4   5
ENDBRANCH   2   4
BRANCH   1  10
ATOM     10  C   UNL     1      87.342  30.686  66.617  1.00  0.00     0.111 C 
BRANCH  10  11
ATOM     11  C   UNL     1      87.464  32.181  66.456  1.00  0.00     0.163 C 
ATOM     12  O   UNL     1      87.974  32.831  67.409  1.00  0.00    -0.294 OA
BRANCH  11  13
ATOM     13  C   UNL     1      87.063  32.897  65.199  1.00  0.00    -0.002 C 
ATOM     14  C   UNL     1      87.583  34.127  64.898  1.00  0.00    -0.069 C 
ATOM     15  C   UNL     1      88.684  34.751  65.728  1.00  0.00     0.039 C 
ATOM     16  C   UNL     1      87.123  34.912  63.689  1.00  0.00     0.039 C 
BRANCH  13  17
ATOM     17  C   UNL     1      86.018  32.253  64.289  1.00  0.00     0.066 CG0
ATOM     18  G   UNL     1      84.614  32.446  64.808  1.00  0.00     0.000 G0
ENDBRANCH  13  17
ENDBRANCH  11  13
ENDBRANCH  10  11
ENDBRANCH   1  10
TORSDOF 0
ENDMDL
MODEL 9
REMARK VINA RESULT:     1.216     14.492     15.998
REMARK INTER + INTRA:           2.138
REMARK INTER:                   1.173
REMARK INTRA:                   0.965
REMARK UNBOUND:                 0.423
REMARK SMILES CC1=CCC(=C(C)C)C(=O)CC(C)=CCC1
REMARK SMILES IDX 12 1 14 2 13 3 15 4 16 5 2 6 1 7 3 8 11 10 9 11 10 12 5 13
REMARK SMILES IDX 6 14 7 15 8 16 4 17
REMARK H PARENT
REMARK Flexibility Score: 60.00
ROOT
ATOM      1  C   UNL     1      79.279  36.051  50.550  1.00  0.00    -0.070 C 
ATOM      2  C   UNL     1      77.940  36.001  50.332  1.00  0.00    -0.027 C 
ATOM      3  C   UNL     1      80.174  36.120  49.336  1.00  0.00     0.039 C 
ENDROOT
BRANCH   2   4
ATOM      4  C   UNL     1      76.872  35.827  51.385  1.00  0.00     0.032 C 
BRANCH   4   5
ATOM      5  C   UNL     1      77.330  34.979  52.580  1.00  0.00     0.034 C 
BRANCH   5   6
ATOM      6  C   UNL     1      77.152  33.504  52.275  1.00  0.00    -0.077 C 
ATOM      7  C   UNL     1      75.822  33.042  51.737  1.00  0.00     0.039 C 
ATOM      8  C   UNL     1      78.148  32.594  52.387  1.00  0.00    -0.023 CG0
ATOM      9  G   UNL     1      79.535  32.866  52.919  1.00  0.00     0.000 G0
ENDBRANCH   5   6
ENDBRANCH   4   5
ENDBRANCH   2   4
BRANCH   1  10
ATOM     10  C   UNL     1      79.927  36.120  51.930  1.00  0.00     0.111 C 
BRANCH  10  11
ATOM     11  C   UNL     1      80.854  34.969  52.229  1.00  0.00     0.163 C 
ATOM     12  O   UNL     1      81.964  35.236  52.764  1.00  0.00    -0.294 OA
BRANCH  11  13
ATOM     13  C   UNL     1      80.480  33.537  51.972  1.00  0.00    -0.002 C 
ATOM     14  C   UNL     1      80.928  32.887  50.853  1.00  0.00    -0.069 C 
ATOM     15  C   UNL     1      81.928  33.521  49.911  1.00  0.00     0.039 C 
ATOM     16  C   UNL     1      80.487  31.479  50.522  1.00  0.00     0.039 C 
BRANCH  13  17
ATOM     17  C   UNL     1      79.542  32.836  52.954  1.00  0.00     0.066 CG0
ATOM     18  G   UNL     1      78.173  32.599  52.363  1.00  0.00     0.000 G0
ENDBRANCH  13  17
ENDBRANCH  11  13
ENDBRANCH  10  11
ENDBRANCH   1  10
TORSDOF 0
ENDMDL
