MODEL 1
REMARK VINA RESULT:    -3.358      0.000      0.000
REMARK INTER + INTRA:          -8.138
REMARK INTER:                  -5.124
REMARK INTRA:                  -3.014
REMARK UNBOUND:                -3.014
REMARK SMILES CC(=O)CCC=C(C)CCC=C(C)CCC=C(C)C
REMARK SMILES IDX 10 1 11 2 12 3 13 4 14 5 15 6 16 7 18 8 17 9 19 10 9 11 7 12
REMARK SMILES IDX 6 13 8 14 5 15 4 16 2 17 3 18 1 19
REMARK H PARENT
REMARK Flexibility Score: inf
ROOT
ATOM      1  C   UNL     1     -38.189  -7.827  52.043  1.00  0.00     0.032 C 
ENDROOT
BRANCH   1   2
ATOM      2  C   UNL     1     -38.824  -8.103  50.702  1.00  0.00    -0.028 C 
ATOM      3  C   UNL     1     -38.587  -9.203  49.951  1.00  0.00    -0.077 C 
ATOM      4  C   UNL     1     -37.690 -10.321  50.432  1.00  0.00     0.039 C 
BRANCH   3   5
ATOM      5  C   UNL     1     -39.240  -9.315  48.591  1.00  0.00     0.034 C 
BRANCH   5   6
ATOM      6  C   UNL     1     -38.260  -9.882  47.556  1.00  0.00     0.032 C 
BRANCH   6   7
ATOM      7  C   UNL     1     -37.715  -8.783  46.679  1.00  0.00    -0.028 C 
ATOM      8  C   UNL     1     -35.418  -8.915  47.672  1.00  0.00     0.039 C 
ATOM      9  C   UNL     1     -36.433  -8.356  46.702  1.00  0.00    -0.080 C 
ATOM     10  C   UNL     1     -36.020  -7.273  45.739  1.00  0.00     0.039 C 
ENDBRANCH   6   7
ENDBRANCH   5   6
ENDBRANCH   3   5
ENDBRANCH   1   2
BRANCH   1  11
ATOM     11  C   UNL     1     -37.265  -6.601  51.995  1.00  0.00     0.034 C 
BRANCH  11  12
ATOM     12  C   UNL     1     -36.073  -6.823  51.082  1.00  0.00    -0.077 C 
ATOM     13  C   UNL     1     -35.865  -6.096  49.960  1.00  0.00    -0.028 C 
ATOM     14  C   UNL     1     -35.087  -7.912  51.422  1.00  0.00     0.039 C 
BRANCH  13  15
ATOM     15  C   UNL     1     -36.754  -4.955  49.520  1.00  0.00     0.035 C 
BRANCH  15  16
ATOM     16  C   UNL     1     -37.699  -5.368  48.384  1.00  0.00     0.079 C 
BRANCH  16  17
ATOM     17  C   UNL     1     -39.147  -5.211  48.775  1.00  0.00     0.130 C 
ATOM     18  O   UNL     1     -39.429  -4.661  49.829  1.00  0.00    -0.300 OA
ATOM     19  C   UNL     1     -40.252  -5.726  47.901  1.00  0.00     0.087 C 
ENDBRANCH  16  17
ENDBRANCH  15  16
ENDBRANCH  13  15
ENDBRANCH  11  12
ENDBRANCH   1  11
TORSDOF 9
ENDMDL
MODEL 2
REMARK VINA RESULT:    -3.356      1.912      4.875
REMARK INTER + INTRA:          -8.135
REMARK INTER:                  -5.517
REMARK INTRA:                  -2.618
REMARK UNBOUND:                -3.014
REMARK SMILES CC(=O)CCC=C(C)CCC=C(C)CCC=C(C)C
REMARK SMILES IDX 10 1 11 2 12 3 13 4 14 5 15 6 16 7 18 8 17 9 19 10 9 11 7 12
REMARK SMILES IDX 6 13 8 14 5 15 4 16 2 17 3 18 1 19
REMARK H PARENT
REMARK Flexibility Score: inf
ROOT
ATOM      1  C   UNL     1     -36.452  -8.468  46.685  1.00  0.00     0.032 C 
ENDROOT
BRANCH   1   2
ATOM      2  C   UNL     1     -36.411  -7.748  48.012  1.00  0.00    -0.028 C 
ATOM      3  C   UNL     1     -35.339  -7.716  48.836  1.00  0.00    -0.077 C 
ATOM      4  C   UNL     1     -34.023  -8.359  48.462  1.00  0.00     0.039 C 
BRANCH   3   5
ATOM      5  C   UNL     1     -35.464  -7.014  50.171  1.00  0.00     0.034 C 
BRANCH   5   6
ATOM      6  C   UNL     1     -35.564  -8.028  51.317  1.00  0.00     0.032 C 
BRANCH   6   7
ATOM      7  C   UNL     1     -37.001  -8.408  51.570  1.00  0.00    -0.028 C 
ATOM      8  C   UNL     1     -36.778 -10.632  50.441  1.00  0.00     0.039 C 
ATOM      9  C   UNL     1     -37.554  -9.585  51.205  1.00  0.00    -0.080 C 
ATOM     10  C   UNL     1     -38.996  -9.842  51.559  1.00  0.00     0.039 C 
ENDBRANCH   6   7
ENDBRANCH   5   6
ENDBRANCH   3   5
ENDBRANCH   1   2
BRANCH   1  11
ATOM     11  C   UNL     1     -36.439  -7.487  45.503  1.00  0.00     0.034 C 
BRANCH  11  12
ATOM     12  C   UNL     1     -35.026  -7.099  45.102  1.00  0.00    -0.077 C 
ATOM     13  C   UNL     1     -34.554  -5.837  45.216  1.00  0.00    -0.028 C 
ATOM     14  C   UNL     1     -34.115  -8.156  44.530  1.00  0.00     0.039 C 
BRANCH  13  15
ATOM     15  C   UNL     1     -35.347  -4.691  45.803  1.00  0.00     0.035 C 
BRANCH  15  16
ATOM     16  C   UNL     1     -34.911  -4.365  47.236  1.00  0.00     0.079 C 
BRANCH  16  17
ATOM     17  C   UNL     1     -36.086  -4.006  48.111  1.00  0.00     0.130 C 
ATOM     18  O   UNL     1     -35.889  -3.572  49.236  1.00  0.00    -0.300 OA
ATOM     19  C   UNL     1     -37.497  -4.181  47.633  1.00  0.00     0.087 C 
ENDBRANCH  16  17
ENDBRANCH  15  16
ENDBRANCH  13  15
ENDBRANCH  11  12
ENDBRANCH   1  11
TORSDOF 9
ENDMDL
MODEL 3
REMARK VINA RESULT:    -3.316     12.152     16.071
REMARK INTER + INTRA:          -8.073
REMARK INTER:                  -6.146
REMARK INTRA:                  -1.928
REMARK UNBOUND:                -3.014
REMARK SMILES CC(=O)CCC=C(C)CCC=C(C)CCC=C(C)C
REMARK SMILES IDX 10 1 11 2 12 3 13 4 14 5 15 6 16 7 18 8 17 9 19 10 9 11 7 12
REMARK SMILES IDX 6 13 8 14 5 15 4 16 2 17 3 18 1 19
REMARK H PARENT
REMARK Flexibility Score: inf
ROOT
ATOM      1  C   UNL     1     -51.018   1.330  42.729  1.00  0.00     0.032 C 
ENDROOT
BRANCH   1   2
ATOM      2  C   UNL     1     -51.653   1.714  44.044  1.00  0.00    -0.028 C 
ATOM      3  C   UNL     1     -51.151   2.634  44.900  1.00  0.00    -0.077 C 
ATOM      4  C   UNL     1     -49.910   3.434  44.577  1.00  0.00     0.039 C 
BRANCH   3   5
ATOM      5  C   UNL     1     -51.857   2.867  46.218  1.00  0.00     0.034 C 
BRANCH   5   6
ATOM      6  C   UNL     1     -51.070   2.244  47.378  1.00  0.00     0.032 C 
BRANCH   6   7
ATOM      7  C   UNL     1     -50.538   3.314  48.298  1.00  0.00    -0.028 C 
ATOM      8  C   UNL     1     -48.180   2.480  48.161  1.00  0.00     0.039 C 
ATOM      9  C   UNL     1     -49.237   3.448  48.639  1.00  0.00    -0.080 C 
ATOM     10  C   UNL     1     -48.845   4.590  49.540  1.00  0.00     0.039 C 
ENDBRANCH   6   7
ENDBRANCH   5   6
ENDBRANCH   3   5
ENDBRANCH   1   2
BRANCH   1  11
ATOM     11  C   UNL     1     -49.914   0.278  42.914  1.00  0.00     0.034 C 
BRANCH  11  12
ATOM     12  C   UNL     1     -50.318  -0.801  43.903  1.00  0.00    -0.077 C 
ATOM     13  C   UNL     1     -49.724  -0.946  45.109  1.00  0.00    -0.028 C 
ATOM     14  C   UNL     1     -51.409  -1.769  43.521  1.00  0.00     0.039 C 
BRANCH  13  15
ATOM     15  C   UNL     1     -48.643  -0.028  45.632  1.00  0.00     0.035 C 
BRANCH  15  16
ATOM     16  C   UNL     1     -47.238  -0.559  45.320  1.00  0.00     0.079 C 
BRANCH  16  17
ATOM     17  C   UNL     1     -47.017  -1.932  45.904  1.00  0.00     0.130 C 
ATOM     18  O   UNL     1     -46.862  -2.886  45.157  1.00  0.00    -0.300 OA
ATOM     19  C   UNL     1     -46.994  -2.155  47.387  1.00  0.00     0.087 C 
ENDBRANCH  16  17
ENDBRANCH  15  16
ENDBRANCH  13  15
ENDBRANCH  11  12
ENDBRANCH   1  11
TORSDOF 9
ENDMDL
MODEL 4
REMARK VINA RESULT:    -3.308      1.506      4.605
REMARK INTER + INTRA:          -8.062
REMARK INTER:                  -5.082
REMARK INTRA:                  -2.980
REMARK UNBOUND:                -3.014
REMARK SMILES CC(=O)CCC=C(C)CCC=C(C)CCC=C(C)C
REMARK SMILES IDX 10 1 11 2 12 3 13 4 14 5 15 6 16 7 18 8 17 9 19 10 9 11 7 12
REMARK SMILES IDX 6 13 8 14 5 15 4 16 2 17 3 18 1 19
REMARK H PARENT
REMARK Flexibility Score: inf
ROOT
ATOM      1  C   UNL     1     -35.412  -8.435  46.878  1.00  0.00     0.032 C 
ENDROOT
BRANCH   1   2
ATOM      2  C   UNL     1     -35.123  -7.954  48.280  1.00  0.00    -0.028 C 
ATOM      3  C   UNL     1     -34.670  -8.739  49.284  1.00  0.00    -0.077 C 
ATOM      4  C   UNL     1     -34.337 -10.198  49.069  1.00  0.00     0.039 C 
BRANCH   3   5
ATOM      5  C   UNL     1     -34.491  -8.136  50.660  1.00  0.00     0.034 C 
BRANCH   5   6
ATOM      6  C   UNL     1     -35.839  -7.696  51.245  1.00  0.00     0.032 C 
BRANCH   6   7
ATOM      7  C   UNL     1     -36.819  -8.842  51.252  1.00  0.00    -0.028 C 
ATOM      8  C   UNL     1     -38.695  -7.440  52.140  1.00  0.00     0.039 C 
ATOM      9  C   UNL     1     -38.112  -8.737  51.627  1.00  0.00    -0.080 C 
ATOM     10  C   UNL     1     -38.986  -9.962  51.546  1.00  0.00     0.039 C 
ENDBRANCH   6   7
ENDBRANCH   5   6
ENDBRANCH   3   5
ENDBRANCH   1   2
BRANCH   1  11
ATOM     11  C   UNL     1     -36.858  -8.133  46.458  1.00  0.00     0.034 C 
BRANCH  11  12
ATOM     12  C   UNL     1     -37.864  -8.640  47.477  1.00  0.00    -0.077 C 
ATOM     13  C   UNL     1     -38.700  -7.819  48.151  1.00  0.00    -0.028 C 
ATOM     14  C   UNL     1     -37.921 -10.118  47.771  1.00  0.00     0.039 C 
BRANCH  13  15
ATOM     15  C   UNL     1     -38.771  -6.324  47.931  1.00  0.00     0.035 C 
BRANCH  15  16
ATOM     16  C   UNL     1     -38.091  -5.544  49.063  1.00  0.00     0.079 C 
BRANCH  16  17
ATOM     17  C   UNL     1     -36.827  -4.868  48.596  1.00  0.00     0.130 C 
ATOM     18  O   UNL     1     -35.947  -4.610  49.405  1.00  0.00    -0.300 OA
ATOM     19  C   UNL     1     -36.627  -4.491  47.158  1.00  0.00     0.087 C 
ENDBRANCH  16  17
ENDBRANCH  15  16
ENDBRANCH  13  15
ENDBRANCH  11  12
ENDBRANCH   1  11
TORSDOF 9
ENDMDL
MODEL 5
REMARK VINA RESULT:    -3.257     12.835     15.265
REMARK INTER + INTRA:          -7.984
REMARK INTER:                  -5.905
REMARK INTRA:                  -2.079
REMARK UNBOUND:                -3.014
REMARK SMILES CC(=O)CCC=C(C)CCC=C(C)CCC=C(C)C
REMARK SMILES IDX 10 1 11 2 12 3 13 4 14 5 15 6 16 7 18 8 17 9 19 10 9 11 7 12
REMARK SMILES IDX 6 13 8 14 5 15 4 16 2 17 3 18 1 19
REMARK H PARENT
REMARK Flexibility Score: inf
ROOT
ATOM      1  C   UNL     1     -33.003   1.676  56.179  1.00  0.00     0.032 C 
ENDROOT
BRANCH   1   2
ATOM      2  C   UNL     1     -33.756   2.832  55.564  1.00  0.00    -0.028 C 
ATOM      3  C   UNL     1     -35.101   2.978  55.599  1.00  0.00    -0.077 C 
ATOM      4  C   UNL     1     -35.992   2.007  56.338  1.00  0.00     0.039 C 
BRANCH   3   5
ATOM      5  C   UNL     1     -35.727   4.152  54.877  1.00  0.00     0.034 C 
BRANCH   5   6
ATOM      6  C   UNL     1     -34.900   5.427  55.083  1.00  0.00     0.032 C 
BRANCH   6   7
ATOM      7  C   UNL     1     -35.399   6.537  54.192  1.00  0.00    -0.028 C 
ATOM      8  C   UNL     1     -36.912   7.482  55.950  1.00  0.00     0.039 C 
ATOM      9  C   UNL     1     -36.284   7.483  54.576  1.00  0.00    -0.080 C 
ATOM     10  C   UNL     1     -36.662   8.555  53.587  1.00  0.00     0.039 C 
ENDBRANCH   6   7
ENDBRANCH   5   6
ENDBRANCH   3   5
ENDBRANCH   1   2
BRANCH   1  11
ATOM     11  C   UNL     1     -32.166   2.119  57.388  1.00  0.00     0.034 C 
BRANCH  11  12
ATOM     12  C   UNL     1     -33.023   2.336  58.623  1.00  0.00    -0.077 C 
ATOM     13  C   UNL     1     -33.149   3.541  59.223  1.00  0.00    -0.028 C 
ATOM     14  C   UNL     1     -33.747   1.158  59.224  1.00  0.00     0.039 C 
BRANCH  13  15
ATOM     15  C   UNL     1     -32.506   4.809  58.709  1.00  0.00     0.035 C 
BRANCH  15  16
ATOM     16  C   UNL     1     -33.547   5.876  58.348  1.00  0.00     0.079 C 
BRANCH  16  17
ATOM     17  C   UNL     1     -32.913   7.226  58.128  1.00  0.00     0.130 C 
ATOM     18  O   UNL     1     -31.875   7.506  58.711  1.00  0.00    -0.300 OA
ATOM     19  C   UNL     1     -33.534   8.242  57.217  1.00  0.00     0.087 C 
ENDBRANCH  16  17
ENDBRANCH  15  16
ENDBRANCH  13  15
ENDBRANCH  11  12
ENDBRANCH   1  11
TORSDOF 9
ENDMDL
MODEL 6
REMARK VINA RESULT:    -3.249     13.207     15.414
REMARK INTER + INTRA:          -7.972
REMARK INTER:                  -5.905
REMARK INTRA:                  -2.067
REMARK UNBOUND:                -3.014
REMARK SMILES CC(=O)CCC=C(C)CCC=C(C)CCC=C(C)C
REMARK SMILES IDX 10 1 11 2 12 3 13 4 14 5 15 6 16 7 18 8 17 9 19 10 9 11 7 12
REMARK SMILES IDX 6 13 8 14 5 15 4 16 2 17 3 18 1 19
REMARK H PARENT
REMARK Flexibility Score: inf
ROOT
ATOM      1  C   UNL     1     -33.212   3.189  59.376  1.00  0.00     0.032 C 
ENDROOT
BRANCH   1   2
ATOM      2  C   UNL     1     -33.622   3.178  57.923  1.00  0.00    -0.028 C 
ATOM      3  C   UNL     1     -33.087   2.369  56.980  1.00  0.00    -0.077 C 
ATOM      4  C   UNL     1     -32.047   1.326  57.317  1.00  0.00     0.039 C 
BRANCH   3   5
ATOM      5  C   UNL     1     -33.546   2.517  55.545  1.00  0.00     0.034 C 
BRANCH   5   6
ATOM      6  C   UNL     1     -35.057   2.288  55.426  1.00  0.00     0.032 C 
BRANCH   6   7
ATOM      7  C   UNL     1     -35.763   3.563  55.038  1.00  0.00    -0.028 C 
ATOM      8  C   UNL     1     -37.241   3.547  57.060  1.00  0.00     0.039 C 
ATOM      9  C   UNL     1     -36.728   4.154  55.775  1.00  0.00    -0.080 C 
ATOM     10  C   UNL     1     -37.318   5.449  55.279  1.00  0.00     0.039 C 
ENDBRANCH   6   7
ENDBRANCH   5   6
ENDBRANCH   3   5
ENDBRANCH   1   2
BRANCH   1  11
ATOM     11  C   UNL     1     -31.953   4.038  59.606  1.00  0.00     0.034 C 
BRANCH  11  12
ATOM     12  C   UNL     1     -32.217   5.205  60.541  1.00  0.00    -0.077 C 
ATOM     13  C   UNL     1     -32.160   6.494  60.136  1.00  0.00    -0.028 C 
ATOM     14  C   UNL     1     -32.534   4.923  61.988  1.00  0.00     0.039 C 
BRANCH  13  15
ATOM     15  C   UNL     1     -31.887   6.917  58.710  1.00  0.00     0.035 C 
BRANCH  15  16
ATOM     16  C   UNL     1     -33.040   7.742  58.124  1.00  0.00     0.079 C 
BRANCH  16  17
ATOM     17  C   UNL     1     -34.130   6.861  57.567  1.00  0.00     0.130 C 
ATOM     18  O   UNL     1     -34.051   6.459  56.416  1.00  0.00    -0.300 OA
ATOM     19  C   UNL     1     -35.321   6.476  58.394  1.00  0.00     0.087 C 
ENDBRANCH  16  17
ENDBRANCH  15  16
ENDBRANCH  13  15
ENDBRANCH  11  12
ENDBRANCH   1  11
TORSDOF 9
ENDMDL
MODEL 7
REMARK VINA RESULT:    -3.245      2.133      5.777
REMARK INTER + INTRA:          -7.966
REMARK INTER:                  -5.731
REMARK INTRA:                  -2.235
REMARK UNBOUND:                -3.014
REMARK SMILES CC(=O)CCC=C(C)CCC=C(C)CCC=C(C)C
REMARK SMILES IDX 10 1 11 2 12 3 13 4 14 5 15 6 16 7 18 8 17 9 19 10 9 11 7 12
REMARK SMILES IDX 6 13 8 14 5 15 4 16 2 17 3 18 1 19
REMARK H PARENT
REMARK Flexibility Score: inf
ROOT
ATOM      1  C   UNL     1     -34.879  -5.244  45.598  1.00  0.00     0.032 C 
ENDROOT
BRANCH   1   2
ATOM      2  C   UNL     1     -35.065  -4.887  47.053  1.00  0.00    -0.028 C 
ATOM      3  C   UNL     1     -36.076  -4.128  47.535  1.00  0.00    -0.077 C 
ATOM      4  C   UNL     1     -37.182  -3.610  46.644  1.00  0.00     0.039 C 
BRANCH   3   5
ATOM      5  C   UNL     1     -36.097  -3.790  49.010  1.00  0.00     0.034 C 
BRANCH   5   6
ATOM      6  C   UNL     1     -36.972  -4.781  49.787  1.00  0.00     0.032 C 
BRANCH   6   7
ATOM      7  C   UNL     1     -36.139  -5.907  50.344  1.00  0.00    -0.028 C 
ATOM      8  C   UNL     1     -38.129  -7.169  51.196  1.00  0.00     0.039 C 
ATOM      9  C   UNL     1     -36.646  -6.999  50.957  1.00  0.00    -0.080 C 
ATOM     10  C   UNL     1     -35.692  -8.065  51.430  1.00  0.00     0.039 C 
ENDBRANCH   6   7
ENDBRANCH   5   6
ENDBRANCH   3   5
ENDBRANCH   1   2
BRANCH   1  11
ATOM     11  C   UNL     1     -35.544  -6.584  45.250  1.00  0.00     0.034 C 
BRANCH  11  12
ATOM     12  C   UNL     1     -34.558  -7.738  45.301  1.00  0.00    -0.077 C 
ATOM     13  C   UNL     1     -34.367  -8.488  46.409  1.00  0.00    -0.028 C 
ATOM     14  C   UNL     1     -33.738  -8.051  44.074  1.00  0.00     0.039 C 
BRANCH  13  15
ATOM     15  C   UNL     1     -35.142  -8.305  47.694  1.00  0.00     0.035 C 
BRANCH  15  16
ATOM     16  C   UNL     1     -36.027  -9.518  48.009  1.00  0.00     0.079 C 
BRANCH  16  17
ATOM     17  C   UNL     1     -37.475  -9.256  47.680  1.00  0.00     0.130 C 
ATOM     18  O   UNL     1     -38.238 -10.198  47.527  1.00  0.00    -0.300 OA
ATOM     19  C   UNL     1     -38.000  -7.860  47.524  1.00  0.00     0.087 C 
ENDBRANCH  16  17
ENDBRANCH  15  16
ENDBRANCH  13  15
ENDBRANCH  11  12
ENDBRANCH   1  11
TORSDOF 9
ENDMDL
MODEL 8
REMARK VINA RESULT:    -3.241      1.314      4.051
REMARK INTER + INTRA:          -7.960
REMARK INTER:                  -5.250
REMARK INTRA:                  -2.710
REMARK UNBOUND:                -3.014
REMARK SMILES CC(=O)CCC=C(C)CCC=C(C)CCC=C(C)C
REMARK SMILES IDX 10 1 11 2 12 3 13 4 14 5 15 6 16 7 18 8 17 9 19 10 9 11 7 12
REMARK SMILES IDX 6 13 8 14 5 15 4 16 2 17 3 18 1 19
REMARK H PARENT
REMARK Flexibility Score: inf
ROOT
ATOM      1  C   UNL     1     -37.784  -8.624  46.688  1.00  0.00     0.032 C 
ENDROOT
BRANCH   1   2
ATOM      2  C   UNL     1     -38.570  -8.870  47.954  1.00  0.00    -0.028 C 
ATOM      3  C   UNL     1     -39.309  -7.935  48.593  1.00  0.00    -0.077 C 
ATOM      4  C   UNL     1     -39.476  -6.536  48.046  1.00  0.00     0.039 C 
BRANCH   3   5
ATOM      5  C   UNL     1     -39.987  -8.304  49.895  1.00  0.00     0.034 C 
BRANCH   5   6
ATOM      6  C   UNL     1     -39.033  -9.080  50.810  1.00  0.00     0.032 C 
BRANCH   6   7
ATOM      7  C   UNL     1     -38.110  -8.138  51.542  1.00  0.00    -0.028 C 
ATOM      8  C   UNL     1     -36.036  -9.213  50.638  1.00  0.00     0.039 C 
ATOM      9  C   UNL     1     -36.762  -8.169  51.455  1.00  0.00    -0.080 C 
ATOM     10  C   UNL     1     -35.969  -7.138  52.215  1.00  0.00     0.039 C 
ENDBRANCH   6   7
ENDBRANCH   5   6
ENDBRANCH   3   5
ENDBRANCH   1   2
BRANCH   1  11
ATOM     11  C   UNL     1     -36.282  -8.471  46.969  1.00  0.00     0.034 C 
BRANCH  11  12
ATOM     12  C   UNL     1     -35.732  -7.164  46.423  1.00  0.00    -0.077 C 
ATOM     13  C   UNL     1     -35.609  -6.050  47.179  1.00  0.00    -0.028 C 
ATOM     14  C   UNL     1     -35.325  -7.094  44.973  1.00  0.00     0.039 C 
BRANCH  13  15
ATOM     15  C   UNL     1     -35.948  -5.990  48.652  1.00  0.00     0.035 C 
BRANCH  15  16
ATOM     16  C   UNL     1     -35.932  -4.552  49.187  1.00  0.00     0.079 C 
BRANCH  16  17
ATOM     17  C   UNL     1     -37.320  -4.064  49.519  1.00  0.00     0.130 C 
ATOM     18  O   UNL     1     -37.861  -3.247  48.789  1.00  0.00    -0.300 OA
ATOM     19  C   UNL     1     -38.048  -4.550  50.736  1.00  0.00     0.087 C 
ENDBRANCH  16  17
ENDBRANCH  15  16
ENDBRANCH  13  15
ENDBRANCH  11  12
ENDBRANCH   1  11
TORSDOF 9
ENDMDL
MODEL 9
REMARK VINA RESULT:    -3.174      2.236      4.949
REMARK INTER + INTRA:          -7.858
REMARK INTER:                  -5.309
REMARK INTRA:                  -2.549
REMARK UNBOUND:                -3.014
REMARK SMILES CC(=O)CCC=C(C)CCC=C(C)CCC=C(C)C
REMARK SMILES IDX 10 1 11 2 12 3 13 4 14 5 15 6 16 7 18 8 17 9 19 10 9 11 7 12
REMARK SMILES IDX 6 13 8 14 5 15 4 16 2 17 3 18 1 19
REMARK H PARENT
REMARK Flexibility Score: inf
ROOT
ATOM      1  C   UNL     1     -34.359  -8.874  47.156  1.00  0.00     0.032 C 
ENDROOT
BRANCH   1   2
ATOM      2  C   UNL     1     -35.327  -8.399  48.213  1.00  0.00    -0.028 C 
ATOM      3  C   UNL     1     -36.647  -8.191  48.008  1.00  0.00    -0.077 C 
ATOM      4  C   UNL     1     -37.307  -8.489  46.681  1.00  0.00     0.039 C 
BRANCH   3   5
ATOM      5  C   UNL     1     -37.486  -7.644  49.143  1.00  0.00     0.034 C 
BRANCH   5   6
ATOM      6  C   UNL     1     -38.779  -7.012  48.614  1.00  0.00     0.032 C 
BRANCH   6   7
ATOM      7  C   UNL     1     -39.085  -5.729  49.345  1.00  0.00    -0.028 C 
ATOM      8  C   UNL     1     -40.415  -4.779  47.447  1.00  0.00     0.039 C 
ATOM      9  C   UNL     1     -39.840  -4.727  48.843  1.00  0.00    -0.080 C 
ATOM     10  C   UNL     1     -40.093  -3.517  49.705  1.00  0.00     0.039 C 
ENDBRANCH   6   7
ENDBRANCH   5   6
ENDBRANCH   3   5
ENDBRANCH   1   2
BRANCH   1  11
ATOM     11  C   UNL     1     -33.513  -7.720  46.597  1.00  0.00     0.034 C 
BRANCH  11  12
ATOM     12  C   UNL     1     -34.075  -7.184  45.291  1.00  0.00    -0.077 C 
ATOM     13  C   UNL     1     -34.731  -6.005  45.207  1.00  0.00    -0.028 C 
ATOM     14  C   UNL     1     -33.917  -8.007  44.038  1.00  0.00     0.039 C 
BRANCH  13  15
ATOM     15  C   UNL     1     -34.930  -5.067  46.376  1.00  0.00     0.035 C 
BRANCH  15  16
ATOM     16  C   UNL     1     -36.413  -4.762  46.621  1.00  0.00     0.079 C 
BRANCH  16  17
ATOM     17  C   UNL     1     -36.598  -3.646  47.619  1.00  0.00     0.130 C 
ATOM     18  O   UNL     1     -37.256  -2.665  47.310  1.00  0.00    -0.300 OA
ATOM     19  C   UNL     1     -35.979  -3.709  48.984  1.00  0.00     0.087 C 
ENDBRANCH  16  17
ENDBRANCH  15  16
ENDBRANCH  13  15
ENDBRANCH  11  12
ENDBRANCH   1  11
TORSDOF 9
ENDMDL
