MODEL 1
REMARK VINA RESULT:    -4.764      0.000      0.000
REMARK INTER + INTRA:          -6.260
REMARK INTER:                  -5.878
REMARK INTRA:                  -0.381
REMARK UNBOUND:                -0.381
REMARK SMILES Oc1cc(O)c2cc(O)c(-c3cc(O)c(O)c(O)c3)[o+]c2c1
REMARK SMILES IDX 10 1 20 2 21 3 22 4 2 5 3 6 4 7 6 8 7 9 8 10 11 11 12 12
REMARK SMILES IDX 13 13 19 14 15 15 17 16 14 17 16 19 18 21 9 23 1 25 5 27
REMARK H PARENT 14 18 16 20 18 22 9 24 1 26 5 28
REMARK Flexibility Score: inf
ROOT
ATOM      1  C   UNL     1      -3.559  24.082 306.391  1.00  0.00     0.402 A 
ATOM      2  O   UNL     1      -3.924  22.859 306.766  1.00  0.00    -0.202 OA
ATOM      3  C   UNL     1      -3.729  21.777 306.018  1.00  0.00     0.368 A 
ATOM      4  C   UNL     1      -4.146  20.534 306.501  1.00  0.00     0.162 A 
ATOM      5  C   UNL     1      -3.951  19.379 305.737  1.00  0.00     0.128 A 
ATOM      6  C   UNL     1      -3.336  19.469 304.486  1.00  0.00     0.093 A 
ATOM      7  C   UNL     1      -2.909  20.704 303.980  1.00  0.00     0.136 A 
ATOM      8  C   UNL     1      -3.108  21.878 304.751  1.00  0.00     0.125 A 
ATOM      9  C   UNL     1      -2.724  23.159 304.319  1.00  0.00     0.078 A 
ATOM     10  C   UNL     1      -2.957  24.272 305.132  1.00  0.00     0.223 A 
ENDROOT
BRANCH   1  11
ATOM     11  C   UNL     1      -3.822  25.207 307.318  1.00  0.00     0.091 A 
ATOM     12  C   UNL     1      -5.103  25.769 307.373  1.00  0.00     0.068 A 
ATOM     13  C   UNL     1      -5.385  26.818 308.251  1.00  0.00     0.162 A 
ATOM     14  C   UNL     1      -2.827  25.688 308.184  1.00  0.00     0.068 A 
ATOM     15  C   UNL     1      -4.383  27.316 309.104  1.00  0.00     0.200 A 
ATOM     16  C   UNL     1      -3.092  26.736 309.072  1.00  0.00     0.162 A 
BRANCH  13  17
ATOM     17  O   UNL     1      -6.672  27.357 308.261  1.00  0.00    -0.504 OA
ATOM     18  H   UNL     1      -7.012  27.961 307.523  1.00  0.00     0.293 HD
ENDBRANCH  13  17
BRANCH  15  19
ATOM     19  O   UNL     1      -4.704  28.374 309.960  1.00  0.00    -0.502 OA
ATOM     20  H   UNL     1      -4.051  29.088 310.250  1.00  0.00     0.293 HD
ENDBRANCH  15  19
BRANCH  16  21
ATOM     21  O   UNL     1      -2.053  27.160 309.903  1.00  0.00    -0.504 OA
ATOM     22  H   UNL     1      -1.862  26.774 310.816  1.00  0.00     0.293 HD
ENDBRANCH  16  21
ENDBRANCH   1  11
BRANCH  10  23
ATOM     23  O   UNL     1      -2.623  25.549 304.683  1.00  0.00    -0.500 OA
ATOM     24  H   UNL     1      -1.658  25.840 304.574  1.00  0.00     0.294 HD
ENDBRANCH  10  23
BRANCH   5  25
ATOM     25  O   UNL     1      -4.364  18.136 306.211  1.00  0.00    -0.507 OA
ATOM     26  H   UNL     1      -5.142  17.641 305.790  1.00  0.00     0.293 HD
ENDBRANCH   5  25
BRANCH   7  27
ATOM     27  O   UNL     1      -2.299  20.707 302.723  1.00  0.00    -0.507 OA
ATOM     28  H   UNL     1      -1.506  21.281 302.476  1.00  0.00     0.293 HD
ENDBRANCH   7  27
TORSDOF 7
ENDMDL
MODEL 2
REMARK VINA RESULT:    -4.742      0.126      1.808
REMARK INTER + INTRA:          -6.231
REMARK INTER:                  -5.861
REMARK INTRA:                  -0.371
REMARK UNBOUND:                -0.381
REMARK SMILES Oc1cc(O)c2cc(O)c(-c3cc(O)c(O)c(O)c3)[o+]c2c1
REMARK SMILES IDX 10 1 20 2 21 3 22 4 2 5 3 6 4 7 6 8 7 9 8 10 11 11 12 12
REMARK SMILES IDX 13 13 19 14 15 15 17 16 14 17 16 19 18 21 9 23 1 25 5 27
REMARK H PARENT 14 18 16 20 18 22 9 24 1 26 5 28
REMARK Flexibility Score: inf
ROOT
ATOM      1  C   UNL     1      -3.600  24.001 306.348  1.00  0.00     0.402 A 
ATOM      2  O   UNL     1      -3.985  22.781 306.714  1.00  0.00    -0.202 OA
ATOM      3  C   UNL     1      -3.778  21.697 305.973  1.00  0.00     0.368 A 
ATOM      4  C   UNL     1      -4.219  20.458 306.445  1.00  0.00     0.162 A 
ATOM      5  C   UNL     1      -4.011  19.301 305.688  1.00  0.00     0.128 A 
ATOM      6  C   UNL     1      -3.359  19.384 304.454  1.00  0.00     0.093 A 
ATOM      7  C   UNL     1      -2.908  20.615 303.960  1.00  0.00     0.136 A 
ATOM      8  C   UNL     1      -3.119  21.792 304.724  1.00  0.00     0.125 A 
ATOM      9  C   UNL     1      -2.713  23.069 304.302  1.00  0.00     0.078 A 
ATOM     10  C   UNL     1      -2.960  24.185 305.108  1.00  0.00     0.223 A 
ENDROOT
BRANCH   1  11
ATOM     11  C   UNL     1      -3.880  25.129 307.266  1.00  0.00     0.091 A 
ATOM     12  C   UNL     1      -2.873  25.581 308.128  1.00  0.00     0.068 A 
ATOM     13  C   UNL     1      -3.102  26.656 308.991  1.00  0.00     0.162 A 
ATOM     14  C   UNL     1      -5.116  25.793 307.252  1.00  0.00     0.068 A 
ATOM     15  C   UNL     1      -4.349  27.308 308.994  1.00  0.00     0.200 A 
ATOM     16  C   UNL     1      -5.363  26.873 308.107  1.00  0.00     0.162 A 
BRANCH  13  17
ATOM     17  O   UNL     1      -2.075  27.061 309.843  1.00  0.00    -0.504 OA
ATOM     18  H   UNL     1      -1.141  27.264 309.508  1.00  0.00     0.293 HD
ENDBRANCH  13  17
BRANCH  15  19
ATOM     19  O   UNL     1      -4.541  28.372 309.881  1.00  0.00    -0.502 OA
ATOM     20  H   UNL     1      -5.289  29.045 309.806  1.00  0.00     0.293 HD
ENDBRANCH  15  19
BRANCH  16  21
ATOM     21  O   UNL     1      -6.617  27.483 308.036  1.00  0.00    -0.504 OA
ATOM     22  H   UNL     1      -7.199  27.489 307.212  1.00  0.00     0.293 HD
ENDBRANCH  16  21
ENDBRANCH   1  11
BRANCH  10  23
ATOM     23  O   UNL     1      -2.602  25.459 304.667  1.00  0.00    -0.500 OA
ATOM     24  H   UNL     1      -2.342  26.193 305.316  1.00  0.00     0.294 HD
ENDBRANCH  10  23
BRANCH   5  25
ATOM     25  O   UNL     1      -4.447  18.062 306.150  1.00  0.00    -0.507 OA
ATOM     26  H   UNL     1      -5.366  17.944 306.563  1.00  0.00     0.293 HD
ENDBRANCH   5  25
BRANCH   7  27
ATOM     27  O   UNL     1      -2.262  20.612 302.721  1.00  0.00    -0.507 OA
ATOM     28  H   UNL     1      -2.533  20.034 301.938  1.00  0.00     0.293 HD
ENDBRANCH   7  27
TORSDOF 7
ENDMDL
MODEL 3
REMARK VINA RESULT:    -4.554      1.102      3.158
REMARK INTER + INTRA:          -6.000
REMARK INTER:                  -5.639
REMARK INTRA:                  -0.361
REMARK UNBOUND:                -0.381
REMARK SMILES Oc1cc(O)c2cc(O)c(-c3cc(O)c(O)c(O)c3)[o+]c2c1
REMARK SMILES IDX 10 1 20 2 21 3 22 4 2 5 3 6 4 7 6 8 7 9 8 10 11 11 12 12
REMARK SMILES IDX 13 13 19 14 15 15 17 16 14 17 16 19 18 21 9 23 1 25 5 27
REMARK H PARENT 14 18 16 20 18 22 9 24 1 26 5 28
REMARK Flexibility Score: inf
ROOT
ATOM      1  C   UNL     1      -3.819  23.932 306.947  1.00  0.00     0.402 A 
ATOM      2  O   UNL     1      -3.366  24.005 305.699  1.00  0.00    -0.202 OA
ATOM      3  C   UNL     1      -3.156  22.937 304.934  1.00  0.00     0.368 A 
ATOM      4  C   UNL     1      -2.679  23.117 303.633  1.00  0.00     0.162 A 
ATOM      5  C   UNL     1      -2.454  22.012 302.806  1.00  0.00     0.128 A 
ATOM      6  C   UNL     1      -2.708  20.724 303.282  1.00  0.00     0.093 A 
ATOM      7  C   UNL     1      -3.186  20.518 304.583  1.00  0.00     0.136 A 
ATOM      8  C   UNL     1      -3.414  21.636 305.426  1.00  0.00     0.125 A 
ATOM      9  C   UNL     1      -3.880  21.524 306.747  1.00  0.00     0.078 A 
ATOM     10  C   UNL     1      -4.076  22.672 307.521  1.00  0.00     0.223 A 
ENDROOT
BRANCH   1  11
ATOM     11  C   UNL     1      -4.021  25.194 307.695  1.00  0.00     0.091 A 
ATOM     12  C   UNL     1      -2.910  25.874 308.210  1.00  0.00     0.068 A 
ATOM     13  C   UNL     1      -3.068  27.077 308.903  1.00  0.00     0.162 A 
ATOM     14  C   UNL     1      -5.298  25.756 307.851  1.00  0.00     0.068 A 
ATOM     15  C   UNL     1      -4.350  27.630 309.080  1.00  0.00     0.200 A 
ATOM     16  C   UNL     1      -5.474  26.961 308.539  1.00  0.00     0.162 A 
BRANCH  13  17
ATOM     17  O   UNL     1      -1.934  27.711 309.412  1.00  0.00    -0.504 OA
ATOM     18  H   UNL     1      -1.966  28.641 309.810  1.00  0.00     0.293 HD
ENDBRANCH  13  17
BRANCH  15  19
ATOM     19  O   UNL     1      -4.465  28.829 309.788  1.00  0.00    -0.502 OA
ATOM     20  H   UNL     1      -3.981  29.681 309.544  1.00  0.00     0.293 HD
ENDBRANCH  15  19
BRANCH  16  21
ATOM     21  O   UNL     1      -6.774  27.458 308.653  1.00  0.00    -0.504 OA
ATOM     22  H   UNL     1      -7.585  26.887 308.845  1.00  0.00     0.293 HD
ENDBRANCH  16  21
ENDBRANCH   1  11
BRANCH  10  23
ATOM     23  O   UNL     1      -4.491  22.559 308.847  1.00  0.00    -0.500 OA
ATOM     24  H   UNL     1      -3.839  22.345 309.593  1.00  0.00     0.294 HD
ENDBRANCH  10  23
BRANCH   5  25
ATOM     25  O   UNL     1      -1.978  22.183 301.509  1.00  0.00    -0.507 OA
ATOM     26  H   UNL     1      -1.005  22.402 301.326  1.00  0.00     0.293 HD
ENDBRANCH   5  25
BRANCH   7  27
ATOM     27  O   UNL     1      -3.419  19.198 304.981  1.00  0.00    -0.507 OA
ATOM     28  H   UNL     1      -2.733  18.459 304.930  1.00  0.00     0.293 HD
ENDBRANCH   7  27
TORSDOF 7
ENDMDL
MODEL 4
REMARK VINA RESULT:    -4.530      1.170      2.651
REMARK INTER + INTRA:          -5.970
REMARK INTER:                  -5.715
REMARK INTRA:                  -0.255
REMARK UNBOUND:                -0.381
REMARK SMILES Oc1cc(O)c2cc(O)c(-c3cc(O)c(O)c(O)c3)[o+]c2c1
REMARK SMILES IDX 10 1 20 2 21 3 22 4 2 5 3 6 4 7 6 8 7 9 8 10 11 11 12 12
REMARK SMILES IDX 13 13 19 14 15 15 17 16 14 17 16 19 18 21 9 23 1 25 5 27
REMARK H PARENT 14 18 16 20 18 22 9 24 1 26 5 28
REMARK Flexibility Score: inf
ROOT
ATOM      1  C   UNL     1      -3.845  23.891 307.004  1.00  0.00     0.402 A 
ATOM      2  O   UNL     1      -3.402  24.018 305.756  1.00  0.00    -0.202 OA
ATOM      3  C   UNL     1      -3.187  22.984 304.948  1.00  0.00     0.368 A 
ATOM      4  C   UNL     1      -2.722  23.220 303.651  1.00  0.00     0.162 A 
ATOM      5  C   UNL     1      -2.492  22.152 302.780  1.00  0.00     0.128 A 
ATOM      6  C   UNL     1      -2.729  20.842 303.206  1.00  0.00     0.093 A 
ATOM      7  C   UNL     1      -3.194  20.580 304.501  1.00  0.00     0.136 A 
ATOM      8  C   UNL     1      -3.427  21.661 305.390  1.00  0.00     0.125 A 
ATOM      9  C   UNL     1      -3.882  21.492 306.709  1.00  0.00     0.078 A 
ATOM     10  C   UNL     1      -4.084  22.606 307.529  1.00  0.00     0.223 A 
ENDROOT
BRANCH   1  11
ATOM     11  C   UNL     1      -4.053  25.120 307.802  1.00  0.00     0.091 A 
ATOM     12  C   UNL     1      -5.350  25.476 308.192  1.00  0.00     0.068 A 
ATOM     13  C   UNL     1      -5.576  26.620 308.962  1.00  0.00     0.162 A 
ATOM     14  C   UNL     1      -2.973  25.909 308.226  1.00  0.00     0.068 A 
ATOM     15  C   UNL     1      -4.495  27.425 309.368  1.00  0.00     0.200 A 
ATOM     16  C   UNL     1      -3.179  27.057 309.000  1.00  0.00     0.162 A 
BRANCH  13  17
ATOM     17  O   UNL     1      -6.887  26.944 309.313  1.00  0.00    -0.504 OA
ATOM     18  H   UNL     1      -7.104  27.551 310.093  1.00  0.00     0.293 HD
ENDBRANCH  13  17
BRANCH  15  19
ATOM     19  O   UNL     1      -4.765  28.566 310.128  1.00  0.00    -0.502 OA
ATOM     20  H   UNL     1      -4.823  29.500 309.749  1.00  0.00     0.293 HD
ENDBRANCH  15  19
BRANCH  16  21
ATOM     21  O   UNL     1      -2.055  27.790 309.384  1.00  0.00    -0.504 OA
ATOM     22  H   UNL     1      -1.103  27.481 309.253  1.00  0.00     0.293 HD
ENDBRANCH  16  21
ENDBRANCH   1  11
BRANCH  10  23
ATOM     23  O   UNL     1      -4.486  22.437 308.853  1.00  0.00    -0.500 OA
ATOM     24  H   UNL     1      -4.911  23.190 309.382  1.00  0.00     0.294 HD
ENDBRANCH  10  23
BRANCH   5  25
ATOM     25  O   UNL     1      -2.028  22.378 301.486  1.00  0.00    -0.507 OA
ATOM     26  H   UNL     1      -2.357  21.827 300.701  1.00  0.00     0.293 HD
ENDBRANCH   5  25
BRANCH   7  27
ATOM     27  O   UNL     1      -3.410  19.243 304.848  1.00  0.00    -0.507 OA
ATOM     28  H   UNL     1      -3.831  18.557 304.239  1.00  0.00     0.293 HD
ENDBRANCH   7  27
TORSDOF 7
ENDMDL
MODEL 5
REMARK VINA RESULT:    -4.499      1.244      2.437
REMARK INTER + INTRA:          -5.932
REMARK INTER:                  -5.559
REMARK INTRA:                  -0.373
REMARK UNBOUND:                -0.381
REMARK SMILES Oc1cc(O)c2cc(O)c(-c3cc(O)c(O)c(O)c3)[o+]c2c1
REMARK SMILES IDX 10 1 20 2 21 3 22 4 2 5 3 6 4 7 6 8 7 9 8 10 11 11 12 12
REMARK SMILES IDX 13 13 19 14 15 15 17 16 14 17 16 19 18 21 9 23 1 25 5 27
REMARK H PARENT 14 18 16 20 18 22 9 24 1 26 5 28
REMARK Flexibility Score: inf
ROOT
ATOM      1  C   UNL     1      -3.186  24.921 305.718  1.00  0.00     0.402 A 
ATOM      2  O   UNL     1      -3.369  23.604 305.728  1.00  0.00    -0.202 OA
ATOM      3  C   UNL     1      -3.012  22.810 304.723  1.00  0.00     0.368 A 
ATOM      4  C   UNL     1      -3.243  21.436 304.828  1.00  0.00     0.162 A 
ATOM      5  C   UNL     1      -2.875  20.577 303.788  1.00  0.00     0.128 A 
ATOM      6  C   UNL     1      -2.271  21.095 302.639  1.00  0.00     0.093 A 
ATOM      7  C   UNL     1      -2.029  22.469 302.510  1.00  0.00     0.136 A 
ATOM      8  C   UNL     1      -2.404  23.344 303.562  1.00  0.00     0.125 A 
ATOM      9  C   UNL     1      -2.211  24.735 303.515  1.00  0.00     0.078 A 
ATOM     10  C   UNL     1      -2.611  25.535 304.589  1.00  0.00     0.223 A 
ENDROOT
BRANCH   1  11
ATOM     11  C   UNL     1      -3.618  25.698 306.903  1.00  0.00     0.091 A 
ATOM     12  C   UNL     1      -2.679  26.033 307.886  1.00  0.00     0.068 A 
ATOM     13  C   UNL     1      -3.052  26.780 309.005  1.00  0.00     0.162 A 
ATOM     14  C   UNL     1      -4.938  26.154 307.037  1.00  0.00     0.068 A 
ATOM     15  C   UNL     1      -4.382  27.220 309.152  1.00  0.00     0.200 A 
ATOM     16  C   UNL     1      -5.331  26.907 308.149  1.00  0.00     0.162 A 
BRANCH  13  17
ATOM     17  O   UNL     1      -2.086  27.077 309.967  1.00  0.00    -0.504 OA
ATOM     18  H   UNL     1      -2.261  26.979 310.959  1.00  0.00     0.293 HD
ENDBRANCH  13  17
BRANCH  15  19
ATOM     19  O   UNL     1      -4.716  27.956 310.292  1.00  0.00    -0.502 OA
ATOM     20  H   UNL     1      -5.617  27.921 310.746  1.00  0.00     0.293 HD
ENDBRANCH  15  19
BRANCH  16  21
ATOM     21  O   UNL     1      -6.661  27.326 308.212  1.00  0.00    -0.504 OA
ATOM     22  H   UNL     1      -7.367  27.077 307.535  1.00  0.00     0.293 HD
ENDBRANCH  16  21
ENDBRANCH   1  11
BRANCH  10  23
ATOM     23  O   UNL     1      -2.466  26.921 304.522  1.00  0.00    -0.500 OA
ATOM     24  H   UNL     1      -3.007  27.542 305.111  1.00  0.00     0.294 HD
ENDBRANCH  10  23
BRANCH   5  25
ATOM     25  O   UNL     1      -3.103  19.207 303.884  1.00  0.00    -0.507 OA
ATOM     26  H   UNL     1      -2.369  18.533 303.696  1.00  0.00     0.293 HD
ENDBRANCH   5  25
BRANCH   7  27
ATOM     27  O   UNL     1      -1.418  22.906 301.331  1.00  0.00    -0.507 OA
ATOM     28  H   UNL     1      -1.280  23.876 301.087  1.00  0.00     0.293 HD
ENDBRANCH   7  27
TORSDOF 7
ENDMDL
MODEL 6
REMARK VINA RESULT:    -4.276     13.941     16.224
REMARK INTER + INTRA:          -5.657
REMARK INTER:                  -5.602
REMARK INTRA:                  -0.055
REMARK UNBOUND:                -0.381
REMARK SMILES Oc1cc(O)c2cc(O)c(-c3cc(O)c(O)c(O)c3)[o+]c2c1
REMARK SMILES IDX 10 1 20 2 21 3 22 4 2 5 3 6 4 7 6 8 7 9 8 10 11 11 12 12
REMARK SMILES IDX 13 13 19 14 15 15 17 16 14 17 16 19 18 21 9 23 1 25 5 27
REMARK H PARENT 14 18 16 20 18 22 9 24 1 26 5 28
REMARK Flexibility Score: inf
ROOT
ATOM      1  C   UNL     1       8.286  17.487 313.165  1.00  0.00     0.402 A 
ATOM      2  O   UNL     1       7.867  18.725 313.411  1.00  0.00    -0.202 OA
ATOM      3  C   UNL     1       8.632  19.657 313.972  1.00  0.00     0.368 A 
ATOM      4  C   UNL     1       8.101  20.932 314.188  1.00  0.00     0.162 A 
ATOM      5  C   UNL     1       8.884  21.931 314.773  1.00  0.00     0.128 A 
ATOM      6  C   UNL     1      10.203  21.655 315.144  1.00  0.00     0.093 A 
ATOM      7  C   UNL     1      10.757  20.384 314.938  1.00  0.00     0.136 A 
ATOM      8  C   UNL     1       9.965  19.366 314.347  1.00  0.00     0.125 A 
ATOM      9  C   UNL     1      10.433  18.062 314.114  1.00  0.00     0.078 A 
ATOM     10  C   UNL     1       9.592  17.109 313.531  1.00  0.00     0.223 A 
ENDROOT
BRANCH   1  11
ATOM     11  C   UNL     1       7.342  16.542 312.526  1.00  0.00     0.091 A 
ATOM     12  C   UNL     1       6.016  16.483 312.974  1.00  0.00     0.068 A 
ATOM     13  C   UNL     1       5.098  15.615 312.378  1.00  0.00     0.162 A 
ATOM     14  C   UNL     1       7.731  15.742 311.440  1.00  0.00     0.068 A 
ATOM     15  C   UNL     1       5.494  14.795 311.304  1.00  0.00     0.200 A 
ATOM     16  C   UNL     1       6.825  14.869 310.828  1.00  0.00     0.162 A 
BRANCH  13  17
ATOM     17  O   UNL     1       3.793  15.579 312.868  1.00  0.00    -0.504 OA
ATOM     18  H   UNL     1       3.569  15.808 313.829  1.00  0.00     0.293 HD
ENDBRANCH  13  17
BRANCH  15  19
ATOM     19  O   UNL     1       4.548  13.934 310.742  1.00  0.00    -0.502 OA
ATOM     20  H   UNL     1       4.091  14.093 309.856  1.00  0.00     0.293 HD
ENDBRANCH  15  19
BRANCH  16  21
ATOM     21  O   UNL     1       7.286  14.105 309.754  1.00  0.00    -0.504 OA
ATOM     22  H   UNL     1       7.541  13.130 309.818  1.00  0.00     0.293 HD
ENDBRANCH  16  21
ENDBRANCH   1  11
BRANCH  10  23
ATOM     23  O   UNL     1      10.038  15.801 313.346  1.00  0.00    -0.500 OA
ATOM     24  H   UNL     1      10.650  15.347 314.016  1.00  0.00     0.294 HD
ENDBRANCH  10  23
BRANCH   5  25
ATOM     25  O   UNL     1       8.363  23.204 314.992  1.00  0.00    -0.507 OA
ATOM     26  H   UNL     1       8.415  23.927 314.283  1.00  0.00     0.293 HD
ENDBRANCH   5  25
BRANCH   7  27
ATOM     27  O   UNL     1      12.083  20.190 315.333  1.00  0.00    -0.507 OA
ATOM     28  H   UNL     1      12.778  19.709 314.780  1.00  0.00     0.293 HD
ENDBRANCH   7  27
TORSDOF 7
ENDMDL
MODEL 7
REMARK VINA RESULT:    -4.255      1.320      7.275
REMARK INTER + INTRA:          -5.631
REMARK INTER:                  -5.279
REMARK INTRA:                  -0.352
REMARK UNBOUND:                -0.381
REMARK SMILES Oc1cc(O)c2cc(O)c(-c3cc(O)c(O)c(O)c3)[o+]c2c1
REMARK SMILES IDX 10 1 20 2 21 3 22 4 2 5 3 6 4 7 6 8 7 9 8 10 11 11 12 12
REMARK SMILES IDX 13 13 19 14 15 15 17 16 14 17 16 19 18 21 9 23 1 25 5 27
REMARK H PARENT 14 18 16 20 18 22 9 24 1 26 5 28
REMARK Flexibility Score: inf
ROOT
ATOM      1  C   UNL     1      -4.433  23.451 306.813  1.00  0.00     0.402 A 
ATOM      2  O   UNL     1      -3.483  24.344 307.077  1.00  0.00    -0.202 OA
ATOM      3  C   UNL     1      -3.685  25.426 307.823  1.00  0.00     0.368 A 
ATOM      4  C   UNL     1      -2.623  26.306 308.045  1.00  0.00     0.162 A 
ATOM      5  C   UNL     1      -2.807  27.449 308.829  1.00  0.00     0.128 A 
ATOM      6  C   UNL     1      -4.058  27.713 309.392  1.00  0.00     0.093 A 
ATOM      7  C   UNL     1      -5.139  26.846 309.183  1.00  0.00     0.136 A 
ATOM      8  C   UNL     1      -4.957  25.686 308.387  1.00  0.00     0.125 A 
ATOM      9  C   UNL     1      -5.985  24.769 308.114  1.00  0.00     0.078 A 
ATOM     10  C   UNL     1      -5.733  23.649 307.316  1.00  0.00     0.223 A 
ENDROOT
BRANCH   1  11
ATOM     11  C   UNL     1      -4.081  22.281 305.976  1.00  0.00     0.091 A 
ATOM     12  C   UNL     1      -3.901  22.449 304.598  1.00  0.00     0.068 A 
ATOM     13  C   UNL     1      -3.551  21.367 303.786  1.00  0.00     0.162 A 
ATOM     14  C   UNL     1      -3.867  21.015 306.543  1.00  0.00     0.068 A 
ATOM     15  C   UNL     1      -3.359  20.092 304.350  1.00  0.00     0.200 A 
ATOM     16  C   UNL     1      -3.512  19.920 305.746  1.00  0.00     0.162 A 
BRANCH  13  17
ATOM     17  O   UNL     1      -3.398  21.579 302.416  1.00  0.00    -0.504 OA
ATOM     18  H   UNL     1      -2.875  22.361 302.043  1.00  0.00     0.293 HD
ENDBRANCH  13  17
BRANCH  15  19
ATOM     19  O   UNL     1      -3.018  19.034 303.501  1.00  0.00    -0.502 OA
ATOM     20  H   UNL     1      -2.161  18.986 302.971  1.00  0.00     0.293 HD
ENDBRANCH  15  19
BRANCH  16  21
ATOM     21  O   UNL     1      -3.317  18.692 306.382  1.00  0.00    -0.504 OA
ATOM     22  H   UNL     1      -2.441  18.191 306.392  1.00  0.00     0.293 HD
ENDBRANCH  16  21
ENDBRANCH   1  11
BRANCH  10  23
ATOM     23  O   UNL     1      -6.765  22.765 307.003  1.00  0.00    -0.500 OA
ATOM     24  H   UNL     1      -6.934  21.929 307.550  1.00  0.00     0.294 HD
ENDBRANCH  10  23
BRANCH   5  25
ATOM     25  O   UNL     1      -1.753  28.332 309.055  1.00  0.00    -0.507 OA
ATOM     26  H   UNL     1      -1.684  28.866 309.914  1.00  0.00     0.293 HD
ENDBRANCH   5  25
BRANCH   7  27
ATOM     27  O   UNL     1      -6.355  27.179 309.785  1.00  0.00    -0.507 OA
ATOM     28  H   UNL     1      -6.723  28.118 309.845  1.00  0.00     0.293 HD
ENDBRANCH   7  27
TORSDOF 7
ENDMDL
MODEL 8
REMARK VINA RESULT:    -4.134      2.445      7.854
REMARK INTER + INTRA:          -5.481
REMARK INTER:                  -5.199
REMARK INTRA:                  -0.282
REMARK UNBOUND:                -0.381
REMARK SMILES Oc1cc(O)c2cc(O)c(-c3cc(O)c(O)c(O)c3)[o+]c2c1
REMARK SMILES IDX 10 1 20 2 21 3 22 4 2 5 3 6 4 7 6 8 7 9 8 10 11 11 12 12
REMARK SMILES IDX 13 13 19 14 15 15 17 16 14 17 16 19 18 21 9 23 1 25 5 27
REMARK H PARENT 14 18 16 20 18 22 9 24 1 26 5 28
REMARK Flexibility Score: inf
ROOT
ATOM      1  C   UNL     1      -2.683  21.820 304.143  1.00  0.00     0.402 A 
ATOM      2  O   UNL     1      -2.840  23.126 304.340  1.00  0.00    -0.202 OA
ATOM      3  C   UNL     1      -3.326  23.642 305.465  1.00  0.00     0.368 A 
ATOM      4  C   UNL     1      -3.452  25.029 305.578  1.00  0.00     0.162 A 
ATOM      5  C   UNL     1      -3.957  25.598 306.751  1.00  0.00     0.128 A 
ATOM      6  C   UNL     1      -4.336  24.776 307.816  1.00  0.00     0.093 A 
ATOM      7  C   UNL     1      -4.220  23.382 307.726  1.00  0.00     0.136 A 
ATOM      8  C   UNL     1      -3.711  22.801 306.537  1.00  0.00     0.125 A 
ATOM      9  C   UNL     1      -3.570  21.415 306.354  1.00  0.00     0.078 A 
ATOM     10  C   UNL     1      -3.065  20.914 305.150  1.00  0.00     0.223 A 
ENDROOT
BRANCH   1  11
ATOM     11  C   UNL     1      -2.122  21.370 302.848  1.00  0.00     0.091 A 
ATOM     12  C   UNL     1      -0.757  21.549 302.590  1.00  0.00     0.068 A 
ATOM     13  C   UNL     1      -0.196  21.116 301.386  1.00  0.00     0.162 A 
ATOM     14  C   UNL     1      -2.917  20.715 301.895  1.00  0.00     0.068 A 
ATOM     15  C   UNL     1      -0.997  20.480 300.419  1.00  0.00     0.200 A 
ATOM     16  C   UNL     1      -2.372  20.273 300.684  1.00  0.00     0.162 A 
BRANCH  13  17
ATOM     17  O   UNL     1       1.165  21.330 301.166  1.00  0.00    -0.504 OA
ATOM     18  H   UNL     1       1.687  22.047 301.655  1.00  0.00     0.293 HD
ENDBRANCH  13  17
BRANCH  15  19
ATOM     19  O   UNL     1      -0.398  20.072 299.224  1.00  0.00    -0.502 OA
ATOM     20  H   UNL     1      -0.490  19.148 298.830  1.00  0.00     0.293 HD
ENDBRANCH  15  19
BRANCH  16  21
ATOM     21  O   UNL     1      -3.225  19.630 299.786  1.00  0.00    -0.504 OA
ATOM     22  H   UNL     1      -3.654  18.731 299.953  1.00  0.00     0.293 HD
ENDBRANCH  16  21
ENDBRANCH   1  11
BRANCH  10  23
ATOM     23  O   UNL     1      -2.973  19.537 304.949  1.00  0.00    -0.500 OA
ATOM     24  H   UNL     1      -2.737  19.146 304.044  1.00  0.00     0.294 HD
ENDBRANCH  10  23
BRANCH   5  25
ATOM     25  O   UNL     1      -4.086  26.979 306.872  1.00  0.00    -0.507 OA
ATOM     26  H   UNL     1      -4.099  27.583 306.058  1.00  0.00     0.293 HD
ENDBRANCH   5  25
BRANCH   7  27
ATOM     27  O   UNL     1      -4.617  22.632 308.837  1.00  0.00    -0.507 OA
ATOM     28  H   UNL     1      -5.575  22.394 309.050  1.00  0.00     0.293 HD
ENDBRANCH   7  27
TORSDOF 7
ENDMDL
MODEL 9
REMARK VINA RESULT:    -4.089      2.363      7.183
REMARK INTER + INTRA:          -5.426
REMARK INTER:                  -5.052
REMARK INTRA:                  -0.374
REMARK UNBOUND:                -0.381
REMARK SMILES Oc1cc(O)c2cc(O)c(-c3cc(O)c(O)c(O)c3)[o+]c2c1
REMARK SMILES IDX 10 1 20 2 21 3 22 4 2 5 3 6 4 7 6 8 7 9 8 10 11 11 12 12
REMARK SMILES IDX 13 13 19 14 15 15 17 16 14 17 16 19 18 21 9 23 1 25 5 27
REMARK H PARENT 14 18 16 20 18 22 9 24 1 26 5 28
REMARK Flexibility Score: inf
ROOT
ATOM      1  C   UNL     1      -2.718  22.987 304.202  1.00  0.00     0.402 A 
ATOM      2  O   UNL     1      -3.329  22.297 305.161  1.00  0.00    -0.202 OA
ATOM      3  C   UNL     1      -3.814  22.855 306.267  1.00  0.00     0.368 A 
ATOM      4  C   UNL     1      -4.441  22.045 307.217  1.00  0.00     0.162 A 
ATOM      5  C   UNL     1      -4.963  22.606 308.386  1.00  0.00     0.128 A 
ATOM      6  C   UNL     1      -4.857  23.981 308.606  1.00  0.00     0.093 A 
ATOM      7  C   UNL     1      -4.232  24.814 307.669  1.00  0.00     0.136 A 
ATOM      8  C   UNL     1      -3.699  24.249 306.481  1.00  0.00     0.125 A 
ATOM      9  C   UNL     1      -3.046  25.004 305.493  1.00  0.00     0.078 A 
ATOM     10  C   UNL     1      -2.541  24.376 304.350  1.00  0.00     0.223 A 
ENDROOT
BRANCH   1  11
ATOM     11  C   UNL     1      -2.230  22.253 303.012  1.00  0.00     0.091 A 
ATOM     12  C   UNL     1      -0.916  21.769 302.993  1.00  0.00     0.068 A 
ATOM     13  C   UNL     1      -0.434  21.056 301.893  1.00  0.00     0.162 A 
ATOM     14  C   UNL     1      -3.073  21.982 301.924  1.00  0.00     0.068 A 
ATOM     15  C   UNL     1      -1.272  20.803 300.790  1.00  0.00     0.200 A 
ATOM     16  C   UNL     1      -2.609  21.266 300.814  1.00  0.00     0.162 A 
BRANCH  13  17
ATOM     17  O   UNL     1       0.887  20.607 301.911  1.00  0.00    -0.504 OA
ATOM     18  H   UNL     1       1.297  20.099 301.137  1.00  0.00     0.293 HD
ENDBRANCH  13  17
BRANCH  15  19
ATOM     19  O   UNL     1      -0.747  20.095 299.705  1.00  0.00    -0.502 OA
ATOM     20  H   UNL     1      -0.790  19.091 299.608  1.00  0.00     0.293 HD
ENDBRANCH  15  19
BRANCH  16  21
ATOM     21  O   UNL     1      -3.506  21.035 299.770  1.00  0.00    -0.504 OA
ATOM     22  H   UNL     1      -3.291  21.178 298.794  1.00  0.00     0.293 HD
ENDBRANCH  16  21
ENDBRANCH   1  11
BRANCH  10  23
ATOM     23  O   UNL     1      -1.848  25.117 303.393  1.00  0.00    -0.500 OA
ATOM     24  H   UNL     1      -0.876  24.930 303.176  1.00  0.00     0.294 HD
ENDBRANCH  10  23
BRANCH   5  25
ATOM     25  O   UNL     1      -5.589  21.805 309.339  1.00  0.00    -0.507 OA
ATOM     26  H   UNL     1      -6.193  21.037 309.070  1.00  0.00     0.293 HD
ENDBRANCH   5  25
BRANCH   7  27
ATOM     27  O   UNL     1      -4.170  26.179 307.962  1.00  0.00    -0.507 OA
ATOM     28  H   UNL     1      -4.077  26.558 308.893  1.00  0.00     0.293 HD
ENDBRANCH   7  27
TORSDOF 7
ENDMDL
