MODEL 1
REMARK VINA RESULT:    -4.505      0.000      0.000
REMARK INTER + INTRA:          -7.390
REMARK INTER:                  -6.875
REMARK INTRA:                  -0.515
REMARK UNBOUND:                -0.515
REMARK SMILES CC1=CCC[C@@H](C)C(=O)C[C@@H](C(C)C)C(=O)C1
REMARK SMILES IDX 8 1 9 2 6 3 7 4 5 5 4 6 3 7 2 8 1 9 10 11 11 12 15 13 16 14
REMARK SMILES IDX 17 15 12 17 13 18 14 19
REMARK H PARENT
REMARK Flexibility Score: 70.00
ROOT
ATOM      1  C   UNL     1     125.222 177.446 122.162  1.00  0.00     0.136 C 
ATOM      2  O   UNL     1     124.068 177.366 121.768  1.00  0.00    -0.299 OA
ENDROOT
BRANCH   1   3
ATOM      3  C   UNL     1     125.537 177.070 123.616  1.00  0.00     0.053 C 
ATOM      4  C   UNL     1     124.344 177.363 124.533  1.00  0.00     0.016 C 
BRANCH   3   5
ATOM      5  C   UNL     1     126.765 177.885 123.965  1.00  0.00     0.015 C 
BRANCH   5   6
ATOM      6  C   UNL     1     128.202 177.454 123.944  1.00  0.00     0.028 C 
BRANCH   6   7
ATOM      7  C   UNL     1     128.252 175.939 124.179  1.00  0.00    -0.028 C 
ATOM      8  C   UNL     1     128.332 174.895 123.272  1.00  0.00    -0.070 CG0
ATOM      9  C   UNL     1     128.270 173.509 123.872  1.00  0.00     0.039 C 
ATOM     10  G   UNL     1     128.488 174.975 121.725  1.00  0.00     0.000 G0
ENDBRANCH   6   7
ENDBRANCH   5   6
ENDBRANCH   3   5
ENDBRANCH   1   3
BRANCH   1  11
ATOM     11  C   UNL     1     126.313 177.904 121.176  1.00  0.00     0.087 C 
BRANCH  11  12
ATOM     12  C   UNL     1     126.961 176.763 120.305  1.00  0.00     0.066 C 
BRANCH  12  13
ATOM     13  C   UNL     1     127.217 175.378 120.962  1.00  0.00     0.140 C 
ATOM     14  O   UNL     1     126.373 174.511 120.780  1.00  0.00    -0.299 OA
BRANCH  13  15
ATOM     15  C   UNL     1     128.485 174.965 121.723  1.00  0.00     0.106 CG0
ATOM     16  G   UNL     1     128.321 174.912 123.271  1.00  0.00     0.000 G0
ENDBRANCH  13  15
ENDBRANCH  12  13
BRANCH  12  17
ATOM     17  C   UNL     1     128.212 177.285 119.530  1.00  0.00    -0.006 C 
ATOM     18  C   UNL     1     127.876 178.058 118.244  1.00  0.00     0.008 C 
ATOM     19  C   UNL     1     129.136 178.125 120.427  1.00  0.00     0.008 C 
ENDBRANCH  12  17
ENDBRANCH  11  12
ENDBRANCH   1  11
TORSDOF 1
ENDMDL
MODEL 2
REMARK VINA RESULT:    -4.495      1.684      2.283
REMARK INTER + INTRA:          -7.375
REMARK INTER:                  -6.713
REMARK INTRA:                  -0.662
REMARK UNBOUND:                -0.515
REMARK SMILES CC1=CCC[C@@H](C)C(=O)C[C@@H](C(C)C)C(=O)C1
REMARK SMILES IDX 8 1 9 2 6 3 7 4 5 5 4 6 3 7 2 8 1 9 10 11 11 12 15 13 16 14
REMARK SMILES IDX 17 15 12 17 13 18 14 19
REMARK H PARENT
REMARK Flexibility Score: 70.00
ROOT
ATOM      1  C   UNL     1     126.720 177.869 123.066  1.00  0.00     0.136 C 
ATOM      2  O   UNL     1     127.210 178.652 123.866  1.00  0.00    -0.299 OA
ENDROOT
BRANCH   1   3
ATOM      3  C   UNL     1     125.943 176.656 123.597  1.00  0.00     0.053 C 
ATOM      4  C   UNL     1     124.695 177.096 124.371  1.00  0.00     0.016 C 
BRANCH   3   5
ATOM      5  C   UNL     1     126.940 175.909 124.457  1.00  0.00     0.015 C 
BRANCH   5   6
ATOM      6  C   UNL     1     128.341 175.498 124.112  1.00  0.00     0.028 C 
BRANCH   6   7
ATOM      7  C   UNL     1     128.267 174.333 123.116  1.00  0.00    -0.028 C 
ATOM      8  C   UNL     1     128.484 174.310 121.748  1.00  0.00    -0.070 CG0
ATOM      9  C   UNL     1     128.232 172.981 121.074  1.00  0.00     0.039 C 
ATOM     10  G   UNL     1     128.965 175.473 120.831  1.00  0.00     0.000 G0
ENDBRANCH   6   7
ENDBRANCH   5   6
ENDBRANCH   3   5
ENDBRANCH   1   3
BRANCH   1  11
ATOM     11  C   UNL     1     126.889 178.142 121.560  1.00  0.00     0.087 C 
BRANCH  11  12
ATOM     12  C   UNL     1     126.641 176.906 120.615  1.00  0.00     0.066 C 
BRANCH  12  13
ATOM     13  C   UNL     1     127.870 176.166 120.019  1.00  0.00     0.140 C 
ATOM     14  O   UNL     1     128.016 176.217 118.805  1.00  0.00    -0.299 OA
BRANCH  13  15
ATOM     15  C   UNL     1     128.977 175.470 120.823  1.00  0.00     0.106 CG0
ATOM     16  G   UNL     1     128.478 174.328 121.757  1.00  0.00     0.000 G0
ENDBRANCH  13  15
ENDBRANCH  12  13
BRANCH  12  17
ATOM     17  C   UNL     1     125.568 177.232 119.529  1.00  0.00    -0.006 C 
ATOM     18  C   UNL     1     124.120 176.991 119.985  1.00  0.00     0.008 C 
ATOM     19  C   UNL     1     125.721 178.660 118.979  1.00  0.00     0.008 C 
ENDBRANCH  12  17
ENDBRANCH  11  12
ENDBRANCH   1  11
TORSDOF 1
ENDMDL
MODEL 3
REMARK VINA RESULT:    -4.439      2.068      4.929
REMARK INTER + INTRA:          -7.290
REMARK INTER:                  -6.666
REMARK INTRA:                  -0.623
REMARK UNBOUND:                -0.515
REMARK SMILES CC1=CCC[C@@H](C)C(=O)C[C@@H](C(C)C)C(=O)C1
REMARK SMILES IDX 8 1 9 2 6 3 7 4 5 5 4 6 3 7 2 8 1 9 10 11 11 12 15 13 16 14
REMARK SMILES IDX 17 15 12 17 13 18 14 19
REMARK H PARENT
REMARK Flexibility Score: 70.00
ROOT
ATOM      1  C   UNL     1     127.021 175.660 124.005  1.00  0.00     0.136 C 
ATOM      2  O   UNL     1     128.095 175.679 124.586  1.00  0.00    -0.299 OA
ENDROOT
BRANCH   1   3
ATOM      3  C   UNL     1     126.710 174.490 123.059  1.00  0.00     0.053 C 
ATOM      4  C   UNL     1     126.772 173.150 123.800  1.00  0.00     0.016 C 
BRANCH   3   5
ATOM      5  C   UNL     1     127.742 174.606 121.957  1.00  0.00     0.015 C 
BRANCH   5   6
ATOM      6  C   UNL     1     128.313 175.851 121.345  1.00  0.00     0.028 C 
BRANCH   6   7
ATOM      7  C   UNL     1     127.413 176.266 120.174  1.00  0.00    -0.028 C 
ATOM      8  C   UNL     1     126.320 177.116 120.142  1.00  0.00    -0.070 CG0
ATOM      9  C   UNL     1     125.617 177.219 118.808  1.00  0.00     0.039 C 
ATOM     10  G   UNL     1     125.740 177.981 121.300  1.00  0.00     0.000 G0
ENDBRANCH   6   7
ENDBRANCH   5   6
ENDBRANCH   3   5
ENDBRANCH   1   3
BRANCH   1  11
ATOM     11  C   UNL     1     126.017 176.799 124.260  1.00  0.00     0.087 C 
BRANCH  11  12
ATOM     12  C   UNL     1     124.660 176.698 123.466  1.00  0.00     0.066 C 
BRANCH  12  13
ATOM     13  C   UNL     1     124.565 177.362 122.064  1.00  0.00     0.140 C 
ATOM     14  O   UNL     1     123.449 177.472 121.576  1.00  0.00    -0.299 OA
BRANCH  13  15
ATOM     15  C   UNL     1     125.730 177.992 121.287  1.00  0.00     0.106 CG0
ATOM     16  G   UNL     1     126.299 177.102 120.143  1.00  0.00     0.000 G0
ENDBRANCH  13  15
ENDBRANCH  12  13
BRANCH  12  17
ATOM     17  C   UNL     1     123.445 177.067 124.374  1.00  0.00    -0.006 C 
ATOM     18  C   UNL     1     122.536 175.877 124.721  1.00  0.00     0.008 C 
ATOM     19  C   UNL     1     123.885 177.789 125.658  1.00  0.00     0.008 C 
ENDBRANCH  12  17
ENDBRANCH  11  12
ENDBRANCH   1  11
TORSDOF 1
ENDMDL
MODEL 4
REMARK VINA RESULT:    -4.436      1.946      3.931
REMARK INTER + INTRA:          -7.285
REMARK INTER:                  -6.750
REMARK INTRA:                  -0.535
REMARK UNBOUND:                -0.515
REMARK SMILES CC1=CCC[C@@H](C)C(=O)C[C@@H](C(C)C)C(=O)C1
REMARK SMILES IDX 8 1 9 2 6 3 7 4 5 5 4 6 3 7 2 8 1 9 10 11 11 12 15 13 16 14
REMARK SMILES IDX 17 15 12 17 13 18 14 19
REMARK H PARENT
REMARK Flexibility Score: 70.00
ROOT
ATOM      1  C   UNL     1     127.739 175.361 120.336  1.00  0.00     0.136 C 
ATOM      2  O   UNL     1     128.340 175.793 119.364  1.00  0.00    -0.299 OA
ENDROOT
BRANCH   1   3
ATOM      3  C   UNL     1     128.396 174.266 121.189  1.00  0.00     0.053 C 
ATOM      4  C   UNL     1     129.305 173.375 120.336  1.00  0.00     0.016 C 
BRANCH   3   5
ATOM      5  C   UNL     1     127.235 173.512 121.803  1.00  0.00     0.015 C 
BRANCH   5   6
ATOM      6  C   UNL     1     126.903 173.342 123.256  1.00  0.00     0.028 C 
BRANCH   6   7
ATOM      7  C   UNL     1     127.762 174.325 124.063  1.00  0.00    -0.028 C 
ATOM      8  C   UNL     1     127.582 175.675 124.310  1.00  0.00    -0.070 CG0
ATOM      9  C   UNL     1     128.694 176.346 125.083  1.00  0.00     0.039 C 
ATOM     10  G   UNL     1     126.379 176.576 123.902  1.00  0.00     0.000 G0
ENDBRANCH   6   7
ENDBRANCH   5   6
ENDBRANCH   3   5
ENDBRANCH   1   3
BRANCH   1  11
ATOM     11  C   UNL     1     126.356 175.948 120.675  1.00  0.00     0.087 C 
BRANCH  11  12
ATOM     12  C   UNL     1     126.366 177.407 121.268  1.00  0.00     0.066 C 
BRANCH  12  13
ATOM     13  C   UNL     1     126.677 177.596 122.779  1.00  0.00     0.140 C 
ATOM     14  O   UNL     1     127.117 178.684 123.124  1.00  0.00    -0.299 OA
BRANCH  13  15
ATOM     15  C   UNL     1     126.378 176.582 123.892  1.00  0.00     0.106 CG0
ATOM     16  G   UNL     1     127.589 175.691 124.297  1.00  0.00     0.000 G0
ENDBRANCH  13  15
ENDBRANCH  12  13
BRANCH  12  17
ATOM     17  C   UNL     1     125.098 178.205 120.826  1.00  0.00    -0.006 C 
ATOM     18  C   UNL     1     124.948 178.350 119.302  1.00  0.00     0.008 C 
ATOM     19  C   UNL     1     123.811 177.623 121.432  1.00  0.00     0.008 C 
ENDBRANCH  12  17
ENDBRANCH  11  12
ENDBRANCH   1  11
TORSDOF 1
ENDMDL
MODEL 5
REMARK VINA RESULT:    -4.370      6.863      9.497
REMARK INTER + INTRA:          -7.184
REMARK INTER:                  -6.786
REMARK INTRA:                  -0.398
REMARK UNBOUND:                -0.515
REMARK SMILES CC1=CCC[C@@H](C)C(=O)C[C@@H](C(C)C)C(=O)C1
REMARK SMILES IDX 8 1 9 2 6 3 7 4 5 5 4 6 3 7 2 8 1 9 10 11 11 12 15 13 16 14
REMARK SMILES IDX 17 15 12 17 13 18 14 19
REMARK H PARENT
REMARK Flexibility Score: 70.00
ROOT
ATOM      1  C   UNL     1     120.184 179.106 124.633  1.00  0.00     0.136 C 
ATOM      2  O   UNL     1     120.311 179.863 125.584  1.00  0.00    -0.299 OA
ENDROOT
BRANCH   1   3
ATOM      3  C   UNL     1     121.391 178.859 123.717  1.00  0.00     0.053 C 
ATOM      4  C   UNL     1     121.074 179.250 122.269  1.00  0.00     0.016 C 
BRANCH   3   5
ATOM      5  C   UNL     1     121.698 177.385 123.878  1.00  0.00     0.015 C 
BRANCH   5   6
ATOM      6  C   UNL     1     122.070 176.645 125.129  1.00  0.00     0.028 C 
BRANCH   6   7
ATOM      7  C   UNL     1     120.998 175.580 125.393  1.00  0.00    -0.028 C 
ATOM      8  C   UNL     1     119.917 175.594 126.259  1.00  0.00    -0.070 CG0
ATOM      9  C   UNL     1     119.116 174.313 126.315  1.00  0.00     0.039 C 
ATOM     10  G   UNL     1     119.425 176.761 127.165  1.00  0.00     0.000 G0
ENDBRANCH   6   7
ENDBRANCH   5   6
ENDBRANCH   3   5
ENDBRANCH   1   3
BRANCH   1  11
ATOM     11  C   UNL     1     118.825 178.418 124.406  1.00  0.00     0.087 C 
BRANCH  11  12
ATOM     12  C   UNL     1     117.848 178.424 125.642  1.00  0.00     0.066 C 
BRANCH  12  13
ATOM     13  C   UNL     1     118.064 177.376 126.769  1.00  0.00     0.140 C 
ATOM     14  O   UNL     1     117.064 176.932 127.315  1.00  0.00    -0.299 OA
BRANCH  13  15
ATOM     15  C   UNL     1     119.411 176.766 127.182  1.00  0.00     0.106 CG0
ATOM     16  G   UNL     1     119.912 175.618 126.257  1.00  0.00     0.000 G0
ENDBRANCH  13  15
ENDBRANCH  12  13
BRANCH  12  17
ATOM     17  C   UNL     1     116.357 178.492 125.182  1.00  0.00    -0.006 C 
ATOM     18  C   UNL     1     115.507 179.508 125.961  1.00  0.00     0.008 C 
ATOM     19  C   UNL     1     116.231 178.743 123.671  1.00  0.00     0.008 C 
ENDBRANCH  12  17
ENDBRANCH  11  12
ENDBRANCH   1  11
TORSDOF 1
ENDMDL
MODEL 6
REMARK VINA RESULT:    -4.361      5.508      8.455
REMARK INTER + INTRA:          -7.170
REMARK INTER:                  -6.769
REMARK INTRA:                  -0.401
REMARK UNBOUND:                -0.515
REMARK SMILES CC1=CCC[C@@H](C)C(=O)C[C@@H](C(C)C)C(=O)C1
REMARK SMILES IDX 8 1 9 2 6 3 7 4 5 5 4 6 3 7 2 8 1 9 10 11 11 12 15 13 16 14
REMARK SMILES IDX 17 15 12 17 13 18 14 19
REMARK H PARENT
REMARK Flexibility Score: 70.00
ROOT
ATOM      1  C   UNL     1     121.873 177.613 123.880  1.00  0.00     0.136 C 
ATOM      2  O   UNL     1     122.262 178.228 122.899  1.00  0.00    -0.299 OA
ENDROOT
BRANCH   1   3
ATOM      3  C   UNL     1     122.866 176.719 124.636  1.00  0.00     0.053 C 
ATOM      4  C   UNL     1     124.258 176.778 123.999  1.00  0.00     0.016 C 
BRANCH   3   5
ATOM      5  C   UNL     1     122.251 175.336 124.586  1.00  0.00     0.015 C 
BRANCH   5   6
ATOM      6  C   UNL     1     122.200 174.302 125.672  1.00  0.00     0.028 C 
BRANCH   6   7
ATOM      7  C   UNL     1     120.851 173.577 125.580  1.00  0.00    -0.028 C 
ATOM      8  C   UNL     1     119.628 173.886 126.153  1.00  0.00    -0.070 CG0
ATOM      9  C   UNL     1     118.526 172.880 125.911  1.00  0.00     0.039 C 
ATOM     10  G   UNL     1     119.251 175.138 126.999  1.00  0.00     0.000 G0
ENDBRANCH   6   7
ENDBRANCH   5   6
ENDBRANCH   3   5
ENDBRANCH   1   3
BRANCH   1  11
ATOM     11  C   UNL     1     120.408 177.776 124.328  1.00  0.00     0.087 C 
BRANCH  11  12
ATOM     12  C   UNL     1     120.127 177.477 125.849  1.00  0.00     0.066 C 
BRANCH  12  13
ATOM     13  C   UNL     1     119.030 176.439 126.214  1.00  0.00     0.140 C 
ATOM     14  O   UNL     1     117.915 176.620 125.746  1.00  0.00    -0.299 OA
BRANCH  13  15
ATOM     15  C   UNL     1     119.246 175.150 127.018  1.00  0.00     0.106 CG0
ATOM     16  G   UNL     1     119.629 173.909 126.159  1.00  0.00     0.000 G0
ENDBRANCH  13  15
ENDBRANCH  12  13
BRANCH  12  17
ATOM     17  C   UNL     1     119.980 178.800 126.666  1.00  0.00    -0.006 C 
ATOM     18  C   UNL     1     120.984 178.939 127.821  1.00  0.00     0.008 C 
ATOM     19  C   UNL     1     120.033 180.043 125.763  1.00  0.00     0.008 C 
ENDBRANCH  12  17
ENDBRANCH  11  12
ENDBRANCH   1  11
TORSDOF 1
ENDMDL
MODEL 7
REMARK VINA RESULT:    -4.353      2.273      4.396
REMARK INTER + INTRA:          -7.159
REMARK INTER:                  -6.887
REMARK INTRA:                  -0.272
REMARK UNBOUND:                -0.515
REMARK SMILES CC1=CCC[C@@H](C)C(=O)C[C@@H](C(C)C)C(=O)C1
REMARK SMILES IDX 8 1 9 2 6 3 7 4 5 5 4 6 3 7 2 8 1 9 10 11 11 12 15 13 16 14
REMARK SMILES IDX 17 15 12 17 13 18 14 19
REMARK H PARENT
REMARK Flexibility Score: 70.00
ROOT
ATOM      1  C   UNL     1     125.846 176.565 121.717  1.00  0.00     0.136 C 
ATOM      2  O   UNL     1     126.282 176.887 122.812  1.00  0.00    -0.299 OA
ENDROOT
BRANCH   1   3
ATOM      3  C   UNL     1     124.813 177.472 121.033  1.00  0.00     0.053 C 
ATOM      4  C   UNL     1     123.473 177.440 121.776  1.00  0.00     0.016 C 
BRANCH   3   5
ATOM      5  C   UNL     1     124.717 176.944 119.617  1.00  0.00     0.015 C 
BRANCH   5   6
ATOM      6  C   UNL     1     125.417 177.447 118.389  1.00  0.00     0.028 C 
BRANCH   6   7
ATOM      7  C   UNL     1     126.724 178.122 118.825  1.00  0.00    -0.028 C 
ATOM      8  C   UNL     1     127.986 177.585 119.020  1.00  0.00    -0.070 CG0
ATOM      9  C   UNL     1     129.027 178.550 119.542  1.00  0.00     0.039 C 
ATOM     10  G   UNL     1     128.463 176.126 118.759  1.00  0.00     0.000 G0
ENDBRANCH   6   7
ENDBRANCH   5   6
ENDBRANCH   3   5
ENDBRANCH   1   3
BRANCH   1  11
ATOM     11  C   UNL     1     126.366 175.272 121.061  1.00  0.00     0.087 C 
BRANCH  11  12
ATOM     12  C   UNL     1     127.911 175.008 121.215  1.00  0.00     0.066 C 
BRANCH  12  13
ATOM     13  C   UNL     1     128.846 175.329 120.017  1.00  0.00     0.140 C 
ATOM     14  O   UNL     1     129.967 174.839 120.038  1.00  0.00    -0.299 OA
BRANCH  13  15
ATOM     15  C   UNL     1     128.455 176.112 118.756  1.00  0.00     0.106 CG0
ATOM     16  G   UNL     1     127.988 177.574 119.022  1.00  0.00     0.000 G0
ENDBRANCH  13  15
ENDBRANCH  12  13
BRANCH  12  17
ATOM     17  C   UNL     1     128.185 173.590 121.810  1.00  0.00    -0.006 C 
ATOM     18  C   UNL     1     128.153 173.537 123.346  1.00  0.00     0.008 C 
ATOM     19  C   UNL     1     127.242 172.527 121.223  1.00  0.00     0.008 C 
ENDBRANCH  12  17
ENDBRANCH  11  12
ENDBRANCH   1  11
TORSDOF 1
ENDMDL
MODEL 8
REMARK VINA RESULT:    -4.267      5.991      9.147
REMARK INTER + INTRA:          -7.027
REMARK INTER:                  -6.454
REMARK INTRA:                  -0.573
REMARK UNBOUND:                -0.515
REMARK SMILES CC1=CCC[C@@H](C)C(=O)C[C@@H](C(C)C)C(=O)C1
REMARK SMILES IDX 8 1 9 2 6 3 7 4 5 5 4 6 3 7 2 8 1 9 10 11 11 12 15 13 16 14
REMARK SMILES IDX 17 15 12 17 13 18 14 19
REMARK H PARENT
REMARK Flexibility Score: 70.00
ROOT
ATOM      1  C   UNL     1     122.392 177.055 125.547  1.00  0.00     0.136 C 
ATOM      2  O   UNL     1     123.301 177.801 125.877  1.00  0.00    -0.299 OA
ENDROOT
BRANCH   1   3
ATOM      3  C   UNL     1     121.993 176.981 124.066  1.00  0.00     0.053 C 
ATOM      4  C   UNL     1     123.200 177.232 123.156  1.00  0.00     0.016 C 
BRANCH   3   5
ATOM      5  C   UNL     1     120.908 178.026 123.910  1.00  0.00     0.015 C 
BRANCH   5   6
ATOM      6  C   UNL     1     120.321 178.920 124.962  1.00  0.00     0.028 C 
BRANCH   6   7
ATOM      7  C   UNL     1     118.804 178.696 124.991  1.00  0.00    -0.028 C 
ATOM      8  C   UNL     1     118.050 177.765 125.686  1.00  0.00    -0.070 CG0
ATOM      9  C   UNL     1     116.566 177.786 125.396  1.00  0.00     0.039 C 
ATOM     10  G   UNL     1     118.538 176.717 126.729  1.00  0.00     0.000 G0
ENDBRANCH   6   7
ENDBRANCH   5   6
ENDBRANCH   3   5
ENDBRANCH   1   3
BRANCH   1  11
ATOM     11  C   UNL     1     121.698 176.206 126.629  1.00  0.00     0.087 C 
BRANCH  11  12
ATOM     12  C   UNL     1     120.683 175.126 126.094  1.00  0.00     0.066 C 
BRANCH  12  13
ATOM     13  C   UNL     1     119.162 175.440 126.149  1.00  0.00     0.140 C 
ATOM     14  O   UNL     1     118.399 174.565 125.764  1.00  0.00    -0.299 OA
BRANCH  13  15
ATOM     15  C   UNL     1     118.527 176.704 126.745  1.00  0.00     0.106 CG0
ATOM     16  G   UNL     1     118.058 177.750 125.691  1.00  0.00     0.000 G0
ENDBRANCH  13  15
ENDBRANCH  12  13
BRANCH  12  17
ATOM     17  C   UNL     1     121.011 173.711 126.667  1.00  0.00    -0.006 C 
ATOM     18  C   UNL     1     122.295 173.085 126.098  1.00  0.00     0.008 C 
ATOM     19  C   UNL     1     121.058 173.709 128.204  1.00  0.00     0.008 C 
ENDBRANCH  12  17
ENDBRANCH  11  12
ENDBRANCH   1  11
TORSDOF 1
ENDMDL
MODEL 9
REMARK VINA RESULT:    -4.188      5.866      8.861
REMARK INTER + INTRA:          -6.907
REMARK INTER:                  -6.533
REMARK INTRA:                  -0.374
REMARK UNBOUND:                -0.515
REMARK SMILES CC1=CCC[C@@H](C)C(=O)C[C@@H](C(C)C)C(=O)C1
REMARK SMILES IDX 8 1 9 2 6 3 7 4 5 5 4 6 3 7 2 8 1 9 10 11 11 12 15 13 16 14
REMARK SMILES IDX 17 15 12 17 13 18 14 19
REMARK H PARENT
REMARK Flexibility Score: 70.00
ROOT
ATOM      1  C   UNL     1     121.588 175.000 125.755  1.00  0.00     0.136 C 
ATOM      2  O   UNL     1     122.543 174.246 125.650  1.00  0.00    -0.299 OA
ENDROOT
BRANCH   1   3
ATOM      3  C   UNL     1     120.609 174.798 126.920  1.00  0.00     0.053 C 
ATOM      4  C   UNL     1     120.497 173.317 127.297  1.00  0.00     0.016 C 
BRANCH   3   5
ATOM      5  C   UNL     1     119.302 175.384 126.428  1.00  0.00     0.015 C 
BRANCH   5   6
ATOM      6  C   UNL     1     118.489 176.486 127.041  1.00  0.00     0.028 C 
BRANCH   6   7
ATOM      7  C   UNL     1     117.704 177.182 125.922  1.00  0.00    -0.028 C 
ATOM      8  C   UNL     1     117.981 178.346 125.225  1.00  0.00    -0.070 CG0
ATOM      9  C   UNL     1     116.920 178.779 124.239  1.00  0.00     0.039 C 
ATOM     10  G   UNL     1     119.246 179.249 125.325  1.00  0.00     0.000 G0
ENDBRANCH   6   7
ENDBRANCH   5   6
ENDBRANCH   3   5
ENDBRANCH   1   3
BRANCH   1  11
ATOM     11  C   UNL     1     121.416 176.131 124.724  1.00  0.00     0.087 C 
BRANCH  11  12
ATOM     12  C   UNL     1     121.444 177.592 125.311  1.00  0.00     0.066 C 
BRANCH  12  13
ATOM     13  C   UNL     1     120.515 178.667 124.681  1.00  0.00     0.140 C 
ATOM     14  O   UNL     1     120.762 179.013 123.534  1.00  0.00    -0.299 OA
BRANCH  13  15
ATOM     15  C   UNL     1     119.252 179.253 125.327  1.00  0.00     0.106 CG0
ATOM     16  G   UNL     1     117.991 178.347 125.218  1.00  0.00     0.000 G0
ENDBRANCH  13  15
ENDBRANCH  12  13
BRANCH  12  17
ATOM     17  C   UNL     1     122.910 178.107 125.476  1.00  0.00    -0.006 C 
ATOM     18  C   UNL     1     123.414 178.109 126.928  1.00  0.00     0.008 C 
ATOM     19  C   UNL     1     123.893 177.343 124.574  1.00  0.00     0.008 C 
ENDBRANCH  12  17
ENDBRANCH  11  12
ENDBRANCH   1  11
TORSDOF 1
ENDMDL
