MODEL 1
REMARK VINA RESULT:    -4.434      0.000      0.000
REMARK INTER + INTRA:          -8.398
REMARK INTER:                  -7.544
REMARK INTRA:                  -0.854
REMARK UNBOUND:                -0.854
REMARK SMILES CCCCCCCCCCCCCC(=O)[O-]
REMARK SMILES IDX 8 1 9 2 10 3 11 4 12 5 13 6 14 7 15 8 16 9 7 10 6 11 5 12
REMARK SMILES IDX 4 13 3 14 2 15 1 16
REMARK H PARENT
REMARK Flexibility Score: inf
ROOT
ATOM      1  C   UNL     1      31.106  -5.033 -15.617  1.00  0.00     0.000 C 
ENDROOT
BRANCH   1   2
ATOM      2  C   UNL     1      29.910  -5.825 -15.066  1.00  0.00     0.000 C 
BRANCH   2   3
ATOM      3  C   UNL     1      30.021  -7.333 -15.337  1.00  0.00     0.000 C 
BRANCH   3   4
ATOM      4  C   UNL     1      29.699  -8.142 -14.072  1.00  0.00     0.000 C 
BRANCH   4   5
ATOM      5  C   UNL     1      29.921  -7.338 -12.781  1.00  0.00     0.006 C 
BRANCH   5   6
ATOM      6  C   UNL     1      31.397  -7.286 -12.364  1.00  0.00     0.053 C 
BRANCH   6   7
ATOM      7  C   UNL     1      31.684  -6.019 -11.621  1.00  0.00     0.041 C 
ATOM      8  O   UNL     1      31.057  -4.964 -11.901  1.00  0.00    -0.550 OA
ATOM      9  O   UNL     1      32.611  -6.014 -10.587  1.00  0.00    -0.550 OA
ENDBRANCH   6   7
ENDBRANCH   5   6
ENDBRANCH   4   5
ENDBRANCH   3   4
ENDBRANCH   2   3
ENDBRANCH   1   2
BRANCH   1  10
ATOM     10  C   UNL     1      32.107  -5.920 -16.372  1.00  0.00     0.000 C 
BRANCH  10  11
ATOM     11  C   UNL     1      33.390  -5.141 -16.698  1.00  0.00    -0.000 C 
BRANCH  11  12
ATOM     12  C   UNL     1      33.968  -5.494 -18.080  1.00  0.00    -0.000 C 
BRANCH  12  13
ATOM     13  C   UNL     1      35.503  -5.632 -18.131  1.00  0.00    -0.000 C 
BRANCH  13  14
ATOM     14  C   UNL     1      36.284  -4.483 -17.469  1.00  0.00    -0.000 C 
BRANCH  14  15
ATOM     15  C   UNL     1      37.459  -4.975 -16.615  1.00  0.00    -0.003 C 
ATOM     16  C   UNL     1      37.525  -6.499 -16.597  1.00  0.00     0.004 C 
ENDBRANCH  14  15
ENDBRANCH  13  14
ENDBRANCH  12  13
ENDBRANCH  11  12
ENDBRANCH  10  11
ENDBRANCH   1  10
TORSDOF 12
ENDMDL
MODEL 2
REMARK VINA RESULT:    -4.422      2.974      6.446
REMARK INTER + INTRA:          -8.379
REMARK INTER:                  -7.219
REMARK INTRA:                  -1.159
REMARK UNBOUND:                -0.854
REMARK SMILES CCCCCCCCCCCCCC(=O)[O-]
REMARK SMILES IDX 8 1 9 2 10 3 11 4 12 5 13 6 14 7 15 8 16 9 7 10 6 11 5 12
REMARK SMILES IDX 4 13 3 14 2 15 1 16
REMARK H PARENT
REMARK Flexibility Score: inf
ROOT
ATOM      1  C   UNL     1      30.841  -6.870 -16.105  1.00  0.00     0.000 C 
ENDROOT
BRANCH   1   2
ATOM      2  C   UNL     1      31.447  -5.468 -15.936  1.00  0.00     0.000 C 
BRANCH   2   3
ATOM      3  C   UNL     1      32.966  -5.447 -16.167  1.00  0.00     0.000 C 
BRANCH   3   4
ATOM      4  C   UNL     1      33.294  -5.064 -17.618  1.00  0.00     0.000 C 
BRANCH   4   5
ATOM      5  C   UNL     1      34.729  -5.439 -18.020  1.00  0.00     0.006 C 
BRANCH   5   6
ATOM      6  C   UNL     1      35.606  -5.800 -16.814  1.00  0.00     0.053 C 
BRANCH   6   7
ATOM      7  C   UNL     1      36.882  -5.020 -16.845  1.00  0.00     0.041 C 
ATOM      8  O   UNL     1      37.857  -5.369 -16.129  1.00  0.00    -0.550 OA
ATOM      9  O   UNL     1      37.013  -3.934 -17.702  1.00  0.00    -0.550 OA
ENDBRANCH   6   7
ENDBRANCH   5   6
ENDBRANCH   4   5
ENDBRANCH   3   4
ENDBRANCH   2   3
ENDBRANCH   1   2
BRANCH   1  10
ATOM     10  C   UNL     1      29.490  -7.022 -15.391  1.00  0.00     0.000 C 
BRANCH  10  11
ATOM     11  C   UNL     1      29.583  -8.056 -14.259  1.00  0.00    -0.000 C 
BRANCH  11  12
ATOM     12  C   UNL     1      29.486  -7.422 -12.859  1.00  0.00    -0.000 C 
BRANCH  12  13
ATOM     13  C   UNL     1      29.542  -5.881 -12.835  1.00  0.00    -0.000 C 
BRANCH  13  14
ATOM     14  C   UNL     1      30.823  -5.285 -12.224  1.00  0.00    -0.000 C 
BRANCH  14  15
ATOM     15  C   UNL     1      31.965  -6.304 -12.121  1.00  0.00    -0.003 C 
ATOM     16  C   UNL     1      32.558  -6.324 -10.716  1.00  0.00     0.004 C 
ENDBRANCH  14  15
ENDBRANCH  13  14
ENDBRANCH  12  13
ENDBRANCH  11  12
ENDBRANCH  10  11
ENDBRANCH   1  10
TORSDOF 12
ENDMDL
MODEL 3
REMARK VINA RESULT:    -4.094      1.040      1.730
REMARK INTER + INTRA:          -7.819
REMARK INTER:                  -7.708
REMARK INTRA:                  -0.111
REMARK UNBOUND:                -0.854
REMARK SMILES CCCCCCCCCCCCCC(=O)[O-]
REMARK SMILES IDX 8 1 9 2 10 3 11 4 12 5 13 6 14 7 15 8 16 9 7 10 6 11 5 12
REMARK SMILES IDX 4 13 3 14 2 15 1 16
REMARK H PARENT
REMARK Flexibility Score: inf
ROOT
ATOM      1  C   UNL     1      29.970  -6.495 -15.647  1.00  0.00     0.000 C 
ENDROOT
BRANCH   1   2
ATOM      2  C   UNL     1      29.979  -7.805 -14.842  1.00  0.00     0.000 C 
BRANCH   2   3
ATOM      3  C   UNL     1      29.596  -7.598 -13.369  1.00  0.00     0.000 C 
BRANCH   3   4
ATOM      4  C   UNL     1      29.004  -6.198 -13.148  1.00  0.00     0.000 C 
BRANCH   4   5
ATOM      5  C   UNL     1      29.687  -5.440 -11.999  1.00  0.00     0.006 C 
BRANCH   5   6
ATOM      6  C   UNL     1      31.154  -5.107 -12.301  1.00  0.00     0.053 C 
BRANCH   6   7
ATOM      7  C   UNL     1      32.061  -5.884 -11.400  1.00  0.00     0.041 C 
ATOM      8  O   UNL     1      32.228  -5.525 -10.205  1.00  0.00    -0.550 OA
ATOM      9  O   UNL     1      32.686  -7.034 -11.867  1.00  0.00    -0.550 OA
ENDBRANCH   6   7
ENDBRANCH   5   6
ENDBRANCH   4   5
ENDBRANCH   3   4
ENDBRANCH   2   3
ENDBRANCH   1   2
BRANCH   1  10
ATOM     10  C   UNL     1      31.178  -5.600 -15.334  1.00  0.00     0.000 C 
BRANCH  10  11
ATOM     11  C   UNL     1      31.896  -5.179 -16.625  1.00  0.00    -0.000 C 
BRANCH  11  12
ATOM     12  C   UNL     1      33.396  -5.529 -16.616  1.00  0.00    -0.000 C 
BRANCH  12  13
ATOM     13  C   UNL     1      34.146  -5.223 -17.927  1.00  0.00    -0.000 C 
BRANCH  13  14
ATOM     14  C   UNL     1      35.586  -5.763 -17.996  1.00  0.00    -0.000 C 
BRANCH  14  15
ATOM     15  C   UNL     1      36.178  -6.060 -16.611  1.00  0.00    -0.003 C 
ATOM     16  C   UNL     1      37.659  -5.699 -16.559  1.00  0.00     0.004 C 
ENDBRANCH  14  15
ENDBRANCH  13  14
ENDBRANCH  12  13
ENDBRANCH  11  12
ENDBRANCH  10  11
ENDBRANCH   1  10
TORSDOF 12
ENDMDL
MODEL 4
REMARK VINA RESULT:    -3.676      2.864      3.713
REMARK INTER + INTRA:          -7.109
REMARK INTER:                  -7.068
REMARK INTRA:                  -0.042
REMARK UNBOUND:                -0.854
REMARK SMILES CCCCCCCCCCCCCC(=O)[O-]
REMARK SMILES IDX 8 1 9 2 10 3 11 4 12 5 13 6 14 7 15 8 16 9 7 10 6 11 5 12
REMARK SMILES IDX 4 13 3 14 2 15 1 16
REMARK H PARENT
REMARK Flexibility Score: inf
ROOT
ATOM      1  C   UNL     1      31.102  -5.258 -15.528  1.00  0.00     0.000 C 
ENDROOT
BRANCH   1   2
ATOM      2  C   UNL     1      30.741  -5.357 -14.037  1.00  0.00     0.000 C 
BRANCH   2   3
ATOM      3  C   UNL     1      29.378  -6.022 -13.799  1.00  0.00     0.000 C 
BRANCH   3   4
ATOM      4  C   UNL     1      29.550  -7.486 -13.366  1.00  0.00     0.000 C 
BRANCH   4   5
ATOM      5  C   UNL     1      29.871  -8.419 -14.544  1.00  0.00     0.006 C 
BRANCH   5   6
ATOM      6  C   UNL     1      29.335  -7.889 -15.881  1.00  0.00     0.053 C 
BRANCH   6   7
ATOM      7  C   UNL     1      29.385  -8.960 -16.924  1.00  0.00     0.041 C 
ATOM      8  O   UNL     1      30.418  -9.666 -17.059  1.00  0.00    -0.550 OA
ATOM      9  O   UNL     1      28.272  -9.211 -17.717  1.00  0.00    -0.550 OA
ENDBRANCH   6   7
ENDBRANCH   5   6
ENDBRANCH   4   5
ENDBRANCH   3   4
ENDBRANCH   2   3
ENDBRANCH   1   2
BRANCH   1  10
ATOM     10  C   UNL     1      32.593  -5.507 -15.794  1.00  0.00     0.000 C 
BRANCH  10  11
ATOM     11  C   UNL     1      32.948  -5.192 -17.256  1.00  0.00    -0.000 C 
BRANCH  11  12
ATOM     12  C   UNL     1      34.424  -5.477 -17.588  1.00  0.00    -0.000 C 
BRANCH  12  13
ATOM     13  C   UNL     1      35.313  -5.817 -16.375  1.00  0.00    -0.000 C 
BRANCH  13  14
ATOM     14  C   UNL     1      36.804  -5.473 -16.542  1.00  0.00    -0.000 C 
BRANCH  14  15
ATOM     15  C   UNL     1      37.133  -4.907 -17.930  1.00  0.00    -0.003 C 
ATOM     16  C   UNL     1      36.834  -3.412 -17.998  1.00  0.00     0.004 C 
ENDBRANCH  14  15
ENDBRANCH  13  14
ENDBRANCH  12  13
ENDBRANCH  11  12
ENDBRANCH  10  11
ENDBRANCH   1  10
TORSDOF 12
ENDMDL
MODEL 5
REMARK VINA RESULT:    -3.440      3.289      6.655
REMARK INTER + INTRA:          -6.707
REMARK INTER:                  -6.583
REMARK INTRA:                  -0.123
REMARK UNBOUND:                -0.854
REMARK SMILES CCCCCCCCCCCCCC(=O)[O-]
REMARK SMILES IDX 8 1 9 2 10 3 11 4 12 5 13 6 14 7 15 8 16 9 7 10 6 11 5 12
REMARK SMILES IDX 4 13 3 14 2 15 1 16
REMARK H PARENT
REMARK Flexibility Score: inf
ROOT
ATOM      1  C   UNL     1      32.255  -6.012 -16.238  1.00  0.00     0.000 C 
ENDROOT
BRANCH   1   2
ATOM      2  C   UNL     1      33.170  -4.927 -16.830  1.00  0.00     0.000 C 
BRANCH   2   3
ATOM      3  C   UNL     1      33.947  -5.415 -18.062  1.00  0.00     0.000 C 
BRANCH   3   4
ATOM      4  C   UNL     1      35.146  -6.280 -17.646  1.00  0.00     0.000 C 
BRANCH   4   5
ATOM      5  C   UNL     1      35.709  -5.890 -16.271  1.00  0.00     0.006 C 
BRANCH   5   6
ATOM      6  C   UNL     1      36.973  -5.026 -16.372  1.00  0.00     0.053 C 
BRANCH   6   7
ATOM      7  C   UNL     1      37.048  -4.367 -17.713  1.00  0.00     0.041 C 
ATOM      8  O   UNL     1      37.485  -5.003 -18.708  1.00  0.00    -0.550 OA
ATOM      9  O   UNL     1      36.590  -3.065 -17.875  1.00  0.00    -0.550 OA
ENDBRANCH   6   7
ENDBRANCH   5   6
ENDBRANCH   4   5
ENDBRANCH   3   4
ENDBRANCH   2   3
ENDBRANCH   1   2
BRANCH   1  10
ATOM     10  C   UNL     1      30.969  -5.434 -15.629  1.00  0.00     0.000 C 
BRANCH  10  11
ATOM     11  C   UNL     1      29.948  -6.548 -15.351  1.00  0.00    -0.000 C 
BRANCH  11  12
ATOM     12  C   UNL     1      29.635  -6.711 -13.852  1.00  0.00    -0.000 C 
BRANCH  12  13
ATOM     13  C   UNL     1      29.655  -5.404 -13.034  1.00  0.00    -0.000 C 
BRANCH  13  14
ATOM     14  C   UNL     1      30.905  -5.200 -12.161  1.00  0.00    -0.000 C 
BRANCH  14  15
ATOM     15  C   UNL     1      31.799  -6.446 -12.099  1.00  0.00    -0.003 C 
ATOM     16  C   UNL     1      32.663  -6.440 -10.841  1.00  0.00     0.004 C 
ENDBRANCH  14  15
ENDBRANCH  13  14
ENDBRANCH  12  13
ENDBRANCH  11  12
ENDBRANCH  10  11
ENDBRANCH   1  10
TORSDOF 12
ENDMDL
MODEL 6
REMARK VINA RESULT:    -3.209      3.017      6.452
REMARK INTER + INTRA:          -6.315
REMARK INTER:                  -5.672
REMARK INTRA:                  -0.642
REMARK UNBOUND:                -0.854
REMARK SMILES CCCCCCCCCCCCCC(=O)[O-]
REMARK SMILES IDX 8 1 9 2 10 3 11 4 12 5 13 6 14 7 15 8 16 9 7 10 6 11 5 12
REMARK SMILES IDX 4 13 3 14 2 15 1 16
REMARK H PARENT
REMARK Flexibility Score: inf
ROOT
ATOM      1  C   UNL     1      31.314  -5.730 -13.093  1.00  0.00     0.000 C 
ENDROOT
BRANCH   1   2
ATOM      2  C   UNL     1      32.044  -5.862 -14.439  1.00  0.00     0.000 C 
BRANCH   2   3
ATOM      3  C   UNL     1      31.320  -5.131 -15.580  1.00  0.00     0.000 C 
BRANCH   3   4
ATOM      4  C   UNL     1      32.180  -5.115 -16.853  1.00  0.00     0.000 C 
BRANCH   4   5
ATOM      5  C   UNL     1      33.640  -5.516 -16.587  1.00  0.00     0.006 C 
BRANCH   5   6
ATOM      6  C   UNL     1      34.551  -5.268 -17.796  1.00  0.00     0.053 C 
BRANCH   6   7
ATOM      7  C   UNL     1      35.909  -4.830 -17.345  1.00  0.00     0.041 C 
ATOM      8  O   UNL     1      36.327  -3.675 -17.623  1.00  0.00    -0.550 OA
ATOM      9  O   UNL     1      36.694  -5.679 -16.576  1.00  0.00    -0.550 OA
ENDBRANCH   6   7
ENDBRANCH   5   6
ENDBRANCH   4   5
ENDBRANCH   3   4
ENDBRANCH   2   3
ENDBRANCH   1   2
BRANCH   1  10
ATOM     10  C   UNL     1      29.894  -5.164 -13.242  1.00  0.00     0.000 C 
BRANCH  10  11
ATOM     11  C   UNL     1      28.891  -6.283 -13.561  1.00  0.00    -0.000 C 
BRANCH  11  12
ATOM     12  C   UNL     1      29.354  -7.663 -13.060  1.00  0.00    -0.000 C 
BRANCH  12  13
ATOM     13  C   UNL     1      29.631  -8.701 -14.166  1.00  0.00    -0.000 C 
BRANCH  13  14
ATOM     14  C   UNL     1      29.793  -8.119 -15.581  1.00  0.00    -0.000 C 
BRANCH  14  15
ATOM     15  C   UNL     1      29.770  -9.195 -16.675  1.00  0.00    -0.003 C 
ATOM     16  C   UNL     1      28.492  -9.107 -17.504  1.00  0.00     0.004 C 
ENDBRANCH  14  15
ENDBRANCH  13  14
ENDBRANCH  12  13
ENDBRANCH  11  12
ENDBRANCH  10  11
ENDBRANCH   1  10
TORSDOF 12
ENDMDL
MODEL 7
REMARK VINA RESULT:    -2.711      2.985      6.154
REMARK INTER + INTRA:          -5.468
REMARK INTER:                  -4.981
REMARK INTRA:                  -0.486
REMARK UNBOUND:                -0.854
REMARK SMILES CCCCCCCCCCCCCC(=O)[O-]
REMARK SMILES IDX 8 1 9 2 10 3 11 4 12 5 13 6 14 7 15 8 16 9 7 10 6 11 5 12
REMARK SMILES IDX 4 13 3 14 2 15 1 16
REMARK H PARENT
REMARK Flexibility Score: inf
ROOT
ATOM      1  C   UNL     1      29.913  -7.338 -13.911  1.00  0.00     0.000 C 
ENDROOT
BRANCH   1   2
ATOM      2  C   UNL     1      29.937  -7.130 -15.434  1.00  0.00     0.000 C 
BRANCH   2   3
ATOM      3  C   UNL     1      30.709  -5.868 -15.848  1.00  0.00     0.000 C 
BRANCH   3   4
ATOM      4  C   UNL     1      32.188  -6.191 -16.109  1.00  0.00     0.000 C 
BRANCH   4   5
ATOM      5  C   UNL     1      32.932  -5.042 -16.807  1.00  0.00     0.006 C 
BRANCH   5   6
ATOM      6  C   UNL     1      33.990  -5.539 -17.801  1.00  0.00     0.053 C 
BRANCH   6   7
ATOM      7  C   UNL     1      35.364  -5.342 -17.242  1.00  0.00     0.041 C 
ATOM      8  O   UNL     1      35.916  -6.259 -16.580  1.00  0.00    -0.550 OA
ATOM      9  O   UNL     1      36.054  -4.163 -17.493  1.00  0.00    -0.550 OA
ENDBRANCH   6   7
ENDBRANCH   5   6
ENDBRANCH   4   5
ENDBRANCH   3   4
ENDBRANCH   2   3
ENDBRANCH   1   2
BRANCH   1  10
ATOM     10  C   UNL     1      29.220  -6.187 -13.167  1.00  0.00     0.000 C 
BRANCH  10  11
ATOM     11  C   UNL     1      30.247  -5.321 -12.423  1.00  0.00    -0.000 C 
BRANCH  11  12
ATOM     12  C   UNL     1      31.701  -5.738 -12.709  1.00  0.00    -0.000 C 
BRANCH  12  13
ATOM     13  C   UNL     1      32.646  -5.696 -11.491  1.00  0.00    -0.000 C 
BRANCH  13  14
ATOM     14  C   UNL     1      32.566  -6.920 -10.562  1.00  0.00    -0.000 C 
BRANCH  14  15
ATOM     15  C   UNL     1      33.121  -6.641  -9.159  1.00  0.00    -0.003 C 
ATOM     16  C   UNL     1      34.174  -7.675  -8.769  1.00  0.00     0.004 C 
ENDBRANCH  14  15
ENDBRANCH  13  14
ENDBRANCH  12  13
ENDBRANCH  11  12
ENDBRANCH  10  11
ENDBRANCH   1  10
TORSDOF 12
ENDMDL
MODEL 8
REMARK VINA RESULT:    -2.153      1.277      2.009
REMARK INTER + INTRA:          -4.517
REMARK INTER:                  -3.863
REMARK INTRA:                  -0.654
REMARK UNBOUND:                -0.854
REMARK SMILES CCCCCCCCCCCCCC(=O)[O-]
REMARK SMILES IDX 8 1 9 2 10 3 11 4 12 5 13 6 14 7 15 8 16 9 7 10 6 11 5 12
REMARK SMILES IDX 4 13 3 14 2 15 1 16
REMARK H PARENT
REMARK Flexibility Score: inf
ROOT
ATOM      1  C   UNL     1      32.315  -5.290 -16.952  1.00  0.00     0.000 C 
ENDROOT
BRANCH   1   2
ATOM      2  C   UNL     1      31.326  -5.239 -15.776  1.00  0.00     0.000 C 
BRANCH   2   3
ATOM      3  C   UNL     1      30.583  -6.567 -15.568  1.00  0.00     0.000 C 
BRANCH   3   4
ATOM      4  C   UNL     1      29.257  -6.342 -14.825  1.00  0.00     0.000 C 
BRANCH   4   5
ATOM      5  C   UNL     1      29.345  -6.703 -13.334  1.00  0.00     0.006 C 
BRANCH   5   6
ATOM      6  C   UNL     1      29.958  -5.579 -12.488  1.00  0.00     0.053 C 
BRANCH   6   7
ATOM      7  C   UNL     1      31.335  -5.953 -12.041  1.00  0.00     0.041 C 
ATOM      8  O   UNL     1      32.038  -5.131 -11.396  1.00  0.00    -0.550 OA
ATOM      9  O   UNL     1      31.826  -7.228 -12.295  1.00  0.00    -0.550 OA
ENDBRANCH   6   7
ENDBRANCH   5   6
ENDBRANCH   4   5
ENDBRANCH   3   4
ENDBRANCH   2   3
ENDBRANCH   1   2
BRANCH   1  10
ATOM     10  C   UNL     1      33.778  -5.365 -16.493  1.00  0.00     0.000 C 
BRANCH  10  11
ATOM     11  C   UNL     1      34.671  -5.939 -17.604  1.00  0.00    -0.000 C 
BRANCH  11  12
ATOM     12  C   UNL     1      35.993  -6.519 -17.069  1.00  0.00    -0.000 C 
BRANCH  12  13
ATOM     13  C   UNL     1      37.160  -5.516 -16.986  1.00  0.00    -0.000 C 
BRANCH  13  14
ATOM     14  C   UNL     1      37.774  -5.115 -18.339  1.00  0.00    -0.000 C 
BRANCH  14  15
ATOM     15  C   UNL     1      37.272  -3.755 -18.842  1.00  0.00    -0.003 C 
ATOM     16  C   UNL     1      36.562  -2.986 -17.731  1.00  0.00     0.004 C 
ENDBRANCH  14  15
ENDBRANCH  13  14
ENDBRANCH  12  13
ENDBRANCH  11  12
ENDBRANCH  10  11
ENDBRANCH   1  10
TORSDOF 12
ENDMDL
MODEL 9
REMARK VINA RESULT:    -2.041      3.530      6.922
REMARK INTER + INTRA:          -4.327
REMARK INTER:                  -3.747
REMARK INTRA:                  -0.580
REMARK UNBOUND:                -0.854
REMARK SMILES CCCCCCCCCCCCCC(=O)[O-]
REMARK SMILES IDX 8 1 9 2 10 3 11 4 12 5 13 6 14 7 15 8 16 9 7 10 6 11 5 12
REMARK SMILES IDX 4 13 3 14 2 15 1 16
REMARK H PARENT
REMARK Flexibility Score: inf
ROOT
ATOM      1  C   UNL     1      30.907  -5.670 -14.782  1.00  0.00     0.000 C 
ENDROOT
BRANCH   1   2
ATOM      2  C   UNL     1      31.479  -5.262 -16.149  1.00  0.00     0.000 C 
BRANCH   2   3
ATOM      3  C   UNL     1      32.979  -5.566 -16.280  1.00  0.00     0.000 C 
BRANCH   3   4
ATOM      4  C   UNL     1      33.524  -5.066 -17.626  1.00  0.00     0.000 C 
BRANCH   4   5
ATOM      5  C   UNL     1      34.845  -5.747 -18.020  1.00  0.00     0.006 C 
BRANCH   5   6
ATOM      6  C   UNL     1      35.729  -6.067 -16.808  1.00  0.00     0.053 C 
BRANCH   6   7
ATOM      7  C   UNL     1      37.089  -5.468 -16.981  1.00  0.00     0.041 C 
ATOM      8  O   UNL     1      37.218  -4.331 -17.505  1.00  0.00    -0.550 OA
ATOM      9  O   UNL     1      38.211  -6.144 -16.519  1.00  0.00    -0.550 OA
ENDBRANCH   6   7
ENDBRANCH   5   6
ENDBRANCH   4   5
ENDBRANCH   3   4
ENDBRANCH   2   3
ENDBRANCH   1   2
BRANCH   1  10
ATOM     10  C   UNL     1      29.635  -6.521 -14.903  1.00  0.00     0.000 C 
BRANCH  10  11
ATOM     11  C   UNL     1      29.758  -7.810 -14.075  1.00  0.00    -0.000 C 
BRANCH  11  12
ATOM     12  C   UNL     1      29.907  -9.069 -14.948  1.00  0.00    -0.000 C 
BRANCH  12  13
ATOM     13  C   UNL     1      29.883  -8.817 -16.469  1.00  0.00    -0.000 C 
BRANCH  13  14
ATOM     14  C   UNL     1      28.484  -8.833 -17.111  1.00  0.00    -0.000 C 
BRANCH  14  15
ATOM     15  C   UNL     1      28.525  -9.100 -18.622  1.00  0.00    -0.003 C 
ATOM     16  C   UNL     1      27.180  -9.616 -19.125  1.00  0.00     0.004 C 
ENDBRANCH  14  15
ENDBRANCH  13  14
ENDBRANCH  12  13
ENDBRANCH  11  12
ENDBRANCH  10  11
ENDBRANCH   1  10
TORSDOF 12
ENDMDL
