MODEL 1
REMARK VINA RESULT:    -3.704      0.000      0.000
REMARK INTER + INTRA:         -14.783
REMARK INTER:                  -9.335
REMARK INTRA:                  -5.448
REMARK UNBOUND:                -5.448
REMARK SMILES CCCCCCCCCCCCCCCCCCCCCCCCCCCC(=O)[O-]
REMARK SMILES IDX 15 1 16 2 17 3 18 4 19 5 20 6 21 7 22 8 23 9 24 10 25 11
REMARK SMILES IDX 26 12 27 13 28 14 29 15 30 16 14 17 13 18 12 19 11 20 10 21
REMARK SMILES IDX 9 22 8 23 7 24 6 25 5 26 4 27 3 28 2 29 1 30
REMARK H PARENT
REMARK Flexibility Score: inf
ROOT
ATOM      1  C   UNL     1     -23.823   5.306  23.542  1.00  0.00     0.000 C 
ENDROOT
BRANCH   1   2
ATOM      2  C   UNL     1     -25.124   5.149  24.347  1.00  0.00     0.000 C 
BRANCH   2   3
ATOM      3  C   UNL     1     -24.831   4.822  25.823  1.00  0.00     0.000 C 
BRANCH   3   4
ATOM      4  C   UNL     1     -23.349   4.499  26.085  1.00  0.00     0.000 C 
BRANCH   4   5
ATOM      5  C   UNL     1     -23.070   3.078  26.629  1.00  0.00     0.000 C 
BRANCH   5   6
ATOM      6  C   UNL     1     -24.228   2.081  26.429  1.00  0.00     0.000 C 
BRANCH   6   7
ATOM      7  C   UNL     1     -24.047   1.066  25.282  1.00  0.00     0.000 C 
BRANCH   7   8
ATOM      8  C   UNL     1     -24.686   1.451  23.927  1.00  0.00     0.000 C 
BRANCH   8   9
ATOM      9  C   UNL     1     -23.718   1.453  22.723  1.00  0.00     0.000 C 
BRANCH   9  10
ATOM     10  C   UNL     1     -22.665   0.332  22.768  1.00  0.00     0.000 C 
BRANCH  10  11
ATOM     11  C   UNL     1     -22.166  -0.141  21.392  1.00  0.00     0.000 C 
BRANCH  11  12
ATOM     12  C   UNL     1     -20.953  -1.078  21.493  1.00  0.00     0.006 C 
BRANCH  12  13
ATOM     13  C   UNL     1     -19.811  -0.415  22.270  1.00  0.00     0.053 C 
BRANCH  13  14
ATOM     14  C   UNL     1     -18.564  -0.383  21.445  1.00  0.00     0.041 C 
ATOM     15  O   UNL     1     -18.098  -1.450  20.960  1.00  0.00    -0.550 OA
ATOM     16  O   UNL     1     -17.937   0.828  21.176  1.00  0.00    -0.550 OA
ENDBRANCH  13  14
ENDBRANCH  12  13
ENDBRANCH  11  12
ENDBRANCH  10  11
ENDBRANCH   9  10
ENDBRANCH   8   9
ENDBRANCH   7   8
ENDBRANCH   6   7
ENDBRANCH   5   6
ENDBRANCH   4   5
ENDBRANCH   3   4
ENDBRANCH   2   3
ENDBRANCH   1   2
BRANCH   1  17
ATOM     17  C   UNL     1     -23.906   6.430  22.491  1.00  0.00     0.000 C 
BRANCH  17  18
ATOM     18  C   UNL     1     -22.630   7.282  22.357  1.00  0.00     0.000 C 
BRANCH  18  19
ATOM     19  C   UNL     1     -22.437   7.840  20.936  1.00  0.00     0.000 C 
BRANCH  19  20
ATOM     20  C   UNL     1     -21.231   7.205  20.211  1.00  0.00     0.000 C 
BRANCH  20  21
ATOM     21  C   UNL     1     -21.433   5.727  19.820  1.00  0.00     0.000 C 
BRANCH  21  22
ATOM     22  C   UNL     1     -20.483   4.726  20.497  1.00  0.00    -0.000 C 
BRANCH  22  23
ATOM     23  C   UNL     1     -21.217   3.694  21.369  1.00  0.00    -0.000 C 
BRANCH  23  24
ATOM     24  C   UNL     1     -20.289   3.006  22.385  1.00  0.00    -0.000 C 
BRANCH  24  25
ATOM     25  C   UNL     1     -20.633   3.322  23.856  1.00  0.00    -0.000 C 
BRANCH  25  26
ATOM     26  C   UNL     1     -19.673   4.357  24.471  1.00  0.00    -0.000 C 
BRANCH  26  27
ATOM     27  C   UNL     1     -20.228   5.790  24.404  1.00  0.00    -0.000 C 
BRANCH  27  28
ATOM     28  C   UNL     1     -19.331   6.735  23.583  1.00  0.00    -0.000 C 
BRANCH  28  29
ATOM     29  C   UNL     1     -17.928   6.157  23.348  1.00  0.00    -0.003 C 
ATOM     30  C   UNL     1     -17.517   6.177  21.874  1.00  0.00     0.004 C 
ENDBRANCH  28  29
ENDBRANCH  27  28
ENDBRANCH  26  27
ENDBRANCH  25  26
ENDBRANCH  24  25
ENDBRANCH  23  24
ENDBRANCH  22  23
ENDBRANCH  21  22
ENDBRANCH  20  21
ENDBRANCH  19  20
ENDBRANCH  18  19
ENDBRANCH  17  18
ENDBRANCH   1  17
TORSDOF 26
ENDMDL
MODEL 2
REMARK VINA RESULT:    -3.510      2.567      6.446
REMARK INTER + INTRA:         -14.293
REMARK INTER:                  -8.246
REMARK INTRA:                  -6.047
REMARK UNBOUND:                -5.448
REMARK SMILES CCCCCCCCCCCCCCCCCCCCCCCCCCCC(=O)[O-]
REMARK SMILES IDX 15 1 16 2 17 3 18 4 19 5 20 6 21 7 22 8 23 9 24 10 25 11
REMARK SMILES IDX 26 12 27 13 28 14 29 15 30 16 14 17 13 18 12 19 11 20 10 21
REMARK SMILES IDX 9 22 8 23 7 24 6 25 5 26 4 27 3 28 2 29 1 30
REMARK H PARENT
REMARK Flexibility Score: inf
ROOT
ATOM      1  C   UNL     1     -23.224   5.355  23.628  1.00  0.00     0.000 C 
ENDROOT
BRANCH   1   2
ATOM      2  C   UNL     1     -24.092   6.241  22.718  1.00  0.00     0.000 C 
BRANCH   2   3
ATOM      3  C   UNL     1     -23.252   7.341  22.044  1.00  0.00     0.000 C 
BRANCH   3   4
ATOM      4  C   UNL     1     -21.736   7.117  22.192  1.00  0.00     0.000 C 
BRANCH   4   5
ATOM      5  C   UNL     1     -20.949   7.036  20.863  1.00  0.00     0.000 C 
BRANCH   5   6
ATOM      6  C   UNL     1     -21.290   5.809  19.995  1.00  0.00     0.000 C 
BRANCH   6   7
ATOM      7  C   UNL     1     -21.167   4.439  20.693  1.00  0.00     0.000 C 
BRANCH   7   8
ATOM      8  C   UNL     1     -19.753   3.812  20.715  1.00  0.00     0.000 C 
BRANCH   8   9
ATOM      9  C   UNL     1     -18.860   4.252  21.897  1.00  0.00     0.000 C 
BRANCH   9  10
ATOM     10  C   UNL     1     -19.567   4.208  23.263  1.00  0.00     0.000 C 
BRANCH  10  11
ATOM     11  C   UNL     1     -19.180   5.342  24.228  1.00  0.00     0.000 C 
BRANCH  11  12
ATOM     12  C   UNL     1     -20.129   5.444  25.431  1.00  0.00     0.006 C 
BRANCH  12  13
ATOM     13  C   UNL     1     -20.662   4.063  25.828  1.00  0.00     0.053 C 
BRANCH  13  14
ATOM     14  C   UNL     1     -21.575   4.173  27.008  1.00  0.00     0.041 C 
ATOM     15  O   UNL     1     -21.597   5.230  27.695  1.00  0.00    -0.550 OA
ATOM     16  O   UNL     1     -22.430   3.124  27.327  1.00  0.00    -0.550 OA
ENDBRANCH  13  14
ENDBRANCH  12  13
ENDBRANCH  11  12
ENDBRANCH  10  11
ENDBRANCH   9  10
ENDBRANCH   8   9
ENDBRANCH   7   8
ENDBRANCH   6   7
ENDBRANCH   5   6
ENDBRANCH   4   5
ENDBRANCH   3   4
ENDBRANCH   2   3
ENDBRANCH   1   2
BRANCH   1  17
ATOM     17  C   UNL     1     -23.884   3.999  23.943  1.00  0.00     0.000 C 
BRANCH  17  18
ATOM     18  C   UNL     1     -23.329   2.809  23.137  1.00  0.00     0.000 C 
BRANCH  18  19
ATOM     19  C   UNL     1     -24.038   1.486  23.471  1.00  0.00     0.000 C 
BRANCH  19  20
ATOM     20  C   UNL     1     -23.570   0.887  24.815  1.00  0.00     0.000 C 
BRANCH  20  21
ATOM     21  C   UNL     1     -23.691  -0.648  24.901  1.00  0.00     0.000 C 
BRANCH  21  22
ATOM     22  C   UNL     1     -23.668  -1.392  23.556  1.00  0.00    -0.000 C 
BRANCH  22  23
ATOM     23  C   UNL     1     -22.485  -2.366  23.427  1.00  0.00    -0.000 C 
BRANCH  23  24
ATOM     24  C   UNL     1     -21.650  -2.123  22.159  1.00  0.00    -0.000 C 
BRANCH  24  25
ATOM     25  C   UNL     1     -22.180  -0.974  21.275  1.00  0.00    -0.000 C 
BRANCH  25  26
ATOM     26  C   UNL     1     -21.274   0.269  21.324  1.00  0.00    -0.000 C 
BRANCH  26  27
ATOM     27  C   UNL     1     -19.782  -0.092  21.427  1.00  0.00    -0.000 C 
BRANCH  27  28
ATOM     28  C   UNL     1     -19.102   0.541  22.655  1.00  0.00    -0.000 C 
BRANCH  28  29
ATOM     29  C   UNL     1     -20.093   0.828  23.793  1.00  0.00    -0.003 C 
ATOM     30  C   UNL     1     -19.951  -0.147  24.963  1.00  0.00     0.004 C 
ENDBRANCH  28  29
ENDBRANCH  27  28
ENDBRANCH  26  27
ENDBRANCH  25  26
ENDBRANCH  24  25
ENDBRANCH  23  24
ENDBRANCH  22  23
ENDBRANCH  21  22
ENDBRANCH  20  21
ENDBRANCH  19  20
ENDBRANCH  18  19
ENDBRANCH  17  18
ENDBRANCH   1  17
TORSDOF 26
ENDMDL
MODEL 3
REMARK VINA RESULT:    -3.497      3.610      5.993
REMARK INTER + INTRA:         -14.260
REMARK INTER:                  -8.966
REMARK INTRA:                  -5.293
REMARK UNBOUND:                -5.448
REMARK SMILES CCCCCCCCCCCCCCCCCCCCCCCCCCCC(=O)[O-]
REMARK SMILES IDX 15 1 16 2 17 3 18 4 19 5 20 6 21 7 22 8 23 9 24 10 25 11
REMARK SMILES IDX 26 12 27 13 28 14 29 15 30 16 14 17 13 18 12 19 11 20 10 21
REMARK SMILES IDX 9 22 8 23 7 24 6 25 5 26 4 27 3 28 2 29 1 30
REMARK H PARENT
REMARK Flexibility Score: inf
ROOT
ATOM      1  C   UNL     1     -19.168   3.895  20.814  1.00  0.00     0.000 C 
ENDROOT
BRANCH   1   2
ATOM      2  C   UNL     1     -19.453   2.401  21.037  1.00  0.00     0.000 C 
BRANCH   2   3
ATOM      3  C   UNL     1     -20.917   2.167  21.450  1.00  0.00     0.000 C 
BRANCH   3   4
ATOM      4  C   UNL     1     -21.288   0.675  21.531  1.00  0.00     0.000 C 
BRANCH   4   5
ATOM      5  C   UNL     1     -22.645   0.368  22.208  1.00  0.00     0.000 C 
BRANCH   5   6
ATOM      6  C   UNL     1     -23.433   1.617  22.649  1.00  0.00     0.000 C 
BRANCH   6   7
ATOM      7  C   UNL     1     -24.591   1.363  23.636  1.00  0.00     0.000 C 
BRANCH   7   8
ATOM      8  C   UNL     1     -24.539   2.155  24.964  1.00  0.00     0.000 C 
BRANCH   8   9
ATOM      9  C   UNL     1     -23.248   1.964  25.791  1.00  0.00     0.000 C 
BRANCH   9  10
ATOM     10  C   UNL     1     -23.341   2.507  27.227  1.00  0.00     0.000 C 
BRANCH  10  11
ATOM     11  C   UNL     1     -22.348   3.634  27.557  1.00  0.00     0.000 C 
BRANCH  11  12
ATOM     12  C   UNL     1     -23.030   5.004  27.688  1.00  0.00     0.006 C 
BRANCH  12  13
ATOM     13  C   UNL     1     -22.213   5.941  28.583  1.00  0.00     0.053 C 
BRANCH  13  14
ATOM     14  C   UNL     1     -23.105   6.643  29.559  1.00  0.00     0.041 C 
ATOM     15  O   UNL     1     -23.359   7.870  29.416  1.00  0.00    -0.550 OA
ATOM     16  O   UNL     1     -23.688   5.934  30.603  1.00  0.00    -0.550 OA
ENDBRANCH  13  14
ENDBRANCH  12  13
ENDBRANCH  11  12
ENDBRANCH  10  11
ENDBRANCH   9  10
ENDBRANCH   8   9
ENDBRANCH   7   8
ENDBRANCH   6   7
ENDBRANCH   5   6
ENDBRANCH   4   5
ENDBRANCH   3   4
ENDBRANCH   2   3
ENDBRANCH   1   2
BRANCH   1  17
ATOM     17  C   UNL     1     -20.450   4.717  20.581  1.00  0.00     0.000 C 
BRANCH  17  18
ATOM     18  C   UNL     1     -20.233   6.239  20.489  1.00  0.00     0.000 C 
BRANCH  18  19
ATOM     19  C   UNL     1     -21.391   6.960  19.778  1.00  0.00     0.000 C 
BRANCH  19  20
ATOM     20  C   UNL     1     -21.999   8.091  20.636  1.00  0.00     0.000 C 
BRANCH  20  21
ATOM     21  C   UNL     1     -22.325   7.681  22.086  1.00  0.00     0.000 C 
BRANCH  21  22
ATOM     22  C   UNL     1     -23.669   6.962  22.286  1.00  0.00    -0.000 C 
BRANCH  22  23
ATOM     23  C   UNL     1     -23.508   5.485  22.684  1.00  0.00    -0.000 C 
BRANCH  23  24
ATOM     24  C   UNL     1     -22.822   5.307  24.048  1.00  0.00    -0.000 C 
BRANCH  24  25
ATOM     25  C   UNL     1     -21.531   4.462  23.990  1.00  0.00    -0.000 C 
BRANCH  25  26
ATOM     26  C   UNL     1     -20.274   5.292  24.308  1.00  0.00    -0.000 C 
BRANCH  26  27
ATOM     27  C   UNL     1     -19.050   4.413  24.619  1.00  0.00    -0.000 C 
BRANCH  27  28
ATOM     28  C   UNL     1     -19.429   2.952  24.921  1.00  0.00    -0.000 C 
BRANCH  28  29
ATOM     29  C   UNL     1     -18.369   1.956  24.426  1.00  0.00    -0.003 C 
ATOM     30  C   UNL     1     -17.128   2.644  23.857  1.00  0.00     0.004 C 
ENDBRANCH  28  29
ENDBRANCH  27  28
ENDBRANCH  26  27
ENDBRANCH  25  26
ENDBRANCH  24  25
ENDBRANCH  23  24
ENDBRANCH  22  23
ENDBRANCH  21  22
ENDBRANCH  20  21
ENDBRANCH  19  20
ENDBRANCH  18  19
ENDBRANCH  17  18
ENDBRANCH   1  17
TORSDOF 26
ENDMDL
MODEL 4
REMARK VINA RESULT:    -3.486      3.199      7.036
REMARK INTER + INTRA:         -14.233
REMARK INTER:                  -9.394
REMARK INTRA:                  -4.839
REMARK UNBOUND:                -5.448
REMARK SMILES CCCCCCCCCCCCCCCCCCCCCCCCCCCC(=O)[O-]
REMARK SMILES IDX 15 1 16 2 17 3 18 4 19 5 20 6 21 7 22 8 23 9 24 10 25 11
REMARK SMILES IDX 26 12 27 13 28 14 29 15 30 16 14 17 13 18 12 19 11 20 10 21
REMARK SMILES IDX 9 22 8 23 7 24 6 25 5 26 4 27 3 28 2 29 1 30
REMARK H PARENT
REMARK Flexibility Score: inf
ROOT
ATOM      1  C   UNL     1     -19.285   4.832  21.651  1.00  0.00     0.000 C 
ENDROOT
BRANCH   1   2
ATOM      2  C   UNL     1     -19.379   6.358  21.806  1.00  0.00     0.000 C 
BRANCH   2   3
ATOM      3  C   UNL     1     -20.190   6.744  23.056  1.00  0.00     0.000 C 
BRANCH   3   4
ATOM      4  C   UNL     1     -21.305   7.764  22.759  1.00  0.00     0.000 C 
BRANCH   4   5
ATOM      5  C   UNL     1     -22.375   7.294  21.746  1.00  0.00     0.000 C 
BRANCH   5   6
ATOM      6  C   UNL     1     -23.724   6.903  22.380  1.00  0.00     0.000 C 
BRANCH   6   7
ATOM      7  C   UNL     1     -23.729   5.589  23.187  1.00  0.00     0.000 C 
BRANCH   7   8
ATOM      8  C   UNL     1     -25.044   5.251  23.928  1.00  0.00     0.000 C 
BRANCH   8   9
ATOM      9  C   UNL     1     -24.895   5.002  25.445  1.00  0.00     0.000 C 
BRANCH   9  10
ATOM     10  C   UNL     1     -23.447   4.746  25.896  1.00  0.00     0.000 C 
BRANCH  10  11
ATOM     11  C   UNL     1     -23.269   4.533  27.409  1.00  0.00     0.000 C 
BRANCH  11  12
ATOM     12  C   UNL     1     -23.351   5.845  28.204  1.00  0.00     0.006 C 
BRANCH  12  13
ATOM     13  C   UNL     1     -22.975   5.621  29.673  1.00  0.00     0.053 C 
BRANCH  13  14
ATOM     14  C   UNL     1     -21.517   5.884  29.887  1.00  0.00     0.041 C 
ATOM     15  O   UNL     1     -20.934   5.426  30.906  1.00  0.00    -0.550 OA
ATOM     16  O   UNL     1     -20.793   6.601  28.941  1.00  0.00    -0.550 OA
ENDBRANCH  13  14
ENDBRANCH  12  13
ENDBRANCH  11  12
ENDBRANCH  10  11
ENDBRANCH   9  10
ENDBRANCH   8   9
ENDBRANCH   7   8
ENDBRANCH   6   7
ENDBRANCH   5   6
ENDBRANCH   4   5
ENDBRANCH   3   4
ENDBRANCH   2   3
ENDBRANCH   1   2
BRANCH   1  17
ATOM     17  C   UNL     1     -20.377   4.259  20.727  1.00  0.00     0.000 C 
BRANCH  17  18
ATOM     18  C   UNL     1     -21.348   3.276  21.408  1.00  0.00     0.000 C 
BRANCH  18  19
ATOM     19  C   UNL     1     -21.149   3.207  22.932  1.00  0.00     0.000 C 
BRANCH  19  20
ATOM     20  C   UNL     1     -22.087   2.183  23.605  1.00  0.00     0.000 C 
BRANCH  20  21
ATOM     21  C   UNL     1     -23.412   1.947  22.853  1.00  0.00     0.000 C 
BRANCH  21  22
ATOM     22  C   UNL     1     -24.569   1.395  23.702  1.00  0.00    -0.000 C 
BRANCH  22  23
ATOM     23  C   UNL     1     -24.167   1.122  25.161  1.00  0.00    -0.000 C 
BRANCH  23  24
ATOM     24  C   UNL     1     -23.998  -0.377  25.461  1.00  0.00    -0.000 C 
BRANCH  24  25
ATOM     25  C   UNL     1     -24.417  -1.296  24.293  1.00  0.00    -0.000 C 
BRANCH  25  26
ATOM     26  C   UNL     1     -23.243  -2.138  23.760  1.00  0.00    -0.000 C 
BRANCH  26  27
ATOM     27  C   UNL     1     -22.714  -1.625  22.410  1.00  0.00    -0.000 C 
BRANCH  27  28
ATOM     28  C   UNL     1     -21.242  -1.180  22.480  1.00  0.00    -0.000 C 
BRANCH  28  29
ATOM     29  C   UNL     1     -20.794  -0.431  21.216  1.00  0.00    -0.003 C 
ATOM     30  C   UNL     1     -19.380   0.140  21.334  1.00  0.00     0.004 C 
ENDBRANCH  28  29
ENDBRANCH  27  28
ENDBRANCH  26  27
ENDBRANCH  25  26
ENDBRANCH  24  25
ENDBRANCH  23  24
ENDBRANCH  22  23
ENDBRANCH  21  22
ENDBRANCH  20  21
ENDBRANCH  19  20
ENDBRANCH  18  19
ENDBRANCH  17  18
ENDBRANCH   1  17
TORSDOF 26
ENDMDL
MODEL 5
REMARK VINA RESULT:    -3.451      1.422      2.979
REMARK INTER + INTRA:         -14.144
REMARK INTER:                  -9.240
REMARK INTRA:                  -4.904
REMARK UNBOUND:                -5.448
REMARK SMILES CCCCCCCCCCCCCCCCCCCCCCCCCCCC(=O)[O-]
REMARK SMILES IDX 15 1 16 2 17 3 18 4 19 5 20 6 21 7 22 8 23 9 24 10 25 11
REMARK SMILES IDX 26 12 27 13 28 14 29 15 30 16 14 17 13 18 12 19 11 20 10 21
REMARK SMILES IDX 9 22 8 23 7 24 6 25 5 26 4 27 3 28 2 29 1 30
REMARK H PARENT
REMARK Flexibility Score: inf
ROOT
ATOM      1  C   UNL     1     -24.345   5.448  23.728  1.00  0.00     0.000 C 
ENDROOT
BRANCH   1   2
ATOM      2  C   UNL     1     -24.316   3.961  24.115  1.00  0.00     0.000 C 
BRANCH   2   3
ATOM      3  C   UNL     1     -23.346   3.169  23.219  1.00  0.00     0.000 C 
BRANCH   3   4
ATOM      4  C   UNL     1     -23.888   1.782  22.825  1.00  0.00     0.000 C 
BRANCH   4   5
ATOM      5  C   UNL     1     -24.599   1.006  23.958  1.00  0.00     0.000 C 
BRANCH   5   6
ATOM      6  C   UNL     1     -24.041  -0.408  24.210  1.00  0.00     0.000 C 
BRANCH   6   7
ATOM      7  C   UNL     1     -22.557  -0.617  23.847  1.00  0.00     0.000 C 
BRANCH   7   8
ATOM      8  C   UNL     1     -22.194  -1.990  23.233  1.00  0.00     0.000 C 
BRANCH   8   9
ATOM      9  C   UNL     1     -21.484  -1.927  21.862  1.00  0.00     0.000 C 
BRANCH   9  10
ATOM     10  C   UNL     1     -21.726  -0.616  21.094  1.00  0.00     0.000 C 
BRANCH  10  11
ATOM     11  C   UNL     1     -20.648   0.462  21.299  1.00  0.00     0.000 C 
BRANCH  11  12
ATOM     12  C   UNL     1     -19.225  -0.113  21.274  1.00  0.00     0.006 C 
BRANCH  12  13
ATOM     13  C   UNL     1     -18.298   0.675  22.205  1.00  0.00     0.053 C 
BRANCH  13  14
ATOM     14  C   UNL     1     -17.441   1.617  21.418  1.00  0.00     0.041 C 
ATOM     15  O   UNL     1     -17.304   1.459  20.175  1.00  0.00    -0.550 OA
ATOM     16  O   UNL     1     -16.826   2.691  22.050  1.00  0.00    -0.550 OA
ENDBRANCH  13  14
ENDBRANCH  12  13
ENDBRANCH  11  12
ENDBRANCH  10  11
ENDBRANCH   9  10
ENDBRANCH   8   9
ENDBRANCH   7   8
ENDBRANCH   6   7
ENDBRANCH   5   6
ENDBRANCH   4   5
ENDBRANCH   3   4
ENDBRANCH   2   3
ENDBRANCH   1   2
BRANCH   1  17
ATOM     17  C   UNL     1     -23.350   5.789  22.602  1.00  0.00     0.000 C 
BRANCH  17  18
ATOM     18  C   UNL     1     -23.350   7.267  22.168  1.00  0.00     0.000 C 
BRANCH  18  19
ATOM     19  C   UNL     1     -21.971   7.739  21.673  1.00  0.00     0.000 C 
BRANCH  19  20
ATOM     20  C   UNL     1     -21.844   7.680  20.135  1.00  0.00     0.000 C 
BRANCH  20  21
ATOM     21  C   UNL     1     -21.207   6.381  19.602  1.00  0.00     0.000 C 
BRANCH  21  22
ATOM     22  C   UNL     1     -20.095   5.779  20.475  1.00  0.00    -0.000 C 
BRANCH  22  23
ATOM     23  C   UNL     1     -20.354   4.312  20.855  1.00  0.00    -0.000 C 
BRANCH  23  24
ATOM     24  C   UNL     1     -20.063   4.021  22.337  1.00  0.00    -0.000 C 
BRANCH  24  25
ATOM     25  C   UNL     1     -19.679   5.273  23.154  1.00  0.00    -0.000 C 
BRANCH  25  26
ATOM     26  C   UNL     1     -20.267   5.248  24.576  1.00  0.00    -0.000 C 
BRANCH  26  27
ATOM     27  C   UNL     1     -20.402   3.820  25.134  1.00  0.00    -0.000 C 
BRANCH  27  28
ATOM     28  C   UNL     1     -21.348   3.744  26.346  1.00  0.00    -0.000 C 
BRANCH  28  29
ATOM     29  C   UNL     1     -21.823   5.129  26.809  1.00  0.00    -0.003 C 
ATOM     30  C   UNL     1     -23.234   5.106  27.399  1.00  0.00     0.004 C 
ENDBRANCH  28  29
ENDBRANCH  27  28
ENDBRANCH  26  27
ENDBRANCH  25  26
ENDBRANCH  24  25
ENDBRANCH  23  24
ENDBRANCH  22  23
ENDBRANCH  21  22
ENDBRANCH  20  21
ENDBRANCH  19  20
ENDBRANCH  18  19
ENDBRANCH  17  18
ENDBRANCH   1  17
TORSDOF 26
ENDMDL
MODEL 6
REMARK VINA RESULT:    -3.450      1.991      5.436
REMARK INTER + INTRA:         -14.141
REMARK INTER:                  -8.503
REMARK INTRA:                  -5.639
REMARK UNBOUND:                -5.448
REMARK SMILES CCCCCCCCCCCCCCCCCCCCCCCCCCCC(=O)[O-]
REMARK SMILES IDX 15 1 16 2 17 3 18 4 19 5 20 6 21 7 22 8 23 9 24 10 25 11
REMARK SMILES IDX 26 12 27 13 28 14 29 15 30 16 14 17 13 18 12 19 11 20 10 21
REMARK SMILES IDX 9 22 8 23 7 24 6 25 5 26 4 27 3 28 2 29 1 30
REMARK H PARENT
REMARK Flexibility Score: inf
ROOT
ATOM      1  C   UNL     1     -24.771   4.758  23.953  1.00  0.00     0.000 C 
ENDROOT
BRANCH   1   2
ATOM      2  C   UNL     1     -23.565   5.514  23.371  1.00  0.00     0.000 C 
BRANCH   2   3
ATOM      3  C   UNL     1     -24.015   6.719  22.526  1.00  0.00     0.000 C 
BRANCH   3   4
ATOM      4  C   UNL     1     -22.838   7.575  22.024  1.00  0.00     0.000 C 
BRANCH   4   5
ATOM      5  C   UNL     1     -21.496   7.346  22.759  1.00  0.00     0.000 C 
BRANCH   5   6
ATOM      6  C   UNL     1     -20.389   6.726  21.885  1.00  0.00     0.000 C 
BRANCH   6   7
ATOM      7  C   UNL     1     -20.771   6.448  20.417  1.00  0.00     0.000 C 
BRANCH   7   8
ATOM      8  C   UNL     1     -21.268   5.016  20.103  1.00  0.00     0.000 C 
BRANCH   8   9
ATOM      9  C   UNL     1     -20.949   3.961  21.185  1.00  0.00     0.000 C 
BRANCH   9  10
ATOM     10  C   UNL     1     -19.534   3.367  21.080  1.00  0.00     0.000 C 
BRANCH  10  11
ATOM     11  C   UNL     1     -19.469   1.833  21.170  1.00  0.00     0.000 C 
BRANCH  11  12
ATOM     12  C   UNL     1     -20.859   1.181  21.176  1.00  0.00     0.006 C 
BRANCH  12  13
ATOM     13  C   UNL     1     -20.786  -0.265  21.679  1.00  0.00     0.053 C 
BRANCH  13  14
ATOM     14  C   UNL     1     -21.931  -1.065  21.144  1.00  0.00     0.041 C 
ATOM     15  O   UNL     1     -21.972  -1.373  19.922  1.00  0.00    -0.550 OA
ATOM     16  O   UNL     1     -22.934  -1.505  22.001  1.00  0.00    -0.550 OA
ENDBRANCH  13  14
ENDBRANCH  12  13
ENDBRANCH  11  12
ENDBRANCH  10  11
ENDBRANCH   9  10
ENDBRANCH   8   9
ENDBRANCH   7   8
ENDBRANCH   6   7
ENDBRANCH   5   6
ENDBRANCH   4   5
ENDBRANCH   3   4
ENDBRANCH   2   3
ENDBRANCH   1   2
BRANCH   1  17
ATOM     17  C   UNL     1     -25.034   5.106  25.431  1.00  0.00     0.000 C 
BRANCH  17  18
ATOM     18  C   UNL     1     -24.425   4.119  26.444  1.00  0.00     0.000 C 
BRANCH  18  19
ATOM     19  C   UNL     1     -23.164   4.675  27.127  1.00  0.00     0.000 C 
BRANCH  19  20
ATOM     20  C   UNL     1     -22.343   3.577  27.837  1.00  0.00     0.000 C 
BRANCH  20  21
ATOM     21  C   UNL     1     -21.166   4.110  28.678  1.00  0.00     0.000 C 
BRANCH  21  22
ATOM     22  C   UNL     1     -20.984   5.636  28.673  1.00  0.00    -0.000 C 
BRANCH  22  23
ATOM     23  C   UNL     1     -19.632   6.080  28.090  1.00  0.00    -0.000 C 
BRANCH  23  24
ATOM     24  C   UNL     1     -19.159   5.181  26.935  1.00  0.00    -0.000 C 
BRANCH  24  25
ATOM     25  C   UNL     1     -19.682   5.619  25.551  1.00  0.00    -0.000 C 
BRANCH  25  26
ATOM     26  C   UNL     1     -20.301   4.451  24.763  1.00  0.00    -0.000 C 
BRANCH  26  27
ATOM     27  C   UNL     1     -19.656   3.098  25.108  1.00  0.00    -0.000 C 
BRANCH  27  28
ATOM     28  C   UNL     1     -20.557   1.902  24.748  1.00  0.00    -0.000 C 
BRANCH  28  29
ATOM     29  C   UNL     1     -21.974   2.334  24.344  1.00  0.00    -0.003 C 
ATOM     30  C   UNL     1     -23.038   1.300  24.714  1.00  0.00     0.004 C 
ENDBRANCH  28  29
ENDBRANCH  27  28
ENDBRANCH  26  27
ENDBRANCH  25  26
ENDBRANCH  24  25
ENDBRANCH  23  24
ENDBRANCH  22  23
ENDBRANCH  21  22
ENDBRANCH  20  21
ENDBRANCH  19  20
ENDBRANCH  18  19
ENDBRANCH  17  18
ENDBRANCH   1  17
TORSDOF 26
ENDMDL
MODEL 7
REMARK VINA RESULT:    -3.436      1.576      2.777
REMARK INTER + INTRA:         -14.107
REMARK INTER:                  -8.908
REMARK INTRA:                  -5.200
REMARK UNBOUND:                -5.448
REMARK SMILES CCCCCCCCCCCCCCCCCCCCCCCCCCCC(=O)[O-]
REMARK SMILES IDX 15 1 16 2 17 3 18 4 19 5 20 6 21 7 22 8 23 9 24 10 25 11
REMARK SMILES IDX 26 12 27 13 28 14 29 15 30 16 14 17 13 18 12 19 11 20 10 21
REMARK SMILES IDX 9 22 8 23 7 24 6 25 5 26 4 27 3 28 2 29 1 30
REMARK H PARENT
REMARK Flexibility Score: inf
ROOT
ATOM      1  C   UNL     1     -23.744   5.469  23.460  1.00  0.00     0.000 C 
ENDROOT
BRANCH   1   2
ATOM      2  C   UNL     1     -24.991   5.002  24.228  1.00  0.00     0.000 C 
BRANCH   2   3
ATOM      3  C   UNL     1     -24.641   4.608  25.675  1.00  0.00     0.000 C 
BRANCH   3   4
ATOM      4  C   UNL     1     -24.758   3.094  25.931  1.00  0.00     0.000 C 
BRANCH   4   5
ATOM      5  C   UNL     1     -25.058   2.235  24.679  1.00  0.00     0.000 C 
BRANCH   5   6
ATOM      6  C   UNL     1     -23.871   1.380  24.194  1.00  0.00     0.000 C 
BRANCH   6   7
ATOM      7  C   UNL     1     -23.581   1.435  22.680  1.00  0.00     0.000 C 
BRANCH   7   8
ATOM      8  C   UNL     1     -22.858   0.206  22.081  1.00  0.00     0.000 C 
BRANCH   8   9
ATOM      9  C   UNL     1     -21.492  -0.126  22.722  1.00  0.00     0.000 C 
BRANCH   9  10
ATOM     10  C   UNL     1     -20.418  -0.563  21.710  1.00  0.00     0.000 C 
BRANCH  10  11
ATOM     11  C   UNL     1     -18.969  -0.452  22.216  1.00  0.00     0.000 C 
BRANCH  11  12
ATOM     12  C   UNL     1     -17.963  -1.144  21.285  1.00  0.00     0.006 C 
BRANCH  12  13
ATOM     13  C   UNL     1     -16.545  -0.612  21.516  1.00  0.00     0.053 C 
BRANCH  13  14
ATOM     14  C   UNL     1     -15.533  -1.675  21.227  1.00  0.00     0.041 C 
ATOM     15  O   UNL     1     -15.385  -2.643  22.022  1.00  0.00    -0.550 OA
ATOM     16  O   UNL     1     -14.780  -1.620  20.059  1.00  0.00    -0.550 OA
ENDBRANCH  13  14
ENDBRANCH  12  13
ENDBRANCH  11  12
ENDBRANCH  10  11
ENDBRANCH   9  10
ENDBRANCH   8   9
ENDBRANCH   7   8
ENDBRANCH   6   7
ENDBRANCH   5   6
ENDBRANCH   4   5
ENDBRANCH   3   4
ENDBRANCH   2   3
ENDBRANCH   1   2
BRANCH   1  17
ATOM     17  C   UNL     1     -24.037   6.645  22.508  1.00  0.00     0.000 C 
BRANCH  17  18
ATOM     18  C   UNL     1     -22.796   7.443  22.068  1.00  0.00     0.000 C 
BRANCH  18  19
ATOM     19  C   UNL     1     -21.558   7.137  22.929  1.00  0.00     0.000 C 
BRANCH  19  20
ATOM     20  C   UNL     1     -20.333   6.731  22.082  1.00  0.00     0.000 C 
BRANCH  20  21
ATOM     21  C   UNL     1     -20.602   6.680  20.564  1.00  0.00     0.000 C 
BRANCH  21  22
ATOM     22  C   UNL     1     -20.613   5.276  19.939  1.00  0.00    -0.000 C 
BRANCH  22  23
ATOM     23  C   UNL     1     -21.449   4.265  20.742  1.00  0.00    -0.000 C 
BRANCH  23  24
ATOM     24  C   UNL     1     -20.611   3.091  21.276  1.00  0.00    -0.000 C 
BRANCH  24  25
ATOM     25  C   UNL     1     -19.125   3.148  20.860  1.00  0.00    -0.000 C 
BRANCH  25  26
ATOM     26  C   UNL     1     -18.175   3.054  22.067  1.00  0.00    -0.000 C 
BRANCH  26  27
ATOM     27  C   UNL     1     -18.822   3.560  23.368  1.00  0.00    -0.000 C 
BRANCH  27  28
ATOM     28  C   UNL     1     -18.933   2.462  24.442  1.00  0.00    -0.000 C 
BRANCH  28  29
ATOM     29  C   UNL     1     -20.321   2.420  25.097  1.00  0.00    -0.003 C 
ATOM     30  C   UNL     1     -21.062   3.755  25.005  1.00  0.00     0.004 C 
ENDBRANCH  28  29
ENDBRANCH  27  28
ENDBRANCH  26  27
ENDBRANCH  25  26
ENDBRANCH  24  25
ENDBRANCH  23  24
ENDBRANCH  22  23
ENDBRANCH  21  22
ENDBRANCH  20  21
ENDBRANCH  19  20
ENDBRANCH  18  19
ENDBRANCH  17  18
ENDBRANCH   1  17
TORSDOF 26
ENDMDL
MODEL 8
REMARK VINA RESULT:    -3.412      2.287      5.912
REMARK INTER + INTRA:         -14.046
REMARK INTER:                  -8.420
REMARK INTRA:                  -5.627
REMARK UNBOUND:                -5.448
REMARK SMILES CCCCCCCCCCCCCCCCCCCCCCCCCCCC(=O)[O-]
REMARK SMILES IDX 15 1 16 2 17 3 18 4 19 5 20 6 21 7 22 8 23 9 24 10 25 11
REMARK SMILES IDX 26 12 27 13 28 14 29 15 30 16 14 17 13 18 12 19 11 20 10 21
REMARK SMILES IDX 9 22 8 23 7 24 6 25 5 26 4 27 3 28 2 29 1 30
REMARK H PARENT
REMARK Flexibility Score: inf
ROOT
ATOM      1  C   UNL     1     -22.959   3.018  24.787  1.00  0.00     0.000 C 
ENDROOT
BRANCH   1   2
ATOM      2  C   UNL     1     -23.333   4.493  25.010  1.00  0.00     0.000 C 
BRANCH   2   3
ATOM      3  C   UNL     1     -24.765   4.785  24.527  1.00  0.00     0.000 C 
BRANCH   3   4
ATOM      4  C   UNL     1     -24.826   5.898  23.464  1.00  0.00     0.000 C 
BRANCH   4   5
ATOM      5  C   UNL     1     -23.619   5.952  22.498  1.00  0.00     0.000 C 
BRANCH   5   6
ATOM      6  C   UNL     1     -23.046   7.365  22.273  1.00  0.00     0.000 C 
BRANCH   6   7
ATOM      7  C   UNL     1     -22.456   7.633  20.873  1.00  0.00     0.000 C 
BRANCH   7   8
ATOM      8  C   UNL     1     -21.042   7.061  20.610  1.00  0.00     0.000 C 
BRANCH   8   9
ATOM      9  C   UNL     1     -21.012   5.701  19.878  1.00  0.00     0.000 C 
BRANCH   9  10
ATOM     10  C   UNL     1     -20.149   4.636  20.576  1.00  0.00     0.000 C 
BRANCH  10  11
ATOM     11  C   UNL     1     -20.691   4.150  21.932  1.00  0.00     0.000 C 
BRANCH  11  12
ATOM     12  C   UNL     1     -19.688   4.353  23.076  1.00  0.00     0.006 C 
BRANCH  12  13
ATOM     13  C   UNL     1     -20.016   5.618  23.877  1.00  0.00     0.053 C 
BRANCH  13  14
ATOM     14  C   UNL     1     -18.829   6.527  23.932  1.00  0.00     0.041 C 
ATOM     15  O   UNL     1     -18.329   6.848  25.044  1.00  0.00    -0.550 OA
ATOM     16  O   UNL     1     -18.250   6.987  22.755  1.00  0.00    -0.550 OA
ENDBRANCH  13  14
ENDBRANCH  12  13
ENDBRANCH  11  12
ENDBRANCH  10  11
ENDBRANCH   9  10
ENDBRANCH   8   9
ENDBRANCH   7   8
ENDBRANCH   6   7
ENDBRANCH   5   6
ENDBRANCH   4   5
ENDBRANCH   3   4
ENDBRANCH   2   3
ENDBRANCH   1   2
BRANCH   1  17
ATOM     17  C   UNL     1     -24.149   2.171  24.295  1.00  0.00     0.000 C 
BRANCH  17  18
ATOM     18  C   UNL     1     -23.781   1.068  23.285  1.00  0.00     0.000 C 
BRANCH  18  19
ATOM     19  C   UNL     1     -22.920   1.593  22.122  1.00  0.00     0.000 C 
BRANCH  19  20
ATOM     20  C   UNL     1     -22.170   0.463  21.385  1.00  0.00     0.000 C 
BRANCH  20  21
ATOM     21  C   UNL     1     -22.512  -0.956  21.885  1.00  0.00     0.000 C 
BRANCH  21  22
ATOM     22  C   UNL     1     -21.379  -1.989  21.774  1.00  0.00    -0.000 C 
BRANCH  22  23
ATOM     23  C   UNL     1     -21.265  -2.893  23.013  1.00  0.00    -0.000 C 
BRANCH  23  24
ATOM     24  C   UNL     1     -21.683  -2.179  24.311  1.00  0.00    -0.000 C 
BRANCH  24  25
ATOM     25  C   UNL     1     -20.507  -1.519  25.063  1.00  0.00    -0.000 C 
BRANCH  25  26
ATOM     26  C   UNL     1     -20.724  -0.011  25.278  1.00  0.00    -0.000 C 
BRANCH  26  27
ATOM     27  C   UNL     1     -20.024   0.845  24.207  1.00  0.00    -0.000 C 
BRANCH  27  28
ATOM     28  C   UNL     1     -18.890   0.089  23.492  1.00  0.00    -0.000 C 
BRANCH  28  29
ATOM     29  C   UNL     1     -17.989   1.023  22.669  1.00  0.00    -0.003 C 
ATOM     30  C   UNL     1     -18.485   1.213  21.234  1.00  0.00     0.004 C 
ENDBRANCH  28  29
ENDBRANCH  27  28
ENDBRANCH  26  27
ENDBRANCH  25  26
ENDBRANCH  24  25
ENDBRANCH  23  24
ENDBRANCH  22  23
ENDBRANCH  21  22
ENDBRANCH  20  21
ENDBRANCH  19  20
ENDBRANCH  18  19
ENDBRANCH  17  18
ENDBRANCH   1  17
TORSDOF 26
ENDMDL
