MODEL 1
REMARK VINA RESULT:    -3.123      0.000      0.000
REMARK INTER + INTRA:          -3.717
REMARK INTER:                  -3.671
REMARK INTRA:                  -0.046
REMARK UNBOUND:                -0.046
REMARK SMILES CCCCC(=O)[O-]
REMARK SMILES IDX 4 1 5 2 6 3 7 4 3 5 2 6 1 7
REMARK H PARENT
REMARK Flexibility Score: inf
ROOT
ATOM      1  C   UNL     1      18.304 -41.336  24.495  1.00  0.00     0.053 C 
ENDROOT
BRANCH   1   2
ATOM      2  C   UNL     1      18.525 -39.971  25.071  1.00  0.00     0.041 C 
ATOM      3  O   UNL     1      18.648 -39.821  26.315  1.00  0.00    -0.550 OA
ATOM      4  O   UNL     1      18.625 -38.871  24.231  1.00  0.00    -0.550 OA
ENDBRANCH   1   2
BRANCH   1   5
ATOM      5  C   UNL     1      18.898 -42.439  25.387  1.00  0.00     0.006 C 
BRANCH   5   6
ATOM      6  C   UNL     1      17.847 -43.273  26.139  1.00  0.00    -0.003 C 
ATOM      7  C   UNL     1      17.681 -44.680  25.565  1.00  0.00     0.004 C 
ENDBRANCH   5   6
ENDBRANCH   1   5
TORSDOF 3
ENDMDL
MODEL 2
REMARK VINA RESULT:    -3.114      2.549      4.113
REMARK INTER + INTRA:          -3.706
REMARK INTER:                  -3.660
REMARK INTRA:                  -0.047
REMARK UNBOUND:                -0.046
REMARK SMILES CCCCC(=O)[O-]
REMARK SMILES IDX 4 1 5 2 6 3 7 4 3 5 2 6 1 7
REMARK H PARENT
REMARK Flexibility Score: inf
ROOT
ATOM      1  C   UNL     1      18.916 -42.577  25.404  1.00  0.00     0.053 C 
ENDROOT
BRANCH   1   2
ATOM      2  C   UNL     1      17.812 -43.535  25.735  1.00  0.00     0.041 C 
ATOM      3  O   UNL     1      16.783 -43.131  26.337  1.00  0.00    -0.550 OA
ATOM      4  O   UNL     1      17.909 -44.866  25.351  1.00  0.00    -0.550 OA
ENDBRANCH   1   2
BRANCH   1   5
ATOM      5  C   UNL     1      18.485 -41.115  25.602  1.00  0.00     0.006 C 
BRANCH   5   6
ATOM      6  C   UNL     1      18.199 -40.361  24.291  1.00  0.00    -0.003 C 
ATOM      7  C   UNL     1      18.553 -38.876  24.370  1.00  0.00     0.004 C 
ENDBRANCH   5   6
ENDBRANCH   1   5
TORSDOF 3
ENDMDL
MODEL 3
REMARK VINA RESULT:    -3.111      0.229      1.245
REMARK INTER + INTRA:          -3.703
REMARK INTER:                  -3.655
REMARK INTRA:                  -0.048
REMARK UNBOUND:                -0.046
REMARK SMILES CCCCC(=O)[O-]
REMARK SMILES IDX 4 1 5 2 6 3 7 4 3 5 2 6 1 7
REMARK H PARENT
REMARK Flexibility Score: inf
ROOT
ATOM      1  C   UNL     1      18.268 -41.120  24.395  1.00  0.00     0.053 C 
ENDROOT
BRANCH   1   2
ATOM      2  C   UNL     1      18.504 -39.802  25.067  1.00  0.00     0.041 C 
ATOM      3  O   UNL     1      18.552 -38.744  24.387  1.00  0.00    -0.550 OA
ATOM      4  O   UNL     1      18.639 -39.740  26.447  1.00  0.00    -0.550 OA
ENDBRANCH   1   2
BRANCH   1   5
ATOM      5  C   UNL     1      18.750 -42.297  25.257  1.00  0.00     0.006 C 
BRANCH   5   6
ATOM      6  C   UNL     1      17.614 -43.131  25.875  1.00  0.00    -0.003 C 
ATOM      7  C   UNL     1      17.739 -44.624  25.571  1.00  0.00     0.004 C 
ENDBRANCH   5   6
ENDBRANCH   1   5
TORSDOF 3
ENDMDL
MODEL 4
REMARK VINA RESULT:    -3.111      4.207      5.487
REMARK INTER + INTRA:          -3.702
REMARK INTER:                  -3.685
REMARK INTRA:                  -0.018
REMARK UNBOUND:                -0.046
REMARK SMILES CCCCC(=O)[O-]
REMARK SMILES IDX 4 1 5 2 6 3 7 4 3 5 2 6 1 7
REMARK H PARENT
REMARK Flexibility Score: inf
ROOT
ATOM      1  C   UNL     1      17.148 -45.496  27.734  1.00  0.00     0.053 C 
ENDROOT
BRANCH   1   2
ATOM      2  C   UNL     1      17.127 -45.272  29.215  1.00  0.00     0.041 C 
ATOM      3  O   UNL     1      18.199 -45.063  29.840  1.00  0.00    -0.550 OA
ATOM      4  O   UNL     1      15.919 -45.266  29.899  1.00  0.00    -0.550 OA
ENDBRANCH   1   2
BRANCH   1   5
ATOM      5  C   UNL     1      17.085 -44.174  26.953  1.00  0.00     0.006 C 
BRANCH   5   6
ATOM      6  C   UNL     1      17.842 -44.197  25.614  1.00  0.00    -0.003 C 
ATOM      7  C   UNL     1      18.629 -42.913  25.352  1.00  0.00     0.004 C 
ENDBRANCH   5   6
ENDBRANCH   1   5
TORSDOF 3
ENDMDL
MODEL 5
REMARK VINA RESULT:    -2.973      1.141      1.584
REMARK INTER + INTRA:          -3.540
REMARK INTER:                  -3.524
REMARK INTRA:                  -0.016
REMARK UNBOUND:                -0.046
REMARK SMILES CCCCC(=O)[O-]
REMARK SMILES IDX 4 1 5 2 6 3 7 4 3 5 2 6 1 7
REMARK H PARENT
REMARK Flexibility Score: inf
ROOT
ATOM      1  C   UNL     1      18.668 -42.497  25.703  1.00  0.00     0.053 C 
ENDROOT
BRANCH   1   2
ATOM      2  C   UNL     1      18.458 -41.070  25.298  1.00  0.00     0.041 C 
ATOM      3  O   UNL     1      18.628 -40.143  26.132  1.00  0.00    -0.550 OA
ATOM      4  O   UNL     1      18.104 -40.764  23.991  1.00  0.00    -0.550 OA
ENDBRANCH   1   2
BRANCH   1   5
ATOM      5  C   UNL     1      17.358 -43.301  25.669  1.00  0.00     0.006 C 
BRANCH   5   6
ATOM      6  C   UNL     1      17.544 -44.815  25.876  1.00  0.00    -0.003 C 
ATOM      7  C   UNL     1      17.179 -45.270  27.289  1.00  0.00     0.004 C 
ENDBRANCH   5   6
ENDBRANCH   1   5
TORSDOF 3
ENDMDL
MODEL 6
REMARK VINA RESULT:    -2.954      4.620      5.782
REMARK INTER + INTRA:          -3.518
REMARK INTER:                  -3.495
REMARK INTRA:                  -0.023
REMARK UNBOUND:                -0.046
REMARK SMILES CCCCC(=O)[O-]
REMARK SMILES IDX 4 1 5 2 6 3 7 4 3 5 2 6 1 7
REMARK H PARENT
REMARK Flexibility Score: inf
ROOT
ATOM      1  C   UNL     1      17.166 -45.079  28.210  1.00  0.00     0.053 C 
ENDROOT
BRANCH   1   2
ATOM      2  C   UNL     1      16.027 -45.304  29.156  1.00  0.00     0.041 C 
ATOM      3  O   UNL     1      14.905 -45.672  28.721  1.00  0.00    -0.550 OA
ATOM      4  O   UNL     1      16.215 -45.137  30.522  1.00  0.00    -0.550 OA
ENDBRANCH   1   2
BRANCH   1   5
ATOM      5  C   UNL     1      16.735 -44.271  26.975  1.00  0.00     0.006 C 
BRANCH   5   6
ATOM      6  C   UNL     1      17.620 -44.495  25.737  1.00  0.00    -0.003 C 
ATOM      7  C   UNL     1      18.440 -43.261  25.361  1.00  0.00     0.004 C 
ENDBRANCH   5   6
ENDBRANCH   1   5
TORSDOF 3
ENDMDL
MODEL 7
REMARK VINA RESULT:    -2.933      3.453      4.846
REMARK INTER + INTRA:          -3.493
REMARK INTER:                  -3.467
REMARK INTRA:                  -0.027
REMARK UNBOUND:                -0.046
REMARK SMILES CCCCC(=O)[O-]
REMARK SMILES IDX 4 1 5 2 6 3 7 4 3 5 2 6 1 7
REMARK H PARENT
REMARK Flexibility Score: inf
ROOT
ATOM      1  C   UNL     1      17.506 -44.816  26.349  1.00  0.00     0.053 C 
ENDROOT
BRANCH   1   2
ATOM      2  C   UNL     1      16.929 -44.871  27.730  1.00  0.00     0.041 C 
ATOM      3  O   UNL     1      15.897 -44.208  28.013  1.00  0.00    -0.550 OA
ATOM      4  O   UNL     1      17.515 -45.679  28.695  1.00  0.00    -0.550 OA
ENDBRANCH   1   2
BRANCH   1   5
ATOM      5  C   UNL     1      17.335 -43.427  25.711  1.00  0.00     0.006 C 
BRANCH   5   6
ATOM      6  C   UNL     1      18.660 -42.726  25.365  1.00  0.00    -0.003 C 
ATOM      7  C   UNL     1      18.458 -41.394  24.643  1.00  0.00     0.004 C 
ENDBRANCH   5   6
ENDBRANCH   1   5
TORSDOF 3
ENDMDL
MODEL 8
REMARK VINA RESULT:    -2.885      2.345      3.361
REMARK INTER + INTRA:          -3.437
REMARK INTER:                  -3.356
REMARK INTRA:                  -0.080
REMARK UNBOUND:                -0.046
REMARK SMILES CCCCC(=O)[O-]
REMARK SMILES IDX 4 1 5 2 6 3 7 4 3 5 2 6 1 7
REMARK H PARENT
REMARK Flexibility Score: inf
ROOT
ATOM      1  C   UNL     1      17.177 -43.804  25.779  1.00  0.00     0.053 C 
ENDROOT
BRANCH   1   2
ATOM      2  C   UNL     1      18.290 -42.816  25.948  1.00  0.00     0.041 C 
ATOM      3  O   UNL     1      19.018 -42.508  24.968  1.00  0.00    -0.550 OA
ATOM      4  O   UNL     1      18.503 -42.213  27.180  1.00  0.00    -0.550 OA
ENDBRANCH   1   2
BRANCH   1   5
ATOM      5  C   UNL     1      17.415 -45.081  26.601  1.00  0.00     0.006 C 
BRANCH   5   6
ATOM      6  C   UNL     1      16.636 -45.130  27.927  1.00  0.00    -0.003 C 
ATOM      7  C   UNL     1      17.516 -45.497  29.122  1.00  0.00     0.004 C 
ENDBRANCH   5   6
ENDBRANCH   1   5
TORSDOF 3
ENDMDL
MODEL 9
REMARK VINA RESULT:    -2.773      2.493      3.256
REMARK INTER + INTRA:          -3.305
REMARK INTER:                  -3.286
REMARK INTRA:                  -0.018
REMARK UNBOUND:                -0.046
REMARK SMILES CCCCC(=O)[O-]
REMARK SMILES IDX 4 1 5 2 6 3 7 4 3 5 2 6 1 7
REMARK H PARENT
REMARK Flexibility Score: inf
ROOT
ATOM      1  C   UNL     1      18.642 -39.138  27.026  1.00  0.00     0.053 C 
ENDROOT
BRANCH   1   2
ATOM      2  C   UNL     1      18.913 -38.768  28.452  1.00  0.00     0.041 C 
ATOM      3  O   UNL     1      18.353 -39.397  29.387  1.00  0.00    -0.550 OA
ATOM      4  O   UNL     1      19.807 -37.747  28.746  1.00  0.00    -0.550 OA
ENDBRANCH   1   2
BRANCH   1   5
ATOM      5  C   UNL     1      18.310 -40.631  26.874  1.00  0.00     0.006 C 
BRANCH   5   6
ATOM      6  C   UNL     1      18.411 -41.155  25.431  1.00  0.00    -0.003 C 
ATOM      7  C   UNL     1      18.924 -42.593  25.354  1.00  0.00     0.004 C 
ENDBRANCH   5   6
ENDBRANCH   1   5
TORSDOF 3
ENDMDL
