MODEL 1
REMARK VINA RESULT:    -5.412      0.000      0.000
REMARK INTER + INTRA:          -9.087
REMARK INTER:                  -8.260
REMARK INTRA:                  -0.827
REMARK UNBOUND:                -0.827
REMARK SMILES OC[C@@H]1O[C@H](O[C@]2(CO)O[C@@H](CO)[C@H](O)[C@H]2O)[C@H](O)[C@@H](O)[C@H]1O
REMARK SMILES IDX 6 1 5 2 3 3 22 4 4 5 20 6 18 7 2 8 1 9 23 11 21 13 19 15
REMARK SMILES IDX 7 17 16 18 10 19 14 20 11 21 8 22 9 23 17 25 15 27 12 29
REMARK SMILES IDX 13 30
REMARK H PARENT 1 10 23 12 21 14 19 16 9 24 17 26 15 28 13 31
REMARK Flexibility Score: inf
ROOT
ATOM      1  O   UNL     1      -9.284  25.802 -36.146  1.00  0.00    -0.313 OA
ENDROOT
BRANCH   1   2
ATOM      2  C   UNL     1      -9.594  24.415 -36.002  1.00  0.00     0.285 C 
ATOM      3  C   UNL     1      -9.591  22.277 -36.943  1.00  0.00     0.178 C 
ATOM      4  C   UNL     1      -8.889  21.590 -35.735  1.00  0.00     0.177 C 
ATOM      5  O   UNL     1      -9.163  23.619 -37.098  1.00  0.00    -0.341 OA
ATOM      6  C   UNL     1      -8.185  22.630 -34.834  1.00  0.00     0.179 C 
ATOM      7  C   UNL     1      -9.073  23.868 -34.636  1.00  0.00     0.202 C 
BRANCH   3   8
ATOM      8  C   UNL     1      -9.326  21.525 -38.253  1.00  0.00     0.191 C 
BRANCH   8   9
ATOM      9  O   UNL     1      -8.085  20.875 -38.198  1.00  0.00    -0.394 OA
ATOM     10  H   UNL     1      -8.228  19.979 -38.599  1.00  0.00     0.210 HD
ENDBRANCH   8   9
ENDBRANCH   3   8
BRANCH   4  11
ATOM     11  O   UNL     1      -9.853  20.877 -34.995  1.00  0.00    -0.387 OA
ATOM     12  H   UNL     1      -9.623  20.984 -34.035  1.00  0.00     0.211 HD
ENDBRANCH   4  11
BRANCH   6  13
ATOM     13  O   UNL     1      -7.867  22.074 -33.584  1.00  0.00    -0.387 OA
ATOM     14  H   UNL     1      -8.150  21.123 -33.614  1.00  0.00     0.211 HD
ENDBRANCH   6  13
BRANCH   7  15
ATOM     15  O   UNL     1      -8.346  24.846 -33.934  1.00  0.00    -0.385 OA
ATOM     16  H   UNL     1      -7.530  24.401 -33.585  1.00  0.00     0.211 HD
ENDBRANCH   7  15
ENDBRANCH   1   2
BRANCH   1  17
ATOM     17  C   UNL     1     -10.344  26.755 -36.039  1.00  0.00     0.224 C 
ATOM     18  C   UNL     1     -10.364  27.724 -37.256  1.00  0.00     0.208 C 
ATOM     19  O   UNL     1     -11.545  26.004 -36.076  1.00  0.00    -0.337 OA
ATOM     20  C   UNL     1     -11.774  27.631 -37.773  1.00  0.00     0.180 C 
ATOM     21  C   UNL     1     -12.191  26.251 -37.301  1.00  0.00     0.179 C 
BRANCH  17  22
ATOM     22  C   UNL     1     -10.341  27.474 -34.663  1.00  0.00     0.225 C 
BRANCH  22  23
ATOM     23  O   UNL     1     -10.782  26.597 -33.662  1.00  0.00    -0.391 OA
ATOM     24  H   UNL     1     -11.506  26.052 -34.068  1.00  0.00     0.210 HD
ENDBRANCH  22  23
ENDBRANCH  17  22
BRANCH  18  25
ATOM     25  O   UNL     1     -10.053  29.050 -36.905  1.00  0.00    -0.385 OA
ATOM     26  H   UNL     1      -9.068  29.091 -36.793  1.00  0.00     0.211 HD
ENDBRANCH  18  25
BRANCH  20  27
ATOM     27  O   UNL     1     -11.800  27.727 -39.174  1.00  0.00    -0.387 OA
ATOM     28  H   UNL     1     -11.844  26.798 -39.520  1.00  0.00     0.211 HD
ENDBRANCH  20  27
BRANCH  21  29
ATOM     29  C   UNL     1     -13.711  26.144 -37.120  1.00  0.00     0.191 C 
BRANCH  29  30
ATOM     30  O   UNL     1     -14.028  25.049 -36.303  1.00  0.00    -0.394 OA
ATOM     31  H   UNL     1     -14.753  25.347 -35.694  1.00  0.00     0.210 HD
ENDBRANCH  29  30
ENDBRANCH  21  29
ENDBRANCH   1  17
TORSDOF 13
ENDMDL
MODEL 2
REMARK VINA RESULT:    -5.366      1.759      2.957
REMARK INTER + INTRA:          -9.016
REMARK INTER:                  -7.938
REMARK INTRA:                  -1.079
REMARK UNBOUND:                -0.827
REMARK SMILES OC[C@@H]1O[C@H](O[C@]2(CO)O[C@@H](CO)[C@H](O)[C@H]2O)[C@H](O)[C@@H](O)[C@H]1O
REMARK SMILES IDX 6 1 5 2 3 3 22 4 4 5 20 6 18 7 2 8 1 9 23 11 21 13 19 15
REMARK SMILES IDX 7 17 16 18 10 19 14 20 11 21 8 22 9 23 17 25 15 27 12 29
REMARK SMILES IDX 13 30
REMARK H PARENT 1 10 23 12 21 14 19 16 9 24 17 26 15 28 13 31
REMARK Flexibility Score: inf
ROOT
ATOM      1  O   UNL     1      -9.448  25.285 -36.958  1.00  0.00    -0.313 OA
ENDROOT
BRANCH   1   2
ATOM      2  C   UNL     1      -9.603  24.311 -35.925  1.00  0.00     0.285 C 
ATOM      3  C   UNL     1      -9.074  22.186 -35.112  1.00  0.00     0.178 C 
ATOM      4  C   UNL     1      -8.634  22.678 -33.702  1.00  0.00     0.177 C 
ATOM      5  O   UNL     1      -8.798  23.154 -36.109  1.00  0.00    -0.341 OA
ATOM      6  C   UNL     1      -8.334  24.194 -33.709  1.00  0.00     0.179 C 
ATOM      7  C   UNL     1      -9.396  24.955 -34.518  1.00  0.00     0.202 C 
BRANCH   3   8
ATOM      8  C   UNL     1      -8.376  20.875 -35.497  1.00  0.00     0.191 C 
BRANCH   8   9
ATOM      9  O   UNL     1      -8.057  20.876 -36.862  1.00  0.00    -0.394 OA
ATOM     10  H   UNL     1      -8.775  20.359 -37.311  1.00  0.00     0.210 HD
ENDBRANCH   8   9
ENDBRANCH   3   8
BRANCH   4  11
ATOM     11  O   UNL     1      -9.658  22.387 -32.779  1.00  0.00    -0.387 OA
ATOM     12  H   UNL     1     -10.408  23.011 -32.967  1.00  0.00     0.211 HD
ENDBRANCH   4  11
BRANCH   6  13
ATOM     13  O   UNL     1      -8.290  24.700 -32.399  1.00  0.00    -0.387 OA
ATOM     14  H   UNL     1      -7.735  25.523 -32.430  1.00  0.00     0.211 HD
ENDBRANCH   6  13
BRANCH   7  15
ATOM     15  O   UNL     1      -9.014  26.304 -34.621  1.00  0.00    -0.385 OA
ATOM     16  H   UNL     1      -8.253  26.435 -33.996  1.00  0.00     0.211 HD
ENDBRANCH   7  15
ENDBRANCH   1   2
BRANCH   1  17
ATOM     17  C   UNL     1     -10.551  25.536 -37.833  1.00  0.00     0.224 C 
ATOM     18  C   UNL     1     -11.698  24.508 -37.611  1.00  0.00     0.208 C 
ATOM     19  O   UNL     1     -11.049  26.811 -37.472  1.00  0.00    -0.337 OA
ATOM     20  C   UNL     1     -12.914  25.364 -37.378  1.00  0.00     0.180 C 
ATOM     21  C   UNL     1     -12.299  26.645 -36.847  1.00  0.00     0.179 C 
BRANCH  17  22
ATOM     22  C   UNL     1     -10.100  25.665 -39.312  1.00  0.00     0.225 C 
BRANCH  22  23
ATOM     23  O   UNL     1      -8.709  25.834 -39.378  1.00  0.00    -0.391 OA
ATOM     24  H   UNL     1      -8.464  25.758 -40.338  1.00  0.00     0.210 HD
ENDBRANCH  22  23
ENDBRANCH  17  22
BRANCH  18  25
ATOM     25  O   UNL     1     -11.895  23.661 -38.717  1.00  0.00    -0.385 OA
ATOM     26  H   UNL     1     -12.590  24.088 -39.281  1.00  0.00     0.211 HD
ENDBRANCH  18  25
BRANCH  20  27
ATOM     27  O   UNL     1     -13.768  24.771 -36.434  1.00  0.00    -0.387 OA
ATOM     28  H   UNL     1     -13.976  23.862 -36.773  1.00  0.00     0.211 HD
ENDBRANCH  20  27
BRANCH  21  29
ATOM     29  C   UNL     1     -13.187  27.864 -37.123  1.00  0.00     0.191 C 
BRANCH  29  30
ATOM     30  O   UNL     1     -14.519  27.583 -36.788  1.00  0.00    -0.394 OA
ATOM     31  H   UNL     1     -15.083  28.233 -37.283  1.00  0.00     0.210 HD
ENDBRANCH  29  30
ENDBRANCH  21  29
ENDBRANCH   1  17
TORSDOF 13
ENDMDL
MODEL 3
REMARK VINA RESULT:    -5.273      1.700      3.650
REMARK INTER + INTRA:          -8.874
REMARK INTER:                  -8.126
REMARK INTRA:                  -0.748
REMARK UNBOUND:                -0.827
REMARK SMILES OC[C@@H]1O[C@H](O[C@]2(CO)O[C@@H](CO)[C@H](O)[C@H]2O)[C@H](O)[C@@H](O)[C@H]1O
REMARK SMILES IDX 6 1 5 2 3 3 22 4 4 5 20 6 18 7 2 8 1 9 23 11 21 13 19 15
REMARK SMILES IDX 7 17 16 18 10 19 14 20 11 21 8 22 9 23 17 25 15 27 12 29
REMARK SMILES IDX 13 30
REMARK H PARENT 1 10 23 12 21 14 19 16 9 24 17 26 15 28 13 31
REMARK Flexibility Score: inf
ROOT
ATOM      1  O   UNL     1     -10.584  26.013 -37.756  1.00  0.00    -0.313 OA
ENDROOT
BRANCH   1   2
ATOM      2  C   UNL     1      -9.726  25.038 -37.160  1.00  0.00     0.285 C 
ATOM      3  C   UNL     1      -8.817  24.129 -35.210  1.00  0.00     0.178 C 
ATOM      4  C   UNL     1      -9.193  22.657 -35.550  1.00  0.00     0.177 C 
ATOM      5  O   UNL     1      -9.763  25.042 -35.738  1.00  0.00    -0.341 OA
ATOM      6  C   UNL     1     -10.286  22.598 -36.642  1.00  0.00     0.179 C 
ATOM      7  C   UNL     1     -10.000  23.621 -37.753  1.00  0.00     0.202 C 
BRANCH   3   8
ATOM      8  C   UNL     1      -8.717  24.352 -33.696  1.00  0.00     0.191 C 
BRANCH   8   9
ATOM      9  O   UNL     1      -9.617  25.347 -33.290  1.00  0.00    -0.394 OA
ATOM     10  H   UNL     1      -9.285  26.194 -33.686  1.00  0.00     0.210 HD
ENDBRANCH   8   9
ENDBRANCH   3   8
BRANCH   4  11
ATOM     11  O   UNL     1      -8.036  21.980 -35.982  1.00  0.00    -0.387 OA
ATOM     12  H   UNL     1      -7.518  21.736 -35.171  1.00  0.00     0.211 HD
ENDBRANCH   4  11
BRANCH   6  13
ATOM     13  O   UNL     1     -10.369  21.311 -37.197  1.00  0.00    -0.387 OA
ATOM     14  H   UNL     1     -11.277  21.227 -37.589  1.00  0.00     0.211 HD
ENDBRANCH   6  13
BRANCH   7  15
ATOM     15  O   UNL     1     -11.083  23.638 -38.649  1.00  0.00    -0.385 OA
ATOM     16  H   UNL     1     -11.587  22.794 -38.507  1.00  0.00     0.211 HD
ENDBRANCH   7  15
ENDBRANCH   1   2
BRANCH   1  17
ATOM     17  C   UNL     1     -11.128  27.044 -36.928  1.00  0.00     0.224 C 
ATOM     18  C   UNL     1     -10.004  27.902 -36.276  1.00  0.00     0.208 C 
ATOM     19  O   UNL     1     -11.859  27.892 -37.796  1.00  0.00    -0.337 OA
ATOM     20  C   UNL     1     -10.367  29.316 -36.644  1.00  0.00     0.180 C 
ATOM     21  C   UNL     1     -11.172  29.114 -37.913  1.00  0.00     0.179 C 
BRANCH  17  22
ATOM     22  C   UNL     1     -12.162  26.488 -35.914  1.00  0.00     0.225 C 
BRANCH  22  23
ATOM     23  O   UNL     1     -12.799  25.358 -36.447  1.00  0.00    -0.391 OA
ATOM     24  H   UNL     1     -13.140  25.626 -37.340  1.00  0.00     0.210 HD
ENDBRANCH  22  23
ENDBRANCH  17  22
BRANCH  18  25
ATOM     25  O   UNL     1      -9.944  27.754 -34.879  1.00  0.00    -0.385 OA
ATOM     26  H   UNL     1     -10.457  26.934 -34.658  1.00  0.00     0.211 HD
ENDBRANCH  18  25
BRANCH  20  27
ATOM     27  O   UNL     1      -9.214  30.082 -36.878  1.00  0.00    -0.387 OA
ATOM     28  H   UNL     1      -9.474  30.795 -37.518  1.00  0.00     0.211 HD
ENDBRANCH  20  27
BRANCH  21  29
ATOM     29  C   UNL     1     -12.172  30.254 -38.144  1.00  0.00     0.191 C 
BRANCH  29  30
ATOM     30  O   UNL     1     -11.599  31.484 -37.790  1.00  0.00    -0.394 OA
ATOM     31  H   UNL     1     -10.864  31.285 -37.153  1.00  0.00     0.210 HD
ENDBRANCH  29  30
ENDBRANCH  21  29
ENDBRANCH   1  17
TORSDOF 13
ENDMDL
MODEL 4
REMARK VINA RESULT:    -5.272      1.169      1.262
REMARK INTER + INTRA:          -8.872
REMARK INTER:                  -7.872
REMARK INTRA:                  -1.000
REMARK UNBOUND:                -0.827
REMARK SMILES OC[C@@H]1O[C@H](O[C@]2(CO)O[C@@H](CO)[C@H](O)[C@H]2O)[C@H](O)[C@@H](O)[C@H]1O
REMARK SMILES IDX 6 1 5 2 3 3 22 4 4 5 20 6 18 7 2 8 1 9 23 11 21 13 19 15
REMARK SMILES IDX 7 17 16 18 10 19 14 20 11 21 8 22 9 23 17 25 15 27 12 29
REMARK SMILES IDX 13 30
REMARK H PARENT 1 10 23 12 21 14 19 16 9 24 17 26 15 28 13 31
REMARK Flexibility Score: inf
ROOT
ATOM      1  O   UNL     1      -9.400  25.815 -36.227  1.00  0.00    -0.313 OA
ENDROOT
BRANCH   1   2
ATOM      2  C   UNL     1      -9.809  24.503 -36.616  1.00  0.00     0.285 C 
ATOM      3  C   UNL     1     -10.018  22.918 -38.319  1.00  0.00     0.178 C 
ATOM      4  C   UNL     1      -9.314  21.772 -37.534  1.00  0.00     0.177 C 
ATOM      5  O   UNL     1      -9.494  24.186 -37.966  1.00  0.00    -0.341 OA
ATOM      6  C   UNL     1      -8.489  22.330 -36.352  1.00  0.00     0.179 C 
ATOM      7  C   UNL     1      -9.268  23.433 -35.617  1.00  0.00     0.202 C 
BRANCH   3   8
ATOM      8  C   UNL     1      -9.874  22.735 -39.835  1.00  0.00     0.191 C 
BRANCH   8   9
ATOM      9  O   UNL     1     -10.100  21.397 -40.187  1.00  0.00    -0.394 OA
ATOM     10  H   UNL     1     -10.216  21.389 -41.172  1.00  0.00     0.210 HD
ENDBRANCH   8   9
ENDBRANCH   3   8
BRANCH   4  11
ATOM     11  O   UNL     1     -10.294  20.875 -37.063  1.00  0.00    -0.387 OA
ATOM     12  H   UNL     1     -10.584  21.199 -36.171  1.00  0.00     0.211 HD
ENDBRANCH   4  11
BRANCH   6  13
ATOM     13  O   UNL     1      -8.156  21.308 -35.448  1.00  0.00    -0.387 OA
ATOM     14  H   UNL     1      -7.739  21.747 -34.661  1.00  0.00     0.211 HD
ENDBRANCH   6  13
BRANCH   7  15
ATOM     15  O   UNL     1      -8.434  24.012 -34.645  1.00  0.00    -0.385 OA
ATOM     16  H   UNL     1      -8.294  23.325 -33.941  1.00  0.00     0.211 HD
ENDBRANCH   7  15
ENDBRANCH   1   2
BRANCH   1  17
ATOM     17  C   UNL     1     -10.405  26.773 -35.886  1.00  0.00     0.224 C 
ATOM     18  C   UNL     1     -10.395  27.981 -36.867  1.00  0.00     0.208 C 
ATOM     19  O   UNL     1     -11.645  26.107 -36.048  1.00  0.00    -0.337 OA
ATOM     20  C   UNL     1     -11.818  28.070 -37.350  1.00  0.00     0.180 C 
ATOM     21  C   UNL     1     -12.300  26.643 -37.172  1.00  0.00     0.179 C 
BRANCH  17  22
ATOM     22  C   UNL     1     -10.337  27.178 -34.390  1.00  0.00     0.225 C 
BRANCH  22  23
ATOM     23  O   UNL     1     -10.425  26.037 -33.579  1.00  0.00    -0.391 OA
ATOM     24  H   UNL     1     -11.043  25.413 -34.042  1.00  0.00     0.210 HD
ENDBRANCH  22  23
ENDBRANCH  17  22
BRANCH  18  25
ATOM     25  O   UNL     1     -10.007  29.184 -36.250  1.00  0.00    -0.385 OA
ATOM     26  H   UNL     1     -10.155  29.064 -35.276  1.00  0.00     0.211 HD
ENDBRANCH  18  25
BRANCH  20  27
ATOM     27  O   UNL     1     -11.864  28.466 -38.696  1.00  0.00    -0.387 OA
ATOM     28  H   UNL     1     -10.978  28.246 -39.087  1.00  0.00     0.211 HD
ENDBRANCH  20  27
BRANCH  21  29
ATOM     29  C   UNL     1     -13.819  26.573 -36.973  1.00  0.00     0.191 C 
BRANCH  29  30
ATOM     30  O   UNL     1     -14.192  25.302 -36.511  1.00  0.00    -0.394 OA
ATOM     31  H   UNL     1     -13.729  24.641 -37.089  1.00  0.00     0.210 HD
ENDBRANCH  29  30
ENDBRANCH  21  29
ENDBRANCH   1  17
TORSDOF 13
ENDMDL
MODEL 5
REMARK VINA RESULT:    -5.255      2.393      6.912
REMARK INTER + INTRA:          -8.846
REMARK INTER:                  -7.930
REMARK INTRA:                  -0.916
REMARK UNBOUND:                -0.827
REMARK SMILES OC[C@@H]1O[C@H](O[C@]2(CO)O[C@@H](CO)[C@H](O)[C@H]2O)[C@H](O)[C@@H](O)[C@H]1O
REMARK SMILES IDX 6 1 5 2 3 3 22 4 4 5 20 6 18 7 2 8 1 9 23 11 21 13 19 15
REMARK SMILES IDX 7 17 16 18 10 19 14 20 11 21 8 22 9 23 17 25 15 27 12 29
REMARK SMILES IDX 13 30
REMARK H PARENT 1 10 23 12 21 14 19 16 9 24 17 26 15 28 13 31
REMARK Flexibility Score: inf
ROOT
ATOM      1  O   UNL     1     -10.303  27.688 -37.216  1.00  0.00    -0.313 OA
ENDROOT
BRANCH   1   2
ATOM      2  C   UNL     1     -10.791  28.992 -36.896  1.00  0.00     0.285 C 
ATOM      3  C   UNL     1     -10.324  31.258 -36.578  1.00  0.00     0.178 C 
ATOM      4  C   UNL     1     -11.443  31.770 -37.531  1.00  0.00     0.177 C 
ATOM      5  O   UNL     1      -9.806  30.011 -37.008  1.00  0.00    -0.341 OA
ATOM      6  C   UNL     1     -11.924  30.649 -38.480  1.00  0.00     0.179 C 
ATOM      7  C   UNL     1     -12.076  29.322 -37.720  1.00  0.00     0.202 C 
BRANCH   3   8
ATOM      8  C   UNL     1      -9.166  32.259 -36.476  1.00  0.00     0.191 C 
BRANCH   8   9
ATOM      9  O   UNL     1      -7.937  31.592 -36.579  1.00  0.00    -0.394 OA
ATOM     10  H   UNL     1      -7.985  31.056 -37.412  1.00  0.00     0.210 HD
ENDBRANCH   8   9
ENDBRANCH   3   8
BRANCH   4  11
ATOM     11  O   UNL     1     -12.518  32.247 -36.756  1.00  0.00    -0.387 OA
ATOM     12  H   UNL     1     -13.049  31.457 -36.472  1.00  0.00     0.211 HD
ENDBRANCH   4  11
BRANCH   6  13
ATOM     13  O   UNL     1     -13.148  30.991 -39.077  1.00  0.00    -0.387 OA
ATOM     14  H   UNL     1     -13.487  31.791 -38.596  1.00  0.00     0.211 HD
ENDBRANCH   6  13
BRANCH   7  15
ATOM     15  O   UNL     1     -12.375  28.300 -38.638  1.00  0.00    -0.385 OA
ATOM     16  H   UNL     1     -11.621  28.265 -39.284  1.00  0.00     0.211 HD
ENDBRANCH   7  15
ENDBRANCH   1   2
BRANCH   1  17
ATOM     17  C   UNL     1     -10.591  26.611 -36.322  1.00  0.00     0.224 C 
ATOM     18  C   UNL     1     -11.790  25.758 -36.828  1.00  0.00     0.208 C 
ATOM     19  O   UNL     1      -9.444  25.779 -36.335  1.00  0.00    -0.337 OA
ATOM     20  C   UNL     1     -11.256  24.350 -36.840  1.00  0.00     0.180 C 
ATOM     21  C   UNL     1      -9.766  24.582 -36.999  1.00  0.00     0.179 C 
BRANCH  17  22
ATOM     22  C   UNL     1     -10.740  27.098 -34.856  1.00  0.00     0.225 C 
BRANCH  22  23
ATOM     23  O   UNL     1     -10.422  26.058 -33.970  1.00  0.00    -0.391 OA
ATOM     24  H   UNL     1      -9.441  25.924 -34.039  1.00  0.00     0.210 HD
ENDBRANCH  22  23
ENDBRANCH  17  22
BRANCH  18  25
ATOM     25  O   UNL     1     -12.918  25.850 -35.993  1.00  0.00    -0.385 OA
ATOM     26  H   UNL     1     -13.520  25.102 -36.244  1.00  0.00     0.211 HD
ENDBRANCH  18  25
BRANCH  20  27
ATOM     27  O   UNL     1     -11.785  23.626 -37.920  1.00  0.00    -0.387 OA
ATOM     28  H   UNL     1     -12.461  23.006 -37.541  1.00  0.00     0.211 HD
ENDBRANCH  20  27
BRANCH  21  29
ATOM     29  C   UNL     1      -8.942  23.425 -36.418  1.00  0.00     0.191 C 
BRANCH  29  30
ATOM     30  O   UNL     1      -8.910  23.505 -35.019  1.00  0.00    -0.394 OA
ATOM     31  H   UNL     1      -9.298  24.385 -34.773  1.00  0.00     0.210 HD
ENDBRANCH  29  30
ENDBRANCH  21  29
ENDBRANCH   1  17
TORSDOF 13
ENDMDL
MODEL 6
REMARK VINA RESULT:    -5.119      2.696      7.313
REMARK INTER + INTRA:          -8.639
REMARK INTER:                  -7.795
REMARK INTRA:                  -0.844
REMARK UNBOUND:                -0.827
REMARK SMILES OC[C@@H]1O[C@H](O[C@]2(CO)O[C@@H](CO)[C@H](O)[C@H]2O)[C@H](O)[C@@H](O)[C@H]1O
REMARK SMILES IDX 6 1 5 2 3 3 22 4 4 5 20 6 18 7 2 8 1 9 23 11 21 13 19 15
REMARK SMILES IDX 7 17 16 18 10 19 14 20 11 21 8 22 9 23 17 25 15 27 12 29
REMARK SMILES IDX 13 30
REMARK H PARENT 1 10 23 12 21 14 19 16 9 24 17 26 15 28 13 31
REMARK Flexibility Score: inf
ROOT
ATOM      1  O   UNL     1     -11.162  28.142 -37.910  1.00  0.00    -0.313 OA
ENDROOT
BRANCH   1   2
ATOM      2  C   UNL     1     -11.412  29.422 -37.325  1.00  0.00     0.285 C 
ATOM      3  C   UNL     1     -10.554  31.471 -36.605  1.00  0.00     0.178 C 
ATOM      4  C   UNL     1     -11.583  32.339 -37.387  1.00  0.00     0.177 C 
ATOM      5  O   UNL     1     -10.267  30.264 -37.289  1.00  0.00    -0.341 OA
ATOM      6  C   UNL     1     -12.266  31.521 -38.507  1.00  0.00     0.179 C 
ATOM      7  C   UNL     1     -12.633  30.115 -38.006  1.00  0.00     0.202 C 
BRANCH   3   8
ATOM      8  C   UNL     1      -9.239  32.225 -36.373  1.00  0.00     0.191 C 
BRANCH   8   9
ATOM      9  O   UNL     1      -8.146  31.372 -36.580  1.00  0.00    -0.394 OA
ATOM     10  H   UNL     1      -8.422  30.742 -37.296  1.00  0.00     0.210 HD
ENDBRANCH   8   9
ENDBRANCH   3   8
BRANCH   4  11
ATOM     11  O   UNL     1     -12.546  32.828 -36.483  1.00  0.00    -0.387 OA
ATOM     12  H   UNL     1     -13.219  33.330 -37.014  1.00  0.00     0.211 HD
ENDBRANCH   4  11
BRANCH   6  13
ATOM     13  O   UNL     1     -13.422  32.173 -38.968  1.00  0.00    -0.387 OA
ATOM     14  H   UNL     1     -13.739  31.666 -39.760  1.00  0.00     0.211 HD
ENDBRANCH   6  13
BRANCH   7  15
ATOM     15  O   UNL     1     -13.119  29.357 -39.086  1.00  0.00    -0.385 OA
ATOM     16  H   UNL     1     -13.338  29.999 -39.811  1.00  0.00     0.211 HD
ENDBRANCH   7  15
ENDBRANCH   1   2
BRANCH   1  17
ATOM     17  C   UNL     1     -11.424  26.972 -37.133  1.00  0.00     0.224 C 
ATOM     18  C   UNL     1     -10.861  25.694 -37.822  1.00  0.00     0.208 C 
ATOM     19  O   UNL     1     -10.715  27.146 -35.919  1.00  0.00    -0.337 OA
ATOM     20  C   UNL     1     -10.007  25.055 -36.759  1.00  0.00     0.180 C 
ATOM     21  C   UNL     1      -9.635  26.245 -35.897  1.00  0.00     0.179 C 
BRANCH  17  22
ATOM     22  C   UNL     1     -12.920  26.863 -36.734  1.00  0.00     0.225 C 
BRANCH  22  23
ATOM     23  O   UNL     1     -13.122  25.731 -35.931  1.00  0.00    -0.391 OA
ATOM     24  H   UNL     1     -13.246  26.066 -35.004  1.00  0.00     0.210 HD
ENDBRANCH  22  23
ENDBRANCH  17  22
BRANCH  18  25
ATOM     25  O   UNL     1     -11.870  24.810 -38.243  1.00  0.00    -0.385 OA
ATOM     26  H   UNL     1     -12.709  25.338 -38.290  1.00  0.00     0.211 HD
ENDBRANCH  18  25
BRANCH  20  27
ATOM     27  O   UNL     1      -8.873  24.452 -37.327  1.00  0.00    -0.387 OA
ATOM     28  H   UNL     1      -8.800  24.802 -38.252  1.00  0.00     0.211 HD
ENDBRANCH  20  27
BRANCH  21  29
ATOM     29  C   UNL     1      -9.330  25.831 -34.451  1.00  0.00     0.191 C 
BRANCH  29  30
ATOM     30  O   UNL     1     -10.437  26.083 -33.628  1.00  0.00    -0.394 OA
ATOM     31  H   UNL     1     -10.222  25.706 -32.736  1.00  0.00     0.210 HD
ENDBRANCH  29  30
ENDBRANCH  21  29
ENDBRANCH   1  17
TORSDOF 13
ENDMDL
MODEL 7
REMARK VINA RESULT:    -5.058      1.450      2.129
REMARK INTER + INTRA:          -8.546
REMARK INTER:                  -7.798
REMARK INTRA:                  -0.747
REMARK UNBOUND:                -0.827
REMARK SMILES OC[C@@H]1O[C@H](O[C@]2(CO)O[C@@H](CO)[C@H](O)[C@H]2O)[C@H](O)[C@@H](O)[C@H]1O
REMARK SMILES IDX 6 1 5 2 3 3 22 4 4 5 20 6 18 7 2 8 1 9 23 11 21 13 19 15
REMARK SMILES IDX 7 17 16 18 10 19 14 20 11 21 8 22 9 23 17 25 15 27 12 29
REMARK SMILES IDX 13 30
REMARK H PARENT 1 10 23 12 21 14 19 16 9 24 17 26 15 28 13 31
REMARK Flexibility Score: inf
ROOT
ATOM      1  O   UNL     1      -9.415  25.824 -36.933  1.00  0.00    -0.313 OA
ENDROOT
BRANCH   1   2
ATOM      2  C   UNL     1      -9.607  24.711 -36.056  1.00  0.00     0.285 C 
ATOM      3  C   UNL     1      -9.133  22.479 -35.558  1.00  0.00     0.178 C 
ATOM      4  C   UNL     1      -8.708  22.749 -34.085  1.00  0.00     0.177 C 
ATOM      5  O   UNL     1      -8.820  23.577 -36.397  1.00  0.00    -0.341 OA
ATOM      6  C   UNL     1      -8.379  24.243 -33.863  1.00  0.00     0.179 C 
ATOM      7  C   UNL     1      -9.412  25.137 -34.567  1.00  0.00     0.202 C 
BRANCH   3   8
ATOM      8  C   UNL     1      -8.454  21.225 -36.122  1.00  0.00     0.191 C 
BRANCH   8   9
ATOM      9  O   UNL     1      -8.378  21.299 -37.520  1.00  0.00    -0.394 OA
ATOM     10  H   UNL     1      -8.055  22.214 -37.728  1.00  0.00     0.210 HD
ENDBRANCH   8   9
ENDBRANCH   3   8
BRANCH   4  11
ATOM     11  O   UNL     1      -9.753  22.348 -33.230  1.00  0.00    -0.387 OA
ATOM     12  H   UNL     1     -10.224  21.595 -33.674  1.00  0.00     0.211 HD
ENDBRANCH   4  11
BRANCH   6  13
ATOM     13  O   UNL     1      -8.347  24.550 -32.493  1.00  0.00    -0.387 OA
ATOM     14  H   UNL     1      -8.323  23.684 -32.007  1.00  0.00     0.211 HD
ENDBRANCH   6  13
BRANCH   7  15
ATOM     15  O   UNL     1      -9.002  26.478 -34.465  1.00  0.00    -0.385 OA
ATOM     16  H   UNL     1      -8.993  26.847 -35.387  1.00  0.00     0.211 HD
ENDBRANCH   7  15
ENDBRANCH   1   2
BRANCH   1  17
ATOM     17  C   UNL     1     -10.562  26.418 -37.545  1.00  0.00     0.224 C 
ATOM     18  C   UNL     1     -10.564  26.195 -39.085  1.00  0.00     0.208 C 
ATOM     19  O   UNL     1     -11.683  25.730 -37.017  1.00  0.00    -0.337 OA
ATOM     20  C   UNL     1     -11.910  25.582 -39.363  1.00  0.00     0.180 C 
ATOM     21  C   UNL     1     -12.241  24.933 -38.033  1.00  0.00     0.179 C 
BRANCH  17  22
ATOM     22  C   UNL     1     -10.743  27.900 -37.124  1.00  0.00     0.225 C 
BRANCH  22  23
ATOM     23  O   UNL     1      -9.585  28.631 -37.429  1.00  0.00    -0.391 OA
ATOM     24  H   UNL     1      -9.703  29.525 -37.012  1.00  0.00     0.210 HD
ENDBRANCH  22  23
ENDBRANCH  17  22
BRANCH  18  25
ATOM     25  O   UNL     1     -10.406  27.389 -39.811  1.00  0.00    -0.385 OA
ATOM     26  H   UNL     1     -10.908  28.089 -39.318  1.00  0.00     0.211 HD
ENDBRANCH  18  25
BRANCH  20  27
ATOM     27  O   UNL     1     -11.823  24.633 -40.394  1.00  0.00    -0.387 OA
ATOM     28  H   UNL     1     -10.918  24.232 -40.333  1.00  0.00     0.211 HD
ENDBRANCH  20  27
BRANCH  21  29
ATOM     29  C   UNL     1     -13.754  24.801 -37.821  1.00  0.00     0.191 C 
BRANCH  29  30
ATOM     30  O   UNL     1     -14.081  25.038 -36.478  1.00  0.00    -0.394 OA
ATOM     31  H   UNL     1     -13.793  25.966 -36.273  1.00  0.00     0.210 HD
ENDBRANCH  29  30
ENDBRANCH  21  29
ENDBRANCH   1  17
TORSDOF 13
ENDMDL
MODEL 8
REMARK VINA RESULT:    -4.941      2.723      6.942
REMARK INTER + INTRA:          -8.367
REMARK INTER:                  -7.320
REMARK INTRA:                  -1.047
REMARK UNBOUND:                -0.827
REMARK SMILES OC[C@@H]1O[C@H](O[C@]2(CO)O[C@@H](CO)[C@H](O)[C@H]2O)[C@H](O)[C@@H](O)[C@H]1O
REMARK SMILES IDX 6 1 5 2 3 3 22 4 4 5 20 6 18 7 2 8 1 9 23 11 21 13 19 15
REMARK SMILES IDX 7 17 16 18 10 19 14 20 11 21 8 22 9 23 17 25 15 27 12 29
REMARK SMILES IDX 13 30
REMARK H PARENT 1 10 23 12 21 14 19 16 9 24 17 26 15 28 13 31
REMARK Flexibility Score: inf
ROOT
ATOM      1  O   UNL     1     -10.611  27.960 -37.943  1.00  0.00    -0.313 OA
ENDROOT
BRANCH   1   2
ATOM      2  C   UNL     1     -11.030  29.180 -37.330  1.00  0.00     0.285 C 
ATOM      3  C   UNL     1     -10.468  31.333 -36.619  1.00  0.00     0.178 C 
ATOM      4  C   UNL     1     -11.653  32.036 -37.344  1.00  0.00     0.177 C 
ATOM      5  O   UNL     1     -10.029  30.190 -37.332  1.00  0.00    -0.341 OA
ATOM      6  C   UNL     1     -12.251  31.130 -38.445  1.00  0.00     0.179 C 
ATOM      7  C   UNL     1     -12.373  29.681 -37.948  1.00  0.00     0.202 C 
BRANCH   3   8
ATOM      8  C   UNL     1      -9.276  32.280 -36.434  1.00  0.00     0.191 C 
BRANCH   8   9
ATOM      9  O   UNL     1      -8.070  31.573 -36.544  1.00  0.00    -0.394 OA
ATOM     10  H   UNL     1      -7.386  32.240 -36.810  1.00  0.00     0.210 HD
ENDBRANCH   8   9
ENDBRANCH   3   8
BRANCH   4  11
ATOM     11  O   UNL     1     -12.639  32.363 -36.393  1.00  0.00    -0.387 OA
ATOM     12  H   UNL     1     -13.285  31.609 -36.369  1.00  0.00     0.211 HD
ENDBRANCH   4  11
BRANCH   6  13
ATOM     13  O   UNL     1     -13.513  31.598 -38.846  1.00  0.00    -0.387 OA
ATOM     14  H   UNL     1     -13.961  30.846 -39.314  1.00  0.00     0.211 HD
ENDBRANCH   6  13
BRANCH   7  15
ATOM     15  O   UNL     1     -12.784  28.864 -39.016  1.00  0.00    -0.385 OA
ATOM     16  H   UNL     1     -13.346  28.144 -38.628  1.00  0.00     0.211 HD
ENDBRANCH   7  15
ENDBRANCH   1   2
BRANCH   1  17
ATOM     17  C   UNL     1     -10.690  26.750 -37.185  1.00  0.00     0.224 C 
ATOM     18  C   UNL     1     -11.940  26.742 -36.257  1.00  0.00     0.208 C 
ATOM     19  O   UNL     1     -10.859  25.710 -38.132  1.00  0.00    -0.337 OA
ATOM     20  C   UNL     1     -12.641  25.455 -36.602  1.00  0.00     0.180 C 
ATOM     21  C   UNL     1     -12.171  25.212 -38.024  1.00  0.00     0.179 C 
BRANCH  17  22
ATOM     22  C   UNL     1      -9.360  26.438 -36.451  1.00  0.00     0.225 C 
BRANCH  22  23
ATOM     23  O   UNL     1      -9.329  25.089 -36.065  1.00  0.00    -0.391 OA
ATOM     24  H   UNL     1      -8.449  24.736 -36.358  1.00  0.00     0.210 HD
ENDBRANCH  22  23
ENDBRANCH  17  22
BRANCH  18  25
ATOM     25  O   UNL     1     -11.607  26.772 -34.891  1.00  0.00    -0.385 OA
ATOM     26  H   UNL     1     -11.461  25.831 -34.614  1.00  0.00     0.211 HD
ENDBRANCH  18  25
BRANCH  20  27
ATOM     27  O   UNL     1     -14.034  25.613 -36.538  1.00  0.00    -0.387 OA
ATOM     28  H   UNL     1     -14.212  26.267 -35.814  1.00  0.00     0.211 HD
ENDBRANCH  20  27
BRANCH  21  29
ATOM     29  C   UNL     1     -12.195  23.723 -38.388  1.00  0.00     0.191 C 
BRANCH  29  30
ATOM     30  O   UNL     1     -12.998  23.012 -37.484  1.00  0.00    -0.394 OA
ATOM     31  H   UNL     1     -12.388  22.623 -36.804  1.00  0.00     0.210 HD
ENDBRANCH  29  30
ENDBRANCH  21  29
ENDBRANCH   1  17
TORSDOF 13
ENDMDL
MODEL 9
REMARK VINA RESULT:    -4.941      1.957      5.592
REMARK INTER + INTRA:          -8.367
REMARK INTER:                  -7.777
REMARK INTRA:                  -0.590
REMARK UNBOUND:                -0.827
REMARK SMILES OC[C@@H]1O[C@H](O[C@]2(CO)O[C@@H](CO)[C@H](O)[C@H]2O)[C@H](O)[C@@H](O)[C@H]1O
REMARK SMILES IDX 6 1 5 2 3 3 22 4 4 5 20 6 18 7 2 8 1 9 23 11 21 13 19 15
REMARK SMILES IDX 7 17 16 18 10 19 14 20 11 21 8 22 9 23 17 25 15 27 12 29
REMARK SMILES IDX 13 30
REMARK H PARENT 1 10 23 12 21 14 19 16 9 24 17 26 15 28 13 31
REMARK Flexibility Score: inf
ROOT
ATOM      1  O   UNL     1     -12.733  27.167 -36.072  1.00  0.00    -0.313 OA
ENDROOT
BRANCH   1   2
ATOM      2  C   UNL     1     -13.456  26.928 -37.282  1.00  0.00     0.285 C 
ATOM      3  C   UNL     1     -13.484  26.993 -39.616  1.00  0.00     0.178 C 
ATOM      4  C   UNL     1     -13.960  25.521 -39.794  1.00  0.00     0.177 C 
ATOM      5  O   UNL     1     -12.684  27.143 -38.457  1.00  0.00    -0.341 OA
ATOM      6  C   UNL     1     -13.728  24.700 -38.505  1.00  0.00     0.179 C 
ATOM      7  C   UNL     1     -14.120  25.516 -37.263  1.00  0.00     0.202 C 
BRANCH   3   8
ATOM      8  C   UNL     1     -12.680  27.477 -40.830  1.00  0.00     0.191 C 
BRANCH   8   9
ATOM      9  O   UNL     1     -11.570  28.225 -40.411  1.00  0.00    -0.394 OA
ATOM     10  H   UNL     1     -10.771  27.728 -40.727  1.00  0.00     0.210 HD
ENDBRANCH   8   9
ENDBRANCH   3   8
BRANCH   4  11
ATOM     11  O   UNL     1     -15.328  25.523 -40.131  1.00  0.00    -0.387 OA
ATOM     12  H   UNL     1     -15.387  25.612 -41.118  1.00  0.00     0.211 HD
ENDBRANCH   4  11
BRANCH   6  13
ATOM     13  O   UNL     1     -14.465  23.505 -38.534  1.00  0.00    -0.387 OA
ATOM     14  H   UNL     1     -14.486  23.206 -39.481  1.00  0.00     0.211 HD
ENDBRANCH   6  13
BRANCH   7  15
ATOM     15  O   UNL     1     -13.763  24.795 -36.110  1.00  0.00    -0.385 OA
ATOM     16  H   UNL     1     -13.615  23.855 -36.394  1.00  0.00     0.211 HD
ENDBRANCH   7  15
ENDBRANCH   1   2
BRANCH   1  17
ATOM     17  C   UNL     1     -11.306  27.212 -36.126  1.00  0.00     0.224 C 
ATOM     18  C   UNL     1     -10.679  27.091 -34.706  1.00  0.00     0.208 C 
ATOM     19  O   UNL     1     -10.909  26.069 -36.862  1.00  0.00    -0.337 OA
ATOM     20  C   UNL     1      -9.702  25.953 -34.835  1.00  0.00     0.180 C 
ATOM     21  C   UNL     1     -10.295  25.158 -35.983  1.00  0.00     0.179 C 
BRANCH  17  22
ATOM     22  C   UNL     1     -10.793  28.432 -36.936  1.00  0.00     0.225 C 
BRANCH  22  23
ATOM     23  O   UNL     1      -9.950  28.002 -37.971  1.00  0.00    -0.391 OA
ATOM     24  H   UNL     1      -9.023  28.205 -37.678  1.00  0.00     0.210 HD
ENDBRANCH  22  23
ENDBRANCH  17  22
BRANCH  18  25
ATOM     25  O   UNL     1     -10.020  28.264 -34.297  1.00  0.00    -0.385 OA
ATOM     26  H   UNL     1      -9.641  28.677 -35.116  1.00  0.00     0.211 HD
ENDBRANCH  18  25
BRANCH  20  27
ATOM     27  O   UNL     1      -9.657  25.198 -33.653  1.00  0.00    -0.387 OA
ATOM     28  H   UNL     1     -10.040  25.769 -32.937  1.00  0.00     0.211 HD
ENDBRANCH  20  27
BRANCH  21  29
ATOM     29  C   UNL     1      -9.228  24.350 -36.731  1.00  0.00     0.191 C 
BRANCH  29  30
ATOM     30  O   UNL     1      -8.579  23.470 -35.853  1.00  0.00    -0.394 OA
ATOM     31  H   UNL     1      -8.471  23.953 -34.992  1.00  0.00     0.210 HD
ENDBRANCH  29  30
ENDBRANCH  21  29
ENDBRANCH   1  17
TORSDOF 13
ENDMDL
