MODEL 1
REMARK VINA RESULT:    -4.517      0.000      0.000
REMARK INTER + INTRA:          -6.018
REMARK INTER:                  -6.366
REMARK INTRA:                   0.348
REMARK UNBOUND:                 0.348
REMARK SMILES CC1=CCC(=C(C)C)C(=O)CC(C)=CCC1
REMARK SMILES IDX 12 1 14 2 13 3 15 4 16 5 2 6 1 7 3 8 11 10 9 11 10 12 5 13
REMARK SMILES IDX 6 14 7 15 8 16 4 17
REMARK H PARENT
REMARK Flexibility Score: 60.00
ROOT
ATOM      1  C   UNL     1      13.929 -30.609  23.582  1.00  0.00    -0.070 C 
ATOM      2  C   UNL     1      13.532 -31.761  24.175  1.00  0.00    -0.027 C 
ATOM      3  C   UNL     1      12.859 -29.605  23.231  1.00  0.00     0.039 C 
ENDROOT
BRANCH   2   4
ATOM      4  C   UNL     1      14.411 -32.941  24.514  1.00  0.00     0.032 C 
BRANCH   4   5
ATOM      5  C   UNL     1      14.839 -33.737  23.267  1.00  0.00     0.034 C 
BRANCH   5   6
ATOM      6  C   UNL     1      16.323 -34.050  23.271  1.00  0.00    -0.077 C 
ATOM      7  C   UNL     1      16.880 -34.866  24.410  1.00  0.00     0.039 C 
ATOM      8  C   UNL     1      17.175 -33.661  22.295  1.00  0.00    -0.023 CG0
ATOM      9  G   UNL     1      16.804 -32.871  21.063  1.00  0.00     0.000 G0
ENDBRANCH   5   6
ENDBRANCH   4   5
ENDBRANCH   2   4
BRANCH   1  10
ATOM     10  C   UNL     1      15.368 -30.310  23.197  1.00  0.00     0.111 C 
BRANCH  10  11
ATOM     11  C   UNL     1      15.645 -30.673  21.759  1.00  0.00     0.163 C 
ATOM     12  O   UNL     1      14.792 -30.345  20.890  1.00  0.00    -0.294 OA
BRANCH  11  13
ATOM     13  C   UNL     1      16.910 -31.355  21.343  1.00  0.00    -0.002 C 
ATOM     14  C   UNL     1      18.076 -30.664  21.172  1.00  0.00    -0.069 C 
ATOM     15  C   UNL     1      19.360 -31.368  20.788  1.00  0.00     0.039 C 
ATOM     16  C   UNL     1      18.137 -29.160  21.320  1.00  0.00     0.039 C 
BRANCH  13  17
ATOM     17  C   UNL     1      16.826 -32.842  21.046  1.00  0.00     0.066 CG0
ATOM     18  G   UNL     1      17.175 -33.631  22.285  1.00  0.00     0.000 G0
ENDBRANCH  13  17
ENDBRANCH  11  13
ENDBRANCH  10  11
ENDBRANCH   1  10
TORSDOF 0
ENDMDL
MODEL 2
REMARK VINA RESULT:    -4.422      2.204      4.176
REMARK INTER + INTRA:          -5.883
REMARK INTER:                  -6.715
REMARK INTRA:                   0.833
REMARK UNBOUND:                 0.348
REMARK SMILES CC1=CCC(=C(C)C)C(=O)CC(C)=CCC1
REMARK SMILES IDX 12 1 14 2 13 3 15 4 16 5 2 6 1 7 3 8 11 10 9 11 10 12 5 13
REMARK SMILES IDX 6 14 7 15 8 16 4 17
REMARK H PARENT
REMARK Flexibility Score: 60.00
ROOT
ATOM      1  C   UNL     1      17.535 -31.519  21.842  1.00  0.00    -0.070 C 
ATOM      2  C   UNL     1      18.053 -31.882  20.645  1.00  0.00    -0.027 C 
ATOM      3  C   UNL     1      17.295 -30.048  22.077  1.00  0.00     0.039 C 
ENDROOT
BRANCH   2   4
ATOM      4  C   UNL     1      18.470 -33.275  20.236  1.00  0.00     0.032 C 
BRANCH   4   5
ATOM      5  C   UNL     1      17.454 -33.943  19.291  1.00  0.00     0.034 C 
BRANCH   5   6
ATOM      6  C   UNL     1      16.571 -34.941  20.013  1.00  0.00    -0.077 C 
ATOM      7  C   UNL     1      17.066 -36.358  20.164  1.00  0.00     0.039 C 
ATOM      8  C   UNL     1      15.371 -34.629  20.555  1.00  0.00    -0.023 CG0
ATOM      9  G   UNL     1      14.724 -33.265  20.538  1.00  0.00     0.000 G0
ENDBRANCH   5   6
ENDBRANCH   4   5
ENDBRANCH   2   4
BRANCH   1  10
ATOM     10  C   UNL     1      17.247 -32.496  22.970  1.00  0.00     0.111 C 
BRANCH  10  11
ATOM     11  C   UNL     1      15.899 -33.153  22.804  1.00  0.00     0.163 C 
ATOM     12  O   UNL     1      15.645 -34.170  23.506  1.00  0.00    -0.294 OA
BRANCH  11  13
ATOM     13  C   UNL     1      14.857 -32.603  21.882  1.00  0.00    -0.002 C 
ATOM     14  C   UNL     1      14.011 -31.602  22.268  1.00  0.00    -0.069 C 
ATOM     15  C   UNL     1      12.985 -31.025  21.316  1.00  0.00     0.039 C 
ATOM     16  C   UNL     1      14.031 -31.044  23.674  1.00  0.00     0.039 C 
BRANCH  13  17
ATOM     17  C   UNL     1      14.729 -33.258  20.518  1.00  0.00     0.066 CG0
ATOM     18  G   UNL     1      15.372 -34.624  20.545  1.00  0.00     0.000 G0
ENDBRANCH  13  17
ENDBRANCH  11  13
ENDBRANCH  10  11
ENDBRANCH   1  10
TORSDOF 0
ENDMDL
MODEL 3
REMARK VINA RESULT:    -4.358      1.558      3.638
REMARK INTER + INTRA:          -5.793
REMARK INTER:                  -6.545
REMARK INTRA:                   0.753
REMARK UNBOUND:                 0.348
REMARK SMILES CC1=CCC(=C(C)C)C(=O)CC(C)=CCC1
REMARK SMILES IDX 12 1 14 2 13 3 15 4 16 5 2 6 1 7 3 8 11 10 9 11 10 12 5 13
REMARK SMILES IDX 6 14 7 15 8 16 4 17
REMARK H PARENT
REMARK Flexibility Score: 60.00
ROOT
ATOM      1  C   UNL     1      16.089 -33.854  23.636  1.00  0.00    -0.070 C 
ATOM      2  C   UNL     1      15.285 -33.138  24.458  1.00  0.00    -0.027 C 
ATOM      3  C   UNL     1      17.524 -34.045  24.060  1.00  0.00     0.039 C 
ENDROOT
BRANCH   2   4
ATOM      4  C   UNL     1      13.856 -32.736  24.184  1.00  0.00     0.032 C 
BRANCH   4   5
ATOM      5  C   UNL     1      13.699 -31.220  23.965  1.00  0.00     0.034 C 
BRANCH   5   6
ATOM      6  C   UNL     1      13.489 -30.872  22.504  1.00  0.00    -0.077 C 
ATOM      7  C   UNL     1      12.081 -30.635  22.019  1.00  0.00     0.039 C 
ATOM      8  C   UNL     1      14.497 -30.736  21.612  1.00  0.00    -0.023 CG0
ATOM      9  G   UNL     1      15.968 -30.899  21.911  1.00  0.00     0.000 G0
ENDBRANCH   5   6
ENDBRANCH   4   5
ENDBRANCH   2   4
BRANCH   1  10
ATOM     10  C   UNL     1      15.643 -34.412  22.294  1.00  0.00     0.111 C 
BRANCH  10  11
ATOM     11  C   UNL     1      15.598 -33.339  21.235  1.00  0.00     0.163 C 
ATOM     12  O   UNL     1      14.723 -33.435  20.330  1.00  0.00    -0.294 OA
BRANCH  11  13
ATOM     13  C   UNL     1      16.517 -32.159  21.262  1.00  0.00    -0.002 C 
ATOM     14  C   UNL     1      17.804 -32.238  20.808  1.00  0.00    -0.069 C 
ATOM     15  C   UNL     1      18.715 -31.030  20.804  1.00  0.00     0.039 C 
ATOM     16  C   UNL     1      18.393 -33.544  20.320  1.00  0.00     0.039 C 
BRANCH  13  17
ATOM     17  C   UNL     1      15.983 -30.883  21.888  1.00  0.00     0.066 CG0
ATOM     18  G   UNL     1      14.505 -30.754  21.603  1.00  0.00     0.000 G0
ENDBRANCH  13  17
ENDBRANCH  11  13
ENDBRANCH  10  11
ENDBRANCH   1  10
TORSDOF 0
ENDMDL
MODEL 4
REMARK VINA RESULT:    -4.349      1.834      4.301
REMARK INTER + INTRA:          -5.780
REMARK INTER:                  -6.096
REMARK INTRA:                   0.316
REMARK UNBOUND:                 0.348
REMARK SMILES CC1=CCC(=C(C)C)C(=O)CC(C)=CCC1
REMARK SMILES IDX 12 1 14 2 13 3 15 4 16 5 2 6 1 7 3 8 11 10 9 11 10 12 5 13
REMARK SMILES IDX 6 14 7 15 8 16 4 17
REMARK H PARENT
REMARK Flexibility Score: 60.00
ROOT
ATOM      1  C   UNL     1      18.789 -31.135  21.196  1.00  0.00    -0.070 C 
ATOM      2  C   UNL     1      18.953 -32.368  20.661  1.00  0.00    -0.027 C 
ATOM      3  C   UNL     1      20.002 -30.474  21.804  1.00  0.00     0.039 C 
ENDROOT
BRANCH   2   4
ATOM      4  C   UNL     1      17.865 -33.251  20.099  1.00  0.00     0.032 C 
BRANCH   4   5
ATOM      5  C   UNL     1      17.036 -33.941  21.198  1.00  0.00     0.034 C 
BRANCH   5   6
ATOM      6  C   UNL     1      15.545 -33.804  20.961  1.00  0.00    -0.077 C 
ATOM      7  C   UNL     1      14.948 -34.476  19.750  1.00  0.00     0.039 C 
ATOM      8  C   UNL     1      14.710 -33.133  21.788  1.00  0.00    -0.023 CG0
ATOM      9  G   UNL     1      15.111 -32.426  23.061  1.00  0.00     0.000 G0
ENDBRANCH   5   6
ENDBRANCH   4   5
ENDBRANCH   2   4
BRANCH   1  10
ATOM     10  C   UNL     1      17.451 -30.419  21.273  1.00  0.00     0.111 C 
BRANCH  10  11
ATOM     11  C   UNL     1      16.819 -30.570  22.636  1.00  0.00     0.163 C 
ATOM     12  O   UNL     1      17.528 -30.318  23.649  1.00  0.00    -0.294 OA
BRANCH  11  13
ATOM     13  C   UNL     1      15.383 -30.954  22.805  1.00  0.00    -0.002 C 
ATOM     14  C   UNL     1      14.383 -30.023  22.786  1.00  0.00    -0.069 C 
ATOM     15  C   UNL     1      12.930 -30.424  22.921  1.00  0.00     0.039 C 
ATOM     16  C   UNL     1      14.678 -28.544  22.667  1.00  0.00     0.039 C 
BRANCH  13  17
ATOM     17  C   UNL     1      15.089 -32.418  23.076  1.00  0.00     0.066 CG0
ATOM     18  G   UNL     1      14.712 -33.111  21.788  1.00  0.00     0.000 G0
ENDBRANCH  13  17
ENDBRANCH  11  13
ENDBRANCH  10  11
ENDBRANCH   1  10
TORSDOF 0
ENDMDL
MODEL 5
REMARK VINA RESULT:    -4.328      2.430      4.301
REMARK INTER + INTRA:          -5.751
REMARK INTER:                  -6.317
REMARK INTRA:                   0.567
REMARK UNBOUND:                 0.348
REMARK SMILES CC1=CCC(=C(C)C)C(=O)CC(C)=CCC1
REMARK SMILES IDX 12 1 14 2 13 3 15 4 16 5 2 6 1 7 3 8 11 10 9 11 10 12 5 13
REMARK SMILES IDX 6 14 7 15 8 16 4 17
REMARK H PARENT
REMARK Flexibility Score: 60.00
ROOT
ATOM      1  C   UNL     1      14.658 -33.529  20.986  1.00  0.00    -0.070 C 
ATOM      2  C   UNL     1      13.895 -32.535  20.473  1.00  0.00    -0.027 C 
ATOM      3  C   UNL     1      15.142 -34.595  20.034  1.00  0.00     0.039 C 
ENDROOT
BRANCH   2   4
ATOM      4  C   UNL     1      13.220 -31.432  21.253  1.00  0.00     0.032 C 
BRANCH   4   5
ATOM      5  C   UNL     1      14.131 -30.206  21.452  1.00  0.00     0.034 C 
BRANCH   5   6
ATOM      6  C   UNL     1      14.451 -29.963  22.914  1.00  0.00    -0.077 C 
ATOM      7  C   UNL     1      13.392 -29.334  23.784  1.00  0.00     0.039 C 
ATOM      8  C   UNL     1      15.626 -30.302  23.493  1.00  0.00    -0.023 CG0
ATOM      9  G   UNL     1      16.791 -30.968  22.800  1.00  0.00     0.000 G0
ENDBRANCH   5   6
ENDBRANCH   4   5
ENDBRANCH   2   4
BRANCH   1  10
ATOM     10  C   UNL     1      14.993 -33.661  22.463  1.00  0.00     0.111 C 
BRANCH  10  11
ATOM     11  C   UNL     1      16.475 -33.529  22.709  1.00  0.00     0.163 C 
ATOM     12  O   UNL     1      17.233 -34.434  22.264  1.00  0.00    -0.294 OA
BRANCH  11  13
ATOM     13  C   UNL     1      17.060 -32.344  23.412  1.00  0.00    -0.002 C 
ATOM     14  C   UNL     1      17.736 -32.471  24.593  1.00  0.00    -0.069 C 
ATOM     15  C   UNL     1      18.357 -31.273  25.278  1.00  0.00     0.039 C 
ATOM     16  C   UNL     1      17.869 -33.806  25.292  1.00  0.00     0.039 C 
BRANCH  13  17
ATOM     17  C   UNL     1      16.804 -30.981  22.795  1.00  0.00     0.066 CG0
ATOM     18  G   UNL     1      15.652 -30.308  23.503  1.00  0.00     0.000 G0
ENDBRANCH  13  17
ENDBRANCH  11  13
ENDBRANCH  10  11
ENDBRANCH   1  10
TORSDOF 0
ENDMDL
MODEL 6
REMARK VINA RESULT:    -4.273      2.235      4.392
REMARK INTER + INTRA:          -5.674
REMARK INTER:                  -6.151
REMARK INTRA:                   0.478
REMARK UNBOUND:                 0.348
REMARK SMILES CC1=CCC(=C(C)C)C(=O)CC(C)=CCC1
REMARK SMILES IDX 12 1 14 2 13 3 15 4 16 5 2 6 1 7 3 8 11 10 9 11 10 12 5 13
REMARK SMILES IDX 6 14 7 15 8 16 4 17
REMARK H PARENT
REMARK Flexibility Score: 60.00
ROOT
ATOM      1  C   UNL     1      18.509 -30.617  21.264  1.00  0.00    -0.070 C 
ATOM      2  C   UNL     1      17.571 -29.883  21.910  1.00  0.00    -0.027 C 
ATOM      3  C   UNL     1      19.933 -30.122  21.315  1.00  0.00     0.039 C 
ENDROOT
BRANCH   2   4
ATOM      4  C   UNL     1      16.081 -30.130  21.903  1.00  0.00     0.032 C 
BRANCH   4   5
ATOM      5  C   UNL     1      15.687 -31.395  22.689  1.00  0.00     0.034 C 
BRANCH   5   6
ATOM      6  C   UNL     1      14.750 -32.289  21.901  1.00  0.00    -0.077 C 
ATOM      7  C   UNL     1      13.487 -31.684  21.339  1.00  0.00     0.039 C 
ATOM      8  C   UNL     1      14.991 -33.596  21.650  1.00  0.00    -0.023 CG0
ATOM      9  G   UNL     1      16.210 -34.369  22.096  1.00  0.00     0.000 G0
ENDBRANCH   5   6
ENDBRANCH   4   5
ENDBRANCH   2   4
BRANCH   1  10
ATOM     10  C   UNL     1      18.194 -31.859  20.447  1.00  0.00     0.111 C 
BRANCH  10  11
ATOM     11  C   UNL     1      18.278 -33.110  21.286  1.00  0.00     0.163 C 
ATOM     12  O   UNL     1      19.147 -33.154  22.200  1.00  0.00    -0.294 OA
BRANCH  11  13
ATOM     13  C   UNL     1      17.336 -34.257  21.096  1.00  0.00    -0.002 C 
ATOM     14  C   UNL     1      17.445 -35.107  20.031  1.00  0.00    -0.069 C 
ATOM     15  C   UNL     1      16.512 -36.287  19.866  1.00  0.00     0.039 C 
ATOM     16  C   UNL     1      18.477 -34.892  18.946  1.00  0.00     0.039 C 
BRANCH  13  17
ATOM     17  C   UNL     1      16.204 -34.393  22.098  1.00  0.00     0.066 CG0
ATOM     18  G   UNL     1      15.012 -33.590  21.636  1.00  0.00     0.000 G0
ENDBRANCH  13  17
ENDBRANCH  11  13
ENDBRANCH  10  11
ENDBRANCH   1  10
TORSDOF 0
ENDMDL
MODEL 7
REMARK VINA RESULT:    -4.158      2.506      4.133
REMARK INTER + INTRA:          -5.511
REMARK INTER:                  -5.959
REMARK INTRA:                   0.448
REMARK UNBOUND:                 0.348
REMARK SMILES CC1=CCC(=C(C)C)C(=O)CC(C)=CCC1
REMARK SMILES IDX 12 1 14 2 13 3 15 4 16 5 2 6 1 7 3 8 11 10 9 11 10 12 5 13
REMARK SMILES IDX 6 14 7 15 8 16 4 17
REMARK H PARENT
REMARK Flexibility Score: 60.00
ROOT
ATOM      1  C   UNL     1      14.441 -32.967  21.622  1.00  0.00    -0.070 C 
ATOM      2  C   UNL     1      14.515 -33.356  20.327  1.00  0.00    -0.027 C 
ATOM      3  C   UNL     1      13.781 -31.642  21.913  1.00  0.00     0.039 C 
ENDROOT
BRANCH   2   4
ATOM      4  C   UNL     1      15.220 -34.583  19.800  1.00  0.00     0.032 C 
BRANCH   4   5
ATOM      5  C   UNL     1      16.739 -34.378  19.657  1.00  0.00     0.034 C 
BRANCH   5   6
ATOM      6  C   UNL     1      17.528 -35.567  20.167  1.00  0.00    -0.077 C 
ATOM      7  C   UNL     1      17.429 -36.869  19.413  1.00  0.00     0.039 C 
ATOM      8  C   UNL     1      18.339 -35.523  21.249  1.00  0.00    -0.023 CG0
ATOM      9  G   UNL     1      18.595 -34.309  22.111  1.00  0.00     0.000 G0
ENDBRANCH   5   6
ENDBRANCH   4   5
ENDBRANCH   2   4
BRANCH   1  10
ATOM     10  C   UNL     1      15.039 -33.755  22.776  1.00  0.00     0.111 C 
BRANCH  10  11
ATOM     11  C   UNL     1      16.441 -33.297  23.093  1.00  0.00     0.163 C 
ATOM     12  O   UNL     1      16.633 -32.064  23.280  1.00  0.00    -0.294 OA
BRANCH  11  13
ATOM     13  C   UNL     1      17.576 -34.260  23.240  1.00  0.00    -0.002 C 
ATOM     14  C   UNL     1      17.744 -35.007  24.372  1.00  0.00    -0.069 C 
ATOM     15  C   UNL     1      18.872 -36.007  24.497  1.00  0.00     0.039 C 
ATOM     16  C   UNL     1      16.833 -34.847  25.570  1.00  0.00     0.039 C 
BRANCH  13  17
ATOM     17  C   UNL     1      18.581 -34.319  22.104  1.00  0.00     0.066 CG0
ATOM     18  G   UNL     1      18.307 -35.527  21.240  1.00  0.00     0.000 G0
ENDBRANCH  13  17
ENDBRANCH  11  13
ENDBRANCH  10  11
ENDBRANCH   1  10
TORSDOF 0
ENDMDL
MODEL 8
REMARK VINA RESULT:    -4.116      1.401      3.708
REMARK INTER + INTRA:          -5.452
REMARK INTER:                  -5.930
REMARK INTRA:                   0.478
REMARK UNBOUND:                 0.348
REMARK SMILES CC1=CCC(=C(C)C)C(=O)CC(C)=CCC1
REMARK SMILES IDX 12 1 14 2 13 3 15 4 16 5 2 6 1 7 3 8 11 10 9 11 10 12 5 13
REMARK SMILES IDX 6 14 7 15 8 16 4 17
REMARK H PARENT
REMARK Flexibility Score: 60.00
ROOT
ATOM      1  C   UNL     1      15.096 -30.696  23.225  1.00  0.00    -0.070 C 
ATOM      2  C   UNL     1      15.838 -29.792  22.542  1.00  0.00    -0.027 C 
ATOM      3  C   UNL     1      13.647 -30.358  23.477  1.00  0.00     0.039 C 
ENDROOT
BRANCH   2   4
ATOM      4  C   UNL     1      17.321 -29.874  22.271  1.00  0.00     0.032 C 
BRANCH   4   5
ATOM      5  C   UNL     1      17.656 -30.791  21.081  1.00  0.00     0.034 C 
BRANCH   5   6
ATOM      6  C   UNL     1      18.846 -31.687  21.364  1.00  0.00    -0.077 C 
ATOM      7  C   UNL     1      20.186 -31.039  21.609  1.00  0.00     0.039 C 
ATOM      8  C   UNL     1      18.772 -33.035  21.437  1.00  0.00    -0.023 CG0
ATOM      9  G   UNL     1      17.520 -33.861  21.256  1.00  0.00     0.000 G0
ENDBRANCH   5   6
ENDBRANCH   4   5
ENDBRANCH   2   4
BRANCH   1  10
ATOM     10  C   UNL     1      15.656 -31.986  23.801  1.00  0.00     0.111 C 
BRANCH  10  11
ATOM     11  C   UNL     1      15.610 -33.109  22.793  1.00  0.00     0.163 C 
ATOM     12  O   UNL     1      14.567 -33.237  22.096  1.00  0.00    -0.294 OA
BRANCH  11  13
ATOM     13  C   UNL     1      16.774 -34.023  22.572  1.00  0.00    -0.002 C 
ATOM     14  C   UNL     1      17.193 -34.899  23.533  1.00  0.00    -0.069 C 
ATOM     15  C   UNL     1      18.347 -35.847  23.287  1.00  0.00     0.039 C 
ATOM     16  C   UNL     1      16.551 -34.942  24.902  1.00  0.00     0.039 C 
BRANCH  13  17
ATOM     17  C   UNL     1      17.519 -33.884  21.256  1.00  0.00     0.066 CG0
ATOM     18  G   UNL     1      18.743 -33.020  21.451  1.00  0.00     0.000 G0
ENDBRANCH  13  17
ENDBRANCH  11  13
ENDBRANCH  10  11
ENDBRANCH   1  10
TORSDOF 0
ENDMDL
MODEL 9
REMARK VINA RESULT:    -3.962      2.567      4.428
REMARK INTER + INTRA:          -5.235
REMARK INTER:                  -5.813
REMARK INTRA:                   0.577
REMARK UNBOUND:                 0.348
REMARK SMILES CC1=CCC(=C(C)C)C(=O)CC(C)=CCC1
REMARK SMILES IDX 12 1 14 2 13 3 15 4 16 5 2 6 1 7 3 8 11 10 9 11 10 12 5 13
REMARK SMILES IDX 6 14 7 15 8 16 4 17
REMARK H PARENT
REMARK Flexibility Score: 60.00
ROOT
ATOM      1  C   UNL     1      18.060 -32.309  24.276  1.00  0.00    -0.070 C 
ATOM      2  C   UNL     1      17.173 -31.344  23.935  1.00  0.00    -0.027 C 
ATOM      3  C   UNL     1      18.576 -32.309  25.693  1.00  0.00     0.039 C 
ENDROOT
BRANCH   2   4
ATOM      4  C   UNL     1      16.612 -31.091  22.556  1.00  0.00     0.032 C 
BRANCH   4   5
ATOM      5  C   UNL     1      15.074 -31.168  22.520  1.00  0.00     0.034 C 
BRANCH   5   6
ATOM      6  C   UNL     1      14.554 -32.486  23.062  1.00  0.00    -0.077 C 
ATOM      7  C   UNL     1      13.550 -32.451  24.187  1.00  0.00     0.039 C 
ATOM      8  C   UNL     1      14.920 -33.694  22.578  1.00  0.00    -0.023 CG0
ATOM      9  G   UNL     1      15.883 -33.933  21.439  1.00  0.00     0.000 G0
ENDBRANCH   5   6
ENDBRANCH   4   5
ENDBRANCH   2   4
BRANCH   1  10
ATOM     10  C   UNL     1      18.604 -33.339  23.299  1.00  0.00     0.111 C 
BRANCH  10  11
ATOM     11  C   UNL     1      17.692 -34.536  23.191  1.00  0.00     0.163 C 
ATOM     12  O   UNL     1      17.489 -35.224  24.229  1.00  0.00    -0.294 OA
BRANCH  11  13
ATOM     13  C   UNL     1      16.994 -34.888  21.914  1.00  0.00    -0.002 C 
ATOM     14  C   UNL     1      17.369 -35.967  21.164  1.00  0.00    -0.069 C 
ATOM     15  C   UNL     1      16.634 -36.338  19.895  1.00  0.00     0.039 C 
ATOM     16  C   UNL     1      18.557 -36.823  21.544  1.00  0.00     0.039 C 
BRANCH  13  17
ATOM     17  C   UNL     1      15.897 -33.949  21.447  1.00  0.00     0.066 CG0
ATOM     18  G   UNL     1      14.927 -33.694  22.576  1.00  0.00     0.000 G0
ENDBRANCH  13  17
ENDBRANCH  11  13
ENDBRANCH  10  11
ENDBRANCH   1  10
TORSDOF 0
ENDMDL
