MODEL 1
REMARK VINA RESULT:    -4.175      0.000      0.000
REMARK INTER + INTRA:          -6.487
REMARK INTER:                  -6.372
REMARK INTRA:                  -0.115
REMARK UNBOUND:                -0.115
REMARK SMILES CC1=CCC[C@@H](C)C(=O)C[C@@H](C(C)C)C(=O)C1
REMARK SMILES IDX 8 1 9 2 6 3 7 4 5 5 4 6 3 7 2 8 1 9 10 11 11 12 15 13 16 14
REMARK SMILES IDX 17 15 12 17 13 18 14 19
REMARK H PARENT
REMARK Flexibility Score: 70.00
ROOT
ATOM      1  C   UNL     1      14.761 -33.105  22.265  1.00  0.00     0.136 C 
ATOM      2  O   UNL     1      15.008 -33.925  23.138  1.00  0.00    -0.299 OA
ENDROOT
BRANCH   1   3
ATOM      3  C   UNL     1      13.796 -31.972  22.554  1.00  0.00     0.053 C 
ATOM      4  C   UNL     1      13.474 -31.237  21.249  1.00  0.00     0.016 C 
BRANCH   3   5
ATOM      5  C   UNL     1      14.356 -30.977  23.601  1.00  0.00     0.015 C 
BRANCH   5   6
ATOM      6  C   UNL     1      15.434 -30.026  23.056  1.00  0.00     0.028 C 
BRANCH   6   7
ATOM      7  C   UNL     1      16.814 -30.427  23.522  1.00  0.00    -0.028 C 
ATOM      8  C   UNL     1      17.800 -30.899  22.724  1.00  0.00    -0.070 CG0
ATOM      9  C   UNL     1      19.115 -31.264  23.363  1.00  0.00     0.039 C 
ATOM     10  G   UNL     1      17.632 -31.085  21.226  1.00  0.00     0.000 G0
ENDBRANCH   6   7
ENDBRANCH   5   6
ENDBRANCH   3   5
ENDBRANCH   1   3
BRANCH   1  11
ATOM     11  C   UNL     1      15.467 -33.216  20.931  1.00  0.00     0.087 C 
BRANCH  11  12
ATOM     12  C   UNL     1      16.949 -33.653  21.063  1.00  0.00     0.066 C 
BRANCH  12  13
ATOM     13  C   UNL     1      17.899 -32.505  20.745  1.00  0.00     0.140 C 
ATOM     14  O   UNL     1      18.933 -32.736  20.137  1.00  0.00    -0.299 OA
BRANCH  13  15
ATOM     15  C   UNL     1      17.649 -31.089  21.218  1.00  0.00     0.106 CG0
ATOM     16  G   UNL     1      17.777 -30.910  22.720  1.00  0.00     0.000 G0
ENDBRANCH  13  15
ENDBRANCH  12  13
BRANCH  12  17
ATOM     17  C   UNL     1      17.312 -34.917  20.226  1.00  0.00    -0.006 C 
ATOM     18  C   UNL     1      16.109 -35.810  19.877  1.00  0.00     0.008 C 
ATOM     19  C   UNL     1      18.408 -35.756  20.904  1.00  0.00     0.008 C 
ENDBRANCH  12  17
ENDBRANCH  11  12
ENDBRANCH   1  11
TORSDOF 1
ENDMDL
MODEL 2
REMARK VINA RESULT:    -4.153      2.656      3.369
REMARK INTER + INTRA:          -6.452
REMARK INTER:                  -5.932
REMARK INTRA:                  -0.520
REMARK UNBOUND:                -0.115
REMARK SMILES CC1=CCC[C@@H](C)C(=O)C[C@@H](C(C)C)C(=O)C1
REMARK SMILES IDX 8 1 9 2 6 3 7 4 5 5 4 6 3 7 2 8 1 9 10 11 11 12 15 13 16 14
REMARK SMILES IDX 17 15 12 17 13 18 14 19
REMARK H PARENT
REMARK Flexibility Score: 70.00
ROOT
ATOM      1  C   UNL     1      16.671 -32.382  21.396  1.00  0.00     0.136 C 
ATOM      2  O   UNL     1      16.648 -31.182  21.168  1.00  0.00    -0.299 OA
ENDROOT
BRANCH   1   3
ATOM      3  C   UNL     1      15.410 -33.079  21.869  1.00  0.00     0.053 C 
ATOM      4  C   UNL     1      14.210 -32.542  21.081  1.00  0.00     0.016 C 
BRANCH   3   5
ATOM      5  C   UNL     1      15.174 -32.899  23.389  1.00  0.00     0.015 C 
BRANCH   5   6
ATOM      6  C   UNL     1      15.495 -34.145  24.229  1.00  0.00     0.028 C 
BRANCH   6   7
ATOM      7  C   UNL     1      16.830 -34.017  24.925  1.00  0.00    -0.028 C 
ATOM      8  C   UNL     1      17.933 -34.745  24.635  1.00  0.00    -0.070 CG0
ATOM      9  C   UNL     1      19.180 -34.494  25.443  1.00  0.00     0.039 C 
ATOM     10  G   UNL     1      17.961 -35.804  23.546  1.00  0.00     0.000 G0
ENDBRANCH   6   7
ENDBRANCH   5   6
ENDBRANCH   3   5
ENDBRANCH   1   3
BRANCH   1  11
ATOM     11  C   UNL     1      17.950 -33.152  21.151  1.00  0.00     0.087 C 
BRANCH  11  12
ATOM     12  C   UNL     1      17.745 -34.689  21.153  1.00  0.00     0.066 C 
BRANCH  12  13
ATOM     13  C   UNL     1      18.574 -35.361  22.241  1.00  0.00     0.140 C 
ATOM     14  O   UNL     1      19.758 -35.587  22.037  1.00  0.00    -0.299 OA
BRANCH  13  15
ATOM     15  C   UNL     1      17.973 -35.829  23.548  1.00  0.00     0.106 CG0
ATOM     16  G   UNL     1      17.929 -34.758  24.624  1.00  0.00     0.000 G0
ENDBRANCH  13  15
ENDBRANCH  12  13
BRANCH  12  17
ATOM     17  C   UNL     1      17.999 -35.363  19.771  1.00  0.00    -0.006 C 
ATOM     18  C   UNL     1      18.206 -34.371  18.614  1.00  0.00     0.008 C 
ATOM     19  C   UNL     1      16.889 -36.363  19.410  1.00  0.00     0.008 C 
ENDBRANCH  12  17
ENDBRANCH  11  12
ENDBRANCH   1  11
TORSDOF 1
ENDMDL
MODEL 3
REMARK VINA RESULT:    -4.124      2.144      4.665
REMARK INTER + INTRA:          -6.409
REMARK INTER:                  -6.267
REMARK INTRA:                  -0.142
REMARK UNBOUND:                -0.115
REMARK SMILES CC1=CCC[C@@H](C)C(=O)C[C@@H](C(C)C)C(=O)C1
REMARK SMILES IDX 8 1 9 2 6 3 7 4 5 5 4 6 3 7 2 8 1 9 10 11 11 12 15 13 16 14
REMARK SMILES IDX 17 15 12 17 13 18 14 19
REMARK H PARENT
REMARK Flexibility Score: 70.00
ROOT
ATOM      1  C   UNL     1      17.233 -30.426  21.949  1.00  0.00     0.136 C 
ATOM      2  O   UNL     1      16.669 -29.551  22.589  1.00  0.00    -0.299 OA
ENDROOT
BRANCH   1   3
ATOM      3  C   UNL     1      18.746 -30.423  21.847  1.00  0.00     0.053 C 
ATOM      4  C   UNL     1      19.185 -29.325  20.872  1.00  0.00     0.016 C 
BRANCH   3   5
ATOM      5  C   UNL     1      19.307 -31.794  21.394  1.00  0.00     0.015 C 
BRANCH   5   6
ATOM      6  C   UNL     1      19.323 -32.864  22.498  1.00  0.00     0.028 C 
BRANCH   6   7
ATOM      7  C   UNL     1      19.142 -34.251  21.926  1.00  0.00    -0.028 C 
ATOM      8  C   UNL     1      18.054 -35.035  22.111  1.00  0.00    -0.070 CG0
ATOM      9  C   UNL     1      18.049 -36.402  21.477  1.00  0.00     0.039 C 
ATOM     10  G   UNL     1      16.854 -34.600  22.935  1.00  0.00     0.000 G0
ENDBRANCH   6   7
ENDBRANCH   5   6
ENDBRANCH   3   5
ENDBRANCH   1   3
BRANCH   1  11
ATOM     11  C   UNL     1      16.405 -31.522  21.315  1.00  0.00     0.087 C 
BRANCH  11  12
ATOM     12  C   UNL     1      15.595 -32.347  22.348  1.00  0.00     0.066 C 
BRANCH  12  13
ATOM     13  C   UNL     1      15.806 -33.843  22.156  1.00  0.00     0.140 C 
ATOM     14  O   UNL     1      15.077 -34.457  21.390  1.00  0.00    -0.299 OA
BRANCH  13  15
ATOM     15  C   UNL     1      16.844 -34.624  22.933  1.00  0.00     0.106 CG0
ATOM     16  G   UNL     1      18.049 -35.038  22.106  1.00  0.00     0.000 G0
ENDBRANCH  13  15
ENDBRANCH  12  13
BRANCH  12  17
ATOM     17  C   UNL     1      14.075 -32.004  22.380  1.00  0.00    -0.006 C 
ATOM     18  C   UNL     1      13.595 -31.152  21.192  1.00  0.00     0.008 C 
ATOM     19  C   UNL     1      13.667 -31.335  23.703  1.00  0.00     0.008 C 
ENDBRANCH  12  17
ENDBRANCH  11  12
ENDBRANCH   1  11
TORSDOF 1
ENDMDL
MODEL 4
REMARK VINA RESULT:    -4.113      2.096      3.571
REMARK INTER + INTRA:          -6.391
REMARK INTER:                  -6.072
REMARK INTRA:                  -0.320
REMARK UNBOUND:                -0.115
REMARK SMILES CC1=CCC[C@@H](C)C(=O)C[C@@H](C(C)C)C(=O)C1
REMARK SMILES IDX 8 1 9 2 6 3 7 4 5 5 4 6 3 7 2 8 1 9 10 11 11 12 15 13 16 14
REMARK SMILES IDX 17 15 12 17 13 18 14 19
REMARK H PARENT
REMARK Flexibility Score: 70.00
ROOT
ATOM      1  C   UNL     1      18.415 -35.202  22.730  1.00  0.00     0.136 C 
ATOM      2  O   UNL     1      19.336 -35.821  22.217  1.00  0.00    -0.299 OA
ENDROOT
BRANCH   1   3
ATOM      3  C   UNL     1      18.693 -34.276  23.898  1.00  0.00     0.053 C 
ATOM      4  C   UNL     1      17.660 -34.528  25.001  1.00  0.00     0.016 C 
BRANCH   3   5
ATOM      5  C   UNL     1      18.674 -32.784  23.481  1.00  0.00     0.015 C 
BRANCH   5   6
ATOM      6  C   UNL     1      17.639 -31.932  24.233  1.00  0.00     0.028 C 
BRANCH   6   7
ATOM      7  C   UNL     1      16.898 -31.006  23.298  1.00  0.00    -0.028 C 
ATOM      8  C   UNL     1      15.797 -31.338  22.584  1.00  0.00    -0.070 CG0
ATOM      9  C   UNL     1      15.192 -30.289  21.685  1.00  0.00     0.039 C 
ATOM     10  G   UNL     1      15.159 -32.715  22.642  1.00  0.00     0.000 G0
ENDBRANCH   6   7
ENDBRANCH   5   6
ENDBRANCH   3   5
ENDBRANCH   1   3
BRANCH   1  11
ATOM     11  C   UNL     1      17.024 -35.341  22.150  1.00  0.00     0.087 C 
BRANCH  11  12
ATOM     12  C   UNL     1      16.698 -34.260  21.088  1.00  0.00     0.066 C 
BRANCH  12  13
ATOM     13  C   UNL     1      15.373 -33.569  21.383  1.00  0.00     0.140 C 
ATOM     14  O   UNL     1      14.468 -33.636  20.565  1.00  0.00    -0.299 OA
BRANCH  13  15
ATOM     15  C   UNL     1      15.152 -32.734  22.626  1.00  0.00     0.106 CG0
ATOM     16  G   UNL     1      15.793 -31.359  22.566  1.00  0.00     0.000 G0
ENDBRANCH  13  15
ENDBRANCH  12  13
BRANCH  12  17
ATOM     17  C   UNL     1      16.732 -34.785  19.620  1.00  0.00    -0.006 C 
ATOM     18  C   UNL     1      16.725 -36.319  19.499  1.00  0.00     0.008 C 
ATOM     19  C   UNL     1      17.915 -34.202  18.831  1.00  0.00     0.008 C 
ENDBRANCH  12  17
ENDBRANCH  11  12
ENDBRANCH   1  11
TORSDOF 1
ENDMDL
MODEL 5
REMARK VINA RESULT:    -4.022      1.867      4.118
REMARK INTER + INTRA:          -6.254
REMARK INTER:                  -6.210
REMARK INTRA:                  -0.044
REMARK UNBOUND:                -0.115
REMARK SMILES CC1=CCC[C@@H](C)C(=O)C[C@@H](C(C)C)C(=O)C1
REMARK SMILES IDX 8 1 9 2 6 3 7 4 5 5 4 6 3 7 2 8 1 9 10 11 11 12 15 13 16 14
REMARK SMILES IDX 17 15 12 17 13 18 14 19
REMARK H PARENT
REMARK Flexibility Score: 70.00
ROOT
ATOM      1  C   UNL     1      15.124 -34.157  20.615  1.00  0.00     0.136 C 
ATOM      2  O   UNL     1      14.234 -33.568  20.019  1.00  0.00    -0.299 OA
ENDROOT
BRANCH   1   3
ATOM      3  C   UNL     1      16.114 -35.001  19.837  1.00  0.00     0.053 C 
ATOM      4  C   UNL     1      16.848 -35.937  20.803  1.00  0.00     0.016 C 
BRANCH   3   5
ATOM      5  C   UNL     1      17.134 -34.137  19.054  1.00  0.00     0.015 C 
BRANCH   5   6
ATOM      6  C   UNL     1      18.467 -33.915  19.786  1.00  0.00     0.028 C 
BRANCH   6   7
ATOM      7  C   UNL     1      18.644 -32.470  20.190  1.00  0.00    -0.028 C 
ATOM      8  C   UNL     1      18.735 -32.023  21.464  1.00  0.00    -0.070 CG0
ATOM      9  C   UNL     1      18.896 -30.541  21.686  1.00  0.00     0.039 C 
ATOM     10  G   UNL     1      18.671 -32.945  22.670  1.00  0.00     0.000 G0
ENDBRANCH   6   7
ENDBRANCH   5   6
ENDBRANCH   3   5
ENDBRANCH   1   3
BRANCH   1  11
ATOM     11  C   UNL     1      15.243 -33.985  22.113  1.00  0.00     0.087 C 
BRANCH  11  12
ATOM     12  C   UNL     1      16.032 -32.713  22.519  1.00  0.00     0.066 C 
BRANCH  12  13
ATOM     13  C   UNL     1      17.297 -33.063  23.292  1.00  0.00     0.140 C 
ATOM     14  O   UNL     1      17.207 -33.407  24.461  1.00  0.00    -0.299 OA
BRANCH  13  15
ATOM     15  C   UNL     1      18.679 -32.936  22.689  1.00  0.00     0.106 CG0
ATOM     16  G   UNL     1      18.738 -32.028  21.472  1.00  0.00     0.000 G0
ENDBRANCH  13  15
ENDBRANCH  12  13
BRANCH  12  17
ATOM     17  C   UNL     1      15.182 -31.663  23.297  1.00  0.00    -0.006 C 
ATOM     18  C   UNL     1      13.755 -32.129  23.631  1.00  0.00     0.008 C 
ATOM     19  C   UNL     1      15.135 -30.311  22.568  1.00  0.00     0.008 C 
ENDBRANCH  12  17
ENDBRANCH  11  12
ENDBRANCH   1  11
TORSDOF 1
ENDMDL
MODEL 6
REMARK VINA RESULT:    -4.015      1.779      4.221
REMARK INTER + INTRA:          -6.242
REMARK INTER:                  -6.051
REMARK INTRA:                  -0.190
REMARK UNBOUND:                -0.115
REMARK SMILES CC1=CCC[C@@H](C)C(=O)C[C@@H](C(C)C)C(=O)C1
REMARK SMILES IDX 8 1 9 2 6 3 7 4 5 5 4 6 3 7 2 8 1 9 10 11 11 12 15 13 16 14
REMARK SMILES IDX 17 15 12 17 13 18 14 19
REMARK H PARENT
REMARK Flexibility Score: 70.00
ROOT
ATOM      1  C   UNL     1      16.043 -33.929  21.178  1.00  0.00     0.136 C 
ATOM      2  O   UNL     1      16.164 -34.920  21.884  1.00  0.00    -0.299 OA
ENDROOT
BRANCH   1   3
ATOM      3  C   UNL     1      17.083 -33.635  20.115  1.00  0.00     0.053 C 
ATOM      4  C   UNL     1      17.038 -34.732  19.046  1.00  0.00     0.016 C 
BRANCH   3   5
ATOM      5  C   UNL     1      18.511 -33.525  20.706  1.00  0.00     0.015 C 
BRANCH   5   6
ATOM      6  C   UNL     1      18.682 -32.398  21.737  1.00  0.00     0.028 C 
BRANCH   6   7
ATOM      7  C   UNL     1      18.844 -32.946  23.136  1.00  0.00    -0.028 C 
ATOM      8  C   UNL     1      18.084 -32.602  24.201  1.00  0.00    -0.070 CG0
ATOM      9  C   UNL     1      18.396 -33.240  25.531  1.00  0.00     0.039 C 
ATOM     10  G   UNL     1      16.947 -31.599  24.114  1.00  0.00     0.000 G0
ENDBRANCH   6   7
ENDBRANCH   5   6
ENDBRANCH   3   5
ENDBRANCH   1   3
BRANCH   1  11
ATOM     11  C   UNL     1      14.825 -33.048  21.352  1.00  0.00     0.087 C 
BRANCH  11  12
ATOM     12  C   UNL     1      15.107 -31.784  22.204  1.00  0.00     0.066 C 
BRANCH  12  13
ATOM     13  C   UNL     1      15.640 -32.149  23.584  1.00  0.00     0.140 C 
ATOM     14  O   UNL     1      14.975 -32.872  24.311  1.00  0.00    -0.299 OA
BRANCH  13  15
ATOM     15  C   UNL     1      16.937 -31.590  24.128  1.00  0.00     0.106 CG0
ATOM     16  G   UNL     1      18.063 -32.607  24.199  1.00  0.00     0.000 G0
ENDBRANCH  13  15
ENDBRANCH  12  13
BRANCH  12  17
ATOM     17  C   UNL     1      13.891 -30.816  22.321  1.00  0.00    -0.006 C 
ATOM     18  C   UNL     1      12.804 -31.038  21.255  1.00  0.00     0.008 C 
ATOM     19  C   UNL     1      14.331 -29.343  22.321  1.00  0.00     0.008 C 
ENDBRANCH  12  17
ENDBRANCH  11  12
ENDBRANCH   1  11
TORSDOF 1
ENDMDL
MODEL 7
REMARK VINA RESULT:    -4.012      1.964      4.262
REMARK INTER + INTRA:          -6.238
REMARK INTER:                  -5.816
REMARK INTRA:                  -0.422
REMARK UNBOUND:                -0.115
REMARK SMILES CC1=CCC[C@@H](C)C(=O)C[C@@H](C(C)C)C(=O)C1
REMARK SMILES IDX 8 1 9 2 6 3 7 4 5 5 4 6 3 7 2 8 1 9 10 11 11 12 15 13 16 14
REMARK SMILES IDX 17 15 12 17 13 18 14 19
REMARK H PARENT
REMARK Flexibility Score: 70.00
ROOT
ATOM      1  C   UNL     1      18.109 -34.612  19.974  1.00  0.00     0.136 C 
ATOM      2  O   UNL     1      18.398 -34.657  18.787  1.00  0.00    -0.299 OA
ENDROOT
BRANCH   1   3
ATOM      3  C   UNL     1      17.113 -35.606  20.541  1.00  0.00     0.053 C 
ATOM      4  C   UNL     1      17.497 -37.019  20.090  1.00  0.00     0.016 C 
BRANCH   3   5
ATOM      5  C   UNL     1      15.659 -35.287  20.114  1.00  0.00     0.015 C 
BRANCH   5   6
ATOM      6  C   UNL     1      15.332 -33.786  20.058  1.00  0.00     0.028 C 
BRANCH   6   7
ATOM      7  C   UNL     1      14.652 -33.319  21.324  1.00  0.00    -0.028 C 
ATOM      8  C   UNL     1      15.175 -32.441  22.211  1.00  0.00    -0.070 CG0
ATOM      9  C   UNL     1      14.361 -32.098  23.432  1.00  0.00     0.039 C 
ATOM     10  G   UNL     1      16.542 -31.803  22.034  1.00  0.00     0.000 G0
ENDBRANCH   6   7
ENDBRANCH   5   6
ENDBRANCH   3   5
ENDBRANCH   1   3
BRANCH   1  11
ATOM     11  C   UNL     1      18.794 -33.594  20.859  1.00  0.00     0.087 C 
BRANCH  11  12
ATOM     12  C   UNL     1      18.363 -33.692  22.345  1.00  0.00     0.066 C 
BRANCH  12  13
ATOM     13  C   UNL     1      17.666 -32.420  22.810  1.00  0.00     0.140 C 
ATOM     14  O   UNL     1      17.978 -31.923  23.882  1.00  0.00    -0.299 OA
BRANCH  13  15
ATOM     15  C   UNL     1      16.542 -31.777  22.026  1.00  0.00     0.106 CG0
ATOM     16  G   UNL     1      15.190 -32.438  22.233  1.00  0.00     0.000 G0
ENDBRANCH  13  15
ENDBRANCH  12  13
BRANCH  12  17
ATOM     17  C   UNL     1      19.522 -34.072  23.316  1.00  0.00    -0.006 C 
ATOM     18  C   UNL     1      20.870 -33.412  22.979  1.00  0.00     0.008 C 
ATOM     19  C   UNL     1      19.698 -35.595  23.429  1.00  0.00     0.008 C 
ENDBRANCH  12  17
ENDBRANCH  11  12
ENDBRANCH   1  11
TORSDOF 1
ENDMDL
MODEL 8
REMARK VINA RESULT:    -3.964      1.746      3.667
REMARK INTER + INTRA:          -6.165
REMARK INTER:                  -6.305
REMARK INTRA:                   0.140
REMARK UNBOUND:                -0.115
REMARK SMILES CC1=CCC[C@@H](C)C(=O)C[C@@H](C(C)C)C(=O)C1
REMARK SMILES IDX 8 1 9 2 6 3 7 4 5 5 4 6 3 7 2 8 1 9 10 11 11 12 15 13 16 14
REMARK SMILES IDX 17 15 12 17 13 18 14 19
REMARK H PARENT
REMARK Flexibility Score: 70.00
ROOT
ATOM      1  C   UNL     1      18.683 -32.849  22.096  1.00  0.00     0.136 C 
ATOM      2  O   UNL     1      19.880 -33.077  21.999  1.00  0.00    -0.299 OA
ENDROOT
BRANCH   1   3
ATOM      3  C   UNL     1      18.164 -31.449  21.837  1.00  0.00     0.053 C 
ATOM      4  C   UNL     1      19.245 -30.633  21.119  1.00  0.00     0.016 C 
BRANCH   3   5
ATOM      5  C   UNL     1      17.733 -30.732  23.141  1.00  0.00     0.015 C 
BRANCH   5   6
ATOM      6  C   UNL     1      16.379 -31.198  23.700  1.00  0.00     0.028 C 
BRANCH   6   7
ATOM      7  C   UNL     1      15.273 -31.029  22.685  1.00  0.00    -0.028 C 
ATOM      8  C   UNL     1      14.602 -32.041  22.088  1.00  0.00    -0.070 CG0
ATOM      9  C   UNL     1      13.533 -31.688  21.085  1.00  0.00     0.039 C 
ATOM     10  G   UNL     1      14.888 -33.505  22.376  1.00  0.00     0.000 G0
ENDBRANCH   6   7
ENDBRANCH   5   6
ENDBRANCH   3   5
ENDBRANCH   1   3
BRANCH   1  11
ATOM     11  C   UNL     1      17.742 -33.988  22.424  1.00  0.00     0.087 C 
BRANCH  11  12
ATOM     12  C   UNL     1      17.015 -34.555  21.177  1.00  0.00     0.066 C 
BRANCH  12  13
ATOM     13  C   UNL     1      15.522 -34.256  21.219  1.00  0.00     0.140 C 
ATOM     14  O   UNL     1      14.822 -34.571  20.267  1.00  0.00    -0.299 OA
BRANCH  13  15
ATOM     15  C   UNL     1      14.873 -33.517  22.368  1.00  0.00     0.106 CG0
ATOM     16  G   UNL     1      14.606 -32.049  22.083  1.00  0.00     0.000 G0
ENDBRANCH  13  15
ENDBRANCH  12  13
BRANCH  12  17
ATOM     17  C   UNL     1      17.268 -36.074  20.934  1.00  0.00    -0.006 C 
ATOM     18  C   UNL     1      18.473 -36.644  21.701  1.00  0.00     0.008 C 
ATOM     19  C   UNL     1      17.398 -36.399  19.437  1.00  0.00     0.008 C 
ENDBRANCH  12  17
ENDBRANCH  11  12
ENDBRANCH   1  11
TORSDOF 1
ENDMDL
MODEL 9
REMARK VINA RESULT:    -3.903      2.620      3.802
REMARK INTER + INTRA:          -6.072
REMARK INTER:                  -5.737
REMARK INTRA:                  -0.335
REMARK UNBOUND:                -0.115
REMARK SMILES CC1=CCC[C@@H](C)C(=O)C[C@@H](C(C)C)C(=O)C1
REMARK SMILES IDX 8 1 9 2 6 3 7 4 5 5 4 6 3 7 2 8 1 9 10 11 11 12 15 13 16 14
REMARK SMILES IDX 17 15 12 17 13 18 14 19
REMARK H PARENT
REMARK Flexibility Score: 70.00
ROOT
ATOM      1  C   UNL     1      17.802 -31.670  21.476  1.00  0.00     0.136 C 
ATOM      2  O   UNL     1      18.057 -30.802  20.654  1.00  0.00    -0.299 OA
ENDROOT
BRANCH   1   3
ATOM      3  C   UNL     1      17.181 -31.283  22.805  1.00  0.00     0.053 C 
ATOM      4  C   UNL     1      16.629 -29.857  22.709  1.00  0.00     0.016 C 
BRANCH   3   5
ATOM      5  C   UNL     1      18.190 -31.386  23.976  1.00  0.00     0.015 C 
BRANCH   5   6
ATOM      6  C   UNL     1      17.763 -32.351  25.094  1.00  0.00     0.028 C 
BRANCH   6   7
ATOM      7  C   UNL     1      18.741 -33.492  25.245  1.00  0.00    -0.028 C 
ATOM      8  C   UNL     1      18.561 -34.742  24.759  1.00  0.00    -0.070 CG0
ATOM      9  C   UNL     1      19.639 -35.764  25.016  1.00  0.00     0.039 C 
ATOM     10  G   UNL     1      17.324 -35.156  23.982  1.00  0.00     0.000 G0
ENDBRANCH   6   7
ENDBRANCH   5   6
ENDBRANCH   3   5
ENDBRANCH   1   3
BRANCH   1  11
ATOM     11  C   UNL     1      18.068 -33.117  21.124  1.00  0.00     0.087 C 
BRANCH  11  12
ATOM     12  C   UNL     1      16.940 -34.073  21.589  1.00  0.00     0.066 C 
BRANCH  12  13
ATOM     13  C   UNL     1      17.481 -35.184  22.479  1.00  0.00     0.140 C 
ATOM     14  O   UNL     1      18.020 -36.154  21.966  1.00  0.00    -0.299 OA
BRANCH  13  15
ATOM     15  C   UNL     1      17.316 -35.172  23.984  1.00  0.00     0.106 CG0
ATOM     16  G   UNL     1      18.564 -34.746  24.737  1.00  0.00     0.000 G0
ENDBRANCH  13  15
ENDBRANCH  12  13
BRANCH  12  17
ATOM     17  C   UNL     1      16.092 -34.665  20.422  1.00  0.00    -0.006 C 
ATOM     18  C   UNL     1      16.823 -34.708  19.069  1.00  0.00     0.008 C 
ATOM     19  C   UNL     1      14.746 -33.939  20.267  1.00  0.00     0.008 C 
ENDBRANCH  12  17
ENDBRANCH  11  12
ENDBRANCH   1  11
TORSDOF 1
ENDMDL
