MODEL 1
REMARK VINA RESULT:    -4.010      0.000      0.000
REMARK INTER + INTRA:          -5.906
REMARK INTER:                  -5.651
REMARK INTRA:                  -0.255
REMARK UNBOUND:                -0.255
REMARK SMILES CCCCCCCCC(=O)[O-]
REMARK SMILES IDX 6 1 7 2 8 3 9 4 10 5 11 6 5 7 4 8 3 9 2 10 1 11
REMARK H PARENT
REMARK Flexibility Score: inf
ROOT
ATOM      1  C   UNL     1      16.597  33.486  11.474  1.00  0.00     0.000 C 
ENDROOT
BRANCH   1   2
ATOM      2  C   UNL     1      17.139  33.945  10.112  1.00  0.00     0.006 C 
BRANCH   2   3
ATOM      3  C   UNL     1      17.811  35.322  10.188  1.00  0.00     0.053 C 
BRANCH   3   4
ATOM      4  C   UNL     1      19.303  35.210  10.251  1.00  0.00     0.041 C 
ATOM      5  O   UNL     1      19.858  34.082  10.176  1.00  0.00    -0.550 OA
ATOM      6  O   UNL     1      20.081  36.348  10.426  1.00  0.00    -0.550 OA
ENDBRANCH   3   4
ENDBRANCH   2   3
ENDBRANCH   1   2
BRANCH   1   7
ATOM      7  C   UNL     1      15.723  32.234  11.326  1.00  0.00     0.000 C 
BRANCH   7   8
ATOM      8  C   UNL     1      14.252  32.550  11.635  1.00  0.00    -0.000 C 
BRANCH   8   9
ATOM      9  C   UNL     1      13.430  31.291  11.950  1.00  0.00    -0.000 C 
BRANCH   9  10
ATOM     10  C   UNL     1      14.303  30.037  12.101  1.00  0.00    -0.003 C 
ATOM     11  C   UNL     1      13.727  29.090  13.150  1.00  0.00     0.004 C 
ENDBRANCH   9  10
ENDBRANCH   8   9
ENDBRANCH   7   8
ENDBRANCH   1   7
TORSDOF 7
ENDMDL
MODEL 2
REMARK VINA RESULT:    -3.983      1.395      2.183
REMARK INTER + INTRA:          -5.867
REMARK INTER:                  -5.319
REMARK INTRA:                  -0.549
REMARK UNBOUND:                -0.255
REMARK SMILES CCCCCCCCC(=O)[O-]
REMARK SMILES IDX 6 1 7 2 8 3 9 4 10 5 11 6 5 7 4 8 3 9 2 10 1 11
REMARK H PARENT
REMARK Flexibility Score: inf
ROOT
ATOM      1  C   UNL     1      14.089  33.482  12.148  1.00  0.00     0.000 C 
ENDROOT
BRANCH   1   2
ATOM      2  C   UNL     1      15.024  33.354  10.935  1.00  0.00     0.006 C 
BRANCH   2   3
ATOM      3  C   UNL     1      16.496  33.226  11.347  1.00  0.00     0.053 C 
BRANCH   3   4
ATOM      4  C   UNL     1      17.370  34.181  10.594  1.00  0.00     0.041 C 
ATOM      5  O   UNL     1      18.623  34.061  10.634  1.00  0.00    -0.550 OA
ATOM      6  O   UNL     1      16.802  35.226   9.875  1.00  0.00    -0.550 OA
ENDBRANCH   3   4
ENDBRANCH   2   3
ENDBRANCH   1   2
BRANCH   1   7
ATOM      7  C   UNL     1      12.944  32.464  12.070  1.00  0.00     0.000 C 
BRANCH   7   8
ATOM      8  C   UNL     1      13.039  31.626  10.786  1.00  0.00    -0.000 C 
BRANCH   8   9
ATOM      9  C   UNL     1      13.133  30.119  11.070  1.00  0.00    -0.000 C 
BRANCH   9  10
ATOM     10  C   UNL     1      14.216  29.778  12.103  1.00  0.00    -0.003 C 
ATOM     11  C   UNL     1      13.627  29.005  13.280  1.00  0.00     0.004 C 
ENDBRANCH   9  10
ENDBRANCH   8   9
ENDBRANCH   7   8
ENDBRANCH   1   7
TORSDOF 7
ENDMDL
MODEL 3
REMARK VINA RESULT:    -3.927     20.882     22.079
REMARK INTER + INTRA:          -5.789
REMARK INTER:                  -5.539
REMARK INTRA:                  -0.250
REMARK UNBOUND:                -0.255
REMARK SMILES CCCCCCCCC(=O)[O-]
REMARK SMILES IDX 6 1 7 2 8 3 9 4 10 5 11 6 5 7 4 8 3 9 2 10 1 11
REMARK H PARENT
REMARK Flexibility Score: inf
ROOT
ATOM      1  C   UNL     1      25.552  19.542  25.421  1.00  0.00     0.000 C 
ENDROOT
BRANCH   1   2
ATOM      2  C   UNL     1      24.400  19.270  26.400  1.00  0.00     0.006 C 
BRANCH   2   3
ATOM      3  C   UNL     1      23.075  19.877  25.921  1.00  0.00     0.053 C 
BRANCH   3   4
ATOM      4  C   UNL     1      22.539  20.883  26.893  1.00  0.00     0.041 C 
ATOM      5  O   UNL     1      22.867  22.095  26.796  1.00  0.00    -0.550 OA
ATOM      6  O   UNL     1      21.704  20.476  27.926  1.00  0.00    -0.550 OA
ENDBRANCH   3   4
ENDBRANCH   2   3
ENDBRANCH   1   2
BRANCH   1   7
ATOM      7  C   UNL     1      26.248  20.870  25.744  1.00  0.00     0.000 C 
BRANCH   7   8
ATOM      8  C   UNL     1      27.773  20.735  25.627  1.00  0.00    -0.000 C 
BRANCH   8   9
ATOM      9  C   UNL     1      28.233  20.450  24.189  1.00  0.00    -0.000 C 
BRANCH   9  10
ATOM     10  C   UNL     1      29.762  20.403  24.055  1.00  0.00    -0.003 C 
ATOM     11  C   UNL     1      30.184  20.353  22.590  1.00  0.00     0.004 C 
ENDBRANCH   9  10
ENDBRANCH   8   9
ENDBRANCH   7   8
ENDBRANCH   1   7
TORSDOF 7
ENDMDL
MODEL 4
REMARK VINA RESULT:    -3.894     20.053     21.147
REMARK INTER + INTRA:          -5.743
REMARK INTER:                  -5.328
REMARK INTRA:                  -0.416
REMARK UNBOUND:                -0.255
REMARK SMILES CCCCCCCCC(=O)[O-]
REMARK SMILES IDX 6 1 7 2 8 3 9 4 10 5 11 6 5 7 4 8 3 9 2 10 1 11
REMARK H PARENT
REMARK Flexibility Score: inf
ROOT
ATOM      1  C   UNL     1      24.181  19.181  26.429  1.00  0.00     0.000 C 
ENDROOT
BRANCH   1   2
ATOM      2  C   UNL     1      25.360  19.341  25.458  1.00  0.00     0.006 C 
BRANCH   2   3
ATOM      3  C   UNL     1      26.337  20.436  25.906  1.00  0.00     0.053 C 
BRANCH   3   4
ATOM      4  C   UNL     1      27.438  20.641  24.911  1.00  0.00     0.041 C 
ATOM      5  O   UNL     1      27.268  20.326  23.704  1.00  0.00    -0.550 OA
ATOM      6  O   UNL     1      28.664  21.148  25.323  1.00  0.00    -0.550 OA
ENDBRANCH   3   4
ENDBRANCH   2   3
ENDBRANCH   1   2
BRANCH   1   7
ATOM      7  C   UNL     1      23.005  20.078  26.020  1.00  0.00     0.000 C 
BRANCH   7   8
ATOM      8  C   UNL     1      22.582  20.992  27.180  1.00  0.00    -0.000 C 
BRANCH   8   9
ATOM      9  C   UNL     1      22.621  22.481  26.803  1.00  0.00    -0.000 C 
BRANCH   9  10
ATOM     10  C   UNL     1      24.053  23.021  26.676  1.00  0.00    -0.003 C 
ATOM     11  C   UNL     1      24.152  24.447  27.211  1.00  0.00     0.004 C 
ENDBRANCH   9  10
ENDBRANCH   8   9
ENDBRANCH   7   8
ENDBRANCH   1   7
TORSDOF 7
ENDMDL
MODEL 5
REMARK VINA RESULT:    -3.881      3.916      6.555
REMARK INTER + INTRA:          -5.724
REMARK INTER:                  -5.517
REMARK INTRA:                  -0.207
REMARK UNBOUND:                -0.255
REMARK SMILES CCCCCCCCC(=O)[O-]
REMARK SMILES IDX 6 1 7 2 8 3 9 4 10 5 11 6 5 7 4 8 3 9 2 10 1 11
REMARK H PARENT
REMARK Flexibility Score: inf
ROOT
ATOM      1  C   UNL     1      14.987  31.679  11.487  1.00  0.00     0.000 C 
ENDROOT
BRANCH   1   2
ATOM      2  C   UNL     1      13.461  31.547  11.384  1.00  0.00     0.006 C 
BRANCH   2   3
ATOM      3  C   UNL     1      12.887  30.592  12.439  1.00  0.00     0.053 C 
BRANCH   3   4
ATOM      4  C   UNL     1      13.527  29.239  12.370  1.00  0.00     0.041 C 
ATOM      5  O   UNL     1      14.377  28.896  13.233  1.00  0.00    -0.550 OA
ATOM      6  O   UNL     1      13.208  28.369  11.334  1.00  0.00    -0.550 OA
ENDBRANCH   3   4
ENDBRANCH   2   3
ENDBRANCH   1   2
BRANCH   1   7
ATOM      7  C   UNL     1      15.395  33.125  11.800  1.00  0.00     0.000 C 
BRANCH   7   8
ATOM      8  C   UNL     1      16.803  33.427  11.265  1.00  0.00    -0.000 C 
BRANCH   8   9
ATOM      9  C   UNL     1      16.799  34.495  10.160  1.00  0.00    -0.000 C 
BRANCH   9  10
ATOM     10  C   UNL     1      18.194  35.082   9.901  1.00  0.00    -0.003 C 
ATOM     11  C   UNL     1      19.282  34.198  10.502  1.00  0.00     0.004 C 
ENDBRANCH   9  10
ENDBRANCH   8   9
ENDBRANCH   7   8
ENDBRANCH   1   7
TORSDOF 7
ENDMDL
MODEL 6
REMARK VINA RESULT:    -3.796     20.117     21.459
REMARK INTER + INTRA:          -5.605
REMARK INTER:                  -5.376
REMARK INTRA:                  -0.229
REMARK UNBOUND:                -0.255
REMARK SMILES CCCCCCCCC(=O)[O-]
REMARK SMILES IDX 6 1 7 2 8 3 9 4 10 5 11 6 5 7 4 8 3 9 2 10 1 11
REMARK H PARENT
REMARK Flexibility Score: inf
ROOT
ATOM      1  C   UNL     1      26.993  20.761  25.279  1.00  0.00     0.000 C 
ENDROOT
BRANCH   1   2
ATOM      2  C   UNL     1      28.190  19.909  24.830  1.00  0.00     0.006 C 
BRANCH   2   3
ATOM      3  C   UNL     1      28.526  20.117  23.347  1.00  0.00     0.053 C 
BRANCH   3   4
ATOM      4  C   UNL     1      30.003  20.067  23.099  1.00  0.00     0.041 C 
ATOM      5  O   UNL     1      30.515  20.754  22.177  1.00  0.00    -0.550 OA
ATOM      6  O   UNL     1      30.810  19.233  23.865  1.00  0.00    -0.550 OA
ENDBRANCH   3   4
ENDBRANCH   2   3
ENDBRANCH   1   2
BRANCH   1   7
ATOM      7  C   UNL     1      25.749  19.890  25.498  1.00  0.00     0.000 C 
BRANCH   7   8
ATOM      8  C   UNL     1      24.661  20.666  26.254  1.00  0.00    -0.000 C 
BRANCH   8   9
ATOM      9  C   UNL     1      24.969  22.168  26.357  1.00  0.00    -0.000 C 
BRANCH   9  10
ATOM     10  C   UNL     1      23.727  23.003  26.700  1.00  0.00    -0.003 C 
ATOM     11  C   UNL     1      24.115  24.422  27.108  1.00  0.00     0.004 C 
ENDBRANCH   9  10
ENDBRANCH   8   9
ENDBRANCH   7   8
ENDBRANCH   1   7
TORSDOF 7
ENDMDL
MODEL 7
REMARK VINA RESULT:    -3.726     20.539     21.627
REMARK INTER + INTRA:          -5.505
REMARK INTER:                  -5.199
REMARK INTRA:                  -0.306
REMARK UNBOUND:                -0.255
REMARK SMILES CCCCCCCCC(=O)[O-]
REMARK SMILES IDX 6 1 7 2 8 3 9 4 10 5 11 6 5 7 4 8 3 9 2 10 1 11
REMARK H PARENT
REMARK Flexibility Score: inf
ROOT
ATOM      1  C   UNL     1      26.661  20.865  25.743  1.00  0.00     0.000 C 
ENDROOT
BRANCH   1   2
ATOM      2  C   UNL     1      28.123  20.660  25.320  1.00  0.00     0.006 C 
BRANCH   2   3
ATOM      3  C   UNL     1      28.262  20.421  23.811  1.00  0.00     0.053 C 
BRANCH   3   4
ATOM      4  C   UNL     1      29.667  20.066  23.431  1.00  0.00     0.041 C 
ATOM      5  O   UNL     1      30.238  20.664  22.481  1.00  0.00    -0.550 OA
ATOM      6  O   UNL     1      30.336  19.050  24.105  1.00  0.00    -0.550 OA
ENDBRANCH   3   4
ENDBRANCH   2   3
ENDBRANCH   1   2
BRANCH   1   7
ATOM      7  C   UNL     1      25.767  19.743  25.199  1.00  0.00     0.000 C 
BRANCH   7   8
ATOM      8  C   UNL     1      24.813  19.225  26.286  1.00  0.00    -0.000 C 
BRANCH   8   9
ATOM      9  C   UNL     1      23.335  19.436  25.924  1.00  0.00    -0.000 C 
BRANCH   9  10
ATOM     10  C   UNL     1      22.570  20.222  26.999  1.00  0.00    -0.003 C 
ATOM     11  C   UNL     1      22.703  21.726  26.778  1.00  0.00     0.004 C 
ENDBRANCH   9  10
ENDBRANCH   8   9
ENDBRANCH   7   8
ENDBRANCH   1   7
TORSDOF 7
ENDMDL
MODEL 8
REMARK VINA RESULT:    -3.661     21.200     22.289
REMARK INTER + INTRA:          -5.414
REMARK INTER:                  -5.118
REMARK INTRA:                  -0.296
REMARK UNBOUND:                -0.255
REMARK SMILES CCCCCCCCC(=O)[O-]
REMARK SMILES IDX 6 1 7 2 8 3 9 4 10 5 11 6 5 7 4 8 3 9 2 10 1 11
REMARK H PARENT
REMARK Flexibility Score: inf
ROOT
ATOM      1  C   UNL     1      26.415  20.799  25.798  1.00  0.00     0.000 C 
ENDROOT
BRANCH   1   2
ATOM      2  C   UNL     1      25.818  19.440  25.402  1.00  0.00     0.006 C 
BRANCH   2   3
ATOM      3  C   UNL     1      24.671  19.017  26.329  1.00  0.00     0.053 C 
BRANCH   3   4
ATOM      4  C   UNL     1      23.351  19.542  25.856  1.00  0.00     0.041 C 
ATOM      5  O   UNL     1      22.890  19.189  24.739  1.00  0.00    -0.550 OA
ATOM      6  O   UNL     1      22.643  20.450  26.635  1.00  0.00    -0.550 OA
ENDBRANCH   3   4
ENDBRANCH   2   3
ENDBRANCH   1   2
BRANCH   1   7
ATOM      7  C   UNL     1      27.932  20.821  25.570  1.00  0.00     0.000 C 
BRANCH   7   8
ATOM      8  C   UNL     1      28.277  20.421  24.128  1.00  0.00    -0.000 C 
BRANCH   8   9
ATOM      9  C   UNL     1      29.252  19.235  24.061  1.00  0.00    -0.000 C 
BRANCH   9  10
ATOM     10  C   UNL     1      29.933  19.107  22.690  1.00  0.00    -0.003 C 
ATOM     11  C   UNL     1      30.501  20.448  22.233  1.00  0.00     0.004 C 
ENDBRANCH   9  10
ENDBRANCH   8   9
ENDBRANCH   7   8
ENDBRANCH   1   7
TORSDOF 7
ENDMDL
MODEL 9
REMARK VINA RESULT:    -3.488     16.432     17.532
REMARK INTER + INTRA:          -5.170
REMARK INTER:                  -4.842
REMARK INTRA:                  -0.327
REMARK UNBOUND:                -0.255
REMARK SMILES CCCCCCCCC(=O)[O-]
REMARK SMILES IDX 6 1 7 2 8 3 9 4 10 5 11 6 5 7 4 8 3 9 2 10 1 11
REMARK H PARENT
REMARK Flexibility Score: inf
ROOT
ATOM      1  C   UNL     1      24.970  37.978  25.087  1.00  0.00     0.000 C 
ENDROOT
BRANCH   1   2
ATOM      2  C   UNL     1      25.553  39.116  24.236  1.00  0.00     0.006 C 
BRANCH   2   3
ATOM      3  C   UNL     1      25.728  38.711  22.766  1.00  0.00     0.053 C 
BRANCH   3   4
ATOM      4  C   UNL     1      24.452  38.199  22.174  1.00  0.00     0.041 C 
ATOM      5  O   UNL     1      24.425  37.079  21.598  1.00  0.00    -0.550 OA
ATOM      6  O   UNL     1      23.298  38.973  22.228  1.00  0.00    -0.550 OA
ENDBRANCH   3   4
ENDBRANCH   2   3
ENDBRANCH   1   2
BRANCH   1   7
ATOM      7  C   UNL     1      23.629  38.387  25.710  1.00  0.00     0.000 C 
BRANCH   7   8
ATOM      8  C   UNL     1      23.811  38.814  27.174  1.00  0.00    -0.000 C 
BRANCH   8   9
ATOM      9  C   UNL     1      25.182  38.415  27.741  1.00  0.00    -0.000 C 
BRANCH   9  10
ATOM     10  C   UNL     1      25.293  38.668  29.251  1.00  0.00    -0.003 C 
ATOM     11  C   UNL     1      24.532  37.607  30.042  1.00  0.00     0.004 C 
ENDBRANCH   9  10
ENDBRANCH   8   9
ENDBRANCH   7   8
ENDBRANCH   1   7
TORSDOF 7
ENDMDL
