MODEL 1
REMARK VINA RESULT:    -5.834      0.000      0.000
REMARK INTER + INTRA:          -6.674
REMARK INTER:                  -6.517
REMARK INTRA:                  -0.157
REMARK UNBOUND:                -0.157
REMARK SMILES COc1cc2ccc(=O)oc2cc1OC
REMARK SMILES IDX 3 1 13 2 12 3 11 4 5 5 4 6 6 7 7 8 8 9 9 10 10 11 2 12 1 13
REMARK SMILES IDX 14 14 15 15
REMARK H PARENT
REMARK Flexibility Score: inf
ROOT
ATOM      1  C   UNL     1      29.464   4.431  31.412  1.00  0.00     0.161 A 
ATOM      2  C   UNL     1      30.607   5.232  31.574  1.00  0.00     0.164 A 
ATOM      3  C   UNL     1      30.482   6.527  32.117  1.00  0.00     0.098 A 
ATOM      4  C   UNL     1      29.230   7.018  32.493  1.00  0.00     0.142 A 
ATOM      5  C   UNL     1      28.084   6.215  32.329  1.00  0.00     0.022 A 
ATOM      6  C   UNL     1      28.202   4.928  31.791  1.00  0.00     0.062 A 
ATOM      7  C   UNL     1      26.844   6.736  32.715  1.00  0.00     0.019 A 
ATOM      8  C   UNL     1      26.777   8.023  33.246  1.00  0.00     0.094 A 
ATOM      9  C   UNL     1      27.957   8.763  33.379  1.00  0.00     0.336 A 
ATOM     10  O   UNL     1      27.919   9.927  33.856  1.00  0.00    -0.246 OA
ATOM     11  O   UNL     1      29.123   8.243  33.004  1.00  0.00    -0.423 OA
ENDROOT
BRANCH   1  12
ATOM     12  O   UNL     1      29.626   3.147  30.868  1.00  0.00    -0.493 OA
ATOM     13  C   UNL     1      29.332   2.797  29.519  1.00  0.00     0.278 C 
ENDBRANCH   1  12
BRANCH   2  14
ATOM     14  O   UNL     1      31.850   4.706  31.186  1.00  0.00    -0.493 OA
ATOM     15  C   UNL     1      32.465   4.937  29.922  1.00  0.00     0.278 C 
ENDBRANCH   2  14
TORSDOF 2
ENDMDL
MODEL 2
REMARK VINA RESULT:    -5.488      1.478      5.585
REMARK INTER + INTRA:          -6.287
REMARK INTER:                  -6.184
REMARK INTRA:                  -0.102
REMARK UNBOUND:                -0.157
REMARK SMILES COc1cc2ccc(=O)oc2cc1OC
REMARK SMILES IDX 3 1 13 2 12 3 11 4 5 5 4 6 6 7 7 8 8 9 9 10 10 11 2 12 1 13
REMARK SMILES IDX 14 14 15 15
REMARK H PARENT
REMARK Flexibility Score: inf
ROOT
ATOM      1  C   UNL     1      29.191   7.286  32.821  1.00  0.00     0.161 A 
ATOM      2  C   UNL     1      27.873   6.811  32.708  1.00  0.00     0.164 A 
ATOM      3  C   UNL     1      27.629   5.564  32.100  1.00  0.00     0.098 A 
ATOM      4  C   UNL     1      28.688   4.797  31.608  1.00  0.00     0.142 A 
ATOM      5  C   UNL     1      30.009   5.274  31.720  1.00  0.00     0.022 A 
ATOM      6  C   UNL     1      30.258   6.513  32.324  1.00  0.00     0.062 A 
ATOM      7  C   UNL     1      31.048   4.483  31.217  1.00  0.00     0.019 A 
ATOM      8  C   UNL     1      30.750   3.257  30.624  1.00  0.00     0.094 A 
ATOM      9  C   UNL     1      29.414   2.849  30.548  1.00  0.00     0.336 A 
ATOM     10  O   UNL     1      29.124   1.746  30.016  1.00  0.00    -0.246 OA
ATOM     11  O   UNL     1      28.445   3.621  31.034  1.00  0.00    -0.423 OA
ENDROOT
BRANCH   1  12
ATOM     12  O   UNL     1      29.397   8.532  33.433  1.00  0.00    -0.493 OA
ATOM     13  C   UNL     1      30.206   8.743  34.586  1.00  0.00     0.278 C 
ENDBRANCH   1  12
BRANCH   2  14
ATOM     14  O   UNL     1      26.832   7.608  33.215  1.00  0.00    -0.493 OA
ATOM     15  C   UNL     1      26.119   8.580  32.457  1.00  0.00     0.278 C 
ENDBRANCH   2  14
TORSDOF 2
ENDMDL
MODEL 3
REMARK VINA RESULT:    -5.193      1.359      2.677
REMARK INTER + INTRA:          -5.957
REMARK INTER:                  -5.793
REMARK INTRA:                  -0.165
REMARK UNBOUND:                -0.157
REMARK SMILES COc1cc2ccc(=O)oc2cc1OC
REMARK SMILES IDX 3 1 13 2 12 3 11 4 5 5 4 6 6 7 7 8 8 9 9 10 10 11 2 12 1 13
REMARK SMILES IDX 14 14 15 15
REMARK H PARENT
REMARK Flexibility Score: inf
ROOT
ATOM      1  C   UNL     1      30.266   4.149  31.124  1.00  0.00     0.161 A 
ATOM      2  C   UNL     1      28.966   3.616  31.101  1.00  0.00     0.164 A 
ATOM      3  C   UNL     1      27.887   4.383  31.583  1.00  0.00     0.098 A 
ATOM      4  C   UNL     1      28.101   5.669  32.085  1.00  0.00     0.142 A 
ATOM      5  C   UNL     1      29.405   6.203  32.110  1.00  0.00     0.022 A 
ATOM      6  C   UNL     1      30.481   5.446  31.631  1.00  0.00     0.062 A 
ATOM      7  C   UNL     1      29.587   7.494  32.618  1.00  0.00     0.019 A 
ATOM      8  C   UNL     1      28.484   8.209  33.083  1.00  0.00     0.094 A 
ATOM      9  C   UNL     1      27.219   7.613  33.028  1.00  0.00     0.336 A 
ATOM     10  O   UNL     1      26.211   8.242  33.442  1.00  0.00    -0.246 OA
ATOM     11  O   UNL     1      27.074   6.384  32.539  1.00  0.00    -0.423 OA
ENDROOT
BRANCH   1  12
ATOM     12  O   UNL     1      31.317   3.357  30.636  1.00  0.00    -0.493 OA
ATOM     13  C   UNL     1      31.883   3.478  29.335  1.00  0.00     0.278 C 
ENDBRANCH   1  12
BRANCH   2  14
ATOM     14  O   UNL     1      28.787   2.320  30.589  1.00  0.00    -0.493 OA
ATOM     15  C   UNL     1      28.235   2.027  29.310  1.00  0.00     0.278 C 
ENDBRANCH   2  14
TORSDOF 2
ENDMDL
MODEL 4
REMARK VINA RESULT:    -5.105      2.216      6.138
REMARK INTER + INTRA:          -5.860
REMARK INTER:                  -5.741
REMARK INTRA:                  -0.119
REMARK UNBOUND:                -0.157
REMARK SMILES COc1cc2ccc(=O)oc2cc1OC
REMARK SMILES IDX 3 1 13 2 12 3 11 4 5 5 4 6 6 7 7 8 8 9 9 10 10 11 2 12 1 13
REMARK SMILES IDX 14 14 15 15
REMARK H PARENT
REMARK Flexibility Score: inf
ROOT
ATOM      1  C   UNL     1      29.912   4.462  31.187  1.00  0.00     0.161 A 
ATOM      2  C   UNL     1      28.546   4.395  31.512  1.00  0.00     0.164 A 
ATOM      3  C   UNL     1      27.685   3.580  30.752  1.00  0.00     0.098 A 
ATOM      4  C   UNL     1      28.179   2.839  29.675  1.00  0.00     0.142 A 
ATOM      5  C   UNL     1      29.548   2.907  29.348  1.00  0.00     0.022 A 
ATOM      6  C   UNL     1      30.409   3.716  30.101  1.00  0.00     0.062 A 
ATOM      7  C   UNL     1      30.013   2.153  28.265  1.00  0.00     0.019 A 
ATOM      8  C   UNL     1      29.117   1.363  27.546  1.00  0.00     0.094 A 
ATOM      9  C   UNL     1      27.771   1.345  27.929  1.00  0.00     0.336 A 
ATOM     10  O   UNL     1      26.947   0.639  27.293  1.00  0.00    -0.246 OA
ATOM     11  O   UNL     1      27.356   2.073  28.963  1.00  0.00    -0.423 OA
ENDROOT
BRANCH   1  12
ATOM     12  O   UNL     1      30.740   5.285  31.966  1.00  0.00    -0.493 OA
ATOM     13  C   UNL     1      32.006   5.786  31.547  1.00  0.00     0.278 C 
ENDBRANCH   1  12
BRANCH   2  14
ATOM     14  O   UNL     1      28.083   5.154  32.601  1.00  0.00    -0.493 OA
ATOM     15  C   UNL     1      27.368   6.379  32.484  1.00  0.00     0.278 C 
ENDBRANCH   2  14
TORSDOF 2
ENDMDL
MODEL 5
REMARK VINA RESULT:    -5.041      3.178      4.957
REMARK INTER + INTRA:          -5.788
REMARK INTER:                  -5.696
REMARK INTRA:                  -0.092
REMARK UNBOUND:                -0.157
REMARK SMILES COc1cc2ccc(=O)oc2cc1OC
REMARK SMILES IDX 3 1 13 2 12 3 11 4 5 5 4 6 6 7 7 8 8 9 9 10 10 11 2 12 1 13
REMARK SMILES IDX 14 14 15 15
REMARK H PARENT
REMARK Flexibility Score: inf
ROOT
ATOM      1  C   UNL     1      29.055   2.177  28.758  1.00  0.00     0.161 A 
ATOM      2  C   UNL     1      28.207   2.521  29.824  1.00  0.00     0.164 A 
ATOM      3  C   UNL     1      28.643   3.443  30.796  1.00  0.00     0.098 A 
ATOM      4  C   UNL     1      29.914   4.017  30.707  1.00  0.00     0.142 A 
ATOM      5  C   UNL     1      30.765   3.671  29.639  1.00  0.00     0.022 A 
ATOM      6  C   UNL     1      30.336   2.755  28.670  1.00  0.00     0.062 A 
ATOM      7  C   UNL     1      32.031   4.263  29.577  1.00  0.00     0.019 A 
ATOM      8  C   UNL     1      32.413   5.169  30.566  1.00  0.00     0.094 A 
ATOM      9  C   UNL     1      31.514   5.464  31.597  1.00  0.00     0.336 A 
ATOM     10  O   UNL     1      31.839   6.279  32.499  1.00  0.00    -0.246 OA
ATOM     11  O   UNL     1      30.316   4.886  31.631  1.00  0.00    -0.423 OA
ENDROOT
BRANCH   1  12
ATOM     12  O   UNL     1      28.588   1.255  27.808  1.00  0.00    -0.493 OA
ATOM     13  C   UNL     1      28.216   1.587  26.474  1.00  0.00     0.278 C 
ENDBRANCH   1  12
BRANCH   2  14
ATOM     14  O   UNL     1      26.936   1.925  29.882  1.00  0.00    -0.493 OA
ATOM     15  C   UNL     1      25.788   2.402  29.187  1.00  0.00     0.278 C 
ENDBRANCH   2  14
TORSDOF 2
ENDMDL
MODEL 6
REMARK VINA RESULT:    -4.910     11.070     13.037
REMARK INTER + INTRA:          -5.642
REMARK INTER:                  -5.573
REMARK INTRA:                  -0.069
REMARK UNBOUND:                -0.157
REMARK SMILES COc1cc2ccc(=O)oc2cc1OC
REMARK SMILES IDX 3 1 13 2 12 3 11 4 5 5 4 6 6 7 7 8 8 9 9 10 10 11 2 12 1 13
REMARK SMILES IDX 14 14 15 15
REMARK H PARENT
REMARK Flexibility Score: inf
ROOT
ATOM      1  C   UNL     1      21.276   3.950  21.608  1.00  0.00     0.161 A 
ATOM      2  C   UNL     1      22.163   3.077  20.957  1.00  0.00     0.164 A 
ATOM      3  C   UNL     1      22.753   2.017  21.673  1.00  0.00     0.098 A 
ATOM      4  C   UNL     1      22.461   1.829  23.027  1.00  0.00     0.142 A 
ATOM      5  C   UNL     1      21.572   2.705  23.680  1.00  0.00     0.022 A 
ATOM      6  C   UNL     1      20.983   3.761  22.972  1.00  0.00     0.062 A 
ATOM      7  C   UNL     1      21.300   2.491  25.035  1.00  0.00     0.019 A 
ATOM      8  C   UNL     1      21.911   1.426  25.697  1.00  0.00     0.094 A 
ATOM      9  C   UNL     1      22.783   0.597  24.983  1.00  0.00     0.336 A 
ATOM     10  O   UNL     1      23.345  -0.369  25.561  1.00  0.00    -0.246 OA
ATOM     11  O   UNL     1      23.024   0.824  23.694  1.00  0.00    -0.423 OA
ENDROOT
BRANCH   1  12
ATOM     12  O   UNL     1      20.707   4.996  20.863  1.00  0.00    -0.493 OA
ATOM     13  C   UNL     1      19.506   4.887  20.104  1.00  0.00     0.278 C 
ENDBRANCH   1  12
BRANCH   2  14
ATOM     14  O   UNL     1      22.434   3.295  19.596  1.00  0.00    -0.493 OA
ATOM     15  C   UNL     1      23.182   2.410  18.769  1.00  0.00     0.278 C 
ENDBRANCH   2  14
TORSDOF 2
ENDMDL
MODEL 7
REMARK VINA RESULT:    -4.878      1.883      5.518
REMARK INTER + INTRA:          -5.606
REMARK INTER:                  -5.504
REMARK INTRA:                  -0.102
REMARK UNBOUND:                -0.157
REMARK SMILES COc1cc2ccc(=O)oc2cc1OC
REMARK SMILES IDX 3 1 13 2 12 3 11 4 5 5 4 6 6 7 7 8 8 9 9 10 10 11 2 12 1 13
REMARK SMILES IDX 14 14 15 15
REMARK H PARENT
REMARK Flexibility Score: inf
ROOT
ATOM      1  C   UNL     1      28.848   5.051  31.756  1.00  0.00     0.161 A 
ATOM      2  C   UNL     1      30.178   4.850  31.349  1.00  0.00     0.164 A 
ATOM      3  C   UNL     1      30.491   3.785  30.483  1.00  0.00     0.098 A 
ATOM      4  C   UNL     1      29.488   2.926  30.026  1.00  0.00     0.142 A 
ATOM      5  C   UNL     1      28.154   3.127  30.435  1.00  0.00     0.022 A 
ATOM      6  C   UNL     1      27.837   4.185  31.296  1.00  0.00     0.062 A 
ATOM      7  C   UNL     1      27.173   2.250  29.960  1.00  0.00     0.019 A 
ATOM      8  C   UNL     1      27.538   1.211  29.104  1.00  0.00     0.094 A 
ATOM      9  C   UNL     1      28.882   1.073  28.742  1.00  0.00     0.336 A 
ATOM     10  O   UNL     1      29.232   0.143  27.971  1.00  0.00    -0.246 OA
ATOM     11  O   UNL     1      29.796   1.922  29.208  1.00  0.00    -0.423 OA
ENDROOT
BRANCH   1  12
ATOM     12  O   UNL     1      28.572   6.123  32.620  1.00  0.00    -0.493 OA
ATOM     13  C   UNL     1      27.278   6.679  32.830  1.00  0.00     0.278 C 
ENDBRANCH   1  12
BRANCH   2  14
ATOM     14  O   UNL     1      31.161   5.733  31.828  1.00  0.00    -0.493 OA
ATOM     15  C   UNL     1      32.469   5.859  31.279  1.00  0.00     0.278 C 
ENDBRANCH   2  14
TORSDOF 2
ENDMDL
MODEL 8
REMARK VINA RESULT:    -4.857      1.870      3.439
REMARK INTER + INTRA:          -5.582
REMARK INTER:                  -5.416
REMARK INTRA:                  -0.167
REMARK UNBOUND:                -0.157
REMARK SMILES COc1cc2ccc(=O)oc2cc1OC
REMARK SMILES IDX 3 1 13 2 12 3 11 4 5 5 4 6 6 7 7 8 8 9 9 10 10 11 2 12 1 13
REMARK SMILES IDX 14 14 15 15
REMARK H PARENT
REMARK Flexibility Score: inf
ROOT
ATOM      1  C   UNL     1      29.371   2.910  30.344  1.00  0.00     0.161 A 
ATOM      2  C   UNL     1      28.038   3.166  30.708  1.00  0.00     0.164 A 
ATOM      3  C   UNL     1      27.720   4.342  31.415  1.00  0.00     0.098 A 
ATOM      4  C   UNL     1      28.721   5.254  31.758  1.00  0.00     0.142 A 
ATOM      5  C   UNL     1      30.058   4.997  31.394  1.00  0.00     0.022 A 
ATOM      6  C   UNL     1      30.380   3.830  30.690  1.00  0.00     0.062 A 
ATOM      7  C   UNL     1      31.037   5.930  31.751  1.00  0.00     0.019 A 
ATOM      8  C   UNL     1      30.667   7.077  32.452  1.00  0.00     0.094 A 
ATOM      9  C   UNL     1      29.320   7.266  32.779  1.00  0.00     0.336 A 
ATOM     10  O   UNL     1      28.965   8.294  33.411  1.00  0.00    -0.246 OA
ATOM     11  O   UNL     1      28.409   6.362  32.426  1.00  0.00    -0.423 OA
ENDROOT
BRANCH   1  12
ATOM     12  O   UNL     1      29.652   1.728  29.640  1.00  0.00    -0.493 OA
ATOM     13  C   UNL     1      29.909   1.663  28.240  1.00  0.00     0.278 C 
ENDBRANCH   1  12
BRANCH   2  14
ATOM     14  O   UNL     1      27.057   2.227  30.347  1.00  0.00    -0.493 OA
ATOM     15  C   UNL     1      26.148   2.386  29.262  1.00  0.00     0.278 C 
ENDBRANCH   2  14
TORSDOF 2
ENDMDL
MODEL 9
REMARK VINA RESULT:    -4.705     12.397     14.606
REMARK INTER + INTRA:          -5.412
REMARK INTER:                  -5.290
REMARK INTRA:                  -0.122
REMARK UNBOUND:                -0.157
REMARK SMILES COc1cc2ccc(=O)oc2cc1OC
REMARK SMILES IDX 3 1 13 2 12 3 11 4 5 5 4 6 6 7 7 8 8 9 9 10 10 11 2 12 1 13
REMARK SMILES IDX 14 14 15 15
REMARK H PARENT
REMARK Flexibility Score: inf
ROOT
ATOM      1  C   UNL     1      20.929   5.379  20.214  1.00  0.00     0.161 A 
ATOM      2  C   UNL     1      20.390   4.219  19.631  1.00  0.00     0.164 A 
ATOM      3  C   UNL     1      20.844   2.952  20.046  1.00  0.00     0.098 A 
ATOM      4  C   UNL     1      21.827   2.840  21.031  1.00  0.00     0.142 A 
ATOM      5  C   UNL     1      22.369   4.003  21.615  1.00  0.00     0.022 A 
ATOM      6  C   UNL     1      21.921   5.266  21.207  1.00  0.00     0.062 A 
ATOM      7  C   UNL     1      23.352   3.858  22.600  1.00  0.00     0.019 A 
ATOM      8  C   UNL     1      23.766   2.580  22.972  1.00  0.00     0.094 A 
ATOM      9  C   UNL     1      23.183   1.471  22.349  1.00  0.00     0.336 A 
ATOM     10  O   UNL     1      23.542   0.309  22.670  1.00  0.00    -0.246 OA
ATOM     11  O   UNL     1      22.249   1.638  21.415  1.00  0.00    -0.423 OA
ENDROOT
BRANCH   1  12
ATOM     12  O   UNL     1      20.453   6.625  19.776  1.00  0.00    -0.493 OA
ATOM     13  C   UNL     1      21.159   7.498  18.900  1.00  0.00     0.278 C 
ENDBRANCH   1  12
BRANCH   2  14
ATOM     14  O   UNL     1      19.402   4.369  18.643  1.00  0.00    -0.493 OA
ATOM     15  C   UNL     1      18.322   3.463  18.437  1.00  0.00     0.278 C 
ENDBRANCH   2  14
TORSDOF 2
ENDMDL
