MODEL 1
REMARK VINA RESULT:   155.420      0.000      0.000
REMARK INTER + INTRA:         170.804
REMARK INTER:                 169.049
REMARK INTRA:                   1.755
REMARK UNBOUND:                 1.755
REMARK SMILES C[C@@H]1[C@H](C)CC[C@@]2(C(=O)[O-])CC[C@]3(C)C(=CC[C@@H]4[C@]5(C)CC[C@@H](O)C(C)(C)[C@H]5CC[C@]43C)[C@@H]12
REMARK SMILES IDX 7 1 6 2 11 3 33 4 5 5 12 6 15 7 2 8 3 9 13 10 16 11 1 12
REMARK SMILES IDX 4 13 14 14 31 15 17 16 18 17 30 18 32 19 19 20 29 21 28 22
REMARK SMILES IDX 21 23 20 24 25 25 22 26 23 27 26 28 27 29 8 30 9 31 10 32
REMARK SMILES IDX 24 33
REMARK H PARENT 24 34
REMARK Flexibility Score: inf
ROOT
ATOM      1  C   UNL     1     -28.008  23.342 -13.552  1.00  0.00     0.017 C 
ATOM      2  C   UNL     1     -27.807  21.842 -13.183  1.00  0.00     0.014 C 
ATOM      3  C   UNL     1     -27.339  23.642 -14.943  1.00  0.00     0.014 C 
ATOM      4  C   UNL     1     -29.536  23.716 -13.544  1.00  0.00     0.030 C 
ATOM      5  C   UNL     1     -28.681  20.876 -13.990  1.00  0.00     0.004 C 
ATOM      6  C   UNL     1     -28.042  24.685 -15.845  1.00  0.00     0.013 C 
ATOM      7  C   UNL     1     -29.755  25.158 -14.040  1.00  0.00    -0.063 C 
ATOM      8  C   UNL     1     -30.423  22.684 -14.324  1.00  0.00    -0.003 C 
ATOM      9  C   UNL     1     -30.169  21.218 -13.873  1.00  0.00    -0.011 C 
ATOM     10  C   UNL     1     -28.827  25.802 -15.088  1.00  0.00    -0.006 C 
ATOM     11  C   UNL     1     -30.798  25.863 -13.532  1.00  0.00    -0.027 C 
ATOM     12  C   UNL     1     -31.931  23.005 -14.245  1.00  0.00     0.008 C 
ATOM     13  C   UNL     1     -30.715  20.882 -12.468  1.00  0.00     0.008 C 
ATOM     14  C   UNL     1     -27.773  26.674 -14.317  1.00  0.00     0.017 C 
ATOM     15  C   UNL     1     -29.738  26.675 -16.094  1.00  0.00    -0.020 C 
ATOM     16  C   UNL     1     -31.393  27.100 -14.177  1.00  0.00     0.032 C 
ATOM     17  C   UNL     1     -30.478  27.770 -15.238  1.00  0.00     0.006 C 
ATOM     18  C   UNL     1     -28.895  27.417 -17.179  1.00  0.00     0.008 C 
ATOM     19  C   UNL     1     -30.770  25.732 -16.821  1.00  0.00     0.012 C 
ATOM     20  C   UNL     1     -31.071  29.042 -16.041  1.00  0.00    -0.025 C 
ATOM     21  C   UNL     1     -29.725  28.270 -18.160  1.00  0.00     0.005 C 
ATOM     22  C   UNL     1     -31.082  28.787 -17.598  1.00  0.00     0.003 C 
ATOM     23  C   UNL     1     -32.537  29.362 -15.606  1.00  0.00     0.010 C 
ATOM     24  C   UNL     1     -30.176  30.269 -15.683  1.00  0.00     0.012 C 
ATOM     25  C   UNL     1     -31.785  29.893 -18.496  1.00  0.00    -0.006 C 
ATOM     26  C   UNL     1     -33.206  30.478 -16.419  1.00  0.00     0.033 C 
ATOM     27  C   UNL     1     -33.215  30.166 -17.924  1.00  0.00     0.120 C 
ATOM     28  C   UNL     1     -31.962  29.323 -19.932  1.00  0.00     0.014 C 
ATOM     29  C   UNL     1     -30.985  31.227 -18.626  1.00  0.00     0.014 C 
ENDROOT
BRANCH   1  30
ATOM     30  C   UNL     1     -27.266  24.114 -12.459  1.00  0.00     0.048 C 
ATOM     31  O   UNL     1     -26.915  23.560 -11.382  1.00  0.00    -0.550 OA
ATOM     32  O   UNL     1     -26.917  25.445 -12.665  1.00  0.00    -0.550 OA
ENDBRANCH   1  30
BRANCH  27  33
ATOM     33  O   UNL     1     -33.827  31.240 -18.598  1.00  0.00    -0.393 OA
ATOM     34  H   UNL     1     -33.537  31.203 -19.546  1.00  0.00     0.210 HD
ENDBRANCH  27  33
TORSDOF 2
ENDMDL
