MODEL 1
REMARK VINA RESULT:     2.047      0.000      0.000
REMARK INTER + INTRA:           3.459
REMARK INTER:                   3.962
REMARK INTRA:                  -0.503
REMARK UNBOUND:                -0.503
REMARK SMILES CCCCCCCCCCCCCCCCCC(=O)[O-]
REMARK SMILES IDX 10 1 11 2 12 3 13 4 14 5 15 6 16 7 17 8 18 9 19 10 20 11
REMARK SMILES IDX 9 12 8 13 7 14 6 15 5 16 4 17 3 18 2 19 1 20
REMARK H PARENT
REMARK Flexibility Score: inf
ROOT
ATOM      1  C   UNL     1      64.592  57.927   9.066  1.00  0.00     0.000 C 
ENDROOT
BRANCH   1   2
ATOM      2  C   UNL     1      65.890  57.226   9.502  1.00  0.00     0.000 C 
BRANCH   2   3
ATOM      3  C   UNL     1      66.667  56.637   8.312  1.00  0.00     0.000 C 
BRANCH   3   4
ATOM      4  C   UNL     1      67.665  55.544   8.734  1.00  0.00     0.000 C 
BRANCH   4   5
ATOM      5  C   UNL     1      67.085  54.536   9.748  1.00  0.00     0.000 C 
BRANCH   5   6
ATOM      6  C   UNL     1      68.047  54.281  10.923  1.00  0.00     0.000 C 
BRANCH   6   7
ATOM      7  C   UNL     1      69.234  55.258  10.938  1.00  0.00     0.006 C 
BRANCH   7   8
ATOM      8  C   UNL     1      70.589  54.540  11.001  1.00  0.00     0.053 C 
BRANCH   8   9
ATOM      9  C   UNL     1      71.709  55.526  10.885  1.00  0.00     0.041 C 
ATOM     10  O   UNL     1      72.893  55.171  11.125  1.00  0.00    -0.550 OA
ATOM     11  O   UNL     1      71.451  56.824  10.461  1.00  0.00    -0.550 OA
ENDBRANCH   8   9
ENDBRANCH   7   8
ENDBRANCH   6   7
ENDBRANCH   5   6
ENDBRANCH   4   5
ENDBRANCH   3   4
ENDBRANCH   2   3
ENDBRANCH   1   2
BRANCH   1  12
ATOM     12  C   UNL     1      63.639  58.188  10.242  1.00  0.00     0.000 C 
BRANCH  12  13
ATOM     13  C   UNL     1      62.212  57.737   9.902  1.00  0.00    -0.000 C 
BRANCH  13  14
ATOM     14  C   UNL     1      62.116  56.204   9.856  1.00  0.00    -0.000 C 
BRANCH  14  15
ATOM     15  C   UNL     1      62.675  55.538  11.122  1.00  0.00    -0.000 C 
BRANCH  15  16
ATOM     16  C   UNL     1      64.016  54.824  10.874  1.00  0.00    -0.000 C 
BRANCH  16  17
ATOM     17  C   UNL     1      63.904  53.291  10.977  1.00  0.00    -0.000 C 
BRANCH  17  18
ATOM     18  C   UNL     1      65.248  52.542  10.940  1.00  0.00    -0.000 C 
BRANCH  18  19
ATOM     19  C   UNL     1      65.236  51.338   9.987  1.00  0.00    -0.003 C 
ATOM     20  C   UNL     1      65.133  50.026  10.760  1.00  0.00     0.004 C 
ENDBRANCH  18  19
ENDBRANCH  17  18
ENDBRANCH  16  17
ENDBRANCH  15  16
ENDBRANCH  14  15
ENDBRANCH  13  14
ENDBRANCH  12  13
ENDBRANCH   1  12
TORSDOF 16
ENDMDL
