MODEL 1
REMARK VINA RESULT:    -6.820      0.000      0.000
REMARK INTER + INTRA:          -7.387
REMARK INTER:                  -7.219
REMARK INTRA:                  -0.168
REMARK UNBOUND:                -0.168
REMARK SMILES CC1=CCC(C(C)C)=CC1
REMARK SMILES IDX 1 1 2 2 3 3 4 4 5 5 9 6 10 7 6 8 7 9 8 10
REMARK H PARENT
REMARK Flexibility Score: inf
ROOT
ATOM      1  C   UNL     1       3.585  11.612  11.151  1.00  0.00     0.039 C 
ATOM      2  C   UNL     1       3.762  10.251  11.765  1.00  0.00    -0.073 C 
ATOM      3  C   UNL     1       3.690  10.102  13.101  1.00  0.00    -0.023 C 
ATOM      4  C   UNL     1       3.824   8.737  13.729  1.00  0.00     0.058 C 
ATOM      5  C   UNL     1       4.770   7.853  12.933  1.00  0.00    -0.068 C 
ATOM      6  C   UNL     1       4.840   8.010  11.593  1.00  0.00    -0.023 C 
ATOM      7  C   UNL     1       3.987   9.037  10.888  1.00  0.00     0.057 C 
ENDROOT
BRANCH   5   8
ATOM      8  C   UNL     1       5.648   6.824  13.628  1.00  0.00     0.009 C 
ATOM      9  C   UNL     1       6.937   7.461  14.159  1.00  0.00     0.012 C 
ATOM     10  C   UNL     1       5.959   5.654  12.689  1.00  0.00     0.012 C 
ENDBRANCH   5   8
TORSDOF 1
ENDMDL
MODEL 2
REMARK VINA RESULT:    -6.085      1.096      2.001
REMARK INTER + INTRA:          -6.609
REMARK INTER:                  -6.453
REMARK INTRA:                  -0.156
REMARK UNBOUND:                -0.168
REMARK SMILES CC1=CCC(C(C)C)=CC1
REMARK SMILES IDX 1 1 2 2 3 3 4 4 5 5 9 6 10 7 6 8 7 9 8 10
REMARK H PARENT
REMARK Flexibility Score: inf
ROOT
ATOM      1  C   UNL     1       2.683  10.915  11.584  1.00  0.00     0.039 C 
ATOM      2  C   UNL     1       3.611   9.798  11.975  1.00  0.00    -0.073 C 
ATOM      3  C   UNL     1       4.169   9.025  11.025  1.00  0.00    -0.023 C 
ATOM      4  C   UNL     1       5.134   7.927  11.398  1.00  0.00     0.058 C 
ATOM      5  C   UNL     1       4.779   7.313  12.742  1.00  0.00    -0.068 C 
ATOM      6  C   UNL     1       4.216   8.094  13.690  1.00  0.00    -0.023 C 
ATOM      7  C   UNL     1       3.951   9.557  13.431  1.00  0.00     0.057 C 
ENDROOT
BRANCH   5   8
ATOM      8  C   UNL     1       5.025   5.837  13.017  1.00  0.00     0.009 C 
ATOM      9  C   UNL     1       6.452   5.431  12.635  1.00  0.00     0.012 C 
ATOM     10  C   UNL     1       3.992   4.971  12.288  1.00  0.00     0.012 C 
ENDBRANCH   5   8
TORSDOF 1
ENDMDL
MODEL 3
REMARK VINA RESULT:    -5.754      1.101      4.466
REMARK INTER + INTRA:          -6.259
REMARK INTER:                  -6.110
REMARK INTRA:                  -0.149
REMARK UNBOUND:                -0.168
REMARK SMILES CC1=CCC(C(C)C)=CC1
REMARK SMILES IDX 1 1 2 2 3 3 4 4 5 5 9 6 10 7 6 8 7 9 8 10
REMARK H PARENT
REMARK Flexibility Score: inf
ROOT
ATOM      1  C   UNL     1       7.381   4.916  12.699  1.00  0.00     0.039 C 
ATOM      2  C   UNL     1       6.332   5.919  13.091  1.00  0.00    -0.073 C 
ATOM      3  C   UNL     1       5.180   5.992  12.398  1.00  0.00    -0.023 C 
ATOM      4  C   UNL     1       4.101   6.965  12.804  1.00  0.00     0.058 C 
ATOM      5  C   UNL     1       4.694   8.233  13.396  1.00  0.00    -0.068 C 
ATOM      6  C   UNL     1       5.852   8.152  14.087  1.00  0.00    -0.023 C 
ATOM      7  C   UNL     1       6.546   6.827  14.284  1.00  0.00     0.057 C 
ENDROOT
BRANCH   5   8
ATOM      8  C   UNL     1       4.017   9.580  13.195  1.00  0.00     0.009 C 
ATOM      9  C   UNL     1       2.734   9.687  14.027  1.00  0.00     0.012 C 
ATOM     10  C   UNL     1       3.732   9.828  11.710  1.00  0.00     0.012 C 
ENDBRANCH   5   8
TORSDOF 1
ENDMDL
MODEL 4
REMARK VINA RESULT:    -5.720      1.154      4.295
REMARK INTER + INTRA:          -6.222
REMARK INTER:                  -6.060
REMARK INTRA:                  -0.162
REMARK UNBOUND:                -0.168
REMARK SMILES CC1=CCC(C(C)C)=CC1
REMARK SMILES IDX 1 1 2 2 3 3 4 4 5 5 9 6 10 7 6 8 7 9 8 10
REMARK H PARENT
REMARK Flexibility Score: inf
ROOT
ATOM      1  C   UNL     1       4.890   5.379  12.750  1.00  0.00     0.039 C 
ATOM      2  C   UNL     1       4.786   6.877  12.668  1.00  0.00    -0.073 C 
ATOM      3  C   UNL     1       4.373   7.582  13.738  1.00  0.00    -0.023 C 
ATOM      4  C   UNL     1       4.302   9.087  13.685  1.00  0.00     0.058 C 
ATOM      5  C   UNL     1       3.943   9.575  12.291  1.00  0.00    -0.068 C 
ATOM      6  C   UNL     1       4.358   8.860  11.222  1.00  0.00    -0.023 C 
ATOM      7  C   UNL     1       5.176   7.605  11.399  1.00  0.00     0.057 C 
ENDROOT
BRANCH   5   8
ATOM      8  C   UNL     1       3.107  10.829  12.093  1.00  0.00     0.009 C 
ATOM      9  C   UNL     1       1.619  10.490  11.958  1.00  0.00     0.012 C 
ATOM     10  C   UNL     1       3.602  11.625  10.881  1.00  0.00     0.012 C 
ENDBRANCH   5   8
TORSDOF 1
ENDMDL
MODEL 5
REMARK VINA RESULT:    -5.357      1.314      2.319
REMARK INTER + INTRA:          -5.838
REMARK INTER:                  -5.699
REMARK INTRA:                  -0.139
REMARK UNBOUND:                -0.168
REMARK SMILES CC1=CCC(C(C)C)=CC1
REMARK SMILES IDX 1 1 2 2 3 3 4 4 5 5 9 6 10 7 6 8 7 9 8 10
REMARK H PARENT
REMARK Flexibility Score: inf
ROOT
ATOM      1  C   UNL     1       2.363  10.106  13.376  1.00  0.00     0.039 C 
ATOM      2  C   UNL     1       3.593   9.282  13.117  1.00  0.00    -0.073 C 
ATOM      3  C   UNL     1       3.913   8.929  11.857  1.00  0.00    -0.023 C 
ATOM      4  C   UNL     1       5.166   8.138  11.576  1.00  0.00     0.058 C 
ATOM      5  C   UNL     1       5.487   7.188  12.717  1.00  0.00    -0.068 C 
ATOM      6  C   UNL     1       5.160   7.546  13.978  1.00  0.00    -0.023 C 
ATOM      7  C   UNL     1       4.498   8.873  14.260  1.00  0.00     0.057 C 
ENDROOT
BRANCH   5   8
ATOM      8  C   UNL     1       6.140   5.840  12.452  1.00  0.00     0.009 C 
ATOM      9  C   UNL     1       5.919   4.875  13.623  1.00  0.00     0.012 C 
ATOM     10  C   UNL     1       7.633   6.010  12.153  1.00  0.00     0.012 C 
ENDBRANCH   5   8
TORSDOF 1
ENDMDL
MODEL 6
REMARK VINA RESULT:    -4.918      0.961      4.242
REMARK INTER + INTRA:          -5.373
REMARK INTER:                  -5.231
REMARK INTRA:                  -0.143
REMARK UNBOUND:                -0.168
REMARK SMILES CC1=CCC(C(C)C)=CC1
REMARK SMILES IDX 1 1 2 2 3 3 4 4 5 5 9 6 10 7 6 8 7 9 8 10
REMARK H PARENT
REMARK Flexibility Score: inf
ROOT
ATOM      1  C   UNL     1       6.438   4.942  13.178  1.00  0.00     0.039 C 
ATOM      2  C   UNL     1       5.943   6.352  13.015  1.00  0.00    -0.073 C 
ATOM      3  C   UNL     1       5.605   7.075  14.100  1.00  0.00    -0.023 C 
ATOM      4  C   UNL     1       5.146   8.504  13.957  1.00  0.00     0.058 C 
ATOM      5  C   UNL     1       4.385   8.713  12.658  1.00  0.00    -0.068 C 
ATOM      6  C   UNL     1       4.727   7.982  11.575  1.00  0.00    -0.023 C 
ATOM      7  C   UNL     1       5.854   6.980  11.641  1.00  0.00     0.057 C 
ENDROOT
BRANCH   5   8
ATOM      8  C   UNL     1       3.236   9.706  12.577  1.00  0.00     0.009 C 
ATOM      9  C   UNL     1       3.564  10.859  11.621  1.00  0.00     0.012 C 
ATOM     10  C   UNL     1       2.873  10.232  13.970  1.00  0.00     0.012 C 
ENDBRANCH   5   8
TORSDOF 1
ENDMDL
