MODEL 1
REMARK VINA RESULT:    -6.801      0.000      0.000
REMARK INTER + INTRA:         -10.368
REMARK INTER:                  -9.783
REMARK INTRA:                  -0.585
REMARK UNBOUND:                -0.585
REMARK SMILES CC(C)=CCCC(C)=CCCC(C)=CCO
REMARK SMILES IDX 10 1 9 2 7 3 8 4 6 5 5 6 4 7 1 8 2 9 3 10 11 11 12 12 14 13
REMARK SMILES IDX 13 14 15 15 16 16
REMARK H PARENT 16 17
REMARK Flexibility Score: inf
ROOT
ATOM      1  C   UNL     1     -15.627   6.244 -17.412  1.00  0.00     0.032 C 
ENDROOT
BRANCH   1   2
ATOM      2  C   UNL     1     -14.705   6.185 -18.604  1.00  0.00    -0.028 C 
ATOM      3  C   UNL     1     -14.609   5.135 -19.452  1.00  0.00    -0.077 C 
ATOM      4  C   UNL     1     -13.640   5.231 -20.602  1.00  0.00     0.039 C 
BRANCH   3   5
ATOM      5  C   UNL     1     -15.377   3.842 -19.256  1.00  0.00     0.034 C 
BRANCH   5   6
ATOM      6  C   UNL     1     -14.415   2.667 -19.058  1.00  0.00     0.032 C 
BRANCH   6   7
ATOM      7  C   UNL     1     -14.696   1.573 -20.058  1.00  0.00    -0.028 C 
ATOM      8  C   UNL     1     -12.722   2.151 -21.488  1.00  0.00     0.039 C 
ATOM      9  C   UNL     1     -13.960   1.346 -21.168  1.00  0.00    -0.080 C 
ATOM     10  C   UNL     1     -14.388   0.241 -22.099  1.00  0.00     0.039 C 
ENDBRANCH   6   7
ENDBRANCH   5   6
ENDBRANCH   3   5
ENDBRANCH   1   2
BRANCH   1  11
ATOM     11  C   UNL     1     -15.859   7.694 -16.971  1.00  0.00     0.034 C 
BRANCH  11  12
ATOM     12  C   UNL     1     -15.775   7.820 -15.466  1.00  0.00    -0.075 C 
ATOM     13  C   UNL     1     -15.585   9.038 -14.917  1.00  0.00    -0.000 C 
ATOM     14  C   UNL     1     -15.894   6.581 -14.611  1.00  0.00     0.039 C 
BRANCH  13  15
ATOM     15  C   UNL     1     -15.486   9.269 -13.433  1.00  0.00     0.183 C 
BRANCH  15  16
ATOM     16  O   UNL     1     -15.119  10.598 -13.187  1.00  0.00    -0.392 OA
ATOM     17  H   UNL     1     -14.675  10.918 -14.016  1.00  0.00     0.210 HD
ENDBRANCH  15  16
ENDBRANCH  13  15
ENDBRANCH  11  12
ENDBRANCH   1  11
TORSDOF 8
ENDMDL
MODEL 2
REMARK VINA RESULT:    -6.728      3.054      8.134
REMARK INTER + INTRA:         -10.262
REMARK INTER:                  -9.429
REMARK INTRA:                  -0.833
REMARK UNBOUND:                -0.585
REMARK SMILES CC(C)=CCCC(C)=CCCC(C)=CCO
REMARK SMILES IDX 10 1 9 2 7 3 8 4 6 5 5 6 4 7 1 8 2 9 3 10 11 11 12 12 14 13
REMARK SMILES IDX 13 14 15 15 16 16
REMARK H PARENT 16 17
REMARK Flexibility Score: inf
ROOT
ATOM      1  C   UNL     1     -15.495   5.285 -18.108  1.00  0.00     0.032 C 
ENDROOT
BRANCH   1   2
ATOM      2  C   UNL     1     -14.789   6.616 -18.171  1.00  0.00    -0.028 C 
ATOM      3  C   UNL     1     -15.133   7.706 -17.447  1.00  0.00    -0.077 C 
ATOM      4  C   UNL     1     -14.324   8.966 -17.621  1.00  0.00     0.039 C 
BRANCH   3   5
ATOM      5  C   UNL     1     -16.336   7.738 -16.524  1.00  0.00     0.034 C 
BRANCH   5   6
ATOM      6  C   UNL     1     -15.895   7.911 -15.067  1.00  0.00     0.032 C 
BRANCH   6   7
ATOM      7  C   UNL     1     -16.802   8.878 -14.347  1.00  0.00    -0.028 C 
ATOM      8  C   UNL     1     -15.087  10.704 -14.303  1.00  0.00     0.039 C 
ATOM      9  C   UNL     1     -16.444  10.127 -13.974  1.00  0.00    -0.080 C 
ATOM     10  C   UNL     1     -17.445  10.965 -13.222  1.00  0.00     0.039 C 
ENDBRANCH   6   7
ENDBRANCH   5   6
ENDBRANCH   3   5
ENDBRANCH   1   2
BRANCH   1  11
ATOM     11  C   UNL     1     -15.754   4.737 -19.516  1.00  0.00     0.034 C 
BRANCH  11  12
ATOM     12  C   UNL     1     -14.657   3.782 -19.932  1.00  0.00    -0.075 C 
ATOM     13  C   UNL     1     -14.677   2.514 -19.468  1.00  0.00    -0.000 C 
ATOM     14  C   UNL     1     -13.558   4.269 -20.846  1.00  0.00     0.039 C 
BRANCH  13  15
ATOM     15  C   UNL     1     -13.632   1.490 -19.821  1.00  0.00     0.183 C 
BRANCH  15  16
ATOM     16  O   UNL     1     -12.821   1.243 -18.706  1.00  0.00    -0.392 OA
ATOM     17  H   UNL     1     -12.760   0.255 -18.625  1.00  0.00     0.210 HD
ENDBRANCH  15  16
ENDBRANCH  13  15
ENDBRANCH  11  12
ENDBRANCH   1  11
TORSDOF 8
ENDMDL
MODEL 3
REMARK VINA RESULT:    -6.722      0.868      1.539
REMARK INTER + INTRA:         -10.255
REMARK INTER:                  -9.883
REMARK INTRA:                  -0.371
REMARK UNBOUND:                -0.585
REMARK SMILES CC(C)=CCCC(C)=CCCC(C)=CCO
REMARK SMILES IDX 10 1 9 2 7 3 8 4 6 5 5 6 4 7 1 8 2 9 3 10 11 11 12 12 14 13
REMARK SMILES IDX 13 14 15 15 16 16
REMARK H PARENT 16 17
REMARK Flexibility Score: inf
ROOT
ATOM      1  C   UNL     1     -15.027   7.047 -17.461  1.00  0.00     0.032 C 
ENDROOT
BRANCH   1   2
ATOM      2  C   UNL     1     -15.720   5.726 -17.682  1.00  0.00    -0.028 C 
ATOM      3  C   UNL     1     -15.534   4.929 -18.759  1.00  0.00    -0.077 C 
ATOM      4  C   UNL     1     -16.300   3.633 -18.832  1.00  0.00     0.039 C 
BRANCH   3   5
ATOM      5  C   UNL     1     -14.646   5.313 -19.927  1.00  0.00     0.034 C 
BRANCH   5   6
ATOM      6  C   UNL     1     -13.450   4.361 -20.033  1.00  0.00     0.032 C 
BRANCH   6   7
ATOM      7  C   UNL     1     -13.743   3.243 -21.002  1.00  0.00    -0.028 C 
ATOM      8  C   UNL     1     -13.598   1.464 -19.244  1.00  0.00     0.039 C 
ATOM      9  C   UNL     1     -13.787   1.934 -20.668  1.00  0.00    -0.080 C 
ATOM     10  C   UNL     1     -14.050   0.925 -21.755  1.00  0.00     0.039 C 
ENDBRANCH   6   7
ENDBRANCH   5   6
ENDBRANCH   3   5
ENDBRANCH   1   2
BRANCH   1  11
ATOM     11  C   UNL     1     -15.980   8.064 -16.822  1.00  0.00     0.034 C 
BRANCH  11  12
ATOM     12  C   UNL     1     -15.815   8.084 -15.318  1.00  0.00    -0.075 C 
ATOM     13  C   UNL     1     -15.629   9.266 -14.692  1.00  0.00    -0.000 C 
ATOM     14  C   UNL     1     -15.850   6.784 -14.551  1.00  0.00     0.039 C 
BRANCH  13  15
ATOM     15  C   UNL     1     -15.453   9.392 -13.203  1.00  0.00     0.183 C 
BRANCH  15  16
ATOM     16  O   UNL     1     -15.168  10.723 -12.875  1.00  0.00    -0.392 OA
ATOM     17  H   UNL     1     -14.473  11.022 -13.518  1.00  0.00     0.210 HD
ENDBRANCH  15  16
ENDBRANCH  13  15
ENDBRANCH  11  12
ENDBRANCH   1  11
TORSDOF 8
ENDMDL
MODEL 4
REMARK VINA RESULT:    -6.182      3.013      7.860
REMARK INTER + INTRA:          -9.477
REMARK INTER:                  -9.426
REMARK INTRA:                  -0.051
REMARK UNBOUND:                -0.585
REMARK SMILES CC(C)=CCCC(C)=CCCC(C)=CCO
REMARK SMILES IDX 10 1 9 2 7 3 8 4 6 5 5 6 4 7 1 8 2 9 3 10 11 11 12 12 14 13
REMARK SMILES IDX 13 14 15 15 16 16
REMARK H PARENT 16 17
REMARK Flexibility Score: inf
ROOT
ATOM      1  C   UNL     1     -15.523   5.128 -17.916  1.00  0.00     0.032 C 
ENDROOT
BRANCH   1   2
ATOM      2  C   UNL     1     -14.904   6.486 -18.127  1.00  0.00    -0.028 C 
ATOM      3  C   UNL     1     -15.184   7.584 -17.388  1.00  0.00    -0.077 C 
ATOM      4  C   UNL     1     -14.476   8.872 -17.722  1.00  0.00     0.039 C 
BRANCH   3   5
ATOM      5  C   UNL     1     -16.228   7.595 -16.288  1.00  0.00     0.034 C 
BRANCH   5   6
ATOM      6  C   UNL     1     -15.599   7.219 -14.943  1.00  0.00     0.032 C 
BRANCH   6   7
ATOM      7  C   UNL     1     -15.198   8.456 -14.178  1.00  0.00    -0.028 C 
ATOM      8  C   UNL     1     -17.427   9.560 -14.477  1.00  0.00     0.039 C 
ATOM      9  C   UNL     1     -15.999   9.526 -13.983  1.00  0.00    -0.080 C 
ATOM     10  C   UNL     1     -15.445  10.710 -13.233  1.00  0.00     0.039 C 
ENDBRANCH   6   7
ENDBRANCH   5   6
ENDBRANCH   3   5
ENDBRANCH   1   2
BRANCH   1  11
ATOM     11  C   UNL     1     -15.920   4.494 -19.255  1.00  0.00     0.034 C 
BRANCH  11  12
ATOM     12  C   UNL     1     -14.721   3.868 -19.930  1.00  0.00    -0.075 C 
ATOM     13  C   UNL     1     -13.980   4.612 -20.779  1.00  0.00    -0.000 C 
ATOM     14  C   UNL     1     -14.383   2.422 -19.651  1.00  0.00     0.039 C 
BRANCH  13  15
ATOM     15  C   UNL     1     -12.771   4.082 -21.502  1.00  0.00     0.183 C 
BRANCH  15  16
ATOM     16  O   UNL     1     -12.046   5.148 -22.049  1.00  0.00    -0.392 OA
ATOM     17  H   UNL     1     -11.767   5.713 -21.282  1.00  0.00     0.210 HD
ENDBRANCH  15  16
ENDBRANCH  13  15
ENDBRANCH  11  12
ENDBRANCH   1  11
TORSDOF 8
ENDMDL
MODEL 5
REMARK VINA RESULT:    -6.159      1.563      2.239
REMARK INTER + INTRA:          -9.444
REMARK INTER:                  -9.137
REMARK INTRA:                  -0.307
REMARK UNBOUND:                -0.585
REMARK SMILES CC(C)=CCCC(C)=CCCC(C)=CCO
REMARK SMILES IDX 10 1 9 2 7 3 8 4 6 5 5 6 4 7 1 8 2 9 3 10 11 11 12 12 14 13
REMARK SMILES IDX 13 14 15 15 16 16
REMARK H PARENT 16 17
REMARK Flexibility Score: inf
ROOT
ATOM      1  C   UNL     1     -14.237   7.217 -18.310  1.00  0.00     0.032 C 
ENDROOT
BRANCH   1   2
ATOM      2  C   UNL     1     -15.141   6.018 -18.174  1.00  0.00    -0.028 C 
ATOM      3  C   UNL     1     -15.259   5.034 -19.094  1.00  0.00    -0.077 C 
ATOM      4  C   UNL     1     -16.206   3.897 -18.808  1.00  0.00     0.039 C 
BRANCH   3   5
ATOM      5  C   UNL     1     -14.538   5.059 -20.428  1.00  0.00     0.034 C 
BRANCH   5   6
ATOM      6  C   UNL     1     -13.366   4.072 -20.427  1.00  0.00     0.032 C 
BRANCH   6   7
ATOM      7  C   UNL     1     -13.669   2.885 -21.307  1.00  0.00    -0.028 C 
ATOM      8  C   UNL     1     -13.887   1.305 -19.376  1.00  0.00     0.039 C 
ATOM      9  C   UNL     1     -13.879   1.631 -20.851  1.00  0.00    -0.080 C 
ATOM     10  C   UNL     1     -14.129   0.535 -21.855  1.00  0.00     0.039 C 
ENDBRANCH   6   7
ENDBRANCH   5   6
ENDBRANCH   3   5
ENDBRANCH   1   2
BRANCH   1  11
ATOM     11  C   UNL     1     -14.938   8.489 -17.819  1.00  0.00     0.034 C 
BRANCH  11  12
ATOM     12  C   UNL     1     -15.082   8.478 -16.314  1.00  0.00    -0.075 C 
ATOM     13  C   UNL     1     -15.840   7.525 -15.731  1.00  0.00    -0.000 C 
ATOM     14  C   UNL     1     -14.385   9.539 -15.494  1.00  0.00     0.039 C 
BRANCH  13  15
ATOM     15  C   UNL     1     -16.047   7.428 -14.244  1.00  0.00     0.183 C 
BRANCH  15  16
ATOM     16  O   UNL     1     -15.876   6.101 -13.831  1.00  0.00    -0.392 OA
ATOM     17  H   UNL     1     -16.340   6.024 -12.956  1.00  0.00     0.210 HD
ENDBRANCH  15  16
ENDBRANCH  13  15
ENDBRANCH  11  12
ENDBRANCH   1  11
TORSDOF 8
ENDMDL
MODEL 6
REMARK VINA RESULT:    -6.096      1.593      2.666
REMARK INTER + INTRA:          -9.353
REMARK INTER:                  -8.842
REMARK INTRA:                  -0.511
REMARK UNBOUND:                -0.585
REMARK SMILES CC(C)=CCCC(C)=CCCC(C)=CCO
REMARK SMILES IDX 10 1 9 2 7 3 8 4 6 5 5 6 4 7 1 8 2 9 3 10 11 11 12 12 14 13
REMARK SMILES IDX 13 14 15 15 16 16
REMARK H PARENT 16 17
REMARK Flexibility Score: inf
ROOT
ATOM      1  C   UNL     1     -15.946   7.164 -15.303  1.00  0.00     0.032 C 
ENDROOT
BRANCH   1   2
ATOM      2  C   UNL     1     -15.440   7.785 -16.581  1.00  0.00    -0.028 C 
ATOM      3  C   UNL     1     -15.286   7.123 -17.751  1.00  0.00    -0.077 C 
ATOM      4  C   UNL     1     -14.771   7.887 -18.943  1.00  0.00     0.039 C 
BRANCH   3   5
ATOM      5  C   UNL     1     -15.540   5.635 -17.897  1.00  0.00     0.034 C 
BRANCH   5   6
ATOM      6  C   UNL     1     -15.040   5.133 -19.256  1.00  0.00     0.032 C 
BRANCH   6   7
ATOM      7  C   UNL     1     -14.971   3.627 -19.275  1.00  0.00    -0.028 C 
ATOM      8  C   UNL     1     -13.692   3.551 -21.427  1.00  0.00     0.039 C 
ATOM      9  C   UNL     1     -14.392   2.901 -20.256  1.00  0.00    -0.080 C 
ATOM     10  C   UNL     1     -14.439   1.398 -20.160  1.00  0.00     0.039 C 
ENDBRANCH   6   7
ENDBRANCH   5   6
ENDBRANCH   3   5
ENDBRANCH   1   2
BRANCH   1  11
ATOM     11  C   UNL     1     -15.377   7.892 -14.079  1.00  0.00     0.034 C 
BRANCH  11  12
ATOM     12  C   UNL     1     -15.784   9.348 -14.082  1.00  0.00    -0.075 C 
ATOM     13  C   UNL     1     -17.070   9.673 -13.827  1.00  0.00    -0.000 C 
ATOM     14  C   UNL     1     -14.750  10.407 -14.380  1.00  0.00     0.039 C 
BRANCH  13  15
ATOM     15  C   UNL     1     -17.576  11.090 -13.809  1.00  0.00     0.183 C 
BRANCH  15  16
ATOM     16  O   UNL     1     -18.857  11.125 -13.245  1.00  0.00    -0.392 OA
ATOM     17  H   UNL     1     -19.493  11.019 -14.001  1.00  0.00     0.210 HD
ENDBRANCH  15  16
ENDBRANCH  13  15
ENDBRANCH  11  12
ENDBRANCH   1  11
TORSDOF 8
ENDMDL
MODEL 7
REMARK VINA RESULT:    -6.072      2.989      7.677
REMARK INTER + INTRA:          -9.319
REMARK INTER:                  -9.634
REMARK INTRA:                   0.315
REMARK UNBOUND:                -0.585
REMARK SMILES CC(C)=CCCC(C)=CCCC(C)=CCO
REMARK SMILES IDX 10 1 9 2 7 3 8 4 6 5 5 6 4 7 1 8 2 9 3 10 11 11 12 12 14 13
REMARK SMILES IDX 13 14 15 15 16 16
REMARK H PARENT 16 17
REMARK Flexibility Score: inf
ROOT
ATOM      1  C   UNL     1     -13.619   4.758 -20.711  1.00  0.00     0.032 C 
ENDROOT
BRANCH   1   2
ATOM      2  C   UNL     1     -14.656   4.580 -19.631  1.00  0.00    -0.028 C 
ATOM      3  C   UNL     1     -14.964   5.511 -18.699  1.00  0.00    -0.077 C 
ATOM      4  C   UNL     1     -16.031   5.183 -17.686  1.00  0.00     0.039 C 
BRANCH   3   5
ATOM      5  C   UNL     1     -14.237   6.837 -18.584  1.00  0.00     0.034 C 
BRANCH   5   6
ATOM      6  C   UNL     1     -15.187   7.933 -18.091  1.00  0.00     0.032 C 
BRANCH   6   7
ATOM      7  C   UNL     1     -14.597   8.657 -16.906  1.00  0.00    -0.028 C 
ATOM      8  C   UNL     1     -16.489   8.043 -15.384  1.00  0.00     0.039 C 
ATOM      9  C   UNL     1     -15.183   8.737 -15.692  1.00  0.00    -0.080 C 
ATOM     10  C   UNL     1     -14.493   9.533 -14.614  1.00  0.00     0.039 C 
ENDBRANCH   6   7
ENDBRANCH   5   6
ENDBRANCH   3   5
ENDBRANCH   1   2
BRANCH   1  11
ATOM     11  C   UNL     1     -13.655   3.588 -21.702  1.00  0.00     0.034 C 
BRANCH  11  12
ATOM     12  C   UNL     1     -13.757   2.267 -20.972  1.00  0.00    -0.075 C 
ATOM     13  C   UNL     1     -13.591   2.240 -19.632  1.00  0.00    -0.000 C 
ATOM     14  C   UNL     1     -14.031   1.006 -21.756  1.00  0.00     0.039 C 
BRANCH  13  15
ATOM     15  C   UNL     1     -13.671   0.980 -18.815  1.00  0.00     0.183 C 
BRANCH  15  16
ATOM     16  O   UNL     1     -12.544   0.882 -17.990  1.00  0.00    -0.392 OA
ATOM     17  H   UNL     1     -12.543  -0.046 -17.635  1.00  0.00     0.210 HD
ENDBRANCH  15  16
ENDBRANCH  13  15
ENDBRANCH  11  12
ENDBRANCH   1  11
TORSDOF 8
ENDMDL
MODEL 8
REMARK VINA RESULT:    -5.434      1.164      1.746
REMARK INTER + INTRA:          -8.401
REMARK INTER:                  -7.804
REMARK INTRA:                  -0.597
REMARK UNBOUND:                -0.585
REMARK SMILES CC(C)=CCCC(C)=CCCC(C)=CCO
REMARK SMILES IDX 10 1 9 2 7 3 8 4 6 5 5 6 4 7 1 8 2 9 3 10 11 11 12 12 14 13
REMARK SMILES IDX 13 14 15 15 16 16
REMARK H PARENT 16 17
REMARK Flexibility Score: inf
ROOT
ATOM      1  C   UNL     1     -15.383   6.159 -17.899  1.00  0.00     0.032 C 
ENDROOT
BRANCH   1   2
ATOM      2  C   UNL     1     -14.404   6.123 -19.045  1.00  0.00    -0.028 C 
ATOM      3  C   UNL     1     -14.273   5.093 -19.913  1.00  0.00    -0.077 C 
ATOM      4  C   UNL     1     -13.248   5.210 -21.012  1.00  0.00     0.039 C 
BRANCH   3   5
ATOM      5  C   UNL     1     -15.057   3.801 -19.787  1.00  0.00     0.034 C 
BRANCH   5   6
ATOM      6  C   UNL     1     -14.331   2.657 -20.500  1.00  0.00     0.032 C 
BRANCH   6   7
ATOM      7  C   UNL     1     -13.572   1.808 -19.510  1.00  0.00    -0.028 C 
ATOM      8  C   UNL     1     -15.484   0.230 -19.153  1.00  0.00     0.039 C 
ATOM      9  C   UNL     1     -14.085   0.731 -18.877  1.00  0.00    -0.080 C 
ATOM     10  C   UNL     1     -13.220   0.004 -17.880  1.00  0.00     0.039 C 
ENDBRANCH   6   7
ENDBRANCH   5   6
ENDBRANCH   3   5
ENDBRANCH   1   2
BRANCH   1  11
ATOM     11  C   UNL     1     -15.557   7.589 -17.374  1.00  0.00     0.034 C 
BRANCH  11  12
ATOM     12  C   UNL     1     -15.671   7.599 -15.866  1.00  0.00    -0.075 C 
ATOM     13  C   UNL     1     -15.452   8.752 -15.196  1.00  0.00    -0.000 C 
ATOM     14  C   UNL     1     -16.015   6.321 -15.139  1.00  0.00     0.039 C 
BRANCH  13  15
ATOM     15  C   UNL     1     -15.539   8.866 -13.699  1.00  0.00     0.183 C 
BRANCH  15  16
ATOM     16  O   UNL     1     -14.764   9.948 -13.264  1.00  0.00    -0.392 OA
ATOM     17  H   UNL     1     -15.380  10.542 -12.760  1.00  0.00     0.210 HD
ENDBRANCH  15  16
ENDBRANCH  13  15
ENDBRANCH  11  12
ENDBRANCH   1  11
TORSDOF 8
ENDMDL
MODEL 9
REMARK VINA RESULT:    -5.092      1.781      2.824
REMARK INTER + INTRA:          -7.909
REMARK INTER:                  -6.788
REMARK INTRA:                  -1.121
REMARK UNBOUND:                -0.585
REMARK SMILES CC(C)=CCCC(C)=CCCC(C)=CCO
REMARK SMILES IDX 10 1 9 2 7 3 8 4 6 5 5 6 4 7 1 8 2 9 3 10 11 11 12 12 14 13
REMARK SMILES IDX 13 14 15 15 16 16
REMARK H PARENT 16 17
REMARK Flexibility Score: inf
ROOT
ATOM      1  C   UNL     1     -14.425   4.589 -18.883  1.00  0.00     0.032 C 
ENDROOT
BRANCH   1   2
ATOM      2  C   UNL     1     -13.349   5.113 -19.799  1.00  0.00    -0.028 C 
ATOM      3  C   UNL     1     -13.189   4.744 -21.091  1.00  0.00    -0.077 C 
ATOM      4  C   UNL     1     -12.063   5.363 -21.879  1.00  0.00     0.039 C 
BRANCH   3   5
ATOM      5  C   UNL     1     -14.046   3.685 -21.759  1.00  0.00     0.034 C 
BRANCH   5   6
ATOM      6  C   UNL     1     -13.501   2.284 -21.463  1.00  0.00     0.032 C 
BRANCH   6   7
ATOM      7  C   UNL     1     -14.565   1.420 -20.834  1.00  0.00    -0.028 C 
ATOM      8  C   UNL     1     -13.322   1.182 -18.672  1.00  0.00     0.039 C 
ATOM      9  C   UNL     1     -14.487   0.897 -19.591  1.00  0.00    -0.080 C 
ATOM     10  C   UNL     1     -15.612   0.015 -19.112  1.00  0.00     0.039 C 
ENDBRANCH   6   7
ENDBRANCH   5   6
ENDBRANCH   3   5
ENDBRANCH   1   2
BRANCH   1  11
ATOM     11  C   UNL     1     -15.618   5.550 -18.835  1.00  0.00     0.034 C 
BRANCH  11  12
ATOM     12  C   UNL     1     -15.510   6.484 -17.651  1.00  0.00    -0.075 C 
ATOM     13  C   UNL     1     -15.912   6.056 -16.435  1.00  0.00    -0.000 C 
ATOM     14  C   UNL     1     -14.966   7.879 -17.853  1.00  0.00     0.039 C 
BRANCH  13  15
ATOM     15  C   UNL     1     -15.846   6.907 -15.196  1.00  0.00     0.183 C 
BRANCH  15  16
ATOM     16  O   UNL     1     -15.946   6.094 -14.061  1.00  0.00    -0.392 OA
ATOM     17  H   UNL     1     -16.911   6.060 -13.830  1.00  0.00     0.210 HD
ENDBRANCH  15  16
ENDBRANCH  13  15
ENDBRANCH  11  12
ENDBRANCH   1  11
TORSDOF 8
ENDMDL
