MODEL 1
REMARK VINA RESULT:    -3.188      0.000      0.000
REMARK INTER + INTRA:          -3.860
REMARK INTER:                  -3.747
REMARK INTRA:                  -0.113
REMARK UNBOUND:                -0.113
REMARK SMILES O=C([O-])CCC(=O)[O-]
REMARK SMILES IDX 4 1 2 2 1 3 3 4 5 5 6 6 7 7 8 8
REMARK H PARENT
REMARK Flexibility Score: inf
ROOT
ATOM      1  C   UNL     1      37.809  41.209  61.936  1.00  0.00     0.059 C 
ENDROOT
BRANCH   1   2
ATOM      2  C   UNL     1      38.382  39.982  61.293  1.00  0.00     0.042 C 
ATOM      3  O   UNL     1      37.749  38.894  61.330  1.00  0.00    -0.550 OA
ATOM      4  O   UNL     1      39.632  40.031  60.689  1.00  0.00    -0.550 OA
ENDBRANCH   1   2
BRANCH   1   5
ATOM      5  C   UNL     1      38.316  42.488  61.264  1.00  0.00     0.059 C 
BRANCH   5   6
ATOM      6  C   UNL     1      39.282  43.225  62.139  1.00  0.00     0.042 C 
ATOM      7  O   UNL     1      40.523  43.060  61.994  1.00  0.00    -0.550 OA
ATOM      8  O   UNL     1      38.815  44.125  63.088  1.00  0.00    -0.550 OA
ENDBRANCH   5   6
ENDBRANCH   1   5
TORSDOF 3
ENDMDL
MODEL 2
REMARK VINA RESULT:    -3.165      0.163      3.978
REMARK INTER + INTRA:          -3.833
REMARK INTER:                  -3.722
REMARK INTRA:                  -0.111
REMARK UNBOUND:                -0.113
REMARK SMILES O=C([O-])CCC(=O)[O-]
REMARK SMILES IDX 4 1 2 2 1 3 3 4 5 5 6 6 7 7 8 8
REMARK H PARENT
REMARK Flexibility Score: inf
ROOT
ATOM      1  C   UNL     1      38.248  42.519  61.254  1.00  0.00     0.059 C 
ENDROOT
BRANCH   1   2
ATOM      2  C   UNL     1      39.234  43.346  62.021  1.00  0.00     0.042 C 
ATOM      3  O   UNL     1      40.457  43.311  61.722  1.00  0.00    -0.550 OA
ATOM      4  O   UNL     1      38.809  44.125  63.090  1.00  0.00    -0.550 OA
ENDBRANCH   1   2
BRANCH   1   5
ATOM      5  C   UNL     1      37.855  41.253  62.022  1.00  0.00     0.059 C 
BRANCH   5   6
ATOM      6  C   UNL     1      38.415  40.022  61.380  1.00  0.00     0.042 C 
ATOM      7  O   UNL     1      37.745  38.955  61.359  1.00  0.00    -0.550 OA
ATOM      8  O   UNL     1      39.661  40.062  60.768  1.00  0.00    -0.550 OA
ENDBRANCH   5   6
ENDBRANCH   1   5
TORSDOF 3
ENDMDL
MODEL 3
REMARK VINA RESULT:    -3.141      1.624      2.105
REMARK INTER + INTRA:          -3.805
REMARK INTER:                  -3.703
REMARK INTRA:                  -0.102
REMARK UNBOUND:                -0.113
REMARK SMILES O=C([O-])CCC(=O)[O-]
REMARK SMILES IDX 4 1 2 2 1 3 3 4 5 5 6 6 7 7 8 8
REMARK H PARENT
REMARK Flexibility Score: inf
ROOT
ATOM      1  C   UNL     1      38.701  40.042  61.183  1.00  0.00     0.059 C 
ENDROOT
BRANCH   1   2
ATOM      2  C   UNL     1      39.925  40.154  60.326  1.00  0.00     0.042 C 
ATOM      3  O   UNL     1      39.815  40.255  59.075  1.00  0.00    -0.550 OA
ATOM      4  O   UNL     1      41.187  40.107  60.905  1.00  0.00    -0.550 OA
ENDBRANCH   1   2
BRANCH   1   5
ATOM      5  C   UNL     1      38.808  40.912  62.439  1.00  0.00     0.059 C 
BRANCH   5   6
ATOM      6  C   UNL     1      38.551  42.356  62.133  1.00  0.00     0.042 C 
ATOM      7  O   UNL     1      39.043  43.257  62.864  1.00  0.00    -0.550 OA
ATOM      8  O   UNL     1      37.801  42.708  61.019  1.00  0.00    -0.550 OA
ENDBRANCH   5   6
ENDBRANCH   1   5
TORSDOF 3
ENDMDL
MODEL 4
REMARK VINA RESULT:    -3.101      1.402      3.480
REMARK INTER + INTRA:          -3.758
REMARK INTER:                  -3.582
REMARK INTRA:                  -0.176
REMARK UNBOUND:                -0.113
REMARK SMILES O=C([O-])CCC(=O)[O-]
REMARK SMILES IDX 4 1 2 2 1 3 3 4 5 5 6 6 7 7 8 8
REMARK H PARENT
REMARK Flexibility Score: inf
ROOT
ATOM      1  C   UNL     1      37.638  41.214  61.740  1.00  0.00     0.059 C 
ENDROOT
BRANCH   1   2
ATOM      2  C   UNL     1      38.349  42.528  61.860  1.00  0.00     0.042 C 
ATOM      3  O   UNL     1      38.320  43.353  60.908  1.00  0.00    -0.550 OA
ATOM      4  O   UNL     1      39.075  42.825  63.006  1.00  0.00    -0.550 OA
ENDBRANCH   1   2
BRANCH   1   5
ATOM      5  C   UNL     1      38.612  40.035  61.825  1.00  0.00     0.059 C 
BRANCH   5   6
ATOM      6  C   UNL     1      39.704  40.148  60.806  1.00  0.00     0.042 C 
ATOM      7  O   UNL     1      39.437  40.070  59.578  1.00  0.00    -0.550 OA
ATOM      8  O   UNL     1      41.012  40.380  61.211  1.00  0.00    -0.550 OA
ENDBRANCH   5   6
ENDBRANCH   1   5
TORSDOF 3
ENDMDL
MODEL 5
REMARK VINA RESULT:    -3.097     18.704     19.440
REMARK INTER + INTRA:          -3.753
REMARK INTER:                  -3.654
REMARK INTRA:                  -0.099
REMARK UNBOUND:                -0.113
REMARK SMILES O=C([O-])CCC(=O)[O-]
REMARK SMILES IDX 4 1 2 2 1 3 3 4 5 5 6 6 7 7 8 8
REMARK H PARENT
REMARK Flexibility Score: inf
ROOT
ATOM      1  C   UNL     1      33.683  26.101  71.396  1.00  0.00     0.059 C 
ENDROOT
BRANCH   1   2
ATOM      2  C   UNL     1      32.284  25.935  70.885  1.00  0.00     0.042 C 
ATOM      3  O   UNL     1      32.060  25.218  69.874  1.00  0.00    -0.550 OA
ATOM      4  O   UNL     1      31.233  26.603  71.501  1.00  0.00    -0.550 OA
ENDBRANCH   1   2
BRANCH   1   5
ATOM      5  C   UNL     1      34.711  26.013  70.265  1.00  0.00     0.059 C 
BRANCH   5   6
ATOM      6  C   UNL     1      35.479  24.728  70.316  1.00  0.00     0.042 C 
ATOM      7  O   UNL     1      35.230  23.875  71.209  1.00  0.00    -0.550 OA
ATOM      8  O   UNL     1      36.442  24.454  69.353  1.00  0.00    -0.550 OA
ENDBRANCH   5   6
ENDBRANCH   1   5
TORSDOF 3
ENDMDL
MODEL 6
REMARK VINA RESULT:    -3.029     18.605     19.264
REMARK INTER + INTRA:          -3.673
REMARK INTER:                  -3.553
REMARK INTRA:                  -0.120
REMARK UNBOUND:                -0.113
REMARK SMILES O=C([O-])CCC(=O)[O-]
REMARK SMILES IDX 4 1 2 2 1 3 3 4 5 5 6 6 7 7 8 8
REMARK H PARENT
REMARK Flexibility Score: inf
ROOT
ATOM      1  C   UNL     1      34.613  26.027  70.754  1.00  0.00     0.059 C 
ENDROOT
BRANCH   1   2
ATOM      2  C   UNL     1      33.141  25.743  70.735  1.00  0.00     0.042 C 
ATOM      3  O   UNL     1      32.321  26.632  71.088  1.00  0.00    -0.550 OA
ATOM      4  O   UNL     1      32.678  24.487  70.367  1.00  0.00    -0.550 OA
ENDBRANCH   1   2
BRANCH   1   5
ATOM      5  C   UNL     1      35.436  24.737  70.803  1.00  0.00     0.059 C 
BRANCH   5   6
ATOM      6  C   UNL     1      36.201  24.522  69.533  1.00  0.00     0.042 C 
ATOM      7  O   UNL     1      35.630  24.656  68.418  1.00  0.00    -0.550 OA
ATOM      8  O   UNL     1      37.554  24.214  69.579  1.00  0.00    -0.550 OA
ENDBRANCH   5   6
ENDBRANCH   1   5
TORSDOF 3
ENDMDL
MODEL 7
REMARK VINA RESULT:    -3.020      1.472      3.780
REMARK INTER + INTRA:          -3.663
REMARK INTER:                  -3.527
REMARK INTRA:                  -0.136
REMARK UNBOUND:                -0.113
REMARK SMILES O=C([O-])CCC(=O)[O-]
REMARK SMILES IDX 4 1 2 2 1 3 3 4 5 5 6 6 7 7 8 8
REMARK H PARENT
REMARK Flexibility Score: inf
ROOT
ATOM      1  C   UNL     1      39.050  43.011  62.377  1.00  0.00     0.059 C 
ENDROOT
BRANCH   1   2
ATOM      2  C   UNL     1      39.996  43.436  61.295  1.00  0.00     0.042 C 
ATOM      3  O   UNL     1      39.567  43.661  60.132  1.00  0.00    -0.550 OA
ATOM      4  O   UNL     1      41.355  43.544  61.560  1.00  0.00    -0.550 OA
ENDBRANCH   1   2
BRANCH   1   5
ATOM      5  C   UNL     1      39.239  41.537  62.746  1.00  0.00     0.059 C 
BRANCH   5   6
ATOM      6  C   UNL     1      38.509  40.634  61.799  1.00  0.00     0.042 C 
ATOM      7  O   UNL     1      37.258  40.509  61.880  1.00  0.00    -0.550 OA
ATOM      8  O   UNL     1      39.204  39.962  60.802  1.00  0.00    -0.550 OA
ENDBRANCH   5   6
ENDBRANCH   1   5
TORSDOF 3
ENDMDL
MODEL 8
REMARK VINA RESULT:    -2.967     18.445     19.388
REMARK INTER + INTRA:          -3.600
REMARK INTER:                  -3.525
REMARK INTRA:                  -0.075
REMARK UNBOUND:                -0.113
REMARK SMILES O=C([O-])CCC(=O)[O-]
REMARK SMILES IDX 4 1 2 2 1 3 3 4 5 5 6 6 7 7 8 8
REMARK H PARENT
REMARK Flexibility Score: inf
ROOT
ATOM      1  C   UNL     1      35.599  23.931  71.021  1.00  0.00     0.059 C 
ENDROOT
BRANCH   1   2
ATOM      2  C   UNL     1      37.068  24.020  70.743  1.00  0.00     0.042 C 
ATOM      3  O   UNL     1      37.899  23.875  71.679  1.00  0.00    -0.550 OA
ATOM      4  O   UNL     1      37.520  24.302  69.460  1.00  0.00    -0.550 OA
ENDBRANCH   1   2
BRANCH   1   5
ATOM      5  C   UNL     1      34.785  24.775  70.035  1.00  0.00     0.059 C 
BRANCH   5   6
ATOM      6  C   UNL     1      34.079  25.902  70.725  1.00  0.00     0.042 C 
ATOM      7  O   UNL     1      34.723  26.916  71.105  1.00  0.00    -0.550 OA
ATOM      8  O   UNL     1      32.704  25.851  70.911  1.00  0.00    -0.550 OA
ENDBRANCH   5   6
ENDBRANCH   1   5
TORSDOF 3
ENDMDL
