MODEL 1
REMARK VINA RESULT:    -3.367      0.000      0.000
REMARK INTER + INTRA:          -3.367
REMARK INTER:                  -3.367
REMARK INTRA:                   0.000
REMARK UNBOUND:                 0.000
REMARK SMILES CC(C)=C1CC[C@@H](C)CC1=O
REMARK SMILES IDX 8 1 7 2 6 3 5 4 4 5 2 6 1 7 3 8 10 9 11 10 9 11
REMARK H PARENT
REMARK Flexibility Score: inf
ROOT
ATOM      1  C   UNL     1      -8.386  -2.185  -8.430  1.00  0.00     0.008 C 
ATOM      2  C   UNL     1      -7.979  -3.085  -7.258  1.00  0.00    -0.006 C 
ATOM      3  C   UNL     1      -8.642  -4.467  -7.381  1.00  0.00     0.008 C 
ATOM      4  C   UNL     1      -8.166  -5.414  -6.272  1.00  0.00     0.039 C 
ATOM      5  C   UNL     1      -8.323  -4.811  -4.882  1.00  0.00    -0.006 C 
ATOM      6  C   UNL     1      -8.585  -5.595  -3.795  1.00  0.00    -0.070 C 
ATOM      7  C   UNL     1      -8.799  -5.002  -2.420  1.00  0.00     0.039 C 
ATOM      8  C   UNL     1      -8.714  -7.095  -3.922  1.00  0.00     0.039 C 
ATOM      9  C   UNL     1      -8.058  -3.346  -4.769  1.00  0.00     0.159 C 
ATOM     10  O   UNL     1      -7.569  -2.848  -3.719  1.00  0.00    -0.295 OA
ATOM     11  C   UNL     1      -8.365  -2.435  -5.922  1.00  0.00     0.084 C 
ENDROOT
TORSDOF 0
ENDMDL
MODEL 2
REMARK VINA RESULT:    -3.315      1.011      1.372
REMARK INTER + INTRA:          -3.315
REMARK INTER:                  -3.315
REMARK INTRA:                   0.000
REMARK UNBOUND:                 0.000
REMARK SMILES CC(C)=C1CC[C@@H](C)CC1=O
REMARK SMILES IDX 8 1 7 2 6 3 5 4 4 5 2 6 1 7 3 8 10 9 11 10 9 11
REMARK H PARENT
REMARK Flexibility Score: inf
ROOT
ATOM      1  C   UNL     1      -8.587  -3.794  -7.921  1.00  0.00     0.008 C 
ATOM      2  C   UNL     1      -8.169  -4.360  -6.559  1.00  0.00    -0.006 C 
ATOM      3  C   UNL     1      -9.027  -5.582  -6.194  1.00  0.00     0.008 C 
ATOM      4  C   UNL     1      -8.555  -6.223  -4.882  1.00  0.00     0.039 C 
ATOM      5  C   UNL     1      -8.455  -5.216  -3.743  1.00  0.00    -0.006 C 
ATOM      6  C   UNL     1      -8.688  -5.584  -2.449  1.00  0.00    -0.070 C 
ATOM      7  C   UNL     1      -8.647  -4.583  -1.317  1.00  0.00     0.039 C 
ATOM      8  C   UNL     1      -9.038  -7.010  -2.091  1.00  0.00     0.039 C 
ATOM      9  C   UNL     1      -7.976  -3.852  -4.115  1.00  0.00     0.159 C 
ATOM     10  O   UNL     1      -7.299  -3.154  -3.313  1.00  0.00    -0.295 OA
ATOM     11  C   UNL     1      -8.293  -3.286  -5.469  1.00  0.00     0.084 C 
ENDROOT
TORSDOF 0
ENDMDL
MODEL 3
REMARK VINA RESULT:    -3.293      1.594      2.570
REMARK INTER + INTRA:          -3.293
REMARK INTER:                  -3.293
REMARK INTRA:                   0.000
REMARK UNBOUND:                 0.000
REMARK SMILES CC(C)=C1CC[C@@H](C)CC1=O
REMARK SMILES IDX 8 1 7 2 6 3 5 4 4 5 2 6 1 7 3 8 10 9 11 10 9 11
REMARK H PARENT
REMARK Flexibility Score: inf
ROOT
ATOM      1  C   UNL     1      -8.397  -2.854  -9.277  1.00  0.00     0.008 C 
ATOM      2  C   UNL     1      -8.689  -3.100  -7.792  1.00  0.00    -0.006 C 
ATOM      3  C   UNL     1      -8.016  -2.027  -6.922  1.00  0.00     0.008 C 
ATOM      4  C   UNL     1      -8.381  -2.199  -5.442  1.00  0.00     0.039 C 
ATOM      5  C   UNL     1      -8.119  -3.611  -4.936  1.00  0.00    -0.006 C 
ATOM      6  C   UNL     1      -7.753  -3.844  -3.641  1.00  0.00    -0.070 C 
ATOM      7  C   UNL     1      -7.436  -5.236  -3.142  1.00  0.00     0.039 C 
ATOM      8  C   UNL     1      -7.611  -2.711  -2.651  1.00  0.00     0.039 C 
ATOM      9  C   UNL     1      -8.399  -4.716  -5.901  1.00  0.00     0.159 C 
ATOM     10  O   UNL     1      -8.806  -5.842  -5.507  1.00  0.00    -0.295 OA
ATOM     11  C   UNL     1      -8.204  -4.496  -7.374  1.00  0.00     0.084 C 
ENDROOT
TORSDOF 0
ENDMDL
MODEL 4
REMARK VINA RESULT:    -3.291      1.589      4.684
REMARK INTER + INTRA:          -3.291
REMARK INTER:                  -3.291
REMARK INTRA:                   0.000
REMARK UNBOUND:                 0.000
REMARK SMILES CC(C)=C1CC[C@@H](C)CC1=O
REMARK SMILES IDX 8 1 7 2 6 3 5 4 4 5 2 6 1 7 3 8 10 9 11 10 9 11
REMARK H PARENT
REMARK Flexibility Score: inf
ROOT
ATOM      1  C   UNL     1      -8.752  -6.383  -1.489  1.00  0.00     0.008 C 
ATOM      2  C   UNL     1      -8.181  -5.633  -2.697  1.00  0.00    -0.006 C 
ATOM      3  C   UNL     1      -8.704  -4.188  -2.733  1.00  0.00     0.008 C 
ATOM      4  C   UNL     1      -8.063  -3.391  -3.878  1.00  0.00     0.039 C 
ATOM      5  C   UNL     1      -8.193  -4.094  -5.222  1.00  0.00    -0.006 C 
ATOM      6  C   UNL     1      -8.303  -3.387  -6.385  1.00  0.00    -0.070 C 
ATOM      7  C   UNL     1      -8.489  -4.072  -7.720  1.00  0.00     0.039 C 
ATOM      8  C   UNL     1      -8.284  -1.875  -6.387  1.00  0.00     0.039 C 
ATOM      9  C   UNL     1      -8.074  -5.582  -5.198  1.00  0.00     0.159 C 
ATOM     10  O   UNL     1      -7.574  -6.215  -6.167  1.00  0.00    -0.295 OA
ATOM     11  C   UNL     1      -8.546  -6.356  -4.001  1.00  0.00     0.084 C 
ENDROOT
TORSDOF 0
ENDMDL
MODEL 5
REMARK VINA RESULT:    -3.193      1.748      4.368
REMARK INTER + INTRA:          -3.193
REMARK INTER:                  -3.193
REMARK INTRA:                   0.000
REMARK UNBOUND:                 0.000
REMARK SMILES CC(C)=C1CC[C@@H](C)CC1=O
REMARK SMILES IDX 8 1 7 2 6 3 5 4 4 5 2 6 1 7 3 8 10 9 11 10 9 11
REMARK H PARENT
REMARK Flexibility Score: inf
ROOT
ATOM      1  C   UNL     1      -7.493  -4.881   0.014  1.00  0.00     0.008 C 
ATOM      2  C   UNL     1      -8.108  -4.892  -1.390  1.00  0.00    -0.006 C 
ATOM      3  C   UNL     1      -8.358  -6.334  -1.861  1.00  0.00     0.008 C 
ATOM      4  C   UNL     1      -9.067  -6.362  -3.221  1.00  0.00     0.039 C 
ATOM      5  C   UNL     1      -8.352  -5.520  -4.270  1.00  0.00    -0.006 C 
ATOM      6  C   UNL     1      -8.374  -5.863  -5.591  1.00  0.00    -0.070 C 
ATOM      7  C   UNL     1      -7.622  -5.067  -6.633  1.00  0.00     0.039 C 
ATOM      8  C   UNL     1      -9.125  -7.084  -6.071  1.00  0.00     0.039 C 
ATOM      9  C   UNL     1      -7.735  -4.250  -3.782  1.00  0.00     0.159 C 
ATOM     10  O   UNL     1      -7.664  -3.231  -4.520  1.00  0.00    -0.295 OA
ATOM     11  C   UNL     1      -7.190  -4.167  -2.385  1.00  0.00     0.084 C 
ENDROOT
TORSDOF 0
ENDMDL
MODEL 6
REMARK VINA RESULT:    -3.049     22.657     23.928
REMARK INTER + INTRA:          -3.049
REMARK INTER:                  -3.049
REMARK INTRA:                   0.000
REMARK UNBOUND:                 0.000
REMARK SMILES CC(C)=C1CC[C@@H](C)CC1=O
REMARK SMILES IDX 8 1 7 2 6 3 5 4 4 5 2 6 1 7 3 8 10 9 11 10 9 11
REMARK H PARENT
REMARK Flexibility Score: inf
ROOT
ATOM      1  C   UNL     1      -2.482 -20.948 -18.751  1.00  0.00     0.008 C 
ATOM      2  C   UNL     1      -1.135 -20.872 -19.479  1.00  0.00    -0.006 C 
ATOM      3  C   UNL     1      -0.293 -22.125 -19.192  1.00  0.00     0.008 C 
ATOM      4  C   UNL     1       1.016 -22.113 -19.994  1.00  0.00     0.039 C 
ATOM      5  C   UNL     1       1.803 -20.823 -19.806  1.00  0.00    -0.006 C 
ATOM      6  C   UNL     1       3.168 -20.811 -19.853  1.00  0.00    -0.070 C 
ATOM      7  C   UNL     1       3.963 -19.548 -19.613  1.00  0.00     0.039 C 
ATOM      8  C   UNL     1       3.954 -22.077 -20.111  1.00  0.00     0.039 C 
ATOM      9  C   UNL     1       0.995 -19.573 -19.688  1.00  0.00     0.159 C 
ATOM     10  O   UNL     1       1.428 -18.470 -20.119  1.00  0.00    -0.295 OA
ATOM     11  C   UNL     1      -0.365 -19.613 -19.054  1.00  0.00     0.084 C 
ENDROOT
TORSDOF 0
ENDMDL
MODEL 7
REMARK VINA RESULT:    -2.902      2.018      3.616
REMARK INTER + INTRA:          -2.902
REMARK INTER:                  -2.902
REMARK INTRA:                   0.000
REMARK UNBOUND:                 0.000
REMARK SMILES CC(C)=C1CC[C@@H](C)CC1=O
REMARK SMILES IDX 8 1 7 2 6 3 5 4 4 5 2 6 1 7 3 8 10 9 11 10 9 11
REMARK H PARENT
REMARK Flexibility Score: inf
ROOT
ATOM      1  C   UNL     1      -8.120  -5.134  -6.626  1.00  0.00     0.008 C 
ATOM      2  C   UNL     1      -8.582  -4.937  -5.178  1.00  0.00    -0.006 C 
ATOM      3  C   UNL     1      -8.074  -3.596  -4.624  1.00  0.00     0.008 C 
ATOM      4  C   UNL     1      -8.613  -3.336  -3.211  1.00  0.00     0.039 C 
ATOM      5  C   UNL     1      -8.349  -4.498  -2.263  1.00  0.00    -0.006 C 
ATOM      6  C   UNL     1      -8.137  -4.291  -0.930  1.00  0.00    -0.070 C 
ATOM      7  C   UNL     1      -7.819  -5.431   0.012  1.00  0.00     0.039 C 
ATOM      8  C   UNL     1      -8.172  -2.901  -0.337  1.00  0.00     0.039 C 
ATOM      9  C   UNL     1      -8.454  -5.864  -2.855  1.00  0.00     0.159 C 
ATOM     10  O   UNL     1      -8.854  -6.845  -2.172  1.00  0.00    -0.295 OA
ATOM     11  C   UNL     1      -8.088  -6.091  -4.294  1.00  0.00     0.084 C 
ENDROOT
TORSDOF 0
ENDMDL
MODEL 8
REMARK VINA RESULT:    -2.719     18.145     18.525
REMARK INTER + INTRA:          -2.719
REMARK INTER:                  -2.719
REMARK INTRA:                   0.000
REMARK UNBOUND:                 0.000
REMARK SMILES CC(C)=C1CC[C@@H](C)CC1=O
REMARK SMILES IDX 8 1 7 2 6 3 5 4 4 5 2 6 1 7 3 8 10 9 11 10 9 11
REMARK H PARENT
REMARK Flexibility Score: inf
ROOT
ATOM      1  C   UNL     1      10.203  -2.182  -8.882  1.00  0.00     0.008 C 
ATOM      2  C   UNL     1       9.757  -2.966  -7.643  1.00  0.00    -0.006 C 
ATOM      3  C   UNL     1       9.673  -2.042  -6.418  1.00  0.00     0.008 C 
ATOM      4  C   UNL     1       9.131  -2.789  -5.192  1.00  0.00     0.039 C 
ATOM      5  C   UNL     1       9.897  -4.074  -4.905  1.00  0.00    -0.006 C 
ATOM      6  C   UNL     1      10.053  -4.536  -3.630  1.00  0.00    -0.070 C 
ATOM      7  C   UNL     1      10.859  -5.780  -3.327  1.00  0.00     0.039 C 
ATOM      8  C   UNL     1       9.458  -3.801  -2.451  1.00  0.00     0.039 C 
ATOM      9  C   UNL     1      10.355  -4.845  -6.099  1.00  0.00     0.159 C 
ATOM     10  O   UNL     1      10.433  -6.102  -6.076  1.00  0.00    -0.295 OA
ATOM     11  C   UNL     1      10.726  -4.124  -7.363  1.00  0.00     0.084 C 
ENDROOT
TORSDOF 0
ENDMDL
MODEL 9
REMARK VINA RESULT:    -2.634      1.788      4.070
REMARK INTER + INTRA:          -2.634
REMARK INTER:                  -2.634
REMARK INTRA:                   0.000
REMARK UNBOUND:                 0.000
REMARK SMILES CC(C)=C1CC[C@@H](C)CC1=O
REMARK SMILES IDX 8 1 7 2 6 3 5 4 4 5 2 6 1 7 3 8 10 9 11 10 9 11
REMARK H PARENT
REMARK Flexibility Score: inf
ROOT
ATOM      1  C   UNL     1      -7.902  -2.307  -1.019  1.00  0.00     0.008 C 
ATOM      2  C   UNL     1      -7.635  -2.865  -2.422  1.00  0.00    -0.006 C 
ATOM      3  C   UNL     1      -8.610  -2.254  -3.442  1.00  0.00     0.008 C 
ATOM      4  C   UNL     1      -8.291  -2.724  -4.868  1.00  0.00     0.039 C 
ATOM      5  C   UNL     1      -8.205  -4.241  -4.977  1.00  0.00    -0.006 C 
ATOM      6  C   UNL     1      -8.566  -4.891  -6.122  1.00  0.00    -0.070 C 
ATOM      7  C   UNL     1      -8.537  -6.400  -6.223  1.00  0.00     0.039 C 
ATOM      8  C   UNL     1      -9.050  -4.132  -7.335  1.00  0.00     0.039 C 
ATOM      9  C   UNL     1      -7.597  -4.948  -3.811  1.00  0.00     0.159 C 
ATOM     10  O   UNL     1      -6.933  -6.009  -3.962  1.00  0.00    -0.295 OA
ATOM     11  C   UNL     1      -7.763  -4.395  -2.425  1.00  0.00     0.084 C 
ENDROOT
TORSDOF 0
ENDMDL
