MODEL 1
REMARK VINA RESULT:    -3.318      0.000      0.000
REMARK INTER + INTRA:          -3.415
REMARK INTER:                  -3.415
REMARK INTRA:                   0.000
REMARK UNBOUND:                 0.000
REMARK SMILES Nc1ncnc2nc[nH]c12
REMARK SMILES IDX 8 1 7 2 6 3 5 4 4 5 3 6 2 7 10 8 9 9 1 11
REMARK H PARENT 9 10 1 12 1 13
REMARK Flexibility Score: inf
ROOT
ATOM      1  C   UNL     1     -15.806 -27.828 -24.410  1.00  0.00     0.199 A 
ATOM      2  N   UNL     1     -16.367 -26.664 -24.841  1.00  0.00    -0.217 NA
ATOM      3  C   UNL     1     -15.347 -25.797 -24.724  1.00  0.00     0.182 A 
ATOM      4  N   UNL     1     -15.371 -24.477 -25.027  1.00  0.00    -0.215 NA
ATOM      5  C   UNL     1     -14.227 -23.751 -24.841  1.00  0.00     0.226 A 
ATOM      6  N   UNL     1     -13.091 -24.353 -24.362  1.00  0.00    -0.217 NA
ATOM      7  C   UNL     1     -13.065 -25.684 -24.057  1.00  0.00     0.152 A 
ATOM      8  C   UNL     1     -14.238 -26.409 -24.251  1.00  0.00     0.127 A 
ATOM      9  N   UNL     1     -14.506 -27.704 -24.043  1.00  0.00    -0.340 N 
ATOM     10  H   UNL     1     -13.874 -28.452 -23.683  1.00  0.00     0.168 HD
ENDROOT
BRANCH   7  11
ATOM     11  N   UNL     1     -11.872 -26.290 -23.559  1.00  0.00    -0.382 N 
ATOM     12  H   UNL     1     -11.156 -26.693 -24.202  1.00  0.00     0.158 HD
ATOM     13  H   UNL     1     -11.699 -26.334 -22.529  1.00  0.00     0.158 HD
ENDBRANCH   7  11
TORSDOF 1
ENDMDL
MODEL 2
REMARK VINA RESULT:    -3.267     17.280     18.183
REMARK INTER + INTRA:          -3.363
REMARK INTER:                  -3.363
REMARK INTRA:                   0.000
REMARK UNBOUND:                 0.000
REMARK SMILES Nc1ncnc2nc[nH]c12
REMARK SMILES IDX 8 1 7 2 6 3 5 4 4 5 3 6 2 7 10 8 9 9 1 11
REMARK H PARENT 9 10 1 12 1 13
REMARK Flexibility Score: inf
ROOT
ATOM      1  C   UNL     1     -24.017 -23.899 -41.115  1.00  0.00     0.199 A 
ATOM      2  N   UNL     1     -23.237 -22.895 -40.626  1.00  0.00    -0.217 NA
ATOM      3  C   UNL     1     -22.022 -23.467 -40.599  1.00  0.00     0.182 A 
ATOM      4  N   UNL     1     -20.867 -22.890 -40.188  1.00  0.00    -0.215 NA
ATOM      5  C   UNL     1     -19.721 -23.636 -40.234  1.00  0.00     0.226 A 
ATOM      6  N   UNL     1     -19.751 -24.931 -40.686  1.00  0.00    -0.217 NA
ATOM      7  C   UNL     1     -20.915 -25.514 -41.102  1.00  0.00     0.152 A 
ATOM      8  C   UNL     1     -22.072 -24.742 -41.049  1.00  0.00     0.127 A 
ATOM      9  N   UNL     1     -23.334 -25.040 -41.383  1.00  0.00    -0.340 N 
ATOM     10  H   UNL     1     -23.715 -25.934 -41.762  1.00  0.00     0.168 HD
ENDROOT
BRANCH   7  11
ATOM     11  N   UNL     1     -20.922 -26.863 -41.568  1.00  0.00    -0.382 N 
ATOM     12  H   UNL     1     -21.541 -27.585 -41.137  1.00  0.00     0.158 HD
ATOM     13  H   UNL     1     -20.301 -27.147 -42.358  1.00  0.00     0.158 HD
ENDBRANCH   7  11
TORSDOF 1
ENDMDL
MODEL 3
REMARK VINA RESULT:    -3.114     13.031     14.521
REMARK INTER + INTRA:          -3.205
REMARK INTER:                  -3.205
REMARK INTRA:                   0.000
REMARK UNBOUND:                 0.000
REMARK SMILES Nc1ncnc2nc[nH]c12
REMARK SMILES IDX 8 1 7 2 6 3 5 4 4 5 3 6 2 7 10 8 9 9 1 11
REMARK H PARENT 9 10 1 12 1 13
REMARK Flexibility Score: inf
ROOT
ATOM      1  C   UNL     1     -27.274 -27.151 -33.812  1.00  0.00     0.199 A 
ATOM      2  N   UNL     1     -27.908 -26.012 -33.419  1.00  0.00    -0.217 NA
ATOM      3  C   UNL     1     -27.506 -25.889 -32.143  1.00  0.00     0.182 A 
ATOM      4  N   UNL     1     -27.853 -24.905 -31.279  1.00  0.00    -0.215 NA
ATOM      5  C   UNL     1     -27.340 -24.949 -30.012  1.00  0.00     0.226 A 
ATOM      6  N   UNL     1     -26.497 -25.964 -29.637  1.00  0.00    -0.217 NA
ATOM      7  C   UNL     1     -26.146 -26.956 -30.507  1.00  0.00     0.152 A 
ATOM      8  C   UNL     1     -26.677 -26.898 -31.793  1.00  0.00     0.127 A 
ATOM      9  N   UNL     1     -26.514 -27.716 -32.841  1.00  0.00    -0.340 N 
ATOM     10  H   UNL     1     -25.941 -28.586 -32.907  1.00  0.00     0.168 HD
ENDROOT
BRANCH   7  11
ATOM     11  N   UNL     1     -25.268 -28.004 -30.095  1.00  0.00    -0.382 N 
ATOM     12  H   UNL     1     -24.276 -28.042 -30.418  1.00  0.00     0.158 HD
ATOM     13  H   UNL     1     -25.613 -28.753 -29.454  1.00  0.00     0.158 HD
ENDBRANCH   7  11
TORSDOF 1
ENDMDL
MODEL 4
REMARK VINA RESULT:    -3.092     17.914     18.109
REMARK INTER + INTRA:          -3.182
REMARK INTER:                  -3.182
REMARK INTRA:                   0.000
REMARK UNBOUND:                 0.000
REMARK SMILES Nc1ncnc2nc[nH]c12
REMARK SMILES IDX 8 1 7 2 6 3 5 4 4 5 3 6 2 7 10 8 9 9 1 11
REMARK H PARENT 9 10 1 12 1 13
REMARK Flexibility Score: inf
ROOT
ATOM      1  C   UNL     1     -18.825  -8.234 -22.287  1.00  0.00     0.199 A 
ATOM      2  N   UNL     1     -19.351  -8.134 -23.538  1.00  0.00    -0.217 NA
ATOM      3  C   UNL     1     -18.250  -8.076 -24.306  1.00  0.00     0.182 A 
ATOM      4  N   UNL     1     -18.212  -7.970 -25.656  1.00  0.00    -0.215 NA
ATOM      5  C   UNL     1     -16.988  -7.925 -26.265  1.00  0.00     0.226 A 
ATOM      6  N   UNL     1     -15.838  -7.986 -25.521  1.00  0.00    -0.217 NA
ATOM      7  C   UNL     1     -15.875  -8.094 -24.160  1.00  0.00     0.152 A 
ATOM      8  C   UNL     1     -17.128  -8.139 -23.554  1.00  0.00     0.127 A 
ATOM      9  N   UNL     1     -17.468  -8.240 -22.264  1.00  0.00    -0.340 N 
ATOM     10  H   UNL     1     -16.847  -8.307 -21.428  1.00  0.00     0.168 HD
ENDROOT
BRANCH   7  11
ATOM     11  N   UNL     1     -14.663  -8.156 -23.405  1.00  0.00    -0.382 N 
ATOM     12  H   UNL     1     -14.497  -7.526 -22.590  1.00  0.00     0.158 HD
ATOM     13  H   UNL     1     -13.921  -8.844 -23.664  1.00  0.00     0.158 HD
ENDBRANCH   7  11
TORSDOF 1
ENDMDL
MODEL 5
REMARK VINA RESULT:    -3.086     17.749     18.225
REMARK INTER + INTRA:          -3.176
REMARK INTER:                  -3.176
REMARK INTRA:                   0.000
REMARK UNBOUND:                 0.000
REMARK SMILES Nc1ncnc2nc[nH]c12
REMARK SMILES IDX 8 1 7 2 6 3 5 4 4 5 3 6 2 7 10 8 9 9 1 11
REMARK H PARENT 9 10 1 12 1 13
REMARK Flexibility Score: inf
ROOT
ATOM      1  C   UNL     1     -14.388  -8.289 -24.481  1.00  0.00     0.199 A 
ATOM      2  N   UNL     1     -15.061  -8.276 -25.664  1.00  0.00    -0.217 NA
ATOM      3  C   UNL     1     -16.337  -8.145 -25.264  1.00  0.00     0.182 A 
ATOM      4  N   UNL     1     -17.431  -8.079 -26.060  1.00  0.00    -0.215 NA
ATOM      5  C   UNL     1     -18.655  -7.944 -25.466  1.00  0.00     0.226 A 
ATOM      6  N   UNL     1     -18.762  -7.879 -24.100  1.00  0.00    -0.217 NA
ATOM      7  C   UNL     1     -17.660  -7.945 -23.295  1.00  0.00     0.152 A 
ATOM      8  C   UNL     1     -16.421  -8.082 -23.915  1.00  0.00     0.127 A 
ATOM      9  N   UNL     1     -15.191  -8.172 -23.394  1.00  0.00    -0.340 N 
ATOM     10  H   UNL     1     -14.905  -8.157 -22.391  1.00  0.00     0.168 HD
ENDROOT
BRANCH   7  11
ATOM     11  N   UNL     1     -17.795  -7.875 -21.875  1.00  0.00    -0.382 N 
ATOM     12  H   UNL     1     -17.629  -8.709 -21.270  1.00  0.00     0.158 HD
ATOM     13  H   UNL     1     -18.065  -6.974 -21.420  1.00  0.00     0.158 HD
ENDBRANCH   7  11
TORSDOF 1
ENDMDL
MODEL 6
REMARK VINA RESULT:    -3.075     14.791     15.449
REMARK INTER + INTRA:          -3.165
REMARK INTER:                  -3.165
REMARK INTRA:                   0.000
REMARK UNBOUND:                 0.000
REMARK SMILES Nc1ncnc2nc[nH]c12
REMARK SMILES IDX 8 1 7 2 6 3 5 4 4 5 3 6 2 7 10 8 9 9 1 11
REMARK H PARENT 9 10 1 12 1 13
REMARK Flexibility Score: inf
ROOT
ATOM      1  C   UNL     1     -19.714 -27.806 -38.748  1.00  0.00     0.199 A 
ATOM      2  N   UNL     1     -18.885 -27.439 -37.732  1.00  0.00    -0.217 NA
ATOM      3  C   UNL     1     -17.687 -27.412 -38.339  1.00  0.00     0.182 A 
ATOM      4  N   UNL     1     -16.499 -27.100 -37.767  1.00  0.00    -0.215 NA
ATOM      5  C   UNL     1     -15.379 -27.126 -38.551  1.00  0.00     0.226 A 
ATOM      6  N   UNL     1     -15.466 -27.460 -39.878  1.00  0.00    -0.217 NA
ATOM      7  C   UNL     1     -16.663 -27.775 -40.456  1.00  0.00     0.152 A 
ATOM      8  C   UNL     1     -17.794 -27.743 -39.645  1.00  0.00     0.127 A 
ATOM      9  N   UNL     1     -19.077 -27.999 -39.930  1.00  0.00    -0.340 N 
ATOM     10  H   UNL     1     -19.500 -28.282 -40.841  1.00  0.00     0.168 HD
ENDROOT
BRANCH   7  11
ATOM     11  N   UNL     1     -16.729 -28.120 -41.841  1.00  0.00    -0.382 N 
ATOM     12  H   UNL     1     -17.072 -29.055 -42.153  1.00  0.00     0.158 HD
ATOM     13  H   UNL     1     -16.433 -27.429 -42.566  1.00  0.00     0.158 HD
ENDBRANCH   7  11
TORSDOF 1
ENDMDL
MODEL 7
REMARK VINA RESULT:    -3.066     15.962     16.691
REMARK INTER + INTRA:          -3.156
REMARK INTER:                  -3.156
REMARK INTRA:                   0.000
REMARK UNBOUND:                 0.000
REMARK SMILES Nc1ncnc2nc[nH]c12
REMARK SMILES IDX 8 1 7 2 6 3 5 4 4 5 3 6 2 7 10 8 9 9 1 11
REMARK H PARENT 9 10 1 12 1 13
REMARK Flexibility Score: inf
ROOT
ATOM      1  C   UNL     1     -20.425 -26.311 -41.338  1.00  0.00     0.199 A 
ATOM      2  N   UNL     1     -20.333 -26.273 -39.980  1.00  0.00    -0.217 NA
ATOM      3  C   UNL     1     -19.120 -26.807 -39.762  1.00  0.00     0.182 A 
ATOM      4  N   UNL     1     -18.529 -27.003 -38.560  1.00  0.00    -0.215 NA
ATOM      5  C   UNL     1     -17.282 -27.565 -38.538  1.00  0.00     0.226 A 
ATOM      6  N   UNL     1     -16.655 -27.915 -39.707  1.00  0.00    -0.217 NA
ATOM      7  C   UNL     1     -17.250 -27.717 -40.920  1.00  0.00     0.152 A 
ATOM      8  C   UNL     1     -18.520 -27.145 -40.926  1.00  0.00     0.127 A 
ATOM      9  N   UNL     1     -19.332 -26.838 -41.945  1.00  0.00    -0.340 N 
ATOM     10  H   UNL     1     -19.174 -26.969 -42.968  1.00  0.00     0.168 HD
ENDROOT
BRANCH   7  11
ATOM     11  N   UNL     1     -16.579 -28.090 -42.125  1.00  0.00    -0.382 N 
ATOM     12  H   UNL     1     -17.038 -28.698 -42.838  1.00  0.00     0.158 HD
ATOM     13  H   UNL     1     -15.608 -27.752 -42.308  1.00  0.00     0.158 HD
ENDBRANCH   7  11
TORSDOF 1
ENDMDL
MODEL 8
REMARK VINA RESULT:    -3.057     17.310     18.145
REMARK INTER + INTRA:          -3.147
REMARK INTER:                  -3.147
REMARK INTRA:                   0.000
REMARK UNBOUND:                 0.000
REMARK SMILES Nc1ncnc2nc[nH]c12
REMARK SMILES IDX 8 1 7 2 6 3 5 4 4 5 3 6 2 7 10 8 9 9 1 11
REMARK H PARENT 9 10 1 12 1 13
REMARK Flexibility Score: inf
ROOT
ATOM      1  C   UNL     1     -20.026 -26.431 -41.174  1.00  0.00     0.199 A 
ATOM      2  N   UNL     1     -19.434 -25.294 -40.714  1.00  0.00    -0.217 NA
ATOM      3  C   UNL     1     -20.474 -24.447 -40.628  1.00  0.00     0.182 A 
ATOM      4  N   UNL     1     -20.432 -23.157 -40.215  1.00  0.00    -0.215 NA
ATOM      5  C   UNL     1     -21.602 -22.449 -40.194  1.00  0.00     0.226 A 
ATOM      6  N   UNL     1     -22.779 -23.037 -40.580  1.00  0.00    -0.217 NA
ATOM      7  C   UNL     1     -22.823 -24.338 -40.995  1.00  0.00     0.152 A 
ATOM      8  C   UNL     1     -21.624 -25.046 -41.012  1.00  0.00     0.127 A 
ATOM      9  N   UNL     1     -21.364 -26.311 -41.365  1.00  0.00    -0.340 N 
ATOM     10  H   UNL     1     -22.025 -27.042 -41.708  1.00  0.00     0.168 HD
ENDROOT
BRANCH   7  11
ATOM     11  N   UNL     1     -24.060 -24.930 -41.394  1.00  0.00    -0.382 N 
ATOM     12  H   UNL     1     -24.108 -25.914 -41.738  1.00  0.00     0.158 HD
ATOM     13  H   UNL     1     -24.945 -24.376 -41.343  1.00  0.00     0.158 HD
ENDBRANCH   7  11
TORSDOF 1
ENDMDL
MODEL 9
REMARK VINA RESULT:    -3.057      1.857      3.547
REMARK INTER + INTRA:          -3.146
REMARK INTER:                  -3.146
REMARK INTRA:                   0.000
REMARK UNBOUND:                 0.000
REMARK SMILES Nc1ncnc2nc[nH]c12
REMARK SMILES IDX 8 1 7 2 6 3 5 4 4 5 3 6 2 7 10 8 9 9 1 11
REMARK H PARENT 9 10 1 12 1 13
REMARK Flexibility Score: inf
ROOT
ATOM      1  C   UNL     1     -12.569 -26.024 -24.580  1.00  0.00     0.199 A 
ATOM      2  N   UNL     1     -12.887 -26.120 -25.901  1.00  0.00    -0.217 NA
ATOM      3  C   UNL     1     -14.052 -26.786 -25.865  1.00  0.00     0.182 A 
ATOM      4  N   UNL     1     -14.809 -27.148 -26.930  1.00  0.00    -0.215 NA
ATOM      5  C   UNL     1     -15.973 -27.825 -26.694  1.00  0.00     0.226 A 
ATOM      6  N   UNL     1     -16.356 -28.125 -25.411  1.00  0.00    -0.217 NA
ATOM      7  C   UNL     1     -15.595 -27.761 -24.337  1.00  0.00     0.152 A 
ATOM      8  C   UNL     1     -14.413 -27.071 -24.593  1.00  0.00     0.127 A 
ATOM      9  N   UNL     1     -13.483 -26.596 -23.756  1.00  0.00    -0.340 N 
ATOM     10  H   UNL     1     -13.455 -26.647 -22.714  1.00  0.00     0.168 HD
ENDROOT
BRANCH   7  11
ATOM     11  N   UNL     1     -16.014 -28.084 -23.010  1.00  0.00    -0.382 N 
ATOM     12  H   UNL     1     -17.023 -28.202 -22.771  1.00  0.00     0.158 HD
ATOM     13  H   UNL     1     -15.304 -28.210 -22.254  1.00  0.00     0.158 HD
ENDBRANCH   7  11
TORSDOF 1
ENDMDL
