MODEL 1
REMARK VINA RESULT:    -4.010      0.000      0.000
REMARK INTER + INTRA:          -4.824
REMARK INTER:                  -4.713
REMARK INTRA:                  -0.111
REMARK UNBOUND:                -0.111
REMARK SMILES O=C([O-])CCC(=O)[O-]
REMARK SMILES IDX 4 1 2 2 1 3 3 4 5 5 6 6 7 7 8 8
REMARK H PARENT
REMARK Flexibility Score: inf
ROOT
ATOM      1  C   UNL     1      22.401 -22.843  18.253  1.00  0.00     0.059 C 
ENDROOT
BRANCH   1   2
ATOM      2  C   UNL     1      23.350 -22.875  19.410  1.00  0.00     0.042 C 
ATOM      3  O   UNL     1      23.474 -23.923  20.098  1.00  0.00    -0.550 OA
ATOM      4  O   UNL     1      24.060 -21.735  19.759  1.00  0.00    -0.550 OA
ENDBRANCH   1   2
BRANCH   1   5
ATOM      5  C   UNL     1      21.622 -24.155  18.163  1.00  0.00     0.059 C 
BRANCH   5   6
ATOM      6  C   UNL     1      20.199 -23.949  18.578  1.00  0.00     0.042 C 
ATOM      7  O   UNL     1      19.261 -24.258  17.798  1.00  0.00    -0.550 OA
ATOM      8  O   UNL     1      19.909 -23.462  19.845  1.00  0.00    -0.550 OA
ENDBRANCH   5   6
ENDBRANCH   1   5
TORSDOF 3
ENDMDL
MODEL 2
REMARK VINA RESULT:    -3.962      0.102      3.889
REMARK INTER + INTRA:          -4.768
REMARK INTER:                  -4.660
REMARK INTRA:                  -0.108
REMARK UNBOUND:                -0.111
REMARK SMILES O=C([O-])CCC(=O)[O-]
REMARK SMILES IDX 4 1 2 2 1 3 3 4 5 5 6 6 7 7 8 8
REMARK H PARENT
REMARK Flexibility Score: inf
ROOT
ATOM      1  C   UNL     1      21.687 -24.179  18.258  1.00  0.00     0.059 C 
ENDROOT
BRANCH   1   2
ATOM      2  C   UNL     1      20.261 -23.940  18.640  1.00  0.00     0.042 C 
ATOM      3  O   UNL     1      19.978 -23.502  19.787  1.00  0.00    -0.550 OA
ATOM      4  O   UNL     1      19.241 -24.247  17.751  1.00  0.00    -0.550 OA
ENDBRANCH   1   2
BRANCH   1   5
ATOM      5  C   UNL     1      22.474 -22.869  18.278  1.00  0.00     0.059 C 
BRANCH   5   6
ATOM      6  C   UNL     1      23.422 -22.845  19.436  1.00  0.00     0.042 C 
ATOM      7  O   UNL     1      24.025 -21.782  19.738  1.00  0.00    -0.550 OA
ATOM      8  O   UNL     1      23.603 -23.984  20.209  1.00  0.00    -0.550 OA
ENDBRANCH   5   6
ENDBRANCH   1   5
TORSDOF 3
ENDMDL
MODEL 3
REMARK VINA RESULT:    -3.848      1.822      2.366
REMARK INTER + INTRA:          -4.633
REMARK INTER:                  -4.475
REMARK INTRA:                  -0.158
REMARK UNBOUND:                -0.111
REMARK SMILES O=C([O-])CCC(=O)[O-]
REMARK SMILES IDX 4 1 2 2 1 3 3 4 5 5 6 6 7 7 8 8
REMARK H PARENT
REMARK Flexibility Score: inf
ROOT
ATOM      1  C   UNL     1      21.052 -23.498  18.254  1.00  0.00     0.059 C 
ENDROOT
BRANCH   1   2
ATOM      2  C   UNL     1      22.293 -22.665  18.315  1.00  0.00     0.042 C 
ATOM      3  O   UNL     1      23.378 -23.110  17.856  1.00  0.00    -0.550 OA
ATOM      4  O   UNL     1      22.264 -21.418  18.924  1.00  0.00    -0.550 OA
ENDBRANCH   1   2
BRANCH   1   5
ATOM      5  C   UNL     1      21.351 -24.936  18.677  1.00  0.00     0.059 C 
BRANCH   5   6
ATOM      6  C   UNL     1      21.556 -25.015  20.158  1.00  0.00     0.042 C 
ATOM      7  O   UNL     1      22.673 -25.356  20.625  1.00  0.00    -0.550 OA
ATOM      8  O   UNL     1      20.526 -24.664  21.021  1.00  0.00    -0.550 OA
ENDBRANCH   5   6
ENDBRANCH   1   5
TORSDOF 3
ENDMDL
MODEL 4
REMARK VINA RESULT:    -3.832      1.823      3.114
REMARK INTER + INTRA:          -4.615
REMARK INTER:                  -4.463
REMARK INTRA:                  -0.152
REMARK UNBOUND:                -0.111
REMARK SMILES O=C([O-])CCC(=O)[O-]
REMARK SMILES IDX 4 1 2 2 1 3 3 4 5 5 6 6 7 7 8 8
REMARK H PARENT
REMARK Flexibility Score: inf
ROOT
ATOM      1  C   UNL     1      21.361 -24.957  18.694  1.00  0.00     0.059 C 
ENDROOT
BRANCH   1   2
ATOM      2  C   UNL     1      21.498 -25.066  20.180  1.00  0.00     0.042 C 
ATOM      3  O   UNL     1      20.575 -24.659  20.933  1.00  0.00    -0.550 OA
ATOM      4  O   UNL     1      22.666 -25.571  20.735  1.00  0.00    -0.550 OA
ENDBRANCH   1   2
BRANCH   1   5
ATOM      5  C   UNL     1      21.064 -23.513  18.289  1.00  0.00     0.059 C 
BRANCH   5   6
ATOM      6  C   UNL     1      22.310 -22.686  18.346  1.00  0.00     0.042 C 
ATOM      7  O   UNL     1      23.378 -23.115  17.839  1.00  0.00    -0.550 OA
ATOM      8  O   UNL     1      22.277 -21.420  18.915  1.00  0.00    -0.550 OA
ENDBRANCH   5   6
ENDBRANCH   1   5
TORSDOF 3
ENDMDL
MODEL 5
REMARK VINA RESULT:    -3.751      3.535      4.633
REMARK INTER + INTRA:          -4.520
REMARK INTER:                  -4.493
REMARK INTRA:                  -0.026
REMARK UNBOUND:                -0.111
REMARK SMILES O=C([O-])CCC(=O)[O-]
REMARK SMILES IDX 4 1 2 2 1 3 3 4 5 5 6 6 7 7 8 8
REMARK H PARENT
REMARK Flexibility Score: inf
ROOT
ATOM      1  C   UNL     1      22.631 -20.738  17.903  1.00  0.00     0.059 C 
ENDROOT
BRANCH   1   2
ATOM      2  C   UNL     1      23.313 -21.916  18.524  1.00  0.00     0.042 C 
ATOM      3  O   UNL     1      23.297 -23.034  17.944  1.00  0.00    -0.550 OA
ATOM      4  O   UNL     1      23.922 -21.793  19.765  1.00  0.00    -0.550 OA
ENDBRANCH   1   2
BRANCH   1   5
ATOM      5  C   UNL     1      23.631 -19.900  17.106  1.00  0.00     0.059 C 
BRANCH   5   6
ATOM      6  C   UNL     1      22.957 -18.701  16.516  1.00  0.00     0.042 C 
ATOM      7  O   UNL     1      22.239 -18.820  15.489  1.00  0.00    -0.550 OA
ATOM      8  O   UNL     1      23.083 -17.461  17.128  1.00  0.00    -0.550 OA
ENDBRANCH   5   6
ENDBRANCH   1   5
TORSDOF 3
ENDMDL
MODEL 6
REMARK VINA RESULT:    -3.740      3.547      4.712
REMARK INTER + INTRA:          -4.506
REMARK INTER:                  -4.480
REMARK INTRA:                  -0.026
REMARK UNBOUND:                -0.111
REMARK SMILES O=C([O-])CCC(=O)[O-]
REMARK SMILES IDX 4 1 2 2 1 3 3 4 5 5 6 6 7 7 8 8
REMARK H PARENT
REMARK Flexibility Score: inf
ROOT
ATOM      1  C   UNL     1      23.617 -19.892  17.092  1.00  0.00     0.059 C 
ENDROOT
BRANCH   1   2
ATOM      2  C   UNL     1      22.936 -18.696  16.505  1.00  0.00     0.042 C 
ATOM      3  O   UNL     1      22.229 -18.815  15.470  1.00  0.00    -0.550 OA
ATOM      4  O   UNL     1      23.124 -17.442  17.070  1.00  0.00    -0.550 OA
ENDBRANCH   1   2
BRANCH   1   5
ATOM      5  C   UNL     1      22.623 -20.735  17.892  1.00  0.00     0.059 C 
BRANCH   5   6
ATOM      6  C   UNL     1      23.317 -21.897  18.530  1.00  0.00     0.042 C 
ATOM      7  O   UNL     1      23.372 -23.006  17.936  1.00  0.00    -0.550 OA
ATOM      8  O   UNL     1      23.944 -21.742  19.759  1.00  0.00    -0.550 OA
ENDBRANCH   5   6
ENDBRANCH   1   5
TORSDOF 3
ENDMDL
MODEL 7
REMARK VINA RESULT:    -3.643      1.990      3.876
REMARK INTER + INTRA:          -4.393
REMARK INTER:                  -4.328
REMARK INTRA:                  -0.065
REMARK UNBOUND:                -0.111
REMARK SMILES O=C([O-])CCC(=O)[O-]
REMARK SMILES IDX 4 1 2 2 1 3 3 4 5 5 6 6 7 7 8 8
REMARK H PARENT
REMARK Flexibility Score: inf
ROOT
ATOM      1  C   UNL     1      20.482 -23.955  19.450  1.00  0.00     0.059 C 
ENDROOT
BRANCH   1   2
ATOM      2  C   UNL     1      20.481 -24.218  17.977  1.00  0.00     0.042 C 
ATOM      3  O   UNL     1      21.569 -24.286  17.346  1.00  0.00    -0.550 OA
ATOM      4  O   UNL     1      19.280 -24.339  17.293  1.00  0.00    -0.550 OA
ENDBRANCH   1   2
BRANCH   1   5
ATOM      5  C   UNL     1      20.833 -25.227  20.222  1.00  0.00     0.059 C 
BRANCH   5   6
ATOM      6  C   UNL     1      22.270 -25.207  20.639  1.00  0.00     0.042 C 
ATOM      7  O   UNL     1      23.022 -24.267  20.274  1.00  0.00    -0.550 OA
ATOM      8  O   UNL     1      22.765 -26.203  21.470  1.00  0.00    -0.550 OA
ENDBRANCH   5   6
ENDBRANCH   1   5
TORSDOF 3
ENDMDL
MODEL 8
REMARK VINA RESULT:    -3.352     13.613     14.707
REMARK INTER + INTRA:          -4.051
REMARK INTER:                  -3.870
REMARK INTRA:                  -0.181
REMARK UNBOUND:                -0.111
REMARK SMILES O=C([O-])CCC(=O)[O-]
REMARK SMILES IDX 4 1 2 2 1 3 3 4 5 5 6 6 7 7 8 8
REMARK H PARENT
REMARK Flexibility Score: inf
ROOT
ATOM      1  C   UNL     1       7.293 -24.378  14.356  1.00  0.00     0.059 C 
ENDROOT
BRANCH   1   2
ATOM      2  C   UNL     1       7.225 -24.466  15.848  1.00  0.00     0.042 C 
ATOM      3  O   UNL     1       8.028 -23.805  16.558  1.00  0.00    -0.550 OA
ATOM      4  O   UNL     1       6.308 -25.314  16.453  1.00  0.00    -0.550 OA
ENDBRANCH   1   2
BRANCH   1   5
ATOM      5  C   UNL     1       7.663 -25.735  13.756  1.00  0.00     0.059 C 
BRANCH   5   6
ATOM      6  C   UNL     1       9.067 -26.103  14.118  1.00  0.00     0.042 C 
ATOM      7  O   UNL     1      10.021 -25.343  13.806  1.00  0.00    -0.550 OA
ATOM      8  O   UNL     1       9.317 -27.261  14.842  1.00  0.00    -0.550 OA
ENDBRANCH   5   6
ENDBRANCH   1   5
TORSDOF 3
ENDMDL
MODEL 9
REMARK VINA RESULT:    -3.328     13.650     14.650
REMARK INTER + INTRA:          -4.022
REMARK INTER:                  -3.845
REMARK INTRA:                  -0.177
REMARK UNBOUND:                -0.111
REMARK SMILES O=C([O-])CCC(=O)[O-]
REMARK SMILES IDX 4 1 2 2 1 3 3 4 5 5 6 6 7 7 8 8
REMARK H PARENT
REMARK Flexibility Score: inf
ROOT
ATOM      1  C   UNL     1       7.603 -25.581  13.828  1.00  0.00     0.059 C 
ENDROOT
BRANCH   1   2
ATOM      2  C   UNL     1       8.988 -26.017  14.193  1.00  0.00     0.042 C 
ATOM      3  O   UNL     1       9.984 -25.357  13.796  1.00  0.00    -0.550 OA
ATOM      4  O   UNL     1       9.180 -27.179  14.927  1.00  0.00    -0.550 OA
ENDBRANCH   1   2
BRANCH   1   5
ATOM      5  C   UNL     1       7.265 -24.252  14.504  1.00  0.00     0.059 C 
BRANCH   5   6
ATOM      6  C   UNL     1       7.156 -24.430  15.986  1.00  0.00     0.042 C 
ATOM      7  O   UNL     1       7.910 -23.783  16.758  1.00  0.00    -0.550 OA
ATOM      8  O   UNL     1       6.189 -25.275  16.514  1.00  0.00    -0.550 OA
ENDBRANCH   5   6
ENDBRANCH   1   5
TORSDOF 3
ENDMDL
