MODEL 1
REMARK VINA RESULT:    -0.584      0.000      0.000
REMARK INTER + INTRA:          -2.719
REMARK INTER:                  -1.335
REMARK INTRA:                  -1.383
REMARK UNBOUND:                -1.383
REMARK SMILES CCCCCCCCCCCCCCCCCCCCCCCC(=O)[O-]
REMARK SMILES IDX 13 1 14 2 15 3 16 4 17 5 18 6 19 7 20 8 21 9 22 10 23 11
REMARK SMILES IDX 24 12 25 13 26 14 12 15 11 16 10 17 9 18 8 19 7 20 6 21 5 22
REMARK SMILES IDX 4 23 3 24 2 25 1 26
REMARK H PARENT
REMARK Flexibility Score: inf
ROOT
ATOM      1  C   UNL     1       5.850  12.910   8.115  1.00  0.00     0.000 C 
ENDROOT
BRANCH   1   2
ATOM      2  C   UNL     1       4.326  12.837   8.317  1.00  0.00     0.000 C 
BRANCH   2   3
ATOM      3  C   UNL     1       3.934  12.263   9.695  1.00  0.00     0.000 C 
BRANCH   3   4
ATOM      4  C   UNL     1       2.607  12.816  10.250  1.00  0.00     0.000 C 
BRANCH   4   5
ATOM      5  C   UNL     1       1.427  11.827  10.239  1.00  0.00     0.000 C 
BRANCH   5   6
ATOM      6  C   UNL     1       0.413  12.030   9.098  1.00  0.00     0.000 C 
BRANCH   6   7
ATOM      7  C   UNL     1       0.839  11.347   7.791  1.00  0.00     0.000 C 
BRANCH   7   8
ATOM      8  C   UNL     1       1.780  10.164   8.066  1.00  0.00     0.000 C 
BRANCH   8   9
ATOM      9  C   UNL     1       2.900  10.047   7.011  1.00  0.00     0.000 C 
BRANCH   9  10
ATOM     10  C   UNL     1       3.719   8.750   7.113  1.00  0.00     0.006 C 
BRANCH  10  11
ATOM     11  C   UNL     1       3.841   8.228   8.549  1.00  0.00     0.053 C 
BRANCH  11  12
ATOM     12  C   UNL     1       4.664   9.161   9.379  1.00  0.00     0.041 C 
ATOM     13  O   UNL     1       4.265   9.516  10.519  1.00  0.00    -0.550 OA
ATOM     14  O   UNL     1       5.893   9.609   8.911  1.00  0.00    -0.550 OA
ENDBRANCH  11  12
ENDBRANCH  10  11
ENDBRANCH   9  10
ENDBRANCH   8   9
ENDBRANCH   7   8
ENDBRANCH   6   7
ENDBRANCH   5   6
ENDBRANCH   4   5
ENDBRANCH   3   4
ENDBRANCH   2   3
ENDBRANCH   1   2
BRANCH   1  15
ATOM     15  C   UNL     1       6.626  12.339   9.314  1.00  0.00     0.000 C 
BRANCH  15  16
ATOM     16  C   UNL     1       8.150  12.402   9.106  1.00  0.00     0.000 C 
BRANCH  16  17
ATOM     17  C   UNL     1       8.536  13.099   7.791  1.00  0.00     0.000 C 
BRANCH  17  18
ATOM     18  C   UNL     1       9.900  12.632   7.256  1.00  0.00    -0.000 C 
BRANCH  18  19
ATOM     19  C   UNL     1       9.801  12.081   5.816  1.00  0.00    -0.000 C 
BRANCH  19  20
ATOM     20  C   UNL     1      10.123  13.125   4.733  1.00  0.00    -0.000 C 
BRANCH  20  21
ATOM     21  C   UNL     1       9.593  12.722   3.348  1.00  0.00    -0.000 C 
BRANCH  21  22
ATOM     22  C   UNL     1       8.064  12.555   3.317  1.00  0.00    -0.000 C 
BRANCH  22  23
ATOM     23  C   UNL     1       7.359  13.125   4.568  1.00  0.00    -0.000 C 
BRANCH  23  24
ATOM     24  C   UNL     1       5.953  12.529   4.757  1.00  0.00    -0.000 C 
BRANCH  24  25
ATOM     25  C   UNL     1       5.897  11.038   4.387  1.00  0.00    -0.003 C 
ATOM     26  C   UNL     1       6.593  10.161   5.427  1.00  0.00     0.004 C 
ENDBRANCH  24  25
ENDBRANCH  23  24
ENDBRANCH  22  23
ENDBRANCH  21  22
ENDBRANCH  20  21
ENDBRANCH  19  20
ENDBRANCH  18  19
ENDBRANCH  17  18
ENDBRANCH  16  17
ENDBRANCH  15  16
ENDBRANCH   1  15
TORSDOF 22
ENDMDL
MODEL 2
REMARK VINA RESULT:    -0.070      1.364      6.107
REMARK INTER + INTRA:          -1.542
REMARK INTER:                  -2.358
REMARK INTRA:                   0.816
REMARK UNBOUND:                -1.383
REMARK SMILES CCCCCCCCCCCCCCCCCCCCCCCC(=O)[O-]
REMARK SMILES IDX 13 1 14 2 15 3 16 4 17 5 18 6 19 7 20 8 21 9 22 10 23 11
REMARK SMILES IDX 24 12 25 13 26 14 12 15 11 16 10 17 9 18 8 19 7 20 6 21 5 22
REMARK SMILES IDX 4 23 3 24 2 25 1 26
REMARK H PARENT
REMARK Flexibility Score: inf
ROOT
ATOM      1  C   UNL     1       9.321  11.825   5.464  1.00  0.00     0.000 C 
ENDROOT
BRANCH   1   2
ATOM      2  C   UNL     1      10.100  12.690   4.457  1.00  0.00     0.000 C 
BRANCH   2   3
ATOM      3  C   UNL     1       9.352  12.867   3.119  1.00  0.00     0.000 C 
BRANCH   3   4
ATOM      4  C   UNL     1       8.043  12.060   3.022  1.00  0.00     0.000 C 
BRANCH   4   5
ATOM      5  C   UNL     1       6.973  12.414   4.073  1.00  0.00     0.000 C 
BRANCH   5   6
ATOM      6  C   UNL     1       6.301  11.207   4.754  1.00  0.00     0.000 C 
BRANCH   6   7
ATOM      7  C   UNL     1       5.338  11.614   5.878  1.00  0.00     0.000 C 
BRANCH   7   8
ATOM      8  C   UNL     1       4.028  10.815   5.802  1.00  0.00     0.000 C 
BRANCH   8   9
ATOM      9  C   UNL     1       4.090   9.507   6.617  1.00  0.00     0.000 C 
BRANCH   9  10
ATOM     10  C   UNL     1       5.094   9.545   7.781  1.00  0.00     0.006 C 
BRANCH  10  11
ATOM     11  C   UNL     1       4.837   8.459   8.831  1.00  0.00     0.053 C 
BRANCH  11  12
ATOM     12  C   UNL     1       3.400   8.045   8.819  1.00  0.00     0.041 C 
ATOM     13  O   UNL     1       2.603   8.497   9.683  1.00  0.00    -0.550 OA
ATOM     14  O   UNL     1       2.929   7.190   7.830  1.00  0.00    -0.550 OA
ENDBRANCH  11  12
ENDBRANCH  10  11
ENDBRANCH   9  10
ENDBRANCH   8   9
ENDBRANCH   7   8
ENDBRANCH   6   7
ENDBRANCH   5   6
ENDBRANCH   4   5
ENDBRANCH   3   4
ENDBRANCH   2   3
ENDBRANCH   1   2
BRANCH   1  15
ATOM     15  C   UNL     1       9.493  12.314   6.912  1.00  0.00     0.000 C 
BRANCH  15  16
ATOM     16  C   UNL     1       8.190  12.898   7.490  1.00  0.00     0.000 C 
BRANCH  16  17
ATOM     17  C   UNL     1       8.176  12.896   9.027  1.00  0.00     0.000 C 
BRANCH  17  18
ATOM     18  C   UNL     1       6.768  13.125   9.602  1.00  0.00    -0.000 C 
BRANCH  18  19
ATOM     19  C   UNL     1       5.664  12.852   8.558  1.00  0.00    -0.000 C 
BRANCH  19  20
ATOM     20  C   UNL     1       4.242  12.862   9.146  1.00  0.00    -0.000 C 
BRANCH  20  21
ATOM     21  C   UNL     1       3.717  11.451   9.448  1.00  0.00    -0.000 C 
BRANCH  21  22
ATOM     22  C   UNL     1       2.429  11.459  10.291  1.00  0.00    -0.000 C 
BRANCH  22  23
ATOM     23  C   UNL     1       1.493  12.646   9.971  1.00  0.00    -0.000 C 
BRANCH  23  24
ATOM     24  C   UNL     1       0.038  12.192   9.763  1.00  0.00    -0.000 C 
BRANCH  24  25
ATOM     25  C   UNL     1      -0.734  13.125   8.817  1.00  0.00    -0.003 C 
ATOM     26  C   UNL     1      -2.247  12.948   8.943  1.00  0.00     0.004 C 
ENDBRANCH  24  25
ENDBRANCH  23  24
ENDBRANCH  22  23
ENDBRANCH  21  22
ENDBRANCH  20  21
ENDBRANCH  19  20
ENDBRANCH  18  19
ENDBRANCH  17  18
ENDBRANCH  16  17
ENDBRANCH  15  16
ENDBRANCH   1  15
TORSDOF 22
ENDMDL
MODEL 3
REMARK VINA RESULT:     0.151      1.999      7.599
REMARK INTER + INTRA:          -1.037
REMARK INTER:                  -2.224
REMARK INTRA:                   1.186
REMARK UNBOUND:                -1.383
REMARK SMILES CCCCCCCCCCCCCCCCCCCCCCCC(=O)[O-]
REMARK SMILES IDX 13 1 14 2 15 3 16 4 17 5 18 6 19 7 20 8 21 9 22 10 23 11
REMARK SMILES IDX 24 12 25 13 26 14 12 15 11 16 10 17 9 18 8 19 7 20 6 21 5 22
REMARK SMILES IDX 4 23 3 24 2 25 1 26
REMARK H PARENT
REMARK Flexibility Score: inf
ROOT
ATOM      1  C   UNL     1       3.492  10.217   6.452  1.00  0.00     0.000 C 
ENDROOT
BRANCH   1   2
ATOM      2  C   UNL     1       3.898  11.010   5.197  1.00  0.00     0.000 C 
BRANCH   2   3
ATOM      3  C   UNL     1       5.392  11.399   5.195  1.00  0.00     0.000 C 
BRANCH   3   4
ATOM      4  C   UNL     1       6.268  10.516   4.287  1.00  0.00     0.000 C 
BRANCH   4   5
ATOM      5  C   UNL     1       7.398  11.254   3.545  1.00  0.00     0.000 C 
BRANCH   5   6
ATOM      6  C   UNL     1       8.025  12.433   4.312  1.00  0.00     0.000 C 
BRANCH   6   7
ATOM      7  C   UNL     1       9.559  12.372   4.354  1.00  0.00     0.000 C 
BRANCH   7   8
ATOM      8  C   UNL     1      10.069  12.248   5.798  1.00  0.00     0.000 C 
BRANCH   8   9
ATOM      9  C   UNL     1       8.944  12.444   6.836  1.00  0.00     0.000 C 
BRANCH   9  10
ATOM     10  C   UNL     1       8.624  11.180   7.653  1.00  0.00     0.006 C 
BRANCH  10  11
ATOM     11  C   UNL     1       7.163  11.119   8.114  1.00  0.00     0.053 C 
BRANCH  11  12
ATOM     12  C   UNL     1       6.702  12.463   8.580  1.00  0.00     0.041 C 
ATOM     13  O   UNL     1       5.668  12.986   8.086  1.00  0.00    -0.550 OA
ATOM     14  O   UNL     1       7.392  13.125   9.589  1.00  0.00    -0.550 OA
ENDBRANCH  11  12
ENDBRANCH  10  11
ENDBRANCH   9  10
ENDBRANCH   8   9
ENDBRANCH   7   8
ENDBRANCH   6   7
ENDBRANCH   5   6
ENDBRANCH   4   5
ENDBRANCH   3   4
ENDBRANCH   2   3
ENDBRANCH   1   2
BRANCH   1  15
ATOM     15  C   UNL     1       3.640  11.045   7.740  1.00  0.00     0.000 C 
BRANCH  15  16
ATOM     16  C   UNL     1       3.726  10.159   8.997  1.00  0.00     0.000 C 
BRANCH  16  17
ATOM     17  C   UNL     1       2.503   9.241   9.154  1.00  0.00     0.000 C 
BRANCH  17  18
ATOM     18  C   UNL     1       1.854   9.358  10.544  1.00  0.00    -0.000 C 
BRANCH  18  19
ATOM     19  C   UNL     1       1.708  10.828  10.994  1.00  0.00    -0.000 C 
BRANCH  19  20
ATOM     20  C   UNL     1       2.704  11.784  10.314  1.00  0.00    -0.000 C 
BRANCH  20  21
ATOM     21  C   UNL     1       2.021  13.022   9.714  1.00  0.00    -0.000 C 
BRANCH  21  22
ATOM     22  C   UNL     1       0.516  13.085  10.026  1.00  0.00    -0.000 C 
BRANCH  22  23
ATOM     23  C   UNL     1      -0.368  12.469   8.919  1.00  0.00    -0.000 C 
BRANCH  23  24
ATOM     24  C   UNL     1      -1.831  12.932   9.026  1.00  0.00    -0.000 C 
BRANCH  24  25
ATOM     25  C   UNL     1      -2.768  12.116   8.121  1.00  0.00    -0.003 C 
ATOM     26  C   UNL     1      -3.638  13.011   7.238  1.00  0.00     0.004 C 
ENDBRANCH  24  25
ENDBRANCH  23  24
ENDBRANCH  22  23
ENDBRANCH  21  22
ENDBRANCH  20  21
ENDBRANCH  19  20
ENDBRANCH  18  19
ENDBRANCH  17  18
ENDBRANCH  16  17
ENDBRANCH  15  16
ENDBRANCH   1  15
TORSDOF 22
ENDMDL
MODEL 4
REMARK VINA RESULT:     0.593      2.613      5.479
REMARK INTER + INTRA:          -0.027
REMARK INTER:                   1.777
REMARK INTRA:                  -1.804
REMARK UNBOUND:                -1.383
REMARK SMILES CCCCCCCCCCCCCCCCCCCCCCCC(=O)[O-]
REMARK SMILES IDX 13 1 14 2 15 3 16 4 17 5 18 6 19 7 20 8 21 9 22 10 23 11
REMARK SMILES IDX 24 12 25 13 26 14 12 15 11 16 10 17 9 18 8 19 7 20 6 21 5 22
REMARK SMILES IDX 4 23 3 24 2 25 1 26
REMARK H PARENT
REMARK Flexibility Score: inf
ROOT
ATOM      1  C   UNL     1       7.939  10.745   4.587  1.00  0.00     0.000 C 
ENDROOT
BRANCH   1   2
ATOM      2  C   UNL     1       6.444  10.395   4.692  1.00  0.00     0.000 C 
BRANCH   2   3
ATOM      3  C   UNL     1       5.577  11.601   5.112  1.00  0.00     0.000 C 
BRANCH   3   4
ATOM      4  C   UNL     1       4.069  11.295   5.183  1.00  0.00     0.000 C 
BRANCH   4   5
ATOM      5  C   UNL     1       3.519  11.021   6.595  1.00  0.00     0.000 C 
BRANCH   5   6
ATOM      6  C   UNL     1       2.213  10.205   6.642  1.00  0.00     0.000 C 
BRANCH   6   7
ATOM      7  C   UNL     1       1.179  10.787   7.617  1.00  0.00     0.000 C 
BRANCH   7   8
ATOM      8  C   UNL     1       1.855  11.665   8.682  1.00  0.00     0.000 C 
BRANCH   8   9
ATOM      9  C   UNL     1       0.840  12.513   9.475  1.00  0.00     0.000 C 
BRANCH   9  10
ATOM     10  C   UNL     1      -0.275  13.123   8.607  1.00  0.00     0.006 C 
BRANCH  10  11
ATOM     11  C   UNL     1      -1.661  13.022   9.253  1.00  0.00     0.053 C 
BRANCH  11  12
ATOM     12  C   UNL     1      -2.639  12.408   8.302  1.00  0.00     0.041 C 
ATOM     13  O   UNL     1      -3.243  13.125   7.462  1.00  0.00    -0.550 OA
ATOM     14  O   UNL     1      -2.859  11.036   8.318  1.00  0.00    -0.550 OA
ENDBRANCH  11  12
ENDBRANCH  10  11
ENDBRANCH   9  10
ENDBRANCH   8   9
ENDBRANCH   7   8
ENDBRANCH   6   7
ENDBRANCH   5   6
ENDBRANCH   4   5
ENDBRANCH   3   4
ENDBRANCH   2   3
ENDBRANCH   1   2
BRANCH   1  15
ATOM     15  C   UNL     1       8.168  12.218   4.207  1.00  0.00     0.000 C 
BRANCH  15  16
ATOM     16  C   UNL     1       9.516  12.752   4.727  1.00  0.00     0.000 C 
BRANCH  16  17
ATOM     17  C   UNL     1       9.896  12.158   6.093  1.00  0.00     0.000 C 
BRANCH  17  18
ATOM     18  C   UNL     1       9.378  13.004   7.268  1.00  0.00    -0.000 C 
BRANCH  18  19
ATOM     19  C   UNL     1       7.834  13.037   7.323  1.00  0.00    -0.000 C 
BRANCH  19  20
ATOM     20  C   UNL     1       7.261  12.806   8.732  1.00  0.00    -0.000 C 
BRANCH  20  21
ATOM     21  C   UNL     1       6.523  11.464   8.857  1.00  0.00    -0.000 C 
BRANCH  21  22
ATOM     22  C   UNL     1       5.171  11.591   9.581  1.00  0.00    -0.000 C 
BRANCH  22  23
ATOM     23  C   UNL     1       4.489  10.231   9.851  1.00  0.00    -0.000 C 
BRANCH  23  24
ATOM     24  C   UNL     1       5.377   9.048   9.430  1.00  0.00    -0.000 C 
BRANCH  24  25
ATOM     25  C   UNL     1       4.557   7.790   9.104  1.00  0.00    -0.003 C 
ATOM     26  C   UNL     1       3.134   8.130   8.662  1.00  0.00     0.004 C 
ENDBRANCH  24  25
ENDBRANCH  23  24
ENDBRANCH  22  23
ENDBRANCH  21  22
ENDBRANCH  20  21
ENDBRANCH  19  20
ENDBRANCH  18  19
ENDBRANCH  17  18
ENDBRANCH  16  17
ENDBRANCH  15  16
ENDBRANCH   1  15
TORSDOF 22
ENDMDL
MODEL 5
REMARK VINA RESULT:     0.649      2.786      4.178
REMARK INTER + INTRA:           0.101
REMARK INTER:                  -0.004
REMARK INTRA:                   0.104
REMARK UNBOUND:                -1.383
REMARK SMILES CCCCCCCCCCCCCCCCCCCCCCCC(=O)[O-]
REMARK SMILES IDX 13 1 14 2 15 3 16 4 17 5 18 6 19 7 20 8 21 9 22 10 23 11
REMARK SMILES IDX 24 12 25 13 26 14 12 15 11 16 10 17 9 18 8 19 7 20 6 21 5 22
REMARK SMILES IDX 4 23 3 24 2 25 1 26
REMARK H PARENT
REMARK Flexibility Score: inf
ROOT
ATOM      1  C   UNL     1       4.812  11.495   7.277  1.00  0.00     0.000 C 
ENDROOT
BRANCH   1   2
ATOM      2  C   UNL     1       4.203  10.212   6.685  1.00  0.00     0.000 C 
BRANCH   2   3
ATOM      3  C   UNL     1       3.941   9.129   7.752  1.00  0.00     0.000 C 
BRANCH   3   4
ATOM      4  C   UNL     1       2.455   8.958   8.120  1.00  0.00     0.000 C 
BRANCH   4   5
ATOM      5  C   UNL     1       2.074   9.403   9.544  1.00  0.00     0.000 C 
BRANCH   5   6
ATOM      6  C   UNL     1       2.646  10.766   9.979  1.00  0.00     0.000 C 
BRANCH   6   7
ATOM      7  C   UNL     1       1.640  11.609  10.777  1.00  0.00     0.000 C 
BRANCH   7   8
ATOM      8  C   UNL     1       1.363  12.948  10.076  1.00  0.00     0.000 C 
BRANCH   8   9
ATOM      9  C   UNL     1      -0.127  13.125   9.716  1.00  0.00     0.000 C 
BRANCH   9  10
ATOM     10  C   UNL     1      -0.437  12.906   8.225  1.00  0.00     0.006 C 
BRANCH  10  11
ATOM     11  C   UNL     1      -1.633  11.977   7.992  1.00  0.00     0.053 C 
BRANCH  11  12
ATOM     12  C   UNL     1      -2.906  12.642   8.412  1.00  0.00     0.041 C 
ATOM     13  O   UNL     1      -3.143  12.844   9.632  1.00  0.00    -0.550 OA
ATOM     14  O   UNL     1      -3.815  13.074   7.454  1.00  0.00    -0.550 OA
ENDBRANCH  11  12
ENDBRANCH  10  11
ENDBRANCH   9  10
ENDBRANCH   8   9
ENDBRANCH   7   8
ENDBRANCH   6   7
ENDBRANCH   5   6
ENDBRANCH   4   5
ENDBRANCH   3   4
ENDBRANCH   2   3
ENDBRANCH   1   2
BRANCH   1  15
ATOM     15  C   UNL     1       5.392  11.271   8.685  1.00  0.00     0.000 C 
BRANCH  15  16
ATOM     16  C   UNL     1       6.930  11.191   8.676  1.00  0.00     0.000 C 
BRANCH  16  17
ATOM     17  C   UNL     1       7.591  12.562   8.888  1.00  0.00     0.000 C 
BRANCH  17  18
ATOM     18  C   UNL     1       8.995  12.641   8.265  1.00  0.00    -0.000 C 
BRANCH  18  19
ATOM     19  C   UNL     1       8.944  12.989   6.761  1.00  0.00    -0.000 C 
BRANCH  19  20
ATOM     20  C   UNL     1       9.764  12.034   5.878  1.00  0.00    -0.000 C 
BRANCH  20  21
ATOM     21  C   UNL     1       9.445  12.189   4.383  1.00  0.00    -0.000 C 
BRANCH  21  22
ATOM     22  C   UNL     1       8.252  13.125   4.120  1.00  0.00    -0.000 C 
BRANCH  22  23
ATOM     23  C   UNL     1       7.048  12.862   5.052  1.00  0.00    -0.000 C 
BRANCH  23  24
ATOM     24  C   UNL     1       5.793  12.445   4.266  1.00  0.00    -0.000 C 
BRANCH  24  25
ATOM     25  C   UNL     1       5.871  10.991   3.773  1.00  0.00    -0.003 C 
ATOM     26  C   UNL     1       7.002  10.214   4.446  1.00  0.00     0.004 C 
ENDBRANCH  24  25
ENDBRANCH  23  24
ENDBRANCH  22  23
ENDBRANCH  21  22
ENDBRANCH  20  21
ENDBRANCH  19  20
ENDBRANCH  18  19
ENDBRANCH  17  18
ENDBRANCH  16  17
ENDBRANCH  15  16
ENDBRANCH   1  15
TORSDOF 22
ENDMDL
MODEL 6
REMARK VINA RESULT:     0.654      2.995      4.402
REMARK INTER + INTRA:           0.112
REMARK INTER:                   0.967
REMARK INTRA:                  -0.855
REMARK UNBOUND:                -1.383
REMARK SMILES CCCCCCCCCCCCCCCCCCCCCCCC(=O)[O-]
REMARK SMILES IDX 13 1 14 2 15 3 16 4 17 5 18 6 19 7 20 8 21 9 22 10 23 11
REMARK SMILES IDX 24 12 25 13 26 14 12 15 11 16 10 17 9 18 8 19 7 20 6 21 5 22
REMARK SMILES IDX 4 23 3 24 2 25 1 26
REMARK H PARENT
REMARK Flexibility Score: inf
ROOT
ATOM      1  C   UNL     1       5.025  12.103   8.634  1.00  0.00     0.000 C 
ENDROOT
BRANCH   1   2
ATOM      2  C   UNL     1       4.456  11.152   9.702  1.00  0.00     0.000 C 
BRANCH   2   3
ATOM      3  C   UNL     1       3.575  10.037   9.099  1.00  0.00     0.000 C 
BRANCH   3   4
ATOM      4  C   UNL     1       2.166  10.505   8.689  1.00  0.00     0.000 C 
BRANCH   4   5
ATOM      5  C   UNL     1       1.093  10.406   9.789  1.00  0.00     0.000 C 
BRANCH   5   6
ATOM      6  C   UNL     1       0.796  11.720  10.536  1.00  0.00     0.000 C 
BRANCH   6   7
ATOM      7  C   UNL     1       0.820  12.949   9.615  1.00  0.00     0.000 C 
BRANCH   7   8
ATOM      8  C   UNL     1      -0.525  13.125   8.893  1.00  0.00     0.000 C 
BRANCH   8   9
ATOM      9  C   UNL     1      -1.643  12.263   9.516  1.00  0.00     0.000 C 
BRANCH   9  10
ATOM     10  C   UNL     1      -3.044  12.889   9.411  1.00  0.00     0.006 C 
BRANCH  10  11
ATOM     11  C   UNL     1      -3.489  13.124   7.963  1.00  0.00     0.053 C 
BRANCH  11  12
ATOM     12  C   UNL     1      -3.505  11.836   7.203  1.00  0.00     0.041 C 
ATOM     13  O   UNL     1      -3.727  11.833   5.963  1.00  0.00    -0.550 OA
ATOM     14  O   UNL     1      -3.237  10.638   7.855  1.00  0.00    -0.550 OA
ENDBRANCH  11  12
ENDBRANCH  10  11
ENDBRANCH   9  10
ENDBRANCH   8   9
ENDBRANCH   7   8
ENDBRANCH   6   7
ENDBRANCH   5   6
ENDBRANCH   4   5
ENDBRANCH   3   4
ENDBRANCH   2   3
ENDBRANCH   1   2
BRANCH   1  15
ATOM     15  C   UNL     1       6.442  12.591   8.982  1.00  0.00     0.000 C 
BRANCH  15  16
ATOM     16  C   UNL     1       7.529  11.829   8.202  1.00  0.00     0.000 C 
BRANCH  16  17
ATOM     17  C   UNL     1       8.673  12.746   7.740  1.00  0.00     0.000 C 
BRANCH  17  18
ATOM     18  C   UNL     1       9.917  11.957   7.296  1.00  0.00    -0.000 C 
BRANCH  18  19
ATOM     19  C   UNL     1       9.937  11.718   5.770  1.00  0.00    -0.000 C 
BRANCH  19  20
ATOM     20  C   UNL     1       9.301  12.859   4.958  1.00  0.00    -0.000 C 
BRANCH  20  21
ATOM     21  C   UNL     1       8.579  12.357   3.698  1.00  0.00    -0.000 C 
BRANCH  21  22
ATOM     22  C   UNL     1       7.290  11.581   4.016  1.00  0.00    -0.000 C 
BRANCH  22  23
ATOM     23  C   UNL     1       6.358  12.316   5.005  1.00  0.00    -0.000 C 
BRANCH  23  24
ATOM     24  C   UNL     1       5.429  11.344   5.751  1.00  0.00    -0.000 C 
BRANCH  24  25
ATOM     25  C   UNL     1       4.327  10.776   4.842  1.00  0.00    -0.003 C 
ATOM     26  C   UNL     1       3.046  10.466   5.616  1.00  0.00     0.004 C 
ENDBRANCH  24  25
ENDBRANCH  23  24
ENDBRANCH  22  23
ENDBRANCH  21  22
ENDBRANCH  20  21
ENDBRANCH  19  20
ENDBRANCH  18  19
ENDBRANCH  17  18
ENDBRANCH  16  17
ENDBRANCH  15  16
ENDBRANCH   1  15
TORSDOF 22
ENDMDL
MODEL 7
REMARK VINA RESULT:     1.087      1.282      2.617
REMARK INTER + INTRA:           1.103
REMARK INTER:                   0.753
REMARK INTRA:                   0.350
REMARK UNBOUND:                -1.383
REMARK SMILES CCCCCCCCCCCCCCCCCCCCCCCC(=O)[O-]
REMARK SMILES IDX 13 1 14 2 15 3 16 4 17 5 18 6 19 7 20 8 21 9 22 10 23 11
REMARK SMILES IDX 24 12 25 13 26 14 12 15 11 16 10 17 9 18 8 19 7 20 6 21 5 22
REMARK SMILES IDX 4 23 3 24 2 25 1 26
REMARK H PARENT
REMARK Flexibility Score: inf
ROOT
ATOM      1  C   UNL     1       5.137  10.902   6.592  1.00  0.00     0.000 C 
ENDROOT
BRANCH   1   2
ATOM      2  C   UNL     1       3.803  10.327   6.082  1.00  0.00     0.000 C 
BRANCH   2   3
ATOM      3  C   UNL     1       2.583  11.151   6.546  1.00  0.00     0.000 C 
BRANCH   3   4
ATOM      4  C   UNL     1       1.924  10.622   7.835  1.00  0.00     0.000 C 
BRANCH   4   5
ATOM      5  C   UNL     1       0.533  11.203   8.148  1.00  0.00     0.000 C 
BRANCH   5   6
ATOM      6  C   UNL     1       0.539  12.558   8.881  1.00  0.00     0.000 C 
BRANCH   6   7
ATOM      7  C   UNL     1       1.853  12.827   9.630  1.00  0.00     0.000 C 
BRANCH   7   8
ATOM      8  C   UNL     1       1.890  12.075  10.969  1.00  0.00     0.000 C 
BRANCH   8   9
ATOM      9  C   UNL     1       1.354  10.633  10.848  1.00  0.00     0.000 C 
BRANCH   9  10
ATOM     10  C   UNL     1       2.454   9.558  10.850  1.00  0.00     0.006 C 
BRANCH  10  11
ATOM     11  C   UNL     1       3.799  10.074  10.329  1.00  0.00     0.053 C 
BRANCH  11  12
ATOM     12  C   UNL     1       4.479   9.029   9.503  1.00  0.00     0.041 C 
ATOM     13  O   UNL     1       5.736   9.004   9.421  1.00  0.00    -0.550 OA
ATOM     14  O   UNL     1       3.728   8.058   8.852  1.00  0.00    -0.550 OA
ENDBRANCH  11  12
ENDBRANCH  10  11
ENDBRANCH   9  10
ENDBRANCH   8   9
ENDBRANCH   7   8
ENDBRANCH   6   7
ENDBRANCH   5   6
ENDBRANCH   4   5
ENDBRANCH   3   4
ENDBRANCH   2   3
ENDBRANCH   1   2
BRANCH   1  15
ATOM     15  C   UNL     1       4.934  12.102   7.533  1.00  0.00     0.000 C 
BRANCH  15  16
ATOM     16  C   UNL     1       6.238  12.886   7.769  1.00  0.00     0.000 C 
BRANCH  16  17
ATOM     17  C   UNL     1       7.303  12.050   8.498  1.00  0.00     0.000 C 
BRANCH  17  18
ATOM     18  C   UNL     1       7.695  10.785   7.716  1.00  0.00    -0.000 C 
BRANCH  18  19
ATOM     19  C   UNL     1       9.077  10.927   7.041  1.00  0.00    -0.000 C 
BRANCH  19  20
ATOM     20  C   UNL     1       9.818  12.222   7.415  1.00  0.00    -0.000 C 
BRANCH  20  21
ATOM     21  C   UNL     1      10.082  13.125   6.201  1.00  0.00    -0.000 C 
BRANCH  21  22
ATOM     22  C   UNL     1       9.922  12.387   4.860  1.00  0.00    -0.000 C 
BRANCH  22  23
ATOM     23  C   UNL     1       8.726  12.889   4.021  1.00  0.00    -0.000 C 
BRANCH  23  24
ATOM     24  C   UNL     1       7.415  12.880   4.825  1.00  0.00    -0.000 C 
BRANCH  24  25
ATOM     25  C   UNL     1       6.224  12.376   3.994  1.00  0.00    -0.003 C 
ATOM     26  C   UNL     1       6.395  10.918   3.568  1.00  0.00     0.004 C 
ENDBRANCH  24  25
ENDBRANCH  23  24
ENDBRANCH  22  23
ENDBRANCH  21  22
ENDBRANCH  20  21
ENDBRANCH  19  20
ENDBRANCH  18  19
ENDBRANCH  17  18
ENDBRANCH  16  17
ENDBRANCH  15  16
ENDBRANCH   1  15
TORSDOF 22
ENDMDL
