MODEL 1
REMARK VINA RESULT:    92.695      0.000      0.000
REMARK INTER + INTRA:         100.779
REMARK INTER:                 100.823
REMARK INTRA:                  -0.045
REMARK UNBOUND:                -0.045
REMARK SMILES C[C@@H]1[C@H]2C3=CC[C@H]4[C@]5(C)CC[C@@H](O)C(C)(C)[C@H]5CC[C@@]4(C)[C@@]3(C)CC[C@@]2(C(=O)[O-])CC[C@@H]1C
REMARK SMILES IDX 26 1 30 2 25 3 3 4 31 5 24 6 4 7 2 8 32 9 22 10 5 11 1 12
REMARK SMILES IDX 33 13 23 14 20 15 6 16 7 17 19 18 21 19 8 20 18 21 17 22
REMARK SMILES IDX 10 23 9 24 14 25 11 26 12 27 15 28 16 29 27 30 28 31 29 32
REMARK SMILES IDX 13 33
REMARK H PARENT 13 34
REMARK Flexibility Score: inf
ROOT
ATOM      1  C   UNL     1      30.028  39.337  62.094  1.00  0.00     0.017 C 
ATOM      2  C   UNL     1      28.998  38.449  61.331  1.00  0.00     0.014 C 
ATOM      3  C   UNL     1      29.280  40.647  62.530  1.00  0.00     0.014 C 
ATOM      4  C   UNL     1      31.287  39.682  61.186  1.00  0.00     0.030 C 
ATOM      5  C   UNL     1      28.811  38.884  59.862  1.00  0.00     0.004 C 
ATOM      6  C   UNL     1      30.216  41.686  63.174  1.00  0.00     0.013 C 
ATOM      7  C   UNL     1      31.437  41.211  61.018  1.00  0.00    -0.063 C 
ATOM      8  C   UNL     1      31.434  38.805  59.884  1.00  0.00    -0.003 C 
ATOM      9  C   UNL     1      30.105  38.744  59.038  1.00  0.00    -0.011 C 
ATOM     10  C   UNL     1      31.485  42.056  62.294  1.00  0.00    -0.006 C 
ATOM     11  C   UNL     1      31.714  41.755  59.819  1.00  0.00    -0.027 C 
ATOM     12  C   UNL     1      32.043  37.429  60.220  1.00  0.00     0.008 C 
ATOM     13  C   UNL     1      30.037  37.519  58.119  1.00  0.00     0.008 C 
ATOM     14  C   UNL     1      32.761  41.557  63.078  1.00  0.00     0.017 C 
ATOM     15  C   UNL     1      31.560  43.657  62.036  1.00  0.00    -0.020 C 
ATOM     16  C   UNL     1      32.084  43.166  59.614  1.00  0.00     0.032 C 
ATOM     17  C   UNL     1      32.611  43.938  60.886  1.00  0.00     0.006 C 
ATOM     18  C   UNL     1      30.188  44.284  61.550  1.00  0.00     0.008 C 
ATOM     19  C   UNL     1      31.922  44.308  63.416  1.00  0.00     0.012 C 
ATOM     20  C   UNL     1      32.893  45.484  60.543  1.00  0.00    -0.025 C 
ATOM     21  C   UNL     1      30.269  45.614  60.729  1.00  0.00     0.005 C 
ATOM     22  C   UNL     1      31.629  46.360  60.872  1.00  0.00     0.003 C 
ATOM     23  C   UNL     1      34.059  46.068  61.411  1.00  0.00     0.010 C 
ATOM     24  C   UNL     1      33.459  45.538  59.081  1.00  0.00     0.012 C 
ATOM     25  C   UNL     1      31.696  47.893  60.509  1.00  0.00    -0.006 C 
ATOM     26  C   UNL     1      34.265  47.588  61.182  1.00  0.00     0.033 C 
ATOM     27  C   UNL     1      32.990  48.479  61.224  1.00  0.00     0.120 C 
ATOM     28  C   UNL     1      31.653  48.190  58.988  1.00  0.00     0.014 C 
ATOM     29  C   UNL     1      30.472  48.656  61.110  1.00  0.00     0.014 C 
ENDROOT
BRANCH   1  30
ATOM     30  C   UNL     1      30.491  38.553  63.332  1.00  0.00     0.048 C 
ATOM     31  O   UNL     1      29.757  38.483  64.367  1.00  0.00    -0.550 OA
ATOM     32  O   UNL     1      31.672  37.831  63.321  1.00  0.00    -0.550 OA
ENDBRANCH   1  30
BRANCH  27  33
ATOM     33  O   UNL     1      33.314  49.759  60.733  1.00  0.00    -0.393 OA
ATOM     34  H   UNL     1      33.795  49.641  59.870  1.00  0.00     0.210 HD
ENDBRANCH  27  33
TORSDOF 2
ENDMDL
