MODEL 1
REMARK VINA RESULT:    -5.345      0.000      0.000
REMARK INTER + INTRA:          -6.869
REMARK INTER:                  -6.438
REMARK INTRA:                  -0.431
REMARK UNBOUND:                -0.431
REMARK SMILES O=c1c(O)c(-c2ccc(O)cc2O)oc2cc(O)cc(O)c12
REMARK SMILES IDX 5 1 3 2 2 3 1 4 22 5 20 6 19 7 17 8 16 9 15 10 14 11 6 12
REMARK SMILES IDX 8 13 7 14 9 15 11 16 12 17 10 18 13 20 4 22 21 24 18 26
REMARK H PARENT 10 19 13 21 4 23 21 25 18 27
REMARK Flexibility Score: inf
ROOT
ATOM      1  C   UNL     1      -1.710  -1.984   1.946  1.00  0.00     0.184 A 
ATOM      2  C   UNL     1      -0.968  -2.986   2.596  1.00  0.00     0.208 A 
ATOM      3  C   UNL     1       0.290  -2.661   3.126  1.00  0.00     0.238 A 
ATOM      4  O   UNL     1       0.960  -3.548   3.722  1.00  0.00    -0.285 OA
ATOM      5  C   UNL     1       0.790  -1.350   2.978  1.00  0.00     0.111 A 
ATOM      6  C   UNL     1       2.049  -0.942   3.479  1.00  0.00     0.134 A 
ATOM      7  C   UNL     1       2.480   0.379   3.285  1.00  0.00     0.093 A 
ATOM      8  C   UNL     1       1.677   1.297   2.598  1.00  0.00     0.123 A 
ATOM      9  C   UNL     1       0.435   0.898   2.102  1.00  0.00     0.094 A 
ATOM     10  C   UNL     1      -0.014  -0.413   2.288  1.00  0.00     0.146 A 
ATOM     11  O   UNL     1      -1.203  -0.763   1.810  1.00  0.00    -0.451 OA
ENDROOT
BRANCH   1  12
ATOM     12  C   UNL     1      -3.046  -2.256   1.375  1.00  0.00     0.063 A 
ATOM     13  C   UNL     1      -4.386  -3.220  -0.410  1.00  0.00     0.047 A 
ATOM     14  C   UNL     1      -3.139  -2.952   0.160  1.00  0.00     0.020 A 
ATOM     15  C   UNL     1      -5.557  -2.783   0.222  1.00  0.00     0.119 A 
ATOM     16  C   UNL     1      -5.473  -2.069   1.422  1.00  0.00     0.093 A 
ATOM     17  C   UNL     1      -4.224  -1.791   1.996  1.00  0.00     0.130 A 
BRANCH  15  18
ATOM     18  O   UNL     1      -6.805  -3.049  -0.335  1.00  0.00    -0.508 OA
ATOM     19  H   UNL     1      -7.385  -3.808   0.003  1.00  0.00     0.293 HD
ENDBRANCH  15  18
BRANCH  17  20
ATOM     20  O   UNL     1      -4.153  -1.035   3.167  1.00  0.00    -0.507 OA
ATOM     21  H   UNL     1      -4.122  -0.023   3.146  1.00  0.00     0.293 HD
ENDBRANCH  17  20
ENDBRANCH   1  12
BRANCH   2  22
ATOM     22  O   UNL     1      -1.472  -4.286   2.686  1.00  0.00    -0.502 OA
ATOM     23  H   UNL     1      -1.223  -4.912   3.442  1.00  0.00     0.293 HD
ENDBRANCH   2  22
BRANCH   6  24
ATOM     24  O   UNL     1       2.873  -1.834   4.167  1.00  0.00    -0.507 OA
ATOM     25  H   UNL     1       2.785  -2.837   4.053  1.00  0.00     0.293 HD
ENDBRANCH   6  24
BRANCH   8  26
ATOM     26  O   UNL     1       2.105   2.608   2.403  1.00  0.00    -0.508 OA
ATOM     27  H   UNL     1       3.055   2.818   2.120  1.00  0.00     0.293 HD
ENDBRANCH   8  26
TORSDOF 6
ENDMDL
MODEL 2
REMARK VINA RESULT:    -5.297      3.701      6.776
REMARK INTER + INTRA:          -6.812
REMARK INTER:                  -6.388
REMARK INTRA:                  -0.424
REMARK UNBOUND:                -0.431
REMARK SMILES O=c1c(O)c(-c2ccc(O)cc2O)oc2cc(O)cc(O)c12
REMARK SMILES IDX 5 1 3 2 2 3 1 4 22 5 20 6 19 7 17 8 16 9 15 10 14 11 6 12
REMARK SMILES IDX 8 13 7 14 9 15 11 16 12 17 10 18 13 20 4 22 21 24 18 26
REMARK H PARENT 10 19 13 21 4 23 21 25 18 27
REMARK Flexibility Score: inf
ROOT
ATOM      1  C   UNL     1      -4.993   0.468   3.144  1.00  0.00     0.184 A 
ATOM      2  C   UNL     1      -3.618   0.180   3.215  1.00  0.00     0.208 A 
ATOM      3  C   UNL     1      -3.106  -0.874   2.444  1.00  0.00     0.238 A 
ATOM      4  O   UNL     1      -1.873  -1.135   2.490  1.00  0.00    -0.285 OA
ATOM      5  C   UNL     1      -3.978  -1.631   1.634  1.00  0.00     0.111 A 
ATOM      6  C   UNL     1      -3.544  -2.712   0.830  1.00  0.00     0.134 A 
ATOM      7  C   UNL     1      -4.475  -3.423   0.057  1.00  0.00     0.093 A 
ATOM      8  C   UNL     1      -5.830  -3.074   0.076  1.00  0.00     0.123 A 
ATOM      9  C   UNL     1      -6.263  -2.009   0.868  1.00  0.00     0.094 A 
ATOM     10  C   UNL     1      -5.351  -1.287   1.643  1.00  0.00     0.146 A 
ATOM     11  O   UNL     1      -5.789  -0.275   2.383  1.00  0.00    -0.451 OA
ENDROOT
BRANCH   1  12
ATOM     12  C   UNL     1      -5.595   1.572   3.921  1.00  0.00     0.063 A 
ATOM     13  C   UNL     1      -6.334   2.438   6.069  1.00  0.00     0.047 A 
ATOM     14  C   UNL     1      -5.763   1.417   5.306  1.00  0.00     0.020 A 
ATOM     15  C   UNL     1      -6.758   3.623   5.455  1.00  0.00     0.119 A 
ATOM     16  C   UNL     1      -6.616   3.777   4.072  1.00  0.00     0.093 A 
ATOM     17  C   UNL     1      -6.049   2.753   3.298  1.00  0.00     0.130 A 
BRANCH  15  18
ATOM     18  O   UNL     1      -7.325   4.649   6.206  1.00  0.00    -0.508 OA
ATOM     19  H   UNL     1      -7.802   4.464   7.081  1.00  0.00     0.293 HD
ENDBRANCH  15  18
BRANCH  17  20
ATOM     20  O   UNL     1      -5.959   2.900   1.913  1.00  0.00    -0.507 OA
ATOM     21  H   UNL     1      -5.935   2.099   1.294  1.00  0.00     0.293 HD
ENDBRANCH  17  20
ENDBRANCH   1  12
BRANCH   2  22
ATOM     22  O   UNL     1      -2.789   0.920   4.062  1.00  0.00    -0.502 OA
ATOM     23  H   UNL     1      -3.154   1.591   4.727  1.00  0.00     0.293 HD
ENDBRANCH   2  22
BRANCH   6  24
ATOM     24  O   UNL     1      -2.199  -3.084   0.791  1.00  0.00    -0.507 OA
ATOM     25  H   UNL     1      -1.770  -3.611   1.543  1.00  0.00     0.293 HD
ENDBRANCH   6  24
BRANCH   8  26
ATOM     26  O   UNL     1      -6.755  -3.780  -0.689  1.00  0.00    -0.508 OA
ATOM     27  H   UNL     1      -7.750  -3.606  -0.611  1.00  0.00     0.293 HD
ENDBRANCH   8  26
TORSDOF 6
ENDMDL
MODEL 3
REMARK VINA RESULT:    -5.282      3.879      5.790
REMARK INTER + INTRA:          -6.794
REMARK INTER:                  -6.484
REMARK INTRA:                  -0.310
REMARK UNBOUND:                -0.431
REMARK SMILES O=c1c(O)c(-c2ccc(O)cc2O)oc2cc(O)cc(O)c12
REMARK SMILES IDX 5 1 3 2 2 3 1 4 22 5 20 6 19 7 17 8 16 9 15 10 14 11 6 12
REMARK SMILES IDX 8 13 7 14 9 15 11 16 12 17 10 18 13 20 4 22 21 24 18 26
REMARK H PARENT 10 19 13 21 4 23 21 25 18 27
REMARK Flexibility Score: inf
ROOT
ATOM      1  C   UNL     1       1.916   1.948   2.285  1.00  0.00     0.184 A 
ATOM      2  C   UNL     1       2.789   1.168   3.063  1.00  0.00     0.208 A 
ATOM      3  C   UNL     1       4.159   1.176   2.757  1.00  0.00     0.238 A 
ATOM      4  O   UNL     1       4.954   0.489   3.454  1.00  0.00    -0.285 OA
ATOM      5  C   UNL     1       4.625   1.944   1.670  1.00  0.00     0.111 A 
ATOM      6  C   UNL     1       5.988   2.004   1.292  1.00  0.00     0.134 A 
ATOM      7  C   UNL     1       6.372   2.786   0.193  1.00  0.00     0.093 A 
ATOM      8  C   UNL     1       5.419   3.507  -0.536  1.00  0.00     0.123 A 
ATOM      9  C   UNL     1       4.074   3.451  -0.168  1.00  0.00     0.094 A 
ATOM     10  C   UNL     1       3.671   2.679   0.926  1.00  0.00     0.146 A 
ATOM     11  O   UNL     1       2.385   2.648   1.258  1.00  0.00    -0.451 OA
ENDROOT
BRANCH   1  12
ATOM     12  C   UNL     1       0.465   1.994   2.559  1.00  0.00     0.063 A 
ATOM     13  C   UNL     1      -1.650   0.812   2.762  1.00  0.00     0.047 A 
ATOM     14  C   UNL     1      -0.276   0.802   2.513  1.00  0.00     0.020 A 
ATOM     15  C   UNL     1      -2.306   2.015   3.047  1.00  0.00     0.119 A 
ATOM     16  C   UNL     1      -1.580   3.211   3.074  1.00  0.00     0.093 A 
ATOM     17  C   UNL     1      -0.201   3.210   2.818  1.00  0.00     0.130 A 
BRANCH  15  18
ATOM     18  O   UNL     1      -3.674   2.036   3.301  1.00  0.00    -0.508 OA
ATOM     19  H   UNL     1      -4.303   2.630   2.773  1.00  0.00     0.293 HD
ENDBRANCH  15  18
BRANCH  17  20
ATOM     20  O   UNL     1       0.501   4.416   2.799  1.00  0.00    -0.507 OA
ATOM     21  H   UNL     1       1.171   4.653   3.520  1.00  0.00     0.293 HD
ENDBRANCH  17  20
ENDBRANCH   1  12
BRANCH   2  22
ATOM     22  O   UNL     1       2.290   0.381   4.104  1.00  0.00    -0.502 OA
ATOM     23  H   UNL     1       1.403  -0.102   4.040  1.00  0.00     0.293 HD
ENDBRANCH   2  22
BRANCH   6  24
ATOM     24  O   UNL     1       6.961   1.296   2.000  1.00  0.00    -0.507 OA
ATOM     25  H   UNL     1       7.915   1.225   1.667  1.00  0.00     0.293 HD
ENDBRANCH   6  24
BRANCH   8  26
ATOM     26  O   UNL     1       5.799   4.282  -1.629  1.00  0.00    -0.508 OA
ATOM     27  H   UNL     1       5.907   3.879  -2.553  1.00  0.00     0.293 HD
ENDBRANCH   8  26
TORSDOF 6
ENDMDL
MODEL 4
REMARK VINA RESULT:    -5.263      5.872      8.514
REMARK INTER + INTRA:          -6.771
REMARK INTER:                  -6.359
REMARK INTRA:                  -0.412
REMARK UNBOUND:                -0.431
REMARK SMILES O=c1c(O)c(-c2ccc(O)cc2O)oc2cc(O)cc(O)c12
REMARK SMILES IDX 5 1 3 2 2 3 1 4 22 5 20 6 19 7 17 8 16 9 15 10 14 11 6 12
REMARK SMILES IDX 8 13 7 14 9 15 11 16 12 17 10 18 13 20 4 22 21 24 18 26
REMARK H PARENT 10 19 13 21 4 23 21 25 18 27
REMARK Flexibility Score: inf
ROOT
ATOM      1  C   UNL     1       4.972  -0.219   3.122  1.00  0.00     0.184 A 
ATOM      2  C   UNL     1       3.599   0.071   3.213  1.00  0.00     0.208 A 
ATOM      3  C   UNL     1       3.076   1.120   2.442  1.00  0.00     0.238 A 
ATOM      4  O   UNL     1       1.843   1.382   2.507  1.00  0.00    -0.285 OA
ATOM      5  C   UNL     1       3.935   1.870   1.612  1.00  0.00     0.111 A 
ATOM      6  C   UNL     1       3.487   2.945   0.807  1.00  0.00     0.134 A 
ATOM      7  C   UNL     1       4.406   3.649   0.013  1.00  0.00     0.093 A 
ATOM      8  C   UNL     1       5.761   3.299   0.013  1.00  0.00     0.123 A 
ATOM      9  C   UNL     1       6.206   2.240   0.805  1.00  0.00     0.094 A 
ATOM     10  C   UNL     1       5.306   1.524   1.601  1.00  0.00     0.146 A 
ATOM     11  O   UNL     1       5.756   0.518   2.341  1.00  0.00    -0.451 OA
ENDROOT
BRANCH   1  12
ATOM     12  C   UNL     1       5.587  -1.317   3.897  1.00  0.00     0.063 A 
ATOM     13  C   UNL     1       6.310  -2.189   6.047  1.00  0.00     0.047 A 
ATOM     14  C   UNL     1       5.728  -1.173   5.286  1.00  0.00     0.020 A 
ATOM     15  C   UNL     1       6.770  -3.357   5.429  1.00  0.00     0.119 A 
ATOM     16  C   UNL     1       6.654  -3.500   4.042  1.00  0.00     0.093 A 
ATOM     17  C   UNL     1       6.077  -2.481   3.269  1.00  0.00     0.130 A 
BRANCH  15  18
ATOM     18  O   UNL     1       7.348  -4.378   6.179  1.00  0.00    -0.508 OA
ATOM     19  H   UNL     1       7.668  -5.238   5.747  1.00  0.00     0.293 HD
ENDBRANCH  15  18
BRANCH  17  20
ATOM     20  O   UNL     1       6.013  -2.615   1.882  1.00  0.00    -0.507 OA
ATOM     21  H   UNL     1       6.495  -3.362   1.397  1.00  0.00     0.293 HD
ENDBRANCH  17  20
ENDBRANCH   1  12
BRANCH   2  22
ATOM     22  O   UNL     1       2.783  -0.662   4.079  1.00  0.00    -0.502 OA
ATOM     23  H   UNL     1       2.081  -1.309   3.744  1.00  0.00     0.293 HD
ENDBRANCH   2  22
BRANCH   6  24
ATOM     24  O   UNL     1       2.142   3.318   0.787  1.00  0.00    -0.507 OA
ATOM     25  H   UNL     1       1.838   4.230   1.106  1.00  0.00     0.293 HD
ENDBRANCH   6  24
BRANCH   8  26
ATOM     26  O   UNL     1       6.674   3.998  -0.773  1.00  0.00    -0.508 OA
ATOM     27  H   UNL     1       6.390   4.464  -1.628  1.00  0.00     0.293 HD
ENDBRANCH   8  26
TORSDOF 6
ENDMDL
MODEL 5
REMARK VINA RESULT:    -5.257      2.918      7.858
REMARK INTER + INTRA:          -6.764
REMARK INTER:                  -6.336
REMARK INTRA:                  -0.428
REMARK UNBOUND:                -0.431
REMARK SMILES O=c1c(O)c(-c2ccc(O)cc2O)oc2cc(O)cc(O)c12
REMARK SMILES IDX 5 1 3 2 2 3 1 4 22 5 20 6 19 7 17 8 16 9 15 10 14 11 6 12
REMARK SMILES IDX 8 13 7 14 9 15 11 16 12 17 10 18 13 20 4 22 21 24 18 26
REMARK H PARENT 10 19 13 21 4 23 21 25 18 27
REMARK Flexibility Score: inf
ROOT
ATOM      1  C   UNL     1       1.621   2.241   1.903  1.00  0.00     0.184 A 
ATOM      2  C   UNL     1       0.892   3.252   2.553  1.00  0.00     0.208 A 
ATOM      3  C   UNL     1      -0.371   2.945   3.079  1.00  0.00     0.238 A 
ATOM      4  O   UNL     1      -1.030   3.841   3.675  1.00  0.00    -0.285 OA
ATOM      5  C   UNL     1      -0.889   1.641   2.930  1.00  0.00     0.111 A 
ATOM      6  C   UNL     1      -2.156   1.251   3.428  1.00  0.00     0.134 A 
ATOM      7  C   UNL     1      -2.605  -0.064   3.232  1.00  0.00     0.093 A 
ATOM      8  C   UNL     1      -1.813  -0.992   2.546  1.00  0.00     0.123 A 
ATOM      9  C   UNL     1      -0.565  -0.611   2.053  1.00  0.00     0.094 A 
ATOM     10  C   UNL     1      -0.098   0.693   2.241  1.00  0.00     0.146 A 
ATOM     11  O   UNL     1       1.097   1.027   1.766  1.00  0.00    -0.451 OA
ENDROOT
BRANCH   1  12
ATOM     12  C   UNL     1       2.962   2.493   1.336  1.00  0.00     0.063 A 
ATOM     13  C   UNL     1       4.319   3.431  -0.451  1.00  0.00     0.047 A 
ATOM     14  C   UNL     1       3.067   3.181   0.116  1.00  0.00     0.020 A 
ATOM     15  C   UNL     1       5.482   2.986   0.187  1.00  0.00     0.119 A 
ATOM     16  C   UNL     1       5.387   2.280   1.391  1.00  0.00     0.093 A 
ATOM     17  C   UNL     1       4.132   2.019   1.964  1.00  0.00     0.130 A 
BRANCH  15  18
ATOM     18  O   UNL     1       6.735   3.233  -0.367  1.00  0.00    -0.508 OA
ATOM     19  H   UNL     1       6.844   3.471  -1.346  1.00  0.00     0.293 HD
ENDBRANCH  15  18
BRANCH  17  20
ATOM     20  O   UNL     1       4.049   1.272   3.139  1.00  0.00    -0.507 OA
ATOM     21  H   UNL     1       4.626   0.453   3.291  1.00  0.00     0.293 HD
ENDBRANCH  17  20
ENDBRANCH   1  12
BRANCH   2  22
ATOM     22  O   UNL     1       1.414   4.546   2.644  1.00  0.00    -0.502 OA
ATOM     23  H   UNL     1       0.830   5.370   2.586  1.00  0.00     0.293 HD
ENDBRANCH   2  22
BRANCH   6  24
ATOM     24  O   UNL     1      -2.968   2.154   4.115  1.00  0.00    -0.507 OA
ATOM     25  H   UNL     1      -3.896   1.901   4.434  1.00  0.00     0.293 HD
ENDBRANCH   6  24
BRANCH   8  26
ATOM     26  O   UNL     1      -2.259  -2.297   2.349  1.00  0.00    -0.508 OA
ATOM     27  H   UNL     1      -2.528  -2.888   3.128  1.00  0.00     0.293 HD
ENDBRANCH   8  26
TORSDOF 6
ENDMDL
MODEL 6
REMARK VINA RESULT:    -5.211      1.671      6.888
REMARK INTER + INTRA:          -6.709
REMARK INTER:                  -6.375
REMARK INTRA:                  -0.334
REMARK UNBOUND:                -0.431
REMARK SMILES O=c1c(O)c(-c2ccc(O)cc2O)oc2cc(O)cc(O)c12
REMARK SMILES IDX 5 1 3 2 2 3 1 4 22 5 20 6 19 7 17 8 16 9 15 10 14 11 6 12
REMARK SMILES IDX 8 13 7 14 9 15 11 16 12 17 10 18 13 20 4 22 21 24 18 26
REMARK H PARENT 10 19 13 21 4 23 21 25 18 27
REMARK Flexibility Score: inf
ROOT
ATOM      1  C   UNL     1      -1.921  -1.930   2.306  1.00  0.00     0.184 A 
ATOM      2  C   UNL     1      -2.764  -1.106   3.071  1.00  0.00     0.208 A 
ATOM      3  C   UNL     1      -4.129  -1.050   2.752  1.00  0.00     0.238 A 
ATOM      4  O   UNL     1      -4.898  -0.322   3.439  1.00  0.00    -0.285 OA
ATOM      5  C   UNL     1      -4.621  -1.802   1.664  1.00  0.00     0.111 A 
ATOM      6  C   UNL     1      -5.982  -1.798   1.275  1.00  0.00     0.134 A 
ATOM      7  C   UNL     1      -6.393  -2.567   0.175  1.00  0.00     0.093 A 
ATOM      8  C   UNL     1      -5.469  -3.336  -0.541  1.00  0.00     0.123 A 
ATOM      9  C   UNL     1      -4.126  -3.342  -0.160  1.00  0.00     0.094 A 
ATOM     10  C   UNL     1      -3.697  -2.585   0.934  1.00  0.00     0.146 A 
ATOM     11  O   UNL     1      -2.414  -2.614   1.278  1.00  0.00    -0.451 OA
ENDROOT
BRANCH   1  12
ATOM     12  C   UNL     1      -0.477  -2.044   2.594  1.00  0.00     0.063 A 
ATOM     13  C   UNL     1       1.698  -0.971   2.768  1.00  0.00     0.047 A 
ATOM     14  C   UNL     1       0.328  -0.897   2.507  1.00  0.00     0.020 A 
ATOM     15  C   UNL     1       2.285  -2.196   3.107  1.00  0.00     0.119 A 
ATOM     16  C   UNL     1       1.496  -3.349   3.174  1.00  0.00     0.093 A 
ATOM     17  C   UNL     1       0.120  -3.284   2.907  1.00  0.00     0.130 A 
BRANCH  15  18
ATOM     18  O   UNL     1       3.649  -2.281   3.373  1.00  0.00    -0.508 OA
ATOM     19  H   UNL     1       4.253  -1.469   3.310  1.00  0.00     0.293 HD
ENDBRANCH  15  18
BRANCH  17  20
ATOM     20  O   UNL     1      -0.646  -4.449   2.930  1.00  0.00    -0.507 OA
ATOM     21  H   UNL     1      -0.254  -5.349   2.680  1.00  0.00     0.293 HD
ENDBRANCH  17  20
ENDBRANCH   1  12
BRANCH   2  22
ATOM     22  O   UNL     1      -2.237  -0.338   4.113  1.00  0.00    -0.502 OA
ATOM     23  H   UNL     1      -1.611  -0.726   4.808  1.00  0.00     0.293 HD
ENDBRANCH   2  22
BRANCH   6  24
ATOM     24  O   UNL     1      -6.927  -1.040   1.969  1.00  0.00    -0.507 OA
ATOM     25  H   UNL     1      -7.919  -1.122   1.779  1.00  0.00     0.293 HD
ENDBRANCH   6  24
BRANCH   8  26
ATOM     26  O   UNL     1      -5.875  -4.099  -1.633  1.00  0.00    -0.508 OA
ATOM     27  H   UNL     1      -5.904  -5.111  -1.592  1.00  0.00     0.293 HD
ENDBRANCH   8  26
TORSDOF 6
ENDMDL
MODEL 7
REMARK VINA RESULT:    -5.151      9.552     12.117
REMARK INTER + INTRA:          -6.636
REMARK INTER:                  -6.259
REMARK INTRA:                  -0.377
REMARK UNBOUND:                -0.431
REMARK SMILES O=c1c(O)c(-c2ccc(O)cc2O)oc2cc(O)cc(O)c12
REMARK SMILES IDX 5 1 3 2 2 3 1 4 22 5 20 6 19 7 17 8 16 9 15 10 14 11 6 12
REMARK SMILES IDX 8 13 7 14 9 15 11 16 12 17 10 18 13 20 4 22 21 24 18 26
REMARK H PARENT 10 19 13 21 4 23 21 25 18 27
REMARK Flexibility Score: inf
ROOT
ATOM      1  C   UNL     1       8.118  -6.238   3.609  1.00  0.00     0.184 A 
ATOM      2  C   UNL     1       6.783  -6.562   3.308  1.00  0.00     0.208 A 
ATOM      3  C   UNL     1       6.358  -6.511   1.972  1.00  0.00     0.238 A 
ATOM      4  O   UNL     1       5.166  -6.811   1.688  1.00  0.00    -0.285 OA
ATOM      5  C   UNL     1       7.266  -6.117   0.967  1.00  0.00     0.111 A 
ATOM      6  C   UNL     1       6.916  -6.035  -0.402  1.00  0.00     0.134 A 
ATOM      7  C   UNL     1       7.874  -5.627  -1.342  1.00  0.00     0.093 A 
ATOM      8  C   UNL     1       9.173  -5.298  -0.937  1.00  0.00     0.123 A 
ATOM      9  C   UNL     1       9.522  -5.377   0.411  1.00  0.00     0.094 A 
ATOM     10  C   UNL     1       8.582  -5.784   1.363  1.00  0.00     0.146 A 
ATOM     11  O   UNL     1       8.943  -5.856   2.640  1.00  0.00    -0.451 OA
ENDROOT
BRANCH   1  12
ATOM     12  C   UNL     1       8.634  -6.283   4.992  1.00  0.00     0.063 A 
ATOM     13  C   UNL     1       9.274  -5.087   7.010  1.00  0.00     0.047 A 
ATOM     14  C   UNL     1       8.783  -5.081   5.703  1.00  0.00     0.020 A 
ATOM     15  C   UNL     1       9.636  -6.294   7.621  1.00  0.00     0.119 A 
ATOM     16  C   UNL     1       9.512  -7.494   6.913  1.00  0.00     0.093 A 
ATOM     17  C   UNL     1       9.026  -7.495   5.597  1.00  0.00     0.130 A 
BRANCH  15  18
ATOM     18  O   UNL     1      10.122  -6.313   8.925  1.00  0.00    -0.508 OA
ATOM     19  H   UNL     1      10.198  -7.176   9.450  1.00  0.00     0.293 HD
ENDBRANCH  15  18
BRANCH  17  20
ATOM     20  O   UNL     1       8.955  -8.693   4.885  1.00  0.00    -0.507 OA
ATOM     21  H   UNL     1       8.160  -8.917   4.299  1.00  0.00     0.293 HD
ENDBRANCH  17  20
ENDBRANCH   1  12
BRANCH   2  22
ATOM     22  O   UNL     1       5.896  -6.904   4.333  1.00  0.00    -0.502 OA
ATOM     23  H   UNL     1       5.065  -6.362   4.532  1.00  0.00     0.293 HD
ENDBRANCH   2  22
BRANCH   6  24
ATOM     24  O   UNL     1       5.628  -6.356  -0.836  1.00  0.00    -0.507 OA
ATOM     25  H   UNL     1       4.819  -5.822  -0.543  1.00  0.00     0.293 HD
ENDBRANCH   6  24
BRANCH   8  26
ATOM     26  O   UNL     1      10.125  -4.891  -1.869  1.00  0.00    -0.508 OA
ATOM     27  H   UNL     1      10.615  -5.559  -2.453  1.00  0.00     0.293 HD
ENDBRANCH   8  26
TORSDOF 6
ENDMDL
MODEL 8
REMARK VINA RESULT:    -5.140      3.533      6.686
REMARK INTER + INTRA:          -6.623
REMARK INTER:                  -6.212
REMARK INTRA:                  -0.411
REMARK UNBOUND:                -0.431
REMARK SMILES O=c1c(O)c(-c2ccc(O)cc2O)oc2cc(O)cc(O)c12
REMARK SMILES IDX 5 1 3 2 2 3 1 4 22 5 20 6 19 7 17 8 16 9 15 10 14 11 6 12
REMARK SMILES IDX 8 13 7 14 9 15 11 16 12 17 10 18 13 20 4 22 21 24 18 26
REMARK H PARENT 10 19 13 21 4 23 21 25 18 27
REMARK Flexibility Score: inf
ROOT
ATOM      1  C   UNL     1      -4.997   0.026   3.456  1.00  0.00     0.184 A 
ATOM      2  C   UNL     1      -3.608  -0.191   3.420  1.00  0.00     0.208 A 
ATOM      3  C   UNL     1      -3.089  -1.101   2.487  1.00  0.00     0.238 A 
ATOM      4  O   UNL     1      -1.843  -1.295   2.437  1.00  0.00    -0.285 OA
ATOM      5  C   UNL     1      -3.966  -1.790   1.624  1.00  0.00     0.111 A 
ATOM      6  C   UNL     1      -3.524  -2.726   0.658  1.00  0.00     0.134 A 
ATOM      7  C   UNL     1      -4.460  -3.378  -0.159  1.00  0.00     0.093 A 
ATOM      8  C   UNL     1      -5.828  -3.112  -0.026  1.00  0.00     0.123 A 
ATOM      9  C   UNL     1      -6.268  -2.190   0.924  1.00  0.00     0.094 A 
ATOM     10  C   UNL     1      -5.351  -1.528   1.746  1.00  0.00     0.146 A 
ATOM     11  O   UNL     1      -5.797  -0.652   2.639  1.00  0.00    -0.451 OA
ENDROOT
BRANCH   1  12
ATOM     12  C   UNL     1      -5.609   0.978   4.405  1.00  0.00     0.063 A 
ATOM     13  C   UNL     1      -6.331   3.247   4.897  1.00  0.00     0.047 A 
ATOM     14  C   UNL     1      -5.761   2.320   4.021  1.00  0.00     0.020 A 
ATOM     15  C   UNL     1      -6.743   2.849   6.174  1.00  0.00     0.119 A 
ATOM     16  C   UNL     1      -6.575   1.519   6.574  1.00  0.00     0.093 A 
ATOM     17  C   UNL     1      -5.997   0.583   5.702  1.00  0.00     0.130 A 
BRANCH  15  18
ATOM     18  O   UNL     1      -7.316   3.764   7.053  1.00  0.00    -0.508 OA
ATOM     19  H   UNL     1      -8.194   4.223   6.842  1.00  0.00     0.293 HD
ENDBRANCH  15  18
BRANCH  17  20
ATOM     20  O   UNL     1      -5.790  -0.728   6.132  1.00  0.00    -0.507 OA
ATOM     21  H   UNL     1      -5.760  -0.967   7.116  1.00  0.00     0.293 HD
ENDBRANCH  17  20
ENDBRANCH   1  12
BRANCH   2  22
ATOM     22  O   UNL     1      -2.770   0.474   4.319  1.00  0.00    -0.502 OA
ATOM     23  H   UNL     1      -2.130  -0.020   4.929  1.00  0.00     0.293 HD
ENDBRANCH   2  22
BRANCH   6  24
ATOM     24  O   UNL     1      -2.167  -3.013   0.503  1.00  0.00    -0.507 OA
ATOM     25  H   UNL     1      -1.793  -3.368  -0.370  1.00  0.00     0.293 HD
ENDBRANCH   6  24
BRANCH   8  26
ATOM     26  O   UNL     1      -6.758  -3.760  -0.835  1.00  0.00    -0.508 OA
ATOM     27  H   UNL     1      -6.595  -3.896  -1.826  1.00  0.00     0.293 HD
ENDBRANCH   8  26
TORSDOF 6
ENDMDL
MODEL 9
REMARK VINA RESULT:    -5.107      6.535      9.486
REMARK INTER + INTRA:          -6.582
REMARK INTER:                  -6.169
REMARK INTRA:                  -0.413
REMARK UNBOUND:                -0.431
REMARK SMILES O=c1c(O)c(-c2ccc(O)cc2O)oc2cc(O)cc(O)c12
REMARK SMILES IDX 5 1 3 2 2 3 1 4 22 5 20 6 19 7 17 8 16 9 15 10 14 11 6 12
REMARK SMILES IDX 8 13 7 14 9 15 11 16 12 17 10 18 13 20 4 22 21 24 18 26
REMARK H PARENT 10 19 13 21 4 23 21 25 18 27
REMARK Flexibility Score: inf
ROOT
ATOM      1  C   UNL     1       5.222   1.449   4.085  1.00  0.00     0.184 A 
ATOM      2  C   UNL     1       3.822   1.555   4.165  1.00  0.00     0.208 A 
ATOM      3  C   UNL     1       3.115   2.034   3.051  1.00  0.00     0.238 A 
ATOM      4  O   UNL     1       1.858   2.123   3.106  1.00  0.00    -0.285 OA
ATOM      5  C   UNL     1       3.820   2.416   1.890  1.00  0.00     0.111 A 
ATOM      6  C   UNL     1       3.183   2.912   0.727  1.00  0.00     0.134 A 
ATOM      7  C   UNL     1       3.955   3.278  -0.386  1.00  0.00     0.093 A 
ATOM      8  C   UNL     1       5.349   3.159  -0.356  1.00  0.00     0.123 A 
ATOM      9  C   UNL     1       5.981   2.671   0.789  1.00  0.00     0.094 A 
ATOM     10  C   UNL     1       5.229   2.298   1.907  1.00  0.00     0.146 A 
ATOM     11  O   UNL     1       5.856   1.832   2.982  1.00  0.00    -0.451 OA
ENDROOT
BRANCH   1  12
ATOM     12  C   UNL     1       6.027   0.943   5.216  1.00  0.00     0.063 A 
ATOM     13  C   UNL     1       6.708  -0.933   6.605  1.00  0.00     0.047 A 
ATOM     14  C   UNL     1       5.965  -0.423   5.538  1.00  0.00     0.020 A 
ATOM     15  C   UNL     1       7.514  -0.084   7.372  1.00  0.00     0.119 A 
ATOM     16  C   UNL     1       7.565   1.282   7.072  1.00  0.00     0.093 A 
ATOM     17  C   UNL     1       6.816   1.803   6.007  1.00  0.00     0.130 A 
BRANCH  15  18
ATOM     18  O   UNL     1       8.263  -0.583   8.434  1.00  0.00    -0.508 OA
ATOM     19  H   UNL     1       8.237  -1.564   8.686  1.00  0.00     0.293 HD
ENDBRANCH  15  18
BRANCH  17  20
ATOM     20  O   UNL     1       6.838   3.175   5.751  1.00  0.00    -0.507 OA
ATOM     21  H   UNL     1       6.954   3.853   6.493  1.00  0.00     0.293 HD
ENDBRANCH  17  20
ENDBRANCH   1  12
BRANCH   2  22
ATOM     22  O   UNL     1       3.158   1.212   5.345  1.00  0.00    -0.502 OA
ATOM     23  H   UNL     1       2.275   1.631   5.611  1.00  0.00     0.293 HD
ENDBRANCH   2  22
BRANCH   6  24
ATOM     24  O   UNL     1       1.794   3.041   0.668  1.00  0.00    -0.507 OA
ATOM     25  H   UNL     1       1.279   2.864  -0.186  1.00  0.00     0.293 HD
ENDBRANCH   6  24
BRANCH   8  26
ATOM     26  O   UNL     1       6.116   3.525  -1.459  1.00  0.00    -0.508 OA
ATOM     27  H   UNL     1       6.923   4.130  -1.366  1.00  0.00     0.293 HD
ENDBRANCH   8  26
TORSDOF 6
ENDMDL
