MODEL 1
REMARK VINA RESULT:    -8.368      0.000      0.000
REMARK INTER + INTRA:         -10.421
REMARK INTER:                 -10.080
REMARK INTRA:                  -0.341
REMARK UNBOUND:                -0.341
REMARK SMILES Oc1cc(O)c2cc(O)c(-c3ccc(O)c(O)c3)[o+]c2c1.[Cl-]
REMARK SMILES IDX 10 1 19 2 20 3 21 4 2 5 3 6 4 7 6 8 7 9 8 10 11 11 12 12
REMARK SMILES IDX 13 13 14 14 18 15 16 16 15 17 17 19 9 21 1 23 5 25
REMARK H PARENT 15 18 17 20 9 22 1 24 5 26
REMARK Flexibility Score: inf
ROOT
ATOM      1  C   UNL     1     -30.829  16.795  57.335  1.00  0.00     0.402 A 
ATOM      2  O   UNL     1     -31.483  16.017  58.193  1.00  0.00    -0.202 OA
ATOM      3  C   UNL     1     -32.658  15.456  57.921  1.00  0.00     0.368 A 
ATOM      4  C   UNL     1     -33.266  14.651  58.888  1.00  0.00     0.162 A 
ATOM      5  C   UNL     1     -34.497  14.047  58.628  1.00  0.00     0.128 A 
ATOM      6  C   UNL     1     -35.126  14.248  57.394  1.00  0.00     0.093 A 
ATOM      7  C   UNL     1     -34.536  15.050  56.408  1.00  0.00     0.136 A 
ATOM      8  C   UNL     1     -33.285  15.667  56.670  1.00  0.00     0.125 A 
ATOM      9  C   UNL     1     -32.626  16.497  55.748  1.00  0.00     0.078 A 
ATOM     10  C   UNL     1     -31.397  17.075  56.079  1.00  0.00     0.223 A 
ENDROOT
BRANCH   1  11
ATOM     11  C   UNL     1     -29.522  17.353  57.751  1.00  0.00     0.087 A 
ATOM     12  C   UNL     1     -28.341  16.711  57.352  1.00  0.00     0.022 A 
ATOM     13  C   UNL     1     -27.097  17.230  57.718  1.00  0.00     0.051 A 
ATOM     14  C   UNL     1     -27.007  18.404  58.473  1.00  0.00     0.157 A 
ATOM     15  C   UNL     1     -29.435  18.544  58.491  1.00  0.00     0.068 A 
ATOM     16  C   UNL     1     -28.192  19.074  58.860  1.00  0.00     0.158 A 
BRANCH  14  17
ATOM     17  O   UNL     1     -25.733  18.867  58.813  1.00  0.00    -0.504 OA
ATOM     18  H   UNL     1     -25.408  19.806  58.635  1.00  0.00     0.293 HD
ENDBRANCH  14  17
BRANCH  16  19
ATOM     19  O   UNL     1     -28.182  20.260  59.596  1.00  0.00    -0.504 OA
ATOM     20  H   UNL     1     -29.007  20.807  59.798  1.00  0.00     0.293 HD
ENDBRANCH  16  19
ENDBRANCH   1  11
BRANCH  10  21
ATOM     21  O   UNL     1     -30.766  17.939  55.183  1.00  0.00    -0.500 OA
ATOM     22  H   UNL     1     -30.851  17.820  54.179  1.00  0.00     0.294 HD
ENDBRANCH  10  21
BRANCH   5  23
ATOM     23  O   UNL     1     -35.090  13.249  59.604  1.00  0.00    -0.507 OA
ATOM     24  H   UNL     1     -34.709  13.186  60.541  1.00  0.00     0.293 HD
ENDBRANCH   5  23
BRANCH   7  25
ATOM     25  O   UNL     1     -35.224  15.197  55.201  1.00  0.00    -0.507 OA
ATOM     26  H   UNL     1     -36.022  14.642  54.929  1.00  0.00     0.293 HD
ENDBRANCH   7  25
TORSDOF 6
ENDMDL
MODEL 2
REMARK VINA RESULT:    -8.331      2.472      3.256
REMARK INTER + INTRA:         -10.376
REMARK INTER:                 -10.091
REMARK INTRA:                  -0.286
REMARK UNBOUND:                -0.341
REMARK SMILES Oc1cc(O)c2cc(O)c(-c3ccc(O)c(O)c3)[o+]c2c1.[Cl-]
REMARK SMILES IDX 10 1 19 2 20 3 21 4 2 5 3 6 4 7 6 8 7 9 8 10 11 11 12 12
REMARK SMILES IDX 13 13 14 14 18 15 16 16 15 17 17 19 9 21 1 23 5 25
REMARK H PARENT 15 18 17 20 9 22 1 24 5 26
REMARK Flexibility Score: inf
ROOT
ATOM      1  C   UNL     1     -31.366  17.286  57.012  1.00  0.00     0.402 A 
ATOM      2  O   UNL     1     -32.640  17.094  56.682  1.00  0.00    -0.202 OA
ATOM      3  C   UNL     1     -33.151  15.897  56.410  1.00  0.00     0.368 A 
ATOM      4  C   UNL     1     -34.504  15.796  56.075  1.00  0.00     0.162 A 
ATOM      5  C   UNL     1     -35.068  14.552  55.788  1.00  0.00     0.128 A 
ATOM      6  C   UNL     1     -34.275  13.400  55.835  1.00  0.00     0.093 A 
ATOM      7  C   UNL     1     -32.916  13.475  56.169  1.00  0.00     0.136 A 
ATOM      8  C   UNL     1     -32.340  14.738  56.459  1.00  0.00     0.125 A 
ATOM      9  C   UNL     1     -30.985  14.911  56.790  1.00  0.00     0.078 A 
ATOM     10  C   UNL     1     -30.486  16.189  57.059  1.00  0.00     0.223 A 
ENDROOT
BRANCH   1  11
ATOM     11  C   UNL     1     -30.918  18.668  57.303  1.00  0.00     0.087 A 
ATOM     12  C   UNL     1     -30.654  19.041  58.629  1.00  0.00     0.022 A 
ATOM     13  C   UNL     1     -30.214  20.333  58.924  1.00  0.00     0.051 A 
ATOM     14  C   UNL     1     -30.014  21.270  57.905  1.00  0.00     0.157 A 
ATOM     15  C   UNL     1     -30.698  19.599  56.275  1.00  0.00     0.068 A 
ATOM     16  C   UNL     1     -30.253  20.897  56.561  1.00  0.00     0.158 A 
BRANCH  14  17
ATOM     17  O   UNL     1     -29.580  22.547  58.268  1.00  0.00    -0.504 OA
ATOM     18  H   UNL     1     -28.975  23.121  57.698  1.00  0.00     0.293 HD
ENDBRANCH  14  17
BRANCH  16  19
ATOM     19  O   UNL     1     -30.056  21.769  55.490  1.00  0.00    -0.504 OA
ATOM     20  H   UNL     1     -29.945  21.471  54.531  1.00  0.00     0.293 HD
ENDBRANCH  16  19
ENDBRANCH   1  11
BRANCH  10  21
ATOM     21  O   UNL     1     -29.131  16.367  57.338  1.00  0.00    -0.500 OA
ATOM     22  H   UNL     1     -28.818  16.849  58.174  1.00  0.00     0.294 HD
ENDBRANCH  10  21
BRANCH   5  23
ATOM     23  O   UNL     1     -36.418  14.471  55.455  1.00  0.00    -0.507 OA
ATOM     24  H   UNL     1     -36.753  13.826  54.749  1.00  0.00     0.293 HD
ENDBRANCH   5  23
BRANCH   7  25
ATOM     25  O   UNL     1     -32.194  12.279  56.199  1.00  0.00    -0.507 OA
ATOM     26  H   UNL     1     -31.418  12.097  56.818  1.00  0.00     0.293 HD
ENDBRANCH   7  25
TORSDOF 6
ENDMDL
MODEL 3
REMARK VINA RESULT:    -8.230      2.492      3.318
REMARK INTER + INTRA:         -10.254
REMARK INTER:                  -9.940
REMARK INTRA:                  -0.314
REMARK UNBOUND:                -0.341
REMARK SMILES Oc1cc(O)c2cc(O)c(-c3ccc(O)c(O)c3)[o+]c2c1.[Cl-]
REMARK SMILES IDX 10 1 19 2 20 3 21 4 2 5 3 6 4 7 6 8 7 9 8 10 11 11 12 12
REMARK SMILES IDX 13 13 14 14 18 15 16 16 15 17 17 19 9 21 1 23 5 25
REMARK H PARENT 15 18 17 20 9 22 1 24 5 26
REMARK Flexibility Score: inf
ROOT
ATOM      1  C   UNL     1     -30.871  16.736  56.573  1.00  0.00     0.402 A 
ATOM      2  O   UNL     1     -31.098  15.551  56.013  1.00  0.00    -0.202 OA
ATOM      3  C   UNL     1     -31.946  14.658  56.513  1.00  0.00     0.368 A 
ATOM      4  C   UNL     1     -32.118  13.440  55.849  1.00  0.00     0.162 A 
ATOM      5  C   UNL     1     -33.005  12.485  56.349  1.00  0.00     0.128 A 
ATOM      6  C   UNL     1     -33.725  12.747  57.521  1.00  0.00     0.093 A 
ATOM      7  C   UNL     1     -33.570  13.961  58.203  1.00  0.00     0.136 A 
ATOM      8  C   UNL     1     -32.668  14.933  57.698  1.00  0.00     0.125 A 
ATOM      9  C   UNL     1     -32.438  16.170  58.322  1.00  0.00     0.078 A 
ATOM     10  C   UNL     1     -31.530  17.077  57.768  1.00  0.00     0.223 A 
ENDROOT
BRANCH   1  11
ATOM     11  C   UNL     1     -29.910  17.650  55.914  1.00  0.00     0.087 A 
ATOM     12  C   UNL     1     -30.392  18.733  55.164  1.00  0.00     0.022 A 
ATOM     13  C   UNL     1     -29.504  19.617  54.550  1.00  0.00     0.051 A 
ATOM     14  C   UNL     1     -28.121  19.450  54.683  1.00  0.00     0.157 A 
ATOM     15  C   UNL     1     -28.523  17.491  56.068  1.00  0.00     0.068 A 
ATOM     16  C   UNL     1     -27.624  18.376  55.459  1.00  0.00     0.158 A 
BRANCH  14  17
ATOM     17  O   UNL     1     -27.287  20.365  54.037  1.00  0.00    -0.504 OA
ATOM     18  H   UNL     1     -27.519  20.827  53.170  1.00  0.00     0.293 HD
ENDBRANCH  14  17
BRANCH  16  19
ATOM     19  O   UNL     1     -26.259  18.156  55.654  1.00  0.00    -0.504 OA
ATOM     20  H   UNL     1     -25.744  18.484  56.459  1.00  0.00     0.293 HD
ENDBRANCH  16  19
ENDBRANCH   1  11
BRANCH  10  21
ATOM     21  O   UNL     1     -31.264  18.285  58.414  1.00  0.00    -0.500 OA
ATOM     22  H   UNL     1     -30.446  18.407  59.000  1.00  0.00     0.294 HD
ENDBRANCH  10  21
BRANCH   5  23
ATOM     23  O   UNL     1     -33.163  11.276  55.676  1.00  0.00    -0.507 OA
ATOM     24  H   UNL     1     -33.615  10.480  56.112  1.00  0.00     0.293 HD
ENDBRANCH   5  23
BRANCH   7  25
ATOM     25  O   UNL     1     -34.327  14.149  59.362  1.00  0.00    -0.507 OA
ATOM     26  H   UNL     1     -34.684  13.400  59.938  1.00  0.00     0.293 HD
ENDBRANCH   7  25
TORSDOF 6
ENDMDL
MODEL 4
REMARK VINA RESULT:    -8.151      2.147      7.257
REMARK INTER + INTRA:         -10.160
REMARK INTER:                  -9.821
REMARK INTRA:                  -0.339
REMARK UNBOUND:                -0.341
REMARK SMILES Oc1cc(O)c2cc(O)c(-c3ccc(O)c(O)c3)[o+]c2c1.[Cl-]
REMARK SMILES IDX 10 1 19 2 20 3 21 4 2 5 3 6 4 7 6 8 7 9 8 10 11 11 12 12
REMARK SMILES IDX 13 13 14 14 18 15 16 16 15 17 17 19 9 21 1 23 5 25
REMARK H PARENT 15 18 17 20 9 22 1 24 5 26
REMARK Flexibility Score: inf
ROOT
ATOM      1  C   UNL     1     -31.422  16.717  56.533  1.00  0.00     0.402 A 
ATOM      2  O   UNL     1     -30.646  17.232  55.583  1.00  0.00    -0.202 OA
ATOM      3  C   UNL     1     -29.812  18.246  55.791  1.00  0.00     0.368 A 
ATOM      4  C   UNL     1     -29.035  18.715  54.729  1.00  0.00     0.162 A 
ATOM      5  C   UNL     1     -28.148  19.776  54.920  1.00  0.00     0.128 A 
ATOM      6  C   UNL     1     -28.037  20.374  56.181  1.00  0.00     0.093 A 
ATOM      7  C   UNL     1     -28.805  19.920  57.262  1.00  0.00     0.136 A 
ATOM      8  C   UNL     1     -29.709  18.844  57.070  1.00  0.00     0.125 A 
ATOM      9  C   UNL     1     -30.527  18.332  58.091  1.00  0.00     0.078 A 
ATOM     10  C   UNL     1     -31.398  17.271  57.826  1.00  0.00     0.223 A 
ENDROOT
BRANCH   1  11
ATOM     11  C   UNL     1     -32.302  15.580  56.179  1.00  0.00     0.087 A 
ATOM     12  C   UNL     1     -31.806  14.271  56.269  1.00  0.00     0.022 A 
ATOM     13  C   UNL     1     -32.624  13.183  55.957  1.00  0.00     0.051 A 
ATOM     14  C   UNL     1     -33.953  13.376  55.566  1.00  0.00     0.157 A 
ATOM     15  C   UNL     1     -33.643  15.777  55.808  1.00  0.00     0.068 A 
ATOM     16  C   UNL     1     -34.472  14.691  55.497  1.00  0.00     0.158 A 
BRANCH  14  17
ATOM     17  O   UNL     1     -34.715  12.247  55.261  1.00  0.00    -0.504 OA
ATOM     18  H   UNL     1     -34.751  11.418  55.837  1.00  0.00     0.293 HD
ENDBRANCH  14  17
BRANCH  16  19
ATOM     19  O   UNL     1     -35.792  14.962  55.135  1.00  0.00    -0.504 OA
ATOM     20  H   UNL     1     -36.591  14.458  55.493  1.00  0.00     0.293 HD
ENDBRANCH  16  19
ENDBRANCH   1  11
BRANCH  10  21
ATOM     21  O   UNL     1     -32.247  16.796  58.826  1.00  0.00    -0.500 OA
ATOM     22  H   UNL     1     -32.002  15.994  59.396  1.00  0.00     0.294 HD
ENDBRANCH  10  21
BRANCH   5  23
ATOM     23  O   UNL     1     -27.382  20.232  53.850  1.00  0.00    -0.507 OA
ATOM     24  H   UNL     1     -27.714  20.963  53.232  1.00  0.00     0.293 HD
ENDBRANCH   5  23
BRANCH   7  25
ATOM     25  O   UNL     1     -28.633  20.566  58.489  1.00  0.00    -0.507 OA
ATOM     26  H   UNL     1     -29.381  20.980  59.025  1.00  0.00     0.293 HD
ENDBRANCH   7  25
TORSDOF 6
ENDMDL
MODEL 5
REMARK VINA RESULT:    -8.008      1.689      7.028
REMARK INTER + INTRA:          -9.988
REMARK INTER:                  -9.645
REMARK INTRA:                  -0.343
REMARK UNBOUND:                -0.341
REMARK SMILES Oc1cc(O)c2cc(O)c(-c3ccc(O)c(O)c3)[o+]c2c1.[Cl-]
REMARK SMILES IDX 10 1 19 2 20 3 21 4 2 5 3 6 4 7 6 8 7 9 8 10 11 11 12 12
REMARK SMILES IDX 13 13 14 14 18 15 16 16 15 17 17 19 9 21 1 23 5 25
REMARK H PARENT 15 18 17 20 9 22 1 24 5 26
REMARK Flexibility Score: inf
ROOT
ATOM      1  C   UNL     1     -31.458  16.878  57.254  1.00  0.00     0.402 A 
ATOM      2  O   UNL     1     -31.533  18.178  57.524  1.00  0.00    -0.202 OA
ATOM      3  C   UNL     1     -30.475  18.984  57.535  1.00  0.00     0.368 A 
ATOM      4  C   UNL     1     -30.656  20.338  57.829  1.00  0.00     0.162 A 
ATOM      5  C   UNL     1     -29.564  21.207  57.844  1.00  0.00     0.128 A 
ATOM      6  C   UNL     1     -28.282  20.721  57.563  1.00  0.00     0.093 A 
ATOM      7  C   UNL     1     -28.076  19.368  57.266  1.00  0.00     0.136 A 
ATOM      8  C   UNL     1     -29.183  18.481  57.252  1.00  0.00     0.125 A 
ATOM      9  C   UNL     1     -29.069  17.108  56.977  1.00  0.00     0.078 A 
ATOM     10  C   UNL     1     -30.206  16.295  56.987  1.00  0.00     0.223 A 
ENDROOT
BRANCH   1  11
ATOM     11  C   UNL     1     -32.710  16.087  57.262  1.00  0.00     0.087 A 
ATOM     12  C   UNL     1     -33.466  15.982  56.086  1.00  0.00     0.022 A 
ATOM     13  C   UNL     1     -34.640  15.227  56.067  1.00  0.00     0.051 A 
ATOM     14  C   UNL     1     -35.075  14.551  57.212  1.00  0.00     0.157 A 
ATOM     15  C   UNL     1     -33.131  15.392  58.409  1.00  0.00     0.068 A 
ATOM     16  C   UNL     1     -34.306  14.629  58.398  1.00  0.00     0.158 A 
BRANCH  14  17
ATOM     17  O   UNL     1     -36.261  13.819  57.129  1.00  0.00    -0.504 OA
ATOM     18  H   UNL     1     -36.844  13.596  57.923  1.00  0.00     0.293 HD
ENDBRANCH  14  17
BRANCH  16  19
ATOM     19  O   UNL     1     -34.663  13.966  59.573  1.00  0.00    -0.504 OA
ATOM     20  H   UNL     1     -35.578  14.021  59.997  1.00  0.00     0.293 HD
ENDBRANCH  16  19
ENDBRANCH   1  11
BRANCH  10  21
ATOM     21  O   UNL     1     -30.087  14.923  56.764  1.00  0.00    -0.500 OA
ATOM     22  H   UNL     1     -29.308  14.533  56.244  1.00  0.00     0.294 HD
ENDBRANCH  10  21
BRANCH   5  23
ATOM     23  O   UNL     1     -29.763  22.554  58.139  1.00  0.00    -0.507 OA
ATOM     24  H   UNL     1     -29.390  22.973  58.983  1.00  0.00     0.293 HD
ENDBRANCH   5  23
BRANCH   7  25
ATOM     25  O   UNL     1     -26.766  18.962  56.993  1.00  0.00    -0.507 OA
ATOM     26  H   UNL     1     -26.299  19.101  56.109  1.00  0.00     0.293 HD
ENDBRANCH   7  25
TORSDOF 6
ENDMDL
MODEL 6
REMARK VINA RESULT:    -7.907      1.631      6.673
REMARK INTER + INTRA:          -9.866
REMARK INTER:                  -9.534
REMARK INTRA:                  -0.332
REMARK UNBOUND:                -0.341
REMARK SMILES Oc1cc(O)c2cc(O)c(-c3ccc(O)c(O)c3)[o+]c2c1.[Cl-]
REMARK SMILES IDX 10 1 19 2 20 3 21 4 2 5 3 6 4 7 6 8 7 9 8 10 11 11 12 12
REMARK SMILES IDX 13 13 14 14 18 15 16 16 15 17 17 19 9 21 1 23 5 25
REMARK H PARENT 15 18 17 20 9 22 1 24 5 26
REMARK Flexibility Score: inf
ROOT
ATOM      1  C   UNL     1     -31.049  16.342  57.106  1.00  0.00     0.402 A 
ATOM      2  O   UNL     1     -29.923  16.486  57.799  1.00  0.00    -0.202 OA
ATOM      3  C   UNL     1     -29.068  17.486  57.605  1.00  0.00     0.368 A 
ATOM      4  C   UNL     1     -27.912  17.552  58.386  1.00  0.00     0.162 A 
ATOM      5  C   UNL     1     -26.999  18.592  58.206  1.00  0.00     0.128 A 
ATOM      6  C   UNL     1     -27.242  19.574  57.238  1.00  0.00     0.093 A 
ATOM      7  C   UNL     1     -28.395  19.529  56.443  1.00  0.00     0.136 A 
ATOM      8  C   UNL     1     -29.323  18.472  56.622  1.00  0.00     0.125 A 
ATOM      9  C   UNL     1     -30.498  18.339  55.863  1.00  0.00     0.078 A 
ATOM     10  C   UNL     1     -31.364  17.266  56.093  1.00  0.00     0.223 A 
ENDROOT
BRANCH   1  11
ATOM     11  C   UNL     1     -31.925  15.192  57.424  1.00  0.00     0.087 A 
ATOM     12  C   UNL     1     -31.811  14.011  56.675  1.00  0.00     0.022 A 
ATOM     13  C   UNL     1     -32.614  12.908  56.970  1.00  0.00     0.051 A 
ATOM     14  C   UNL     1     -33.534  12.954  58.023  1.00  0.00     0.157 A 
ATOM     15  C   UNL     1     -32.832  15.234  58.497  1.00  0.00     0.068 A 
ATOM     16  C   UNL     1     -33.639  14.130  58.801  1.00  0.00     0.158 A 
BRANCH  14  17
ATOM     17  O   UNL     1     -34.312  11.819  58.260  1.00  0.00    -0.504 OA
ATOM     18  H   UNL     1     -34.256  11.261  59.100  1.00  0.00     0.293 HD
ENDBRANCH  14  17
BRANCH  16  19
ATOM     19  O   UNL     1     -34.518  14.244  59.880  1.00  0.00    -0.504 OA
ATOM     20  H   UNL     1     -34.720  15.113  60.355  1.00  0.00     0.293 HD
ENDBRANCH  16  19
ENDBRANCH   1  11
BRANCH  10  21
ATOM     21  O   UNL     1     -32.505  17.106  55.305  1.00  0.00    -0.500 OA
ATOM     22  H   UNL     1     -33.366  16.727  55.685  1.00  0.00     0.294 HD
ENDBRANCH  10  21
BRANCH   5  23
ATOM     23  O   UNL     1     -25.851  18.642  58.993  1.00  0.00    -0.507 OA
ATOM     24  H   UNL     1     -25.365  19.514  59.169  1.00  0.00     0.293 HD
ENDBRANCH   5  23
BRANCH   7  25
ATOM     25  O   UNL     1     -28.567  20.548  55.502  1.00  0.00    -0.507 OA
ATOM     26  H   UNL     1     -28.206  21.485  55.604  1.00  0.00     0.293 HD
ENDBRANCH   7  25
TORSDOF 6
ENDMDL
MODEL 7
REMARK VINA RESULT:    -7.649      1.643      2.329
REMARK INTER + INTRA:          -9.555
REMARK INTER:                  -9.215
REMARK INTRA:                  -0.340
REMARK UNBOUND:                -0.341
REMARK SMILES Oc1cc(O)c2cc(O)c(-c3ccc(O)c(O)c3)[o+]c2c1.[Cl-]
REMARK SMILES IDX 10 1 19 2 20 3 21 4 2 5 3 6 4 7 6 8 7 9 8 10 11 11 12 12
REMARK SMILES IDX 13 13 14 14 18 15 16 16 15 17 17 19 9 21 1 23 5 25
REMARK H PARENT 15 18 17 20 9 22 1 24 5 26
REMARK Flexibility Score: inf
ROOT
ATOM      1  C   UNL     1     -32.856  15.879  57.271  1.00  0.00     0.402 A 
ATOM      2  O   UNL     1     -33.347  15.250  58.335  1.00  0.00    -0.202 OA
ATOM      3  C   UNL     1     -34.447  14.503  58.299  1.00  0.00     0.368 A 
ATOM      4  C   UNL     1     -34.882  13.879  59.471  1.00  0.00     0.162 A 
ATOM      5  C   UNL     1     -36.031  13.086  59.462  1.00  0.00     0.128 A 
ATOM      6  C   UNL     1     -36.751  12.915  58.274  1.00  0.00     0.093 A 
ATOM      7  C   UNL     1     -36.334  13.530  57.086  1.00  0.00     0.136 A 
ATOM      8  C   UNL     1     -35.168  14.338  57.093  1.00  0.00     0.125 A 
ATOM      9  C   UNL     1     -34.683  15.002  55.954  1.00  0.00     0.078 A 
ATOM     10  C   UNL     1     -33.528  15.787  56.038  1.00  0.00     0.223 A 
ENDROOT
BRANCH   1  11
ATOM     11  C   UNL     1     -31.617  16.673  57.436  1.00  0.00     0.087 A 
ATOM     12  C   UNL     1     -30.384  16.105  57.086  1.00  0.00     0.022 A 
ATOM     13  C   UNL     1     -29.205  16.842  57.217  1.00  0.00     0.051 A 
ATOM     14  C   UNL     1     -29.234  18.161  57.682  1.00  0.00     0.157 A 
ATOM     15  C   UNL     1     -31.653  18.004  57.883  1.00  0.00     0.068 A 
ATOM     16  C   UNL     1     -30.476  18.752  58.013  1.00  0.00     0.158 A 
BRANCH  14  17
ATOM     17  O   UNL     1     -28.020  18.840  57.796  1.00  0.00    -0.504 OA
ATOM     18  H   UNL     1     -27.121  18.384  57.858  1.00  0.00     0.293 HD
ENDBRANCH  14  17
BRANCH  16  19
ATOM     19  O   UNL     1     -30.587  20.069  58.464  1.00  0.00    -0.504 OA
ATOM     20  H   UNL     1     -31.200  20.758  58.051  1.00  0.00     0.293 HD
ENDBRANCH  16  19
ENDBRANCH   1  11
BRANCH  10  21
ATOM     21  O   UNL     1     -33.074  16.487  54.920  1.00  0.00    -0.500 OA
ATOM     22  H   UNL     1     -33.709  17.007  54.323  1.00  0.00     0.294 HD
ENDBRANCH  10  21
BRANCH   5  23
ATOM     23  O   UNL     1     -36.451  12.473  60.640  1.00  0.00    -0.507 OA
ATOM     24  H   UNL     1     -36.166  11.531  60.879  1.00  0.00     0.293 HD
ENDBRANCH   5  23
BRANCH   7  25
ATOM     25  O   UNL     1     -37.103  13.306  55.941  1.00  0.00    -0.507 OA
ATOM     26  H   UNL     1     -38.070  13.017  55.952  1.00  0.00     0.293 HD
ENDBRANCH   7  25
TORSDOF 6
ENDMDL
MODEL 8
REMARK VINA RESULT:    -7.523      1.072      1.746
REMARK INTER + INTRA:          -9.403
REMARK INTER:                  -9.072
REMARK INTRA:                  -0.331
REMARK UNBOUND:                -0.341
REMARK SMILES Oc1cc(O)c2cc(O)c(-c3ccc(O)c(O)c3)[o+]c2c1.[Cl-]
REMARK SMILES IDX 10 1 19 2 20 3 21 4 2 5 3 6 4 7 6 8 7 9 8 10 11 11 12 12
REMARK SMILES IDX 13 13 14 14 18 15 16 16 15 17 17 19 9 21 1 23 5 25
REMARK H PARENT 15 18 17 20 9 22 1 24 5 26
REMARK Flexibility Score: inf
ROOT
ATOM      1  C   UNL     1     -31.523  16.684  57.449  1.00  0.00     0.402 A 
ATOM      2  O   UNL     1     -32.247  16.201  58.456  1.00  0.00    -0.202 OA
ATOM      3  C   UNL     1     -33.244  15.337  58.289  1.00  0.00     0.368 A 
ATOM      4  C   UNL     1     -33.945  14.885  59.410  1.00  0.00     0.162 A 
ATOM      5  C   UNL     1     -34.994  13.976  59.266  1.00  0.00     0.128 A 
ATOM      6  C   UNL     1     -35.346  13.515  57.992  1.00  0.00     0.093 A 
ATOM      7  C   UNL     1     -34.659  13.953  56.853  1.00  0.00     0.136 A 
ATOM      8  C   UNL     1     -33.593  14.879  56.997  1.00  0.00     0.125 A 
ATOM      9  C   UNL     1     -32.857  15.383  55.911  1.00  0.00     0.078 A 
ATOM     10  C   UNL     1     -31.822  16.298  56.130  1.00  0.00     0.223 A 
ENDROOT
BRANCH   1  11
ATOM     11  C   UNL     1     -30.430  17.632  57.764  1.00  0.00     0.087 A 
ATOM     12  C   UNL     1     -30.744  18.958  58.098  1.00  0.00     0.022 A 
ATOM     13  C   UNL     1     -29.731  19.864  58.416  1.00  0.00     0.051 A 
ATOM     14  C   UNL     1     -28.390  19.464  58.424  1.00  0.00     0.157 A 
ATOM     15  C   UNL     1     -29.087  17.221  57.792  1.00  0.00     0.068 A 
ATOM     16  C   UNL     1     -28.064  18.123  58.114  1.00  0.00     0.158 A 
BRANCH  14  17
ATOM     17  O   UNL     1     -27.425  20.421  58.743  1.00  0.00    -0.504 OA
ATOM     18  H   UNL     1     -27.614  21.260  59.273  1.00  0.00     0.293 HD
ENDBRANCH  14  17
BRANCH  16  19
ATOM     19  O   UNL     1     -26.753  17.645  58.120  1.00  0.00    -0.504 OA
ATOM     20  H   UNL     1     -26.097  17.805  58.871  1.00  0.00     0.293 HD
ENDBRANCH  16  19
ENDBRANCH   1  11
BRANCH  10  21
ATOM     21  O   UNL     1     -31.124  16.836  55.049  1.00  0.00    -0.500 OA
ATOM     22  H   UNL     1     -30.778  17.789  55.060  1.00  0.00     0.294 HD
ENDBRANCH  10  21
BRANCH   5  23
ATOM     23  O   UNL     1     -35.682  13.537  60.394  1.00  0.00    -0.507 OA
ATOM     24  H   UNL     1     -36.095  12.612  60.438  1.00  0.00     0.293 HD
ENDBRANCH   5  23
BRANCH   7  25
ATOM     25  O   UNL     1     -35.068  13.443  55.618  1.00  0.00    -0.507 OA
ATOM     26  H   UNL     1     -34.784  13.817  54.725  1.00  0.00     0.293 HD
ENDBRANCH   7  25
TORSDOF 6
ENDMDL
MODEL 9
REMARK VINA RESULT:    -7.429      2.463      3.510
REMARK INTER + INTRA:          -9.290
REMARK INTER:                  -8.979
REMARK INTRA:                  -0.310
REMARK UNBOUND:                -0.341
REMARK SMILES Oc1cc(O)c2cc(O)c(-c3ccc(O)c(O)c3)[o+]c2c1.[Cl-]
REMARK SMILES IDX 10 1 19 2 20 3 21 4 2 5 3 6 4 7 6 8 7 9 8 10 11 11 12 12
REMARK SMILES IDX 13 13 14 14 18 15 16 16 15 17 17 19 9 21 1 23 5 25
REMARK H PARENT 15 18 17 20 9 22 1 24 5 26
REMARK Flexibility Score: inf
ROOT
ATOM      1  C   UNL     1     -31.798  16.669  56.489  1.00  0.00     0.402 A 
ATOM      2  O   UNL     1     -32.919  16.562  55.780  1.00  0.00    -0.202 OA
ATOM      3  C   UNL     1     -33.738  15.518  55.863  1.00  0.00     0.368 A 
ATOM      4  C   UNL     1     -34.894  15.498  55.078  1.00  0.00     0.162 A 
ATOM      5  C   UNL     1     -35.774  14.417  55.147  1.00  0.00     0.128 A 
ATOM      6  C   UNL     1     -35.498  13.347  56.007  1.00  0.00     0.093 A 
ATOM      7  C   UNL     1     -34.346  13.345  56.805  1.00  0.00     0.136 A 
ATOM      8  C   UNL     1     -33.448  14.441  56.734  1.00  0.00     0.125 A 
ATOM      9  C   UNL     1     -32.264  14.519  57.486  1.00  0.00     0.078 A 
ATOM     10  C   UNL     1     -31.425  15.630  57.360  1.00  0.00     0.223 A 
ENDROOT
BRANCH   1  11
ATOM     11  C   UNL     1     -30.974  17.887  56.315  1.00  0.00     0.087 A 
ATOM     12  C   UNL     1     -31.007  18.887  57.298  1.00  0.00     0.022 A 
ATOM     13  C   UNL     1     -30.224  20.035  57.164  1.00  0.00     0.051 A 
ATOM     14  C   UNL     1     -29.383  20.202  56.059  1.00  0.00     0.157 A 
ATOM     15  C   UNL     1     -30.114  18.040  55.215  1.00  0.00     0.068 A 
ATOM     16  C   UNL     1     -29.321  19.187  55.074  1.00  0.00     0.158 A 
BRANCH  14  17
ATOM     17  O   UNL     1     -28.631  21.376  55.980  1.00  0.00    -0.504 OA
ATOM     18  H   UNL     1     -28.579  22.064  56.718  1.00  0.00     0.293 HD
ENDBRANCH  14  17
BRANCH  16  19
ATOM     19  O   UNL     1     -28.492  19.272  53.955  1.00  0.00    -0.504 OA
ATOM     20  H   UNL     1     -28.800  19.584  53.045  1.00  0.00     0.293 HD
ENDBRANCH  16  19
ENDBRANCH   1  11
BRANCH  10  21
ATOM     21  O   UNL     1     -30.224  15.684  58.068  1.00  0.00    -0.500 OA
ATOM     22  H   UNL     1     -29.370  15.279  57.700  1.00  0.00     0.294 HD
ENDBRANCH  10  21
BRANCH   5  23
ATOM     23  O   UNL     1     -36.921  14.413  54.357  1.00  0.00    -0.507 OA
ATOM     24  H   UNL     1     -37.232  15.245  53.870  1.00  0.00     0.293 HD
ENDBRANCH   5  23
BRANCH   7  25
ATOM     25  O   UNL     1     -34.144  12.243  57.640  1.00  0.00    -0.507 OA
ATOM     26  H   UNL     1     -33.256  11.780  57.768  1.00  0.00     0.293 HD
ENDBRANCH   7  25
TORSDOF 6
ENDMDL
