MODEL 1
REMARK VINA RESULT:    -4.731      0.000      0.000
REMARK INTER + INTRA:          -7.237
REMARK INTER:                  -6.943
REMARK INTRA:                  -0.293
REMARK UNBOUND:                -0.293
REMARK SMILES O=C([O-])CCCCCCCC(=O)[O-]
REMARK SMILES IDX 7 1 6 2 5 3 4 4 2 5 1 6 3 7 8 8 9 9 10 10 11 11 12 12 13 13
REMARK H PARENT
REMARK Flexibility Score: inf
ROOT
ATOM      1  C   UNL     1      -0.544 -26.895   7.963  1.00  0.00     0.000 C 
ENDROOT
BRANCH   1   2
ATOM      2  C   UNL     1      -0.568 -28.332   7.412  1.00  0.00     0.000 C 
BRANCH   2   3
ATOM      3  C   UNL     1      -0.308 -28.399   5.900  1.00  0.00     0.006 C 
BRANCH   3   4
ATOM      4  C   UNL     1      -0.045 -27.004   5.326  1.00  0.00     0.053 C 
BRANCH   4   5
ATOM      5  C   UNL     1      -0.889 -26.767   4.114  1.00  0.00     0.041 C 
ATOM      6  O   UNL     1      -1.187 -27.724   3.353  1.00  0.00    -0.550 OA
ATOM      7  O   UNL     1      -1.389 -25.498   3.853  1.00  0.00    -0.550 OA
ENDBRANCH   4   5
ENDBRANCH   3   4
ENDBRANCH   2   3
ENDBRANCH   1   2
BRANCH   1   8
ATOM      8  C   UNL     1      -0.788 -26.769   9.478  1.00  0.00     0.000 C 
BRANCH   8   9
ATOM      9  C   UNL     1      -2.267 -26.753   9.910  1.00  0.00     0.006 C 
BRANCH   9  10
ATOM     10  C   UNL     1      -2.638 -25.573  10.827  1.00  0.00     0.053 C 
BRANCH  10  11
ATOM     11  C   UNL     1      -4.030 -25.074  10.584  1.00  0.00     0.041 C 
ATOM     12  O   UNL     1      -4.896 -25.833  10.074  1.00  0.00    -0.550 OA
ATOM     13  O   UNL     1      -4.381 -23.782  10.954  1.00  0.00    -0.550 OA
ENDBRANCH  10  11
ENDBRANCH   9  10
ENDBRANCH   8   9
ENDBRANCH   1   8
TORSDOF 8
ENDMDL
MODEL 2
REMARK VINA RESULT:    -4.711      5.931      7.836
REMARK INTER + INTRA:          -7.208
REMARK INTER:                  -6.566
REMARK INTRA:                  -0.642
REMARK UNBOUND:                -0.293
REMARK SMILES O=C([O-])CCCCCCCC(=O)[O-]
REMARK SMILES IDX 7 1 6 2 5 3 4 4 2 5 1 6 3 7 8 8 9 9 10 10 11 11 12 12 13 13
REMARK H PARENT
REMARK Flexibility Score: inf
ROOT
ATOM      1  C   UNL     1      -0.344 -25.010   3.100  1.00  0.00     0.000 C 
ENDROOT
BRANCH   1   2
ATOM      2  C   UNL     1      -1.205 -26.000   3.906  1.00  0.00     0.000 C 
BRANCH   2   3
ATOM      3  C   UNL     1      -0.495 -27.337   4.167  1.00  0.00     0.006 C 
BRANCH   3   4
ATOM      4  C   UNL     1       0.719 -27.501   3.250  1.00  0.00     0.053 C 
BRANCH   4   5
ATOM      5  C   UNL     1       0.504 -28.630   2.292  1.00  0.00     0.041 C 
ATOM      6  O   UNL     1      -0.343 -28.525   1.368  1.00  0.00    -0.550 OA
ATOM      7  O   UNL     1       1.276 -29.781   2.390  1.00  0.00    -0.550 OA
ENDBRANCH   4   5
ENDBRANCH   3   4
ENDBRANCH   2   3
ENDBRANCH   1   2
BRANCH   1   8
ATOM      8  C   UNL     1      -0.986 -24.491   1.800  1.00  0.00     0.000 C 
BRANCH   8   9
ATOM      9  C   UNL     1      -2.171 -25.322   1.270  1.00  0.00     0.006 C 
BRANCH   9  10
ATOM     10  C   UNL     1      -1.986 -25.826  -0.173  1.00  0.00     0.053 C 
BRANCH  10  11
ATOM     11  C   UNL     1      -2.705 -24.973  -1.174  1.00  0.00     0.041 C 
ATOM     12  O   UNL     1      -3.734 -25.407  -1.756  1.00  0.00    -0.550 OA
ATOM     13  O   UNL     1      -2.259 -23.684  -1.438  1.00  0.00    -0.550 OA
ENDBRANCH  10  11
ENDBRANCH   9  10
ENDBRANCH   8   9
ENDBRANCH   1   8
TORSDOF 8
ENDMDL
MODEL 3
REMARK VINA RESULT:    -4.707      5.622      7.546
REMARK INTER + INTRA:          -7.202
REMARK INTER:                  -6.558
REMARK INTRA:                  -0.644
REMARK UNBOUND:                -0.293
REMARK SMILES O=C([O-])CCCCCCCC(=O)[O-]
REMARK SMILES IDX 7 1 6 2 5 3 4 4 2 5 1 6 3 7 8 8 9 9 10 10 11 11 12 12 13 13
REMARK H PARENT
REMARK Flexibility Score: inf
ROOT
ATOM      1  C   UNL     1      -0.584 -24.934   3.050  1.00  0.00     0.000 C 
ENDROOT
BRANCH   1   2
ATOM      2  C   UNL     1      -1.552 -24.557   1.915  1.00  0.00     0.000 C 
BRANCH   2   3
ATOM      3  C   UNL     1      -1.013 -24.920   0.523  1.00  0.00     0.006 C 
BRANCH   3   4
ATOM      4  C   UNL     1      -2.034 -25.750  -0.261  1.00  0.00     0.053 C 
BRANCH   4   5
ATOM      5  C   UNL     1      -2.699 -24.912  -1.307  1.00  0.00     0.041 C 
ATOM      6  O   UNL     1      -2.315 -23.731  -1.511  1.00  0.00    -0.550 OA
ATOM      7  O   UNL     1      -3.710 -25.452  -2.090  1.00  0.00    -0.550 OA
ENDBRANCH   4   5
ENDBRANCH   3   4
ENDBRANCH   2   3
ENDBRANCH   1   2
BRANCH   1   8
ATOM      8  C   UNL     1      -1.138 -25.939   4.078  1.00  0.00     0.000 C 
BRANCH   8   9
ATOM      9  C   UNL     1      -0.452 -27.318   4.089  1.00  0.00     0.006 C 
BRANCH   9  10
ATOM     10  C   UNL     1       0.260 -27.674   2.771  1.00  0.00     0.053 C 
BRANCH  10  11
ATOM     11  C   UNL     1      -0.543 -28.610   1.921  1.00  0.00     0.041 C 
ATOM     12  O   UNL     1       0.017 -29.572   1.331  1.00  0.00    -0.550 OA
ATOM     13  O   UNL     1      -1.917 -28.442   1.807  1.00  0.00    -0.550 OA
ENDBRANCH  10  11
ENDBRANCH   9  10
ENDBRANCH   8   9
ENDBRANCH   1   8
TORSDOF 8
ENDMDL
MODEL 4
REMARK VINA RESULT:    -4.700      0.430      6.189
REMARK INTER + INTRA:          -7.191
REMARK INTER:                  -6.871
REMARK INTRA:                  -0.319
REMARK UNBOUND:                -0.293
REMARK SMILES O=C([O-])CCCCCCCC(=O)[O-]
REMARK SMILES IDX 7 1 6 2 5 3 4 4 2 5 1 6 3 7 8 8 9 9 10 10 11 11 12 12 13 13
REMARK H PARENT
REMARK Flexibility Score: inf
ROOT
ATOM      1  C   UNL     1       0.039 -26.894   8.465  1.00  0.00     0.000 C 
ENDROOT
BRANCH   1   2
ATOM      2  C   UNL     1      -0.577 -26.540   9.831  1.00  0.00     0.000 C 
BRANCH   2   3
ATOM      3  C   UNL     1      -2.112 -26.584   9.825  1.00  0.00     0.006 C 
BRANCH   3   4
ATOM      4  C   UNL     1      -2.692 -25.651  10.892  1.00  0.00     0.053 C 
BRANCH   4   5
ATOM      5  C   UNL     1      -4.092 -25.260  10.542  1.00  0.00     0.041 C 
ATOM      6  O   UNL     1      -4.854 -26.079   9.965  1.00  0.00    -0.550 OA
ATOM      7  O   UNL     1      -4.573 -24.006  10.898  1.00  0.00    -0.550 OA
ENDBRANCH   4   5
ENDBRANCH   3   4
ENDBRANCH   2   3
ENDBRANCH   1   2
BRANCH   1   8
ATOM      8  C   UNL     1      -0.397 -28.251   7.881  1.00  0.00     0.000 C 
BRANCH   8   9
ATOM      9  C   UNL     1      -0.509 -28.304   6.346  1.00  0.00     0.006 C 
BRANCH   9  10
ATOM     10  C   UNL     1      -0.201 -26.965   5.649  1.00  0.00     0.053 C 
BRANCH  10  11
ATOM     11  C   UNL     1      -0.779 -26.893   4.269  1.00  0.00     0.041 C 
ATOM     12  O   UNL     1      -1.457 -25.892   3.916  1.00  0.00    -0.550 OA
ATOM     13  O   UNL     1      -0.538 -27.914   3.358  1.00  0.00    -0.550 OA
ENDBRANCH  10  11
ENDBRANCH   9  10
ENDBRANCH   8   9
ENDBRANCH   1   8
TORSDOF 8
ENDMDL
MODEL 5
REMARK VINA RESULT:    -4.597      4.070      7.369
REMARK INTER + INTRA:          -7.040
REMARK INTER:                  -6.480
REMARK INTRA:                  -0.561
REMARK UNBOUND:                -0.293
REMARK SMILES O=C([O-])CCCCCCCC(=O)[O-]
REMARK SMILES IDX 7 1 6 2 5 3 4 4 2 5 1 6 3 7 8 8 9 9 10 10 11 11 12 12 13 13
REMARK H PARENT
REMARK Flexibility Score: inf
ROOT
ATOM      1  C   UNL     1      -0.084 -29.486   1.605  1.00  0.00     0.000 C 
ENDROOT
BRANCH   1   2
ATOM      2  C   UNL     1       0.599 -29.932   2.911  1.00  0.00     0.000 C 
BRANCH   2   3
ATOM      3  C   UNL     1       0.864 -28.766   3.876  1.00  0.00     0.006 C 
BRANCH   3   4
ATOM      4  C   UNL     1      -0.014 -28.877   5.125  1.00  0.00     0.053 C 
BRANCH   4   5
ATOM      5  C   UNL     1      -0.389 -27.518   5.625  1.00  0.00     0.041 C 
ATOM      6  O   UNL     1      -0.392 -27.275   6.860  1.00  0.00    -0.550 OA
ATOM      7  O   UNL     1      -0.687 -26.504   4.723  1.00  0.00    -0.550 OA
ENDBRANCH   4   5
ENDBRANCH   3   4
ENDBRANCH   2   3
ENDBRANCH   1   2
BRANCH   1   8
ATOM      8  C   UNL     1      -0.400 -27.981   1.512  1.00  0.00     0.000 C 
BRANCH   8   9
ATOM      9  C   UNL     1      -1.893 -27.613   1.601  1.00  0.00     0.006 C 
BRANCH   9  10
ATOM     10  C   UNL     1      -2.180 -26.112   1.414  1.00  0.00     0.053 C 
BRANCH  10  11
ATOM     11  C   UNL     1      -1.990 -25.665  -0.004  1.00  0.00     0.041 C 
ATOM     12  O   UNL     1      -2.903 -25.842  -0.853  1.00  0.00    -0.550 OA
ATOM     13  O   UNL     1      -0.818 -25.022  -0.380  1.00  0.00    -0.550 OA
ENDBRANCH  10  11
ENDBRANCH   9  10
ENDBRANCH   8   9
ENDBRANCH   1   8
TORSDOF 8
ENDMDL
MODEL 6
REMARK VINA RESULT:    -4.590      4.131      6.003
REMARK INTER + INTRA:          -7.031
REMARK INTER:                  -6.449
REMARK INTRA:                  -0.582
REMARK UNBOUND:                -0.293
REMARK SMILES O=C([O-])CCCCCCCC(=O)[O-]
REMARK SMILES IDX 7 1 6 2 5 3 4 4 2 5 1 6 3 7 8 8 9 9 10 10 11 11 12 12 13 13
REMARK H PARENT
REMARK Flexibility Score: inf
ROOT
ATOM      1  C   UNL     1      -0.049 -29.517   1.628  1.00  0.00     0.000 C 
ENDROOT
BRANCH   1   2
ATOM      2  C   UNL     1      -0.290 -28.000   1.723  1.00  0.00     0.000 C 
BRANCH   2   3
ATOM      3  C   UNL     1      -1.780 -27.633   1.786  1.00  0.00     0.006 C 
BRANCH   3   4
ATOM      4  C   UNL     1      -1.967 -26.152   2.125  1.00  0.00     0.053 C 
BRANCH   4   5
ATOM      5  C   UNL     1      -2.149 -25.346   0.878  1.00  0.00     0.041 C 
ATOM      6  O   UNL     1      -1.998 -24.097   0.903  1.00  0.00    -0.550 OA
ATOM      7  O   UNL     1      -2.435 -25.981  -0.323  1.00  0.00    -0.550 OA
ENDBRANCH   4   5
ENDBRANCH   3   4
ENDBRANCH   2   3
ENDBRANCH   1   2
BRANCH   1   8
ATOM      8  C   UNL     1       0.762 -30.125   2.788  1.00  0.00     0.000 C 
BRANCH   8   9
ATOM      9  C   UNL     1       1.002 -29.189   3.988  1.00  0.00     0.006 C 
BRANCH   9  10
ATOM     10  C   UNL     1       0.012 -29.395   5.150  1.00  0.00     0.053 C 
BRANCH  10  11
ATOM     11  C   UNL     1      -0.361 -28.108   5.819  1.00  0.00     0.041 C 
ATOM     12  O   UNL     1      -0.372 -27.031   5.165  1.00  0.00    -0.550 OA
ATOM     13  O   UNL     1      -0.732 -28.100   7.158  1.00  0.00    -0.550 OA
ENDBRANCH  10  11
ENDBRANCH   9  10
ENDBRANCH   8   9
ENDBRANCH   1   8
TORSDOF 8
ENDMDL
MODEL 7
REMARK VINA RESULT:    -4.512      1.365      6.597
REMARK INTER + INTRA:          -6.916
REMARK INTER:                  -6.535
REMARK INTRA:                  -0.380
REMARK UNBOUND:                -0.293
REMARK SMILES O=C([O-])CCCCCCCC(=O)[O-]
REMARK SMILES IDX 7 1 6 2 5 3 4 4 2 5 1 6 3 7 8 8 9 9 10 10 11 11 12 12 13 13
REMARK H PARENT
REMARK Flexibility Score: inf
ROOT
ATOM      1  C   UNL     1      -0.470 -28.176   7.323  1.00  0.00     0.000 C 
ENDROOT
BRANCH   1   2
ATOM      2  C   UNL     1       0.307 -27.003   7.947  1.00  0.00     0.000 C 
BRANCH   2   3
ATOM      3  C   UNL     1      -0.252 -26.573   9.312  1.00  0.00     0.006 C 
BRANCH   3   4
ATOM      4  C   UNL     1      -1.742 -26.904   9.424  1.00  0.00     0.053 C 
BRANCH   4   5
ATOM      5  C   UNL     1      -2.358 -26.168  10.572  1.00  0.00     0.041 C 
ATOM      6  O   UNL     1      -1.655 -25.834  11.561  1.00  0.00    -0.550 OA
ATOM      7  O   UNL     1      -3.699 -25.807  10.526  1.00  0.00    -0.550 OA
ENDBRANCH   4   5
ENDBRANCH   3   4
ENDBRANCH   2   3
ENDBRANCH   1   2
BRANCH   1   8
ATOM      8  C   UNL     1      -0.473 -28.216   5.784  1.00  0.00     0.000 C 
BRANCH   8   9
ATOM      9  C   UNL     1      -0.204 -26.868   5.088  1.00  0.00     0.006 C 
BRANCH   9  10
ATOM     10  C   UNL     1      -1.163 -26.563   3.922  1.00  0.00     0.053 C 
BRANCH  10  11
ATOM     11  C   UNL     1      -0.919 -27.442   2.734  1.00  0.00     0.041 C 
ATOM     12  O   UNL     1      -1.888 -27.908   2.079  1.00  0.00    -0.550 OA
ATOM     13  O   UNL     1       0.380 -27.721   2.329  1.00  0.00    -0.550 OA
ENDBRANCH  10  11
ENDBRANCH   9  10
ENDBRANCH   8   9
ENDBRANCH   1   8
TORSDOF 8
ENDMDL
MODEL 8
REMARK VINA RESULT:    -4.509      1.869      2.537
REMARK INTER + INTRA:          -6.911
REMARK INTER:                  -6.709
REMARK INTRA:                  -0.202
REMARK UNBOUND:                -0.293
REMARK SMILES O=C([O-])CCCCCCCC(=O)[O-]
REMARK SMILES IDX 7 1 6 2 5 3 4 4 2 5 1 6 3 7 8 8 9 9 10 10 11 11 12 12 13 13
REMARK H PARENT
REMARK Flexibility Score: inf
ROOT
ATOM      1  C   UNL     1      -0.318 -27.233   6.577  1.00  0.00     0.000 C 
ENDROOT
BRANCH   1   2
ATOM      2  C   UNL     1       0.138 -26.868   5.153  1.00  0.00     0.000 C 
BRANCH   2   3
ATOM      3  C   UNL     1      -0.862 -27.307   4.073  1.00  0.00     0.006 C 
BRANCH   3   4
ATOM      4  C   UNL     1      -1.509 -26.094   3.398  1.00  0.00     0.053 C 
BRANCH   4   5
ATOM      5  C   UNL     1      -1.992 -26.451   2.028  1.00  0.00     0.041 C 
ATOM      6  O   UNL     1      -2.047 -27.656   1.670  1.00  0.00    -0.550 OA
ATOM      7  O   UNL     1      -2.429 -25.455   1.165  1.00  0.00    -0.550 OA
ENDBRANCH   4   5
ENDBRANCH   3   4
ENDBRANCH   2   3
ENDBRANCH   1   2
BRANCH   1   8
ATOM      8  C   UNL     1       0.727 -26.992   7.682  1.00  0.00     0.000 C 
BRANCH   8   9
ATOM      9  C   UNL     1       0.160 -26.531   9.038  1.00  0.00     0.006 C 
BRANCH   9  10
ATOM     10  C   UNL     1      -1.327 -26.876   9.245  1.00  0.00     0.053 C 
BRANCH  10  11
ATOM     11  C   UNL     1      -1.884 -26.277  10.499  1.00  0.00     0.041 C 
ATOM     12  O   UNL     1      -3.083 -25.893  10.542  1.00  0.00    -0.550 OA
ATOM     13  O   UNL     1      -1.090 -26.173  11.635  1.00  0.00    -0.550 OA
ENDBRANCH  10  11
ENDBRANCH   9  10
ENDBRANCH   8   9
ENDBRANCH   1   8
TORSDOF 8
ENDMDL
MODEL 9
REMARK VINA RESULT:    -4.507      5.676      7.233
REMARK INTER + INTRA:          -6.908
REMARK INTER:                  -6.520
REMARK INTRA:                  -0.388
REMARK UNBOUND:                -0.293
REMARK SMILES O=C([O-])CCCCCCCC(=O)[O-]
REMARK SMILES IDX 7 1 6 2 5 3 4 4 2 5 1 6 3 7 8 8 9 9 10 10 11 11 12 12 13 13
REMARK H PARENT
REMARK Flexibility Score: inf
ROOT
ATOM      1  C   UNL     1      -0.289 -27.982   1.621  1.00  0.00     0.000 C 
ENDROOT
BRANCH   1   2
ATOM      2  C   UNL     1      -1.644 -27.508   2.176  1.00  0.00     0.000 C 
BRANCH   2   3
ATOM      3  C   UNL     1      -2.111 -26.179   1.562  1.00  0.00     0.006 C 
BRANCH   3   4
ATOM      4  C   UNL     1      -1.552 -26.002   0.148  1.00  0.00     0.053 C 
BRANCH   4   5
ATOM      5  C   UNL     1      -2.431 -25.096  -0.654  1.00  0.00     0.041 C 
ATOM      6  O   UNL     1      -2.282 -23.847  -0.589  1.00  0.00    -0.550 OA
ATOM      7  O   UNL     1      -3.383 -25.632  -1.511  1.00  0.00    -0.550 OA
ENDBRANCH   4   5
ENDBRANCH   3   4
ENDBRANCH   2   3
ENDBRANCH   1   2
BRANCH   1   8
ATOM      8  C   UNL     1      -0.096 -29.509   1.579  1.00  0.00     0.000 C 
BRANCH   8   9
ATOM      9  C   UNL     1       0.891 -30.079   2.617  1.00  0.00     0.006 C 
BRANCH   9  10
ATOM     10  C   UNL     1       1.479 -29.020   3.568  1.00  0.00     0.053 C 
BRANCH  10  11
ATOM     11  C   UNL     1       1.118 -29.273   5.000  1.00  0.00     0.041 C 
ATOM     12  O   UNL     1       2.002 -29.222   5.896  1.00  0.00    -0.550 OA
ATOM     13  O   UNL     1      -0.201 -29.530   5.350  1.00  0.00    -0.550 OA
ENDBRANCH  10  11
ENDBRANCH   9  10
ENDBRANCH   8   9
ENDBRANCH   1   8
TORSDOF 8
ENDMDL
