MODEL 1
REMARK VINA RESULT:    -5.100      0.000      0.000
REMARK INTER + INTRA:          -8.070
REMARK INTER:                  -7.336
REMARK INTRA:                  -0.734
REMARK UNBOUND:                -0.734
REMARK SMILES O=C(CO)[C@H](O)[C@H](O)[C@@H](O)CO
REMARK SMILES IDX 7 1 9 2 11 3 12 4 10 6 5 8 2 9 1 10 3 11 4 12 6 14 8 16
REMARK H PARENT 12 5 10 7 4 13 6 15 8 17
REMARK Flexibility Score: inf
ROOT
ATOM      1  C   UNL     1     -15.281 -10.356  -1.480  1.00  0.00     0.181 C 
ENDROOT
BRANCH   1   2
ATOM      2  C   UNL     1     -14.682  -9.070  -2.117  1.00  0.00     0.171 C 
BRANCH   2   3
ATOM      3  C   UNL     1     -15.070  -8.870  -3.592  1.00  0.00     0.190 C 
BRANCH   3   4
ATOM      4  O   UNL     1     -14.340  -9.746  -4.409  1.00  0.00    -0.394 OA
ATOM      5  H   UNL     1     -14.769 -10.638  -4.327  1.00  0.00     0.210 HD
ENDBRANCH   3   4
ENDBRANCH   2   3
BRANCH   2   6
ATOM      6  O   UNL     1     -13.280  -9.077  -2.011  1.00  0.00    -0.388 OA
ATOM      7  H   UNL     1     -12.930  -8.526  -2.760  1.00  0.00     0.211 HD
ENDBRANCH   2   6
ENDBRANCH   1   2
BRANCH   1   8
ATOM      8  C   UNL     1     -15.525 -10.267   0.058  1.00  0.00     0.214 C 
BRANCH   8   9
ATOM      9  C   UNL     1     -16.852  -9.595   0.364  1.00  0.00     0.189 C 
ATOM     10  O   UNL     1     -17.860 -10.282   0.434  1.00  0.00    -0.294 OA
BRANCH   9  11
ATOM     11  C   UNL     1     -16.950  -8.108   0.597  1.00  0.00     0.234 C 
BRANCH  11  12
ATOM     12  O   UNL     1     -16.270  -7.744   1.767  1.00  0.00    -0.388 OA
ATOM     13  H   UNL     1     -16.516  -6.801   1.947  1.00  0.00     0.211 HD
ENDBRANCH  11  12
ENDBRANCH   9  11
ENDBRANCH   8   9
BRANCH   8  14
ATOM     14  O   UNL     1     -14.463  -9.615   0.711  1.00  0.00    -0.382 OA
ATOM     15  H   UNL     1     -13.824 -10.308   1.022  1.00  0.00     0.211 HD
ENDBRANCH   8  14
ENDBRANCH   1   8
BRANCH   1  16
ATOM     16  O   UNL     1     -14.489 -11.472  -1.808  1.00  0.00    -0.387 OA
ATOM     17  H   UNL     1     -14.236 -11.930  -0.965  1.00  0.00     0.211 HD
ENDBRANCH   1  16
TORSDOF 10
ENDMDL
MODEL 2
REMARK VINA RESULT:    -5.077      2.697      4.755
REMARK INTER + INTRA:          -8.038
REMARK INTER:                  -6.643
REMARK INTRA:                  -1.395
REMARK UNBOUND:                -0.734
REMARK SMILES O=C(CO)[C@H](O)[C@H](O)[C@@H](O)CO
REMARK SMILES IDX 7 1 9 2 11 3 12 4 10 6 5 8 2 9 1 10 3 11 4 12 6 14 8 16
REMARK H PARENT 12 5 10 7 4 13 6 15 8 17
REMARK Flexibility Score: inf
ROOT
ATOM      1  C   UNL     1     -16.629 -11.234  -0.447  1.00  0.00     0.181 C 
ENDROOT
BRANCH   1   2
ATOM      2  C   UNL     1     -18.063 -10.946  -0.975  1.00  0.00     0.171 C 
BRANCH   2   3
ATOM      3  C   UNL     1     -19.128 -11.917  -0.437  1.00  0.00     0.190 C 
BRANCH   3   4
ATOM      4  O   UNL     1     -18.979 -13.179  -1.031  1.00  0.00    -0.394 OA
ATOM      5  H   UNL     1     -19.477 -13.151  -1.890  1.00  0.00     0.210 HD
ENDBRANCH   3   4
ENDBRANCH   2   3
BRANCH   2   6
ATOM      6  O   UNL     1     -18.085 -10.980  -2.380  1.00  0.00    -0.388 OA
ATOM      7  H   UNL     1     -17.619 -11.813  -2.657  1.00  0.00     0.211 HD
ENDBRANCH   2   6
ENDBRANCH   1   2
BRANCH   1   8
ATOM      8  C   UNL     1     -15.615 -11.694  -1.538  1.00  0.00     0.214 C 
BRANCH   8   9
ATOM      9  C   UNL     1     -15.357 -13.188  -1.452  1.00  0.00     0.189 C 
ATOM     10  O   UNL     1     -16.243 -13.961  -1.787  1.00  0.00    -0.294 OA
BRANCH   9  11
ATOM     11  C   UNL     1     -14.034 -13.736  -0.978  1.00  0.00     0.234 C 
BRANCH  11  12
ATOM     12  O   UNL     1     -13.792 -13.362   0.350  1.00  0.00    -0.388 OA
ATOM     13  H   UNL     1     -13.973 -12.388   0.400  1.00  0.00     0.211 HD
ENDBRANCH  11  12
ENDBRANCH   9  11
ENDBRANCH   8   9
BRANCH   8  14
ATOM     14  O   UNL     1     -14.413 -10.966  -1.464  1.00  0.00    -0.382 OA
ATOM     15  H   UNL     1     -14.573 -10.071  -1.861  1.00  0.00     0.211 HD
ENDBRANCH   8  14
ENDBRANCH   1   8
BRANCH   1  16
ATOM     16  O   UNL     1     -16.681 -12.149   0.621  1.00  0.00    -0.387 OA
ATOM     17  H   UNL     1     -17.634 -12.306   0.846  1.00  0.00     0.211 HD
ENDBRANCH   1  16
TORSDOF 10
ENDMDL
MODEL 3
REMARK VINA RESULT:    -5.037      1.765      3.919
REMARK INTER + INTRA:          -7.980
REMARK INTER:                  -6.978
REMARK INTRA:                  -1.001
REMARK UNBOUND:                -0.734
REMARK SMILES O=C(CO)[C@H](O)[C@H](O)[C@@H](O)CO
REMARK SMILES IDX 7 1 9 2 11 3 12 4 10 6 5 8 2 9 1 10 3 11 4 12 6 14 8 16
REMARK H PARENT 12 5 10 7 4 13 6 15 8 17
REMARK Flexibility Score: inf
ROOT
ATOM      1  C   UNL     1     -15.630 -10.678   0.028  1.00  0.00     0.181 C 
ENDROOT
BRANCH   1   2
ATOM      2  C   UNL     1     -15.263 -12.095  -0.498  1.00  0.00     0.171 C 
BRANCH   2   3
ATOM      3  C   UNL     1     -14.974 -13.115   0.618  1.00  0.00     0.190 C 
BRANCH   3   4
ATOM      4  O   UNL     1     -13.699 -12.894   1.160  1.00  0.00    -0.394 OA
ATOM      5  H   UNL     1     -13.801 -12.918   2.147  1.00  0.00     0.210 HD
ENDBRANCH   3   4
ENDBRANCH   2   3
BRANCH   2   6
ATOM      6  O   UNL     1     -14.148 -12.027  -1.352  1.00  0.00    -0.388 OA
ATOM      7  H   UNL     1     -13.947 -12.956  -1.640  1.00  0.00     0.211 HD
ENDBRANCH   2   6
ENDBRANCH   1   2
BRANCH   1   8
ATOM      8  C   UNL     1     -16.332  -9.759  -1.018  1.00  0.00     0.214 C 
BRANCH   8   9
ATOM      9  C   UNL     1     -15.452  -8.579  -1.389  1.00  0.00     0.189 C 
ATOM     10  O   UNL     1     -15.601  -7.521  -0.795  1.00  0.00    -0.294 OA
BRANCH   9  11
ATOM     11  C   UNL     1     -14.395  -8.686  -2.459  1.00  0.00     0.234 C 
BRANCH  11  12
ATOM     12  O   UNL     1     -13.177  -9.110  -1.910  1.00  0.00    -0.388 OA
ATOM     13  H   UNL     1     -12.938  -9.948  -2.384  1.00  0.00     0.211 HD
ENDBRANCH  11  12
ENDBRANCH   9  11
ENDBRANCH   8   9
BRANCH   8  14
ATOM     14  O   UNL     1     -17.592  -9.329  -0.562  1.00  0.00    -0.382 OA
ATOM     15  H   UNL     1     -18.284  -9.757  -1.130  1.00  0.00     0.211 HD
ENDBRANCH   8  14
ENDBRANCH   1   8
BRANCH   1  16
ATOM     16  O   UNL     1     -14.493 -10.055   0.575  1.00  0.00    -0.387 OA
ATOM     17  H   UNL     1     -14.730  -9.117   0.794  1.00  0.00     0.211 HD
ENDBRANCH   1  16
TORSDOF 10
ENDMDL
MODEL 4
REMARK VINA RESULT:    -4.992      2.229      3.630
REMARK INTER + INTRA:          -7.915
REMARK INTER:                  -6.860
REMARK INTRA:                  -1.055
REMARK UNBOUND:                -0.734
REMARK SMILES O=C(CO)[C@H](O)[C@H](O)[C@@H](O)CO
REMARK SMILES IDX 7 1 9 2 11 3 12 4 10 6 5 8 2 9 1 10 3 11 4 12 6 14 8 16
REMARK H PARENT 12 5 10 7 4 13 6 15 8 17
REMARK Flexibility Score: inf
ROOT
ATOM      1  C   UNL     1     -15.587 -11.232  -1.224  1.00  0.00     0.181 C 
ENDROOT
BRANCH   1   2
ATOM      2  C   UNL     1     -15.264  -9.855  -0.576  1.00  0.00     0.171 C 
BRANCH   2   3
ATOM      3  C   UNL     1     -14.596  -8.858  -1.538  1.00  0.00     0.190 C 
BRANCH   3   4
ATOM      4  O   UNL     1     -13.233  -9.155  -1.678  1.00  0.00    -0.394 OA
ATOM      5  H   UNL     1     -13.174 -10.114  -1.929  1.00  0.00     0.210 HD
ENDBRANCH   3   4
ENDBRANCH   2   3
BRANCH   2   6
ATOM      6  O   UNL     1     -14.437 -10.025   0.549  1.00  0.00    -0.388 OA
ATOM      7  H   UNL     1     -14.215  -9.117   0.885  1.00  0.00     0.211 HD
ENDBRANCH   2   6
ENDBRANCH   1   2
BRANCH   1   8
ATOM      8  C   UNL     1     -16.500 -12.157  -0.363  1.00  0.00     0.214 C 
BRANCH   8   9
ATOM      9  C   UNL     1     -15.752 -13.398   0.090  1.00  0.00     0.189 C 
ATOM     10  O   UNL     1     -15.772 -14.393  -0.621  1.00  0.00    -0.294 OA
BRANCH   9  11
ATOM     11  C   UNL     1     -14.980 -13.427   1.384  1.00  0.00     0.234 C 
BRANCH  11  12
ATOM     12  O   UNL     1     -13.680 -12.937   1.196  1.00  0.00    -0.388 OA
ATOM     13  H   UNL     1     -13.364 -13.316   0.336  1.00  0.00     0.211 HD
ENDBRANCH  11  12
ENDBRANCH   9  11
ENDBRANCH   8   9
BRANCH   8  14
ATOM     14  O   UNL     1     -17.681 -12.498  -1.049  1.00  0.00    -0.382 OA
ATOM     15  H   UNL     1     -17.735 -11.932  -1.863  1.00  0.00     0.211 HD
ENDBRANCH   8  14
ENDBRANCH   1   8
BRANCH   1  16
ATOM     16  O   UNL     1     -14.396 -11.886  -1.590  1.00  0.00    -0.387 OA
ATOM     17  H   UNL     1     -14.003 -11.402  -2.361  1.00  0.00     0.211 HD
ENDBRANCH   1  16
TORSDOF 10
ENDMDL
MODEL 5
REMARK VINA RESULT:    -4.984      1.843      4.061
REMARK INTER + INTRA:          -7.904
REMARK INTER:                  -6.531
REMARK INTRA:                  -1.373
REMARK UNBOUND:                -0.734
REMARK SMILES O=C(CO)[C@H](O)[C@H](O)[C@@H](O)CO
REMARK SMILES IDX 7 1 9 2 11 3 12 4 10 6 5 8 2 9 1 10 3 11 4 12 6 14 8 16
REMARK H PARENT 12 5 10 7 4 13 6 15 8 17
REMARK Flexibility Score: inf
ROOT
ATOM      1  C   UNL     1     -16.838 -11.045  -1.859  1.00  0.00     0.181 C 
ENDROOT
BRANCH   1   2
ATOM      2  C   UNL     1     -18.036 -11.248  -0.888  1.00  0.00     0.171 C 
BRANCH   2   3
ATOM      3  C   UNL     1     -19.161 -10.215  -1.067  1.00  0.00     0.190 C 
BRANCH   3   4
ATOM      4  O   UNL     1     -18.750  -8.962  -0.589  1.00  0.00    -0.394 OA
ATOM      5  H   UNL     1     -17.859  -9.094  -0.171  1.00  0.00     0.210 HD
ENDBRANCH   3   4
ENDBRANCH   2   3
BRANCH   2   6
ATOM      6  O   UNL     1     -17.596 -11.216   0.447  1.00  0.00    -0.388 OA
ATOM      7  H   UNL     1     -16.998 -11.999   0.574  1.00  0.00     0.211 HD
ENDBRANCH   2   6
ENDBRANCH   1   2
BRANCH   1   8
ATOM      8  C   UNL     1     -15.519 -10.573  -1.174  1.00  0.00     0.214 C 
BRANCH   8   9
ATOM      9  C   UNL     1     -15.240  -9.111  -1.471  1.00  0.00     0.189 C 
ATOM     10  O   UNL     1     -15.967  -8.259  -0.982  1.00  0.00    -0.294 OA
BRANCH   9  11
ATOM     11  C   UNL     1     -14.083  -8.687  -2.342  1.00  0.00     0.234 C 
BRANCH  11  12
ATOM     12  O   UNL     1     -14.255  -9.152  -3.653  1.00  0.00    -0.388 OA
ATOM     13  H   UNL     1     -15.233  -9.248  -3.785  1.00  0.00     0.211 HD
ENDBRANCH  11  12
ENDBRANCH   9  11
ENDBRANCH   8   9
BRANCH   8  14
ATOM     14  O   UNL     1     -14.429 -11.383  -1.543  1.00  0.00    -0.382 OA
ATOM     15  H   UNL     1     -14.684 -12.329  -1.385  1.00  0.00     0.211 HD
ENDBRANCH   8  14
ENDBRANCH   1   8
BRANCH   1  16
ATOM     16  O   UNL     1     -17.207 -10.183  -2.908  1.00  0.00    -0.387 OA
ATOM     17  H   UNL     1     -18.136  -9.877  -2.745  1.00  0.00     0.211 HD
ENDBRANCH   1  16
TORSDOF 10
ENDMDL
MODEL 6
REMARK VINA RESULT:    -4.967      3.081      5.129
REMARK INTER + INTRA:          -7.879
REMARK INTER:                  -7.151
REMARK INTRA:                  -0.729
REMARK UNBOUND:                -0.734
REMARK SMILES O=C(CO)[C@H](O)[C@H](O)[C@@H](O)CO
REMARK SMILES IDX 7 1 9 2 11 3 12 4 10 6 5 8 2 9 1 10 3 11 4 12 6 14 8 16
REMARK H PARENT 12 5 10 7 4 13 6 15 8 17
REMARK Flexibility Score: inf
ROOT
ATOM      1  C   UNL     1     -15.335 -11.948  -1.261  1.00  0.00     0.181 C 
ENDROOT
BRANCH   1   2
ATOM      2  C   UNL     1     -14.714 -13.318  -0.862  1.00  0.00     0.171 C 
BRANCH   2   3
ATOM      3  C   UNL     1     -14.670 -13.560   0.657  1.00  0.00     0.190 C 
BRANCH   3   4
ATOM      4  O   UNL     1     -13.627 -12.823   1.236  1.00  0.00    -0.394 OA
ATOM      5  H   UNL     1     -13.281 -12.214   0.532  1.00  0.00     0.210 HD
ENDBRANCH   3   4
ENDBRANCH   2   3
BRANCH   2   6
ATOM      6  O   UNL     1     -13.412 -13.435  -1.379  1.00  0.00    -0.388 OA
ATOM      7  H   UNL     1     -13.255 -12.639  -1.952  1.00  0.00     0.211 HD
ENDBRANCH   2   6
ENDBRANCH   1   2
BRANCH   1   8
ATOM      8  C   UNL     1     -16.011 -11.927  -2.666  1.00  0.00     0.214 C 
BRANCH   8   9
ATOM      9  C   UNL     1     -17.432 -12.458  -2.599  1.00  0.00     0.189 C 
ATOM     10  O   UNL     1     -18.348 -11.673  -2.401  1.00  0.00    -0.294 OA
BRANCH   9  11
ATOM     11  C   UNL     1     -17.737 -13.923  -2.784  1.00  0.00     0.234 C 
BRANCH  11  12
ATOM     12  O   UNL     1     -17.453 -14.327  -4.095  1.00  0.00    -0.388 OA
ATOM     13  H   UNL     1     -18.061 -13.807  -4.681  1.00  0.00     0.211 HD
ENDBRANCH  11  12
ENDBRANCH   9  11
ENDBRANCH   8   9
BRANCH   8  14
ATOM     14  O   UNL     1     -15.249 -12.632  -3.615  1.00  0.00    -0.382 OA
ATOM     15  H   UNL     1     -15.816 -13.359  -3.983  1.00  0.00     0.211 HD
ENDBRANCH   8  14
ENDBRANCH   1   8
BRANCH   1  16
ATOM     16  O   UNL     1     -14.374 -10.927  -1.140  1.00  0.00    -0.387 OA
ATOM     17  H   UNL     1     -14.594 -10.391  -0.336  1.00  0.00     0.211 HD
ENDBRANCH   1  16
TORSDOF 10
ENDMDL
MODEL 7
REMARK VINA RESULT:    -4.960      2.262      3.923
REMARK INTER + INTRA:          -7.870
REMARK INTER:                  -7.066
REMARK INTRA:                  -0.803
REMARK UNBOUND:                -0.734
REMARK SMILES O=C(CO)[C@H](O)[C@H](O)[C@@H](O)CO
REMARK SMILES IDX 7 1 9 2 11 3 12 4 10 6 5 8 2 9 1 10 3 11 4 12 6 14 8 16
REMARK H PARENT 12 5 10 7 4 13 6 15 8 17
REMARK Flexibility Score: inf
ROOT
ATOM      1  C   UNL     1     -15.671 -10.954  -0.456  1.00  0.00     0.181 C 
ENDROOT
BRANCH   1   2
ATOM      2  C   UNL     1     -15.230 -12.437  -0.613  1.00  0.00     0.171 C 
BRANCH   2   3
ATOM      3  C   UNL     1     -14.964 -13.150   0.724  1.00  0.00     0.190 C 
BRANCH   3   4
ATOM      4  O   UNL     1     -13.653 -12.898   1.157  1.00  0.00    -0.394 OA
ATOM      5  H   UNL     1     -13.597 -11.924   1.346  1.00  0.00     0.210 HD
ENDBRANCH   3   4
ENDBRANCH   2   3
BRANCH   2   6
ATOM      6  O   UNL     1     -14.076 -12.524  -1.412  1.00  0.00    -0.388 OA
ATOM      7  H   UNL     1     -13.442 -13.124  -0.940  1.00  0.00     0.211 HD
ENDBRANCH   2   6
ENDBRANCH   1   2
BRANCH   1   8
ATOM      8  C   UNL     1     -15.894 -10.196  -1.801  1.00  0.00     0.214 C 
BRANCH   8   9
ATOM      9  C   UNL     1     -16.872  -9.048  -1.628  1.00  0.00     0.189 C 
ATOM     10  O   UNL     1     -16.524  -7.921  -1.949  1.00  0.00    -0.294 OA
BRANCH   9  11
ATOM     11  C   UNL     1     -18.261  -9.268  -1.084  1.00  0.00     0.234 C 
BRANCH  11  12
ATOM     12  O   UNL     1     -19.058  -9.943  -2.019  1.00  0.00    -0.388 OA
ATOM     13  H   UNL     1     -19.697 -10.490  -1.493  1.00  0.00     0.211 HD
ENDBRANCH  11  12
ENDBRANCH   9  11
ENDBRANCH   8   9
BRANCH   8  14
ATOM     14  O   UNL     1     -16.313 -11.071  -2.821  1.00  0.00    -0.382 OA
ATOM     15  H   UNL     1     -16.448 -10.536  -3.645  1.00  0.00     0.211 HD
ENDBRANCH   8  14
ENDBRANCH   1   8
BRANCH   1  16
ATOM     16  O   UNL     1     -14.767 -10.265   0.375  1.00  0.00    -0.387 OA
ATOM     17  H   UNL     1     -15.011 -10.451   1.317  1.00  0.00     0.211 HD
ENDBRANCH   1  16
TORSDOF 10
ENDMDL
MODEL 8
REMARK VINA RESULT:    -4.897      2.364      3.886
REMARK INTER + INTRA:          -7.778
REMARK INTER:                  -6.763
REMARK INTRA:                  -1.016
REMARK UNBOUND:                -0.734
REMARK SMILES O=C(CO)[C@H](O)[C@H](O)[C@@H](O)CO
REMARK SMILES IDX 7 1 9 2 11 3 12 4 10 6 5 8 2 9 1 10 3 11 4 12 6 14 8 16
REMARK H PARENT 12 5 10 7 4 13 6 15 8 17
REMARK Flexibility Score: inf
ROOT
ATOM      1  C   UNL     1     -16.551 -10.706  -0.013  1.00  0.00     0.181 C 
ENDROOT
BRANCH   1   2
ATOM      2  C   UNL     1     -16.922  -9.323  -0.622  1.00  0.00     0.171 C 
BRANCH   2   3
ATOM      3  C   UNL     1     -17.675  -9.417  -1.961  1.00  0.00     0.190 C 
BRANCH   3   4
ATOM      4  O   UNL     1     -19.004  -9.807  -1.744  1.00  0.00    -0.394 OA
ATOM      5  H   UNL     1     -19.383  -9.173  -1.080  1.00  0.00     0.210 HD
ENDBRANCH   3   4
ENDBRANCH   2   3
BRANCH   2   6
ATOM      6  O   UNL     1     -15.767  -8.542  -0.803  1.00  0.00    -0.388 OA
ATOM      7  H   UNL     1     -16.070  -7.636  -1.075  1.00  0.00     0.211 HD
ENDBRANCH   2   6
ENDBRANCH   1   2
BRANCH   1   8
ATOM      8  C   UNL     1     -15.762 -11.648  -0.972  1.00  0.00     0.214 C 
BRANCH   8   9
ATOM      9  C   UNL     1     -15.623 -13.040  -0.382  1.00  0.00     0.189 C 
ATOM     10  O   UNL     1     -16.626 -13.725  -0.242  1.00  0.00    -0.294 OA
BRANCH   9  11
ATOM     11  C   UNL     1     -14.281 -13.598   0.021  1.00  0.00     0.234 C 
BRANCH  11  12
ATOM     12  O   UNL     1     -13.745 -12.871   1.093  1.00  0.00    -0.388 OA
ATOM     13  H   UNL     1     -12.773 -13.068   1.101  1.00  0.00     0.211 HD
ENDBRANCH  11  12
ENDBRANCH   9  11
ENDBRANCH   8   9
BRANCH   8  14
ATOM     14  O   UNL     1     -14.505 -11.110  -1.303  1.00  0.00    -0.382 OA
ATOM     15  H   UNL     1     -14.644 -10.177  -1.612  1.00  0.00     0.211 HD
ENDBRANCH   8  14
ENDBRANCH   1   8
BRANCH   1  16
ATOM     16  O   UNL     1     -17.705 -11.337   0.490  1.00  0.00    -0.387 OA
ATOM     17  H   UNL     1     -18.335 -11.474  -0.264  1.00  0.00     0.211 HD
ENDBRANCH   1  16
TORSDOF 10
ENDMDL
MODEL 9
REMARK VINA RESULT:    -4.874      2.327      3.411
REMARK INTER + INTRA:          -7.745
REMARK INTER:                  -6.594
REMARK INTRA:                  -1.151
REMARK UNBOUND:                -0.734
REMARK SMILES O=C(CO)[C@H](O)[C@H](O)[C@@H](O)CO
REMARK SMILES IDX 7 1 9 2 11 3 12 4 10 6 5 8 2 9 1 10 3 11 4 12 6 14 8 16
REMARK H PARENT 12 5 10 7 4 13 6 15 8 17
REMARK Flexibility Score: inf
ROOT
ATOM      1  C   UNL     1     -15.476 -11.574  -2.383  1.00  0.00     0.181 C 
ENDROOT
BRANCH   1   2
ATOM      2  C   UNL     1     -16.335 -10.557  -3.188  1.00  0.00     0.171 C 
BRANCH   2   3
ATOM      3  C   UNL     1     -15.592  -9.257  -3.539  1.00  0.00     0.190 C 
BRANCH   3   4
ATOM      4  O   UNL     1     -14.500  -9.532  -4.375  1.00  0.00    -0.394 OA
ATOM      5  H   UNL     1     -14.432 -10.520  -4.440  1.00  0.00     0.210 HD
ENDBRANCH   3   4
ENDBRANCH   2   3
BRANCH   2   6
ATOM      6  O   UNL     1     -17.506 -10.236  -2.479  1.00  0.00    -0.388 OA
ATOM      7  H   UNL     1     -17.847 -11.081  -2.085  1.00  0.00     0.211 HD
ENDBRANCH   2   6
ENDBRANCH   1   2
BRANCH   1   8
ATOM      8  C   UNL     1     -16.295 -12.556  -1.492  1.00  0.00     0.214 C 
BRANCH   8   9
ATOM      9  C   UNL     1     -16.104 -12.248  -0.017  1.00  0.00     0.189 C 
ATOM     10  O   UNL     1     -16.633 -11.251   0.452  1.00  0.00    -0.294 OA
BRANCH   9  11
ATOM     11  C   UNL     1     -15.290 -13.147   0.879  1.00  0.00     0.234 C 
BRANCH  11  12
ATOM     12  O   UNL     1     -13.972 -13.250   0.411  1.00  0.00    -0.388 OA
ATOM     13  H   UNL     1     -13.454 -13.676   1.141  1.00  0.00     0.211 HD
ENDBRANCH  11  12
ENDBRANCH   9  11
ENDBRANCH   8   9
BRANCH   8  14
ATOM     14  O   UNL     1     -15.977 -13.896  -1.776  1.00  0.00    -0.382 OA
ATOM     15  H   UNL     1     -16.792 -14.334  -2.137  1.00  0.00     0.211 HD
ENDBRANCH   8  14
ENDBRANCH   1   8
BRANCH   1  16
ATOM     16  O   UNL     1     -14.500 -10.893  -1.631  1.00  0.00    -0.387 OA
ATOM     17  H   UNL     1     -13.607 -11.156  -1.973  1.00  0.00     0.211 HD
ENDBRANCH   1  16
TORSDOF 10
ENDMDL
