MODEL 1
REMARK VINA RESULT:    -3.569      0.000      0.000
REMARK INTER + INTRA:          -6.426
REMARK INTER:                  -5.655
REMARK INTRA:                  -0.771
REMARK UNBOUND:                -0.771
REMARK SMILES CCCCCCCCCCCC(=O)[O-]
REMARK SMILES IDX 7 1 8 2 9 3 10 4 11 5 12 6 13 7 14 8 6 9 5 10 4 11 3 12 2 13
REMARK SMILES IDX 1 14
REMARK H PARENT
REMARK Flexibility Score: inf
ROOT
ATOM      1  C   UNL     1      17.593 -13.028 186.442  1.00  0.00     0.000 C 
ENDROOT
BRANCH   1   2
ATOM      2  C   UNL     1      18.112 -11.598 186.663  1.00  0.00     0.000 C 
BRANCH   2   3
ATOM      3  C   UNL     1      19.445 -11.565 187.430  1.00  0.00     0.000 C 
BRANCH   3   4
ATOM      4  C   UNL     1      19.923 -10.133 187.718  1.00  0.00     0.006 C 
BRANCH   4   5
ATOM      5  C   UNL     1      19.885  -9.237 186.474  1.00  0.00     0.053 C 
BRANCH   5   6
ATOM      6  C   UNL     1      19.168  -7.958 186.774  1.00  0.00     0.041 C 
ATOM      7  O   UNL     1      17.936  -7.967 187.031  1.00  0.00    -0.550 OA
ATOM      8  O   UNL     1      19.852  -6.750 186.724  1.00  0.00    -0.550 OA
ENDBRANCH   5   6
ENDBRANCH   4   5
ENDBRANCH   3   4
ENDBRANCH   2   3
ENDBRANCH   1   2
BRANCH   1   9
ATOM      9  C   UNL     1      18.613 -14.098 186.860  1.00  0.00     0.000 C 
BRANCH   9  10
ATOM     10  C   UNL     1      17.982 -15.496 186.840  1.00  0.00    -0.000 C 
BRANCH  10  11
ATOM     11  C   UNL     1      16.505 -15.425 186.421  1.00  0.00    -0.000 C 
BRANCH  11  12
ATOM     12  C   UNL     1      15.564 -16.055 187.461  1.00  0.00    -0.000 C 
BRANCH  12  13
ATOM     13  C   UNL     1      15.539 -15.275 188.783  1.00  0.00    -0.003 C 
ATOM     14  C   UNL     1      16.076 -16.125 189.932  1.00  0.00     0.004 C 
ENDBRANCH  12  13
ENDBRANCH  11  12
ENDBRANCH  10  11
ENDBRANCH   9  10
ENDBRANCH   1   9
TORSDOF 10
ENDMDL
MODEL 2
REMARK VINA RESULT:    -3.512      1.961      2.211
REMARK INTER + INTRA:          -6.337
REMARK INTER:                  -5.684
REMARK INTRA:                  -0.653
REMARK UNBOUND:                -0.771
REMARK SMILES CCCCCCCCCCCC(=O)[O-]
REMARK SMILES IDX 7 1 8 2 9 3 10 4 11 5 12 6 13 7 14 8 6 9 5 10 4 11 3 12 2 13
REMARK SMILES IDX 1 14
REMARK H PARENT
REMARK Flexibility Score: inf
ROOT
ATOM      1  C   UNL     1      17.894 -12.197 186.952  1.00  0.00     0.000 C 
ENDROOT
BRANCH   1   2
ATOM      2  C   UNL     1      19.390 -12.050 187.272  1.00  0.00     0.000 C 
BRANCH   2   3
ATOM      3  C   UNL     1      19.793 -10.594 187.560  1.00  0.00     0.000 C 
BRANCH   3   4
ATOM      4  C   UNL     1      19.079 -10.018 188.794  1.00  0.00     0.006 C 
BRANCH   4   5
ATOM      5  C   UNL     1      18.889  -8.498 188.708  1.00  0.00     0.053 C 
BRANCH   5   6
ATOM      6  C   UNL     1      19.056  -7.875 190.059  1.00  0.00     0.041 C 
ATOM      7  O   UNL     1      18.474  -6.793 190.333  1.00  0.00    -0.550 OA
ATOM      8  O   UNL     1      19.891  -8.466 190.998  1.00  0.00    -0.550 OA
ENDBRANCH   5   6
ENDBRANCH   4   5
ENDBRANCH   3   4
ENDBRANCH   2   3
ENDBRANCH   1   2
BRANCH   1   9
ATOM      9  C   UNL     1      17.515 -13.630 186.543  1.00  0.00     0.000 C 
BRANCH   9  10
ATOM     10  C   UNL     1      18.640 -14.614 186.886  1.00  0.00    -0.000 C 
BRANCH  10  11
ATOM     11  C   UNL     1      18.067 -15.958 187.363  1.00  0.00    -0.000 C 
BRANCH  11  12
ATOM     12  C   UNL     1      16.542 -15.918 187.549  1.00  0.00    -0.000 C 
BRANCH  12  13
ATOM     13  C   UNL     1      16.125 -15.964 189.026  1.00  0.00    -0.003 C 
ATOM     14  C   UNL     1      15.001 -14.971 189.310  1.00  0.00     0.004 C 
ENDBRANCH  12  13
ENDBRANCH  11  12
ENDBRANCH  10  11
ENDBRANCH   9  10
ENDBRANCH   1   9
TORSDOF 10
ENDMDL
MODEL 3
REMARK VINA RESULT:    -3.505      1.830      3.033
REMARK INTER + INTRA:          -6.325
REMARK INTER:                  -5.271
REMARK INTRA:                  -1.054
REMARK UNBOUND:                -0.771
REMARK SMILES CCCCCCCCCCCC(=O)[O-]
REMARK SMILES IDX 7 1 8 2 9 3 10 4 11 5 12 6 13 7 14 8 6 9 5 10 4 11 3 12 2 13
REMARK SMILES IDX 1 14
REMARK H PARENT
REMARK Flexibility Score: inf
ROOT
ATOM      1  C   UNL     1      18.516 -13.986 186.849  1.00  0.00     0.000 C 
ENDROOT
BRANCH   1   2
ATOM      2  C   UNL     1      18.254 -12.473 186.909  1.00  0.00     0.000 C 
BRANCH   2   3
ATOM      3  C   UNL     1      19.490 -11.677 187.365  1.00  0.00     0.000 C 
BRANCH   3   4
ATOM      4  C   UNL     1      19.124 -10.483 188.261  1.00  0.00     0.006 C 
BRANCH   4   5
ATOM      5  C   UNL     1      18.126  -9.530 187.593  1.00  0.00     0.053 C 
BRANCH   5   6
ATOM      6  C   UNL     1      18.772  -8.817 186.447  1.00  0.00     0.041 C 
ATOM      7  O   UNL     1      19.812  -8.132 186.632  1.00  0.00    -0.550 OA
ATOM      8  O   UNL     1      18.199  -8.871 185.182  1.00  0.00    -0.550 OA
ENDBRANCH   5   6
ENDBRANCH   4   5
ENDBRANCH   3   4
ENDBRANCH   2   3
ENDBRANCH   1   2
BRANCH   1   9
ATOM      9  C   UNL     1      17.265 -14.816 187.183  1.00  0.00     0.000 C 
BRANCH   9  10
ATOM     10  C   UNL     1      15.991 -13.980 187.010  1.00  0.00    -0.000 C 
BRANCH  10  11
ATOM     11  C   UNL     1      15.068 -14.599 185.949  1.00  0.00    -0.000 C 
BRANCH  11  12
ATOM     12  C   UNL     1      15.106 -13.837 184.615  1.00  0.00    -0.000 C 
BRANCH  12  13
ATOM     13  C   UNL     1      15.150 -12.314 184.805  1.00  0.00    -0.003 C 
ATOM     14  C   UNL     1      16.178 -11.674 183.875  1.00  0.00     0.004 C 
ENDBRANCH  12  13
ENDBRANCH  11  12
ENDBRANCH  10  11
ENDBRANCH   9  10
ENDBRANCH   1   9
TORSDOF 10
ENDMDL
MODEL 4
REMARK VINA RESULT:    -3.504      1.365      2.083
REMARK INTER + INTRA:          -6.324
REMARK INTER:                  -5.265
REMARK INTRA:                  -1.058
REMARK UNBOUND:                -0.771
REMARK SMILES CCCCCCCCCCCC(=O)[O-]
REMARK SMILES IDX 7 1 8 2 9 3 10 4 11 5 12 6 13 7 14 8 6 9 5 10 4 11 3 12 2 13
REMARK SMILES IDX 1 14
REMARK H PARENT
REMARK Flexibility Score: inf
ROOT
ATOM      1  C   UNL     1      16.892 -11.515 187.253  1.00  0.00     0.000 C 
ENDROOT
BRANCH   1   2
ATOM      2  C   UNL     1      18.226 -11.830 186.557  1.00  0.00     0.000 C 
BRANCH   2   3
ATOM      3  C   UNL     1      19.434 -11.674 187.496  1.00  0.00     0.000 C 
BRANCH   3   4
ATOM      4  C   UNL     1      19.806 -10.203 187.739  1.00  0.00     0.006 C 
BRANCH   4   5
ATOM      5  C   UNL     1      19.784  -9.370 186.451  1.00  0.00     0.053 C 
BRANCH   5   6
ATOM      6  C   UNL     1      18.904  -8.171 186.620  1.00  0.00     0.041 C 
ATOM      7  O   UNL     1      18.106  -7.837 185.705  1.00  0.00    -0.550 OA
ATOM      8  O   UNL     1      18.999  -7.395 187.768  1.00  0.00    -0.550 OA
ENDBRANCH   5   6
ENDBRANCH   4   5
ENDBRANCH   3   4
ENDBRANCH   2   3
ENDBRANCH   1   2
BRANCH   1   9
ATOM      9  C   UNL     1      15.674 -11.931 186.412  1.00  0.00     0.000 C 
BRANCH   9  10
ATOM     10  C   UNL     1      15.977 -13.192 185.593  1.00  0.00    -0.000 C 
BRANCH  10  11
ATOM     11  C   UNL     1      15.557 -14.457 186.358  1.00  0.00    -0.000 C 
BRANCH  11  12
ATOM     12  C   UNL     1      16.606 -15.576 186.272  1.00  0.00    -0.000 C 
BRANCH  12  13
ATOM     13  C   UNL     1      17.585 -15.560 187.455  1.00  0.00    -0.003 C 
ATOM     14  C   UNL     1      19.024 -15.389 186.974  1.00  0.00     0.004 C 
ENDBRANCH  12  13
ENDBRANCH  11  12
ENDBRANCH  10  11
ENDBRANCH   9  10
ENDBRANCH   1   9
TORSDOF 10
ENDMDL
MODEL 5
REMARK VINA RESULT:    -3.489      3.360      5.808
REMARK INTER + INTRA:          -6.300
REMARK INTER:                  -4.781
REMARK INTRA:                  -1.519
REMARK UNBOUND:                -0.771
REMARK SMILES CCCCCCCCCCCC(=O)[O-]
REMARK SMILES IDX 7 1 8 2 9 3 10 4 11 5 12 6 13 7 14 8 6 9 5 10 4 11 3 12 2 13
REMARK SMILES IDX 1 14
REMARK H PARENT
REMARK Flexibility Score: inf
ROOT
ATOM      1  C   UNL     1      19.175  -8.597 188.314  1.00  0.00     0.000 C 
ENDROOT
BRANCH   1   2
ATOM      2  C   UNL     1      19.210 -10.115 188.551  1.00  0.00     0.000 C 
BRANCH   2   3
ATOM      3  C   UNL     1      19.699 -10.895 187.319  1.00  0.00     0.000 C 
BRANCH   3   4
ATOM      4  C   UNL     1      19.300 -12.379 187.364  1.00  0.00     0.006 C 
BRANCH   4   5
ATOM      5  C   UNL     1      18.033 -12.673 186.551  1.00  0.00     0.053 C 
BRANCH   5   6
ATOM      6  C   UNL     1      17.559 -14.068 186.811  1.00  0.00     0.041 C 
ATOM      7  O   UNL     1      18.347 -15.041 186.678  1.00  0.00    -0.550 OA
ATOM      8  O   UNL     1      16.233 -14.298 187.155  1.00  0.00    -0.550 OA
ENDBRANCH   5   6
ENDBRANCH   4   5
ENDBRANCH   3   4
ENDBRANCH   2   3
ENDBRANCH   1   2
BRANCH   1   9
ATOM      9  C   UNL     1      19.266  -8.229 186.824  1.00  0.00     0.000 C 
BRANCH   9  10
ATOM     10  C   UNL     1      17.886  -7.856 186.266  1.00  0.00    -0.000 C 
BRANCH  10  11
ATOM     11  C   UNL     1      17.400  -8.908 185.258  1.00  0.00    -0.000 C 
BRANCH  11  12
ATOM     12  C   UNL     1      16.167  -9.679 185.756  1.00  0.00    -0.000 C 
BRANCH  12  13
ATOM     13  C   UNL     1      15.705  -9.219 187.146  1.00  0.00    -0.003 C 
ATOM     14  C   UNL     1      15.604 -10.399 188.109  1.00  0.00     0.004 C 
ENDBRANCH  12  13
ENDBRANCH  11  12
ENDBRANCH  10  11
ENDBRANCH   9  10
ENDBRANCH   1   9
TORSDOF 10
ENDMDL
MODEL 6
REMARK VINA RESULT:    -3.469      1.954      3.397
REMARK INTER + INTRA:          -6.268
REMARK INTER:                  -5.301
REMARK INTRA:                  -0.967
REMARK UNBOUND:                -0.771
REMARK SMILES CCCCCCCCCCCC(=O)[O-]
REMARK SMILES IDX 7 1 8 2 9 3 10 4 11 5 12 6 13 7 14 8 6 9 5 10 4 11 3 12 2 13
REMARK SMILES IDX 1 14
REMARK H PARENT
REMARK Flexibility Score: inf
ROOT
ATOM      1  C   UNL     1      17.881 -15.730 186.858  1.00  0.00     0.000 C 
ENDROOT
BRANCH   1   2
ATOM      2  C   UNL     1      18.851 -14.561 187.088  1.00  0.00     0.000 C 
BRANCH   2   3
ATOM      3  C   UNL     1      18.176 -13.189 186.917  1.00  0.00     0.000 C 
BRANCH   3   4
ATOM      4  C   UNL     1      19.121 -12.022 187.244  1.00  0.00     0.006 C 
BRANCH   4   5
ATOM      5  C   UNL     1      18.367 -10.742 187.624  1.00  0.00     0.053 C 
BRANCH   5   6
ATOM      6  C   UNL     1      19.321  -9.704 188.126  1.00  0.00     0.041 C 
ATOM      7  O   UNL     1      19.369  -9.427 189.353  1.00  0.00    -0.550 OA
ATOM      8  O   UNL     1      20.124  -9.008 187.231  1.00  0.00    -0.550 OA
ENDBRANCH   5   6
ENDBRANCH   4   5
ENDBRANCH   3   4
ENDBRANCH   2   3
ENDBRANCH   1   2
BRANCH   1   9
ATOM      9  C   UNL     1      16.440 -15.260 186.600  1.00  0.00     0.000 C 
BRANCH   9  10
ATOM     10  C   UNL     1      15.798 -16.059 185.459  1.00  0.00    -0.000 C 
BRANCH  10  11
ATOM     11  C   UNL     1      15.177 -15.119 184.413  1.00  0.00    -0.000 C 
BRANCH  11  12
ATOM     12  C   UNL     1      14.920 -13.708 184.965  1.00  0.00    -0.000 C 
BRANCH  12  13
ATOM     13  C   UNL     1      15.626 -12.616 184.147  1.00  0.00    -0.003 C 
ATOM     14  C   UNL     1      15.516 -11.258 184.835  1.00  0.00     0.004 C 
ENDBRANCH  12  13
ENDBRANCH  11  12
ENDBRANCH  10  11
ENDBRANCH   9  10
ENDBRANCH   1   9
TORSDOF 10
ENDMDL
MODEL 7
REMARK VINA RESULT:    -3.452      1.738      2.481
REMARK INTER + INTRA:          -6.241
REMARK INTER:                  -5.519
REMARK INTRA:                  -0.723
REMARK UNBOUND:                -0.771
REMARK SMILES CCCCCCCCCCCC(=O)[O-]
REMARK SMILES IDX 7 1 8 2 9 3 10 4 11 5 12 6 13 7 14 8 6 9 5 10 4 11 3 12 2 13
REMARK SMILES IDX 1 14
REMARK H PARENT
REMARK Flexibility Score: inf
ROOT
ATOM      1  C   UNL     1      17.839 -12.779 186.210  1.00  0.00     0.000 C 
ENDROOT
BRANCH   1   2
ATOM      2  C   UNL     1      18.174 -11.386 186.766  1.00  0.00     0.000 C 
BRANCH   2   3
ATOM      3  C   UNL     1      19.588 -11.314 187.368  1.00  0.00     0.000 C 
BRANCH   3   4
ATOM      4  C   UNL     1      20.046  -9.869 187.626  1.00  0.00     0.006 C 
BRANCH   4   5
ATOM      5  C   UNL     1      18.870  -8.910 187.847  1.00  0.00     0.053 C 
BRANCH   5   6
ATOM      6  C   UNL     1      18.954  -8.287 189.205  1.00  0.00     0.041 C 
ATOM      7  O   UNL     1      18.408  -7.174 189.427  1.00  0.00    -0.550 OA
ATOM      8  O   UNL     1      19.675  -8.912 190.214  1.00  0.00    -0.550 OA
ENDBRANCH   5   6
ENDBRANCH   4   5
ENDBRANCH   3   4
ENDBRANCH   2   3
ENDBRANCH   1   2
BRANCH   1   9
ATOM      9  C   UNL     1      18.639 -13.898 186.898  1.00  0.00     0.000 C 
BRANCH   9  10
ATOM     10  C   UNL     1      17.846 -15.211 186.910  1.00  0.00    -0.000 C 
BRANCH  10  11
ATOM     11  C   UNL     1      16.397 -14.973 187.362  1.00  0.00    -0.000 C 
BRANCH  11  12
ATOM     12  C   UNL     1      15.375 -15.725 186.493  1.00  0.00    -0.000 C 
BRANCH  12  13
ATOM     13  C   UNL     1      15.945 -16.125 185.124  1.00  0.00    -0.003 C 
ATOM     14  C   UNL     1      15.012 -15.696 183.995  1.00  0.00     0.004 C 
ENDBRANCH  12  13
ENDBRANCH  11  12
ENDBRANCH  10  11
ENDBRANCH   9  10
ENDBRANCH   1   9
TORSDOF 10
ENDMDL
MODEL 8
REMARK VINA RESULT:    -3.430     18.445     20.353
REMARK INTER + INTRA:          -6.207
REMARK INTER:                  -4.664
REMARK INTRA:                  -1.543
REMARK UNBOUND:                -0.771
REMARK SMILES CCCCCCCCCCCC(=O)[O-]
REMARK SMILES IDX 7 1 8 2 9 3 10 4 11 5 12 6 13 7 14 8 6 9 5 10 4 11 3 12 2 13
REMARK SMILES IDX 1 14
REMARK H PARENT
REMARK Flexibility Score: inf
ROOT
ATOM      1  C   UNL     1      15.103  -2.096 201.771  1.00  0.00     0.000 C 
ENDROOT
BRANCH   1   2
ATOM      2  C   UNL     1      13.975  -2.906 202.430  1.00  0.00     0.000 C 
BRANCH   2   3
ATOM      3  C   UNL     1      13.544  -2.325 203.787  1.00  0.00     0.000 C 
BRANCH   3   4
ATOM      4  C   UNL     1      12.086  -1.841 203.785  1.00  0.00     0.006 C 
BRANCH   4   5
ATOM      5  C   UNL     1      11.397  -2.055 202.431  1.00  0.00     0.053 C 
BRANCH   5   6
ATOM      6  C   UNL     1      10.805  -0.771 201.939  1.00  0.00     0.041 C 
ATOM      7  O   UNL     1      10.540   0.156 202.749  1.00  0.00    -0.550 OA
ATOM      8  O   UNL     1      10.503  -0.616 200.592  1.00  0.00    -0.550 OA
ENDBRANCH   5   6
ENDBRANCH   4   5
ENDBRANCH   3   4
ENDBRANCH   2   3
ENDBRANCH   1   2
BRANCH   1   9
ATOM      9  C   UNL     1      16.328  -1.937 202.685  1.00  0.00     0.000 C 
BRANCH   9  10
ATOM     10  C   UNL     1      16.831  -0.488 202.682  1.00  0.00    -0.000 C 
BRANCH  10  11
ATOM     11  C   UNL     1      16.159   0.329 203.797  1.00  0.00    -0.000 C 
BRANCH  11  12
ATOM     12  C   UNL     1      15.427   1.570 203.261  1.00  0.00    -0.000 C 
BRANCH  12  13
ATOM     13  C   UNL     1      13.967   1.278 202.884  1.00  0.00    -0.003 C 
ATOM     14  C   UNL     1      13.777   1.299 201.369  1.00  0.00     0.004 C 
ENDBRANCH  12  13
ENDBRANCH  11  12
ENDBRANCH  10  11
ENDBRANCH   9  10
ENDBRANCH   1   9
TORSDOF 10
ENDMDL
MODEL 9
REMARK VINA RESULT:    -3.401      3.552      6.670
REMARK INTER + INTRA:          -6.160
REMARK INTER:                  -5.122
REMARK INTRA:                  -1.038
REMARK UNBOUND:                -0.771
REMARK SMILES CCCCCCCCCCCC(=O)[O-]
REMARK SMILES IDX 7 1 8 2 9 3 10 4 11 5 12 6 13 7 14 8 6 9 5 10 4 11 3 12 2 13
REMARK SMILES IDX 1 14
REMARK H PARENT
REMARK Flexibility Score: inf
ROOT
ATOM      1  C   UNL     1      18.909 -12.274 187.240  1.00  0.00     0.000 C 
ENDROOT
BRANCH   1   2
ATOM      2  C   UNL     1      17.462 -11.946 186.840  1.00  0.00     0.000 C 
BRANCH   2   3
ATOM      3  C   UNL     1      16.896 -12.933 185.804  1.00  0.00     0.000 C 
BRANCH   3   4
ATOM      4  C   UNL     1      16.194 -14.134 186.458  1.00  0.00     0.006 C 
BRANCH   4   5
ATOM      5  C   UNL     1      16.911 -15.461 186.176  1.00  0.00     0.053 C 
BRANCH   5   6
ATOM      6  C   UNL     1      17.833 -15.805 187.304  1.00  0.00     0.041 C 
ATOM      7  O   UNL     1      19.077 -15.850 187.114  1.00  0.00    -0.550 OA
ATOM      8  O   UNL     1      17.314 -16.122 188.553  1.00  0.00    -0.550 OA
ENDBRANCH   5   6
ENDBRANCH   4   5
ENDBRANCH   3   4
ENDBRANCH   2   3
ENDBRANCH   1   2
BRANCH   1   9
ATOM      9  C   UNL     1      19.755 -11.014 187.484  1.00  0.00     0.000 C 
BRANCH   9  10
ATOM     10  C   UNL     1      19.019 -10.028 188.399  1.00  0.00    -0.000 C 
BRANCH  10  11
ATOM     11  C   UNL     1      18.883  -8.652 187.728  1.00  0.00    -0.000 C 
BRANCH  11  12
ATOM     12  C   UNL     1      19.167  -8.701 186.218  1.00  0.00    -0.000 C 
BRANCH  12  13
ATOM     13  C   UNL     1      17.899  -8.510 185.372  1.00  0.00    -0.003 C 
ATOM     14  C   UNL     1      16.674  -8.299 186.259  1.00  0.00     0.004 C 
ENDBRANCH  12  13
ENDBRANCH  11  12
ENDBRANCH  10  11
ENDBRANCH   9  10
ENDBRANCH   1   9
TORSDOF 10
ENDMDL
