MODEL 1
REMARK VINA RESULT:    -6.054      0.000      0.000
REMARK INTER + INTRA:          -6.054
REMARK INTER:                  -6.054
REMARK INTRA:                   0.000
REMARK UNBOUND:                 0.000
REMARK SMILES C=C1CCC[C@@]2(C)Cc3occ(C)c3C[C@H]12
REMARK SMILES IDX 13 1 12 2 11 3 10 4 9 5 14 6 15 7 16 8 2 9 1 10 3 11 4 12
REMARK SMILES IDX 5 13 6 14 8 15 7 16
REMARK H PARENT
REMARK Flexibility Score: inf
ROOT
ATOM      1  C   UNL     1     -30.389  57.139   5.068  1.00  0.00     0.048 C 
ATOM      2  C   UNL     1     -31.009  57.252   3.714  1.00  0.00    -0.009 A 
ATOM      3  C   UNL     1     -32.360  57.352   3.424  1.00  0.00     0.198 A 
ATOM      4  O   UNL     1     -32.529  57.405   2.119  1.00  0.00    -0.469 OA
ATOM      5  C   UNL     1     -31.349  57.337   1.546  1.00  0.00     0.107 A 
ATOM      6  C   UNL     1     -30.365  57.211   2.496  1.00  0.00    -0.003 A 
ATOM      7  C   UNL     1     -28.897  57.189   2.201  1.00  0.00     0.048 C 
ATOM      8  C   UNL     1     -28.652  56.860   0.700  1.00  0.00     0.025 C 
ATOM      9  C   UNL     1     -27.197  56.978   0.245  1.00  0.00    -0.073 C 
ATOM     10  C   UNL     1     -26.167  57.196   1.086  1.00  0.00     0.008 C 
ATOM     11  C   UNL     1     -26.912  56.678  -1.209  1.00  0.00     0.031 C 
ATOM     12  C   UNL     1     -27.845  57.475  -2.125  1.00  0.00     0.005 C 
ATOM     13  C   UNL     1     -29.318  57.294  -1.728  1.00  0.00     0.008 C 
ATOM     14  C   UNL     1     -29.601  57.684  -0.248  1.00  0.00    -0.019 C 
ATOM     15  C   UNL     1     -31.090  57.336   0.071  1.00  0.00     0.083 C 
ATOM     16  C   UNL     1     -29.392  59.212  -0.063  1.00  0.00     0.012 C 
ENDROOT
TORSDOF 0
ENDMDL
MODEL 2
REMARK VINA RESULT:    -5.961     12.463     15.368
REMARK INTER + INTRA:          -5.961
REMARK INTER:                  -5.961
REMARK INTRA:                   0.000
REMARK UNBOUND:                 0.000
REMARK SMILES C=C1CCC[C@@]2(C)Cc3occ(C)c3C[C@H]12
REMARK SMILES IDX 13 1 12 2 11 3 10 4 9 5 14 6 15 7 16 8 2 9 1 10 3 11 4 12
REMARK SMILES IDX 5 13 6 14 8 15 7 16
REMARK H PARENT
REMARK Flexibility Score: inf
ROOT
ATOM      1  C   UNL     1     -19.086  58.653  -4.278  1.00  0.00     0.048 C 
ATOM      2  C   UNL     1     -17.746  59.139  -4.725  1.00  0.00    -0.009 A 
ATOM      3  C   UNL     1     -17.185  58.991  -5.983  1.00  0.00     0.198 A 
ATOM      4  O   UNL     1     -15.980  59.523  -5.994  1.00  0.00    -0.469 OA
ATOM      5  C   UNL     1     -15.729  60.006  -4.799  1.00  0.00     0.107 A 
ATOM      6  C   UNL     1     -16.789  59.768  -3.958  1.00  0.00    -0.003 A 
ATOM      7  C   UNL     1     -16.877  60.253  -2.543  1.00  0.00     0.048 C 
ATOM      8  C   UNL     1     -15.466  60.639  -2.015  1.00  0.00     0.025 C 
ATOM      9  C   UNL     1     -15.454  61.310  -0.641  1.00  0.00    -0.073 C 
ATOM     10  C   UNL     1     -16.546  61.428   0.140  1.00  0.00     0.008 C 
ATOM     11  C   UNL     1     -14.105  61.712  -0.091  1.00  0.00     0.031 C 
ATOM     12  C   UNL     1     -13.321  62.538  -1.115  1.00  0.00     0.005 C 
ATOM     13  C   UNL     1     -13.254  61.832  -2.478  1.00  0.00     0.008 C 
ATOM     14  C   UNL     1     -14.658  61.497  -3.060  1.00  0.00    -0.019 C 
ATOM     15  C   UNL     1     -14.458  60.673  -4.371  1.00  0.00     0.083 C 
ATOM     16  C   UNL     1     -15.406  62.815  -3.405  1.00  0.00     0.012 C 
ENDROOT
TORSDOF 0
ENDMDL
MODEL 3
REMARK VINA RESULT:    -5.908      1.440      4.679
REMARK INTER + INTRA:          -5.908
REMARK INTER:                  -5.908
REMARK INTRA:                   0.000
REMARK UNBOUND:                 0.000
REMARK SMILES C=C1CCC[C@@]2(C)Cc3occ(C)c3C[C@H]12
REMARK SMILES IDX 13 1 12 2 11 3 10 4 9 5 14 6 15 7 16 8 2 9 1 10 3 11 4 12
REMARK SMILES IDX 5 13 6 14 8 15 7 16
REMARK H PARENT
REMARK Flexibility Score: inf
ROOT
ATOM      1  C   UNL     1     -27.817  57.670  -2.010  1.00  0.00     0.048 C 
ATOM      2  C   UNL     1     -29.119  57.341  -1.356  1.00  0.00    -0.009 A 
ATOM      3  C   UNL     1     -30.275  56.899  -1.979  1.00  0.00     0.198 A 
ATOM      4  O   UNL     1     -31.226  56.741  -1.082  1.00  0.00    -0.469 OA
ATOM      5  C   UNL     1     -30.744  57.066   0.095  1.00  0.00     0.107 A 
ATOM      6  C   UNL     1     -29.438  57.475  -0.022  1.00  0.00    -0.003 A 
ATOM      7  C   UNL     1     -28.555  57.840   1.132  1.00  0.00     0.048 C 
ATOM      8  C   UNL     1     -29.412  58.142   2.394  1.00  0.00     0.025 C 
ATOM      9  C   UNL     1     -28.611  58.359   3.679  1.00  0.00    -0.073 C 
ATOM     10  C   UNL     1     -27.266  58.441   3.715  1.00  0.00     0.008 C 
ATOM     11  C   UNL     1     -29.402  58.645   4.935  1.00  0.00     0.031 C 
ATOM     12  C   UNL     1     -30.502  57.599   5.138  1.00  0.00     0.005 C 
ATOM     13  C   UNL     1     -31.367  57.436   3.880  1.00  0.00     0.008 C 
ATOM     14  C   UNL     1     -30.539  57.064   2.616  1.00  0.00    -0.019 C 
ATOM     15  C   UNL     1     -31.502  57.055   1.387  1.00  0.00     0.083 C 
ATOM     16  C   UNL     1     -29.933  55.644   2.790  1.00  0.00     0.012 C 
ENDROOT
TORSDOF 0
ENDMDL
MODEL 4
REMARK VINA RESULT:    -5.895     12.809     15.623
REMARK INTER + INTRA:          -5.895
REMARK INTER:                  -5.895
REMARK INTRA:                   0.000
REMARK UNBOUND:                 0.000
REMARK SMILES C=C1CCC[C@@]2(C)Cc3occ(C)c3C[C@H]12
REMARK SMILES IDX 13 1 12 2 11 3 10 4 9 5 14 6 15 7 16 8 2 9 1 10 3 11 4 12
REMARK SMILES IDX 5 13 6 14 8 15 7 16
REMARK H PARENT
REMARK Flexibility Score: inf
ROOT
ATOM      1  C   UNL     1     -17.499  58.597  -5.868  1.00  0.00     0.048 C 
ATOM      2  C   UNL     1     -17.488  59.134  -4.474  1.00  0.00    -0.009 A 
ATOM      3  C   UNL     1     -18.399  58.854  -3.468  1.00  0.00     0.198 A 
ATOM      4  O   UNL     1     -18.082  59.533  -2.385  1.00  0.00    -0.469 OA
ATOM      5  C   UNL     1     -17.011  60.247  -2.642  1.00  0.00     0.107 A 
ATOM      6  C   UNL     1     -16.613  60.057  -3.943  1.00  0.00    -0.003 A 
ATOM      7  C   UNL     1     -15.381  60.653  -4.551  1.00  0.00     0.048 C 
ATOM      8  C   UNL     1     -14.881  61.851  -3.694  1.00  0.00     0.025 C 
ATOM      9  C   UNL     1     -13.532  62.431  -4.123  1.00  0.00    -0.073 C 
ATOM     10  C   UNL     1     -12.881  62.056  -5.242  1.00  0.00     0.008 C 
ATOM     11  C   UNL     1     -13.001  63.591  -3.313  1.00  0.00     0.031 C 
ATOM     12  C   UNL     1     -13.011  63.263  -1.817  1.00  0.00     0.005 C 
ATOM     13  C   UNL     1     -14.388  62.761  -1.357  1.00  0.00     0.008 C 
ATOM     14  C   UNL     1     -14.879  61.518  -2.155  1.00  0.00    -0.019 C 
ATOM     15  C   UNL     1     -16.332  61.184  -1.690  1.00  0.00     0.083 C 
ATOM     16  C   UNL     1     -13.961  60.304  -1.843  1.00  0.00     0.012 C 
ENDROOT
TORSDOF 0
ENDMDL
MODEL 5
REMARK VINA RESULT:    -5.801     13.172     14.791
REMARK INTER + INTRA:          -5.801
REMARK INTER:                  -5.801
REMARK INTRA:                   0.000
REMARK UNBOUND:                 0.000
REMARK SMILES C=C1CCC[C@@]2(C)Cc3occ(C)c3C[C@H]12
REMARK SMILES IDX 13 1 12 2 11 3 10 4 9 5 14 6 15 7 16 8 2 9 1 10 3 11 4 12
REMARK SMILES IDX 5 13 6 14 8 15 7 16
REMARK H PARENT
REMARK Flexibility Score: inf
ROOT
ATOM      1  C   UNL     1     -20.873  48.475  13.123  1.00  0.00     0.048 C 
ATOM      2  C   UNL     1     -21.513  48.353  11.779  1.00  0.00    -0.009 A 
ATOM      3  C   UNL     1     -22.784  47.875  11.503  1.00  0.00     0.198 A 
ATOM      4  O   UNL     1     -22.989  47.891  10.202  1.00  0.00    -0.469 OA
ATOM      5  C   UNL     1     -21.907  48.352   9.618  1.00  0.00     0.107 A 
ATOM      6  C   UNL     1     -20.942  48.631  10.556  1.00  0.00    -0.003 A 
ATOM      7  C   UNL     1     -19.612  49.247  10.249  1.00  0.00     0.048 C 
ATOM      8  C   UNL     1     -19.284  49.102   8.736  1.00  0.00     0.025 C 
ATOM      9  C   UNL     1     -18.030  49.846   8.274  1.00  0.00    -0.073 C 
ATOM     10  C   UNL     1     -17.174  50.458   9.116  1.00  0.00     0.008 C 
ATOM     11  C   UNL     1     -17.678  49.742   6.808  1.00  0.00     0.031 C 
ATOM     12  C   UNL     1     -18.882  50.091   5.930  1.00  0.00     0.005 C 
ATOM     13  C   UNL     1     -20.128  49.285   6.331  1.00  0.00     0.008 C 
ATOM     14  C   UNL     1     -20.516  49.470   7.826  1.00  0.00    -0.019 C 
ATOM     15  C   UNL     1     -21.706  48.509   8.142  1.00  0.00     0.083 C 
ATOM     16  C   UNL     1     -20.976  50.934   8.067  1.00  0.00     0.012 C 
ENDROOT
TORSDOF 0
ENDMDL
MODEL 6
REMARK VINA RESULT:    -5.674      2.000      5.393
REMARK INTER + INTRA:          -5.674
REMARK INTER:                  -5.674
REMARK INTRA:                   0.000
REMARK UNBOUND:                 0.000
REMARK SMILES C=C1CCC[C@@]2(C)Cc3occ(C)c3C[C@H]12
REMARK SMILES IDX 13 1 12 2 11 3 10 4 9 5 14 6 15 7 16 8 2 9 1 10 3 11 4 12
REMARK SMILES IDX 5 13 6 14 8 15 7 16
REMARK H PARENT
REMARK Flexibility Score: inf
ROOT
ATOM      1  C   UNL     1     -28.895  57.249  -3.371  1.00  0.00     0.048 C 
ATOM      2  C   UNL     1     -28.100  57.225  -2.107  1.00  0.00    -0.009 A 
ATOM      3  C   UNL     1     -26.724  57.116  -1.992  1.00  0.00     0.198 A 
ATOM      4  O   UNL     1     -26.387  57.102  -0.718  1.00  0.00    -0.469 OA
ATOM      5  C   UNL     1     -27.483  57.190   0.001  1.00  0.00     0.107 A 
ATOM      6  C   UNL     1     -28.586  57.242  -0.817  1.00  0.00    -0.003 A 
ATOM      7  C   UNL     1     -29.992  57.426  -0.336  1.00  0.00     0.048 C 
ATOM      8  C   UNL     1     -30.094  57.090   1.179  1.00  0.00     0.025 C 
ATOM      9  C   UNL     1     -31.447  57.407   1.819  1.00  0.00    -0.073 C 
ATOM     10  C   UNL     1     -32.529  57.801   1.119  1.00  0.00     0.008 C 
ATOM     11  C   UNL     1     -31.589  57.106   3.293  1.00  0.00     0.031 C 
ATOM     12  C   UNL     1     -30.440  57.727   4.092  1.00  0.00     0.005 C 
ATOM     13  C   UNL     1     -29.072  57.344   3.507  1.00  0.00     0.008 C 
ATOM     14  C   UNL     1     -28.921  57.734   2.008  1.00  0.00    -0.019 C 
ATOM     15  C   UNL     1     -27.553  57.181   1.497  1.00  0.00     0.083 C 
ATOM     16  C   UNL     1     -28.919  59.282   1.871  1.00  0.00     0.012 C 
ENDROOT
TORSDOF 0
ENDMDL
MODEL 7
REMARK VINA RESULT:    -5.628     15.012     17.263
REMARK INTER + INTRA:          -5.628
REMARK INTER:                  -5.628
REMARK INTRA:                   0.000
REMARK UNBOUND:                 0.000
REMARK SMILES C=C1CCC[C@@]2(C)Cc3occ(C)c3C[C@H]12
REMARK SMILES IDX 13 1 12 2 11 3 10 4 9 5 14 6 15 7 16 8 2 9 1 10 3 11 4 12
REMARK SMILES IDX 5 13 6 14 8 15 7 16
REMARK H PARENT
REMARK Flexibility Score: inf
ROOT
ATOM      1  C   UNL     1     -15.650  48.270   7.877  1.00  0.00     0.048 C 
ATOM      2  C   UNL     1     -16.182  48.161   9.269  1.00  0.00    -0.009 A 
ATOM      3  C   UNL     1     -15.445  47.989  10.429  1.00  0.00     0.198 A 
ATOM      4  O   UNL     1     -16.260  47.908  11.461  1.00  0.00    -0.469 OA
ATOM      5  C   UNL     1     -17.494  48.014  11.023  1.00  0.00     0.107 A 
ATOM      6  C   UNL     1     -17.504  48.145   9.656  1.00  0.00    -0.003 A 
ATOM      7  C   UNL     1     -18.735  48.370   8.833  1.00  0.00     0.048 C 
ATOM      8  C   UNL     1     -20.005  47.977   9.641  1.00  0.00     0.025 C 
ATOM      9  C   UNL     1     -21.332  48.325   8.965  1.00  0.00    -0.073 C 
ATOM     10  C   UNL     1     -21.427  48.793   7.705  1.00  0.00     0.008 C 
ATOM     11  C   UNL     1     -22.594  47.970   9.718  1.00  0.00     0.031 C 
ATOM     12  C   UNL     1     -22.545  48.509  11.150  1.00  0.00     0.005 C 
ATOM     13  C   UNL     1     -21.252  48.092  11.868  1.00  0.00     0.008 C 
ATOM     14  C   UNL     1     -19.967  48.536  11.113  1.00  0.00    -0.019 C 
ATOM     15  C   UNL     1     -18.732  47.947  11.865  1.00  0.00     0.083 C 
ATOM     16  C   UNL     1     -19.867  50.087  11.122  1.00  0.00     0.012 C 
ENDROOT
TORSDOF 0
ENDMDL
MODEL 8
REMARK VINA RESULT:    -5.491     14.583     15.623
REMARK INTER + INTRA:          -5.491
REMARK INTER:                  -5.491
REMARK INTRA:                   0.000
REMARK UNBOUND:                 0.000
REMARK SMILES C=C1CCC[C@@]2(C)Cc3occ(C)c3C[C@H]12
REMARK SMILES IDX 13 1 12 2 11 3 10 4 9 5 14 6 15 7 16 8 2 9 1 10 3 11 4 12
REMARK SMILES IDX 5 13 6 14 8 15 7 16
REMARK H PARENT
REMARK Flexibility Score: inf
ROOT
ATOM      1  C   UNL     1     -16.776  51.992   8.443  1.00  0.00     0.048 C 
ATOM      2  C   UNL     1     -17.614  50.826   8.033  1.00  0.00    -0.009 A 
ATOM      3  C   UNL     1     -17.425  50.013   6.927  1.00  0.00     0.198 A 
ATOM      4  O   UNL     1     -18.379  49.107   6.877  1.00  0.00    -0.469 OA
ATOM      5  C   UNL     1     -19.184  49.296   7.898  1.00  0.00     0.107 A 
ATOM      6  C   UNL     1     -18.768  50.376   8.638  1.00  0.00    -0.003 A 
ATOM      7  C   UNL     1     -19.406  50.826   9.916  1.00  0.00     0.048 C 
ATOM      8  C   UNL     1     -20.836  50.228  10.047  1.00  0.00     0.025 C 
ATOM      9  C   UNL     1     -21.518  50.480  11.393  1.00  0.00    -0.073 C 
ATOM     10  C   UNL     1     -21.010  51.283  12.348  1.00  0.00     0.008 C 
ATOM     11  C   UNL     1     -22.906  49.908  11.570  1.00  0.00     0.031 C 
ATOM     12  C   UNL     1     -22.936  48.422  11.205  1.00  0.00     0.005 C 
ATOM     13  C   UNL     1     -22.329  48.168   9.816  1.00  0.00     0.008 C 
ATOM     14  C   UNL     1     -20.872  48.697   9.683  1.00  0.00    -0.019 C 
ATOM     15  C   UNL     1     -20.416  48.500   8.203  1.00  0.00     0.083 C 
ATOM     16  C   UNL     1     -19.934  47.875  10.610  1.00  0.00     0.012 C 
ENDROOT
TORSDOF 0
ENDMDL
MODEL 9
REMARK VINA RESULT:    -5.231     13.683     15.638
REMARK INTER + INTRA:          -5.231
REMARK INTER:                  -5.231
REMARK INTRA:                   0.000
REMARK UNBOUND:                 0.000
REMARK SMILES C=C1CCC[C@@]2(C)Cc3occ(C)c3C[C@H]12
REMARK SMILES IDX 13 1 12 2 11 3 10 4 9 5 14 6 15 7 16 8 2 9 1 10 3 11 4 12
REMARK SMILES IDX 5 13 6 14 8 15 7 16
REMARK H PARENT
REMARK Flexibility Score: inf
ROOT
ATOM      1  C   UNL     1     -18.028  53.851  11.631  1.00  0.00     0.048 C 
ATOM      2  C   UNL     1     -18.246  52.415  11.982  1.00  0.00    -0.009 A 
ATOM      3  C   UNL     1     -17.738  51.741  13.080  1.00  0.00     0.198 A 
ATOM      4  O   UNL     1     -18.121  50.482  13.040  1.00  0.00    -0.469 OA
ATOM      5  C   UNL     1     -18.850  50.304  11.963  1.00  0.00     0.107 A 
ATOM      6  C   UNL     1     -18.938  51.475  11.249  1.00  0.00    -0.003 A 
ATOM      7  C   UNL     1     -19.759  51.655  10.010  1.00  0.00     0.048 C 
ATOM      8  C   UNL     1     -20.111  50.273   9.388  1.00  0.00     0.025 C 
ATOM      9  C   UNL     1     -21.090  50.326   8.215  1.00  0.00    -0.073 C 
ATOM     10  C   UNL     1     -21.511  51.472   7.645  1.00  0.00     0.008 C 
ATOM     11  C   UNL     1     -21.470  49.005   7.585  1.00  0.00     0.031 C 
ATOM     12  C   UNL     1     -21.933  48.005   8.648  1.00  0.00     0.005 C 
ATOM     13  C   UNL     1     -20.914  47.881   9.791  1.00  0.00     0.008 C 
ATOM     14  C   UNL     1     -20.598  49.243  10.475  1.00  0.00    -0.019 C 
ATOM     15  C   UNL     1     -19.463  49.011  11.522  1.00  0.00     0.083 C 
ATOM     16  C   UNL     1     -21.864  49.760  11.213  1.00  0.00     0.012 C 
ENDROOT
TORSDOF 0
ENDMDL
