MODEL 1
REMARK VINA RESULT:    -8.269      0.000      0.000
REMARK INTER + INTRA:          -9.302
REMARK INTER:                  -8.995
REMARK INTRA:                  -0.308
REMARK UNBOUND:                -0.308
REMARK SMILES C[C@@H]1[C@@H](C)CC[C@@]2(C(=O)[O-])CC[C@]3(C)C(=CC[C@@H]4[C@]5(C)CC[C@@H](O)C(C)(C)[C@@H]5CC[C@@]43C)[C@@H]12
REMARK SMILES IDX 7 1 6 2 11 3 33 4 5 5 12 6 15 7 2 8 3 9 13 10 16 11 1 12
REMARK SMILES IDX 4 13 14 14 31 15 17 16 18 17 30 18 32 19 19 20 29 21 28 22
REMARK SMILES IDX 21 23 20 24 25 25 22 26 23 27 26 28 27 29 8 30 9 31 10 32
REMARK SMILES IDX 24 33
REMARK H PARENT 24 34
REMARK Flexibility Score: inf
ROOT
ATOM      1  C   UNL     1      -9.657  15.347   1.276  1.00  0.00     0.017 C 
ATOM      2  C   UNL     1      -9.944  16.873   1.262  1.00  0.00     0.014 C 
ATOM      3  C   UNL     1     -10.631  14.681   0.265  1.00  0.00     0.014 C 
ATOM      4  C   UNL     1      -8.138  15.099   0.888  1.00  0.00     0.030 C 
ATOM      5  C   UNL     1      -9.102  17.662   2.280  1.00  0.00     0.004 C 
ATOM      6  C   UNL     1     -10.156  13.292  -0.190  1.00  0.00     0.013 C 
ATOM      7  C   UNL     1      -8.002  14.577  -0.571  1.00  0.00    -0.063 C 
ATOM      8  C   UNL     1      -7.190  16.296   1.289  1.00  0.00    -0.003 C 
ATOM      9  C   UNL     1      -7.716  17.032   2.553  1.00  0.00    -0.011 C 
ATOM     10  C   UNL     1      -8.763  13.290  -0.936  1.00  0.00    -0.006 C 
ATOM     11  C   UNL     1      -7.115  15.102  -1.442  1.00  0.00    -0.027 C 
ATOM     12  C   UNL     1      -5.745  15.785   1.503  1.00  0.00     0.008 C 
ATOM     13  C   UNL     1      -6.754  18.122   3.062  1.00  0.00     0.008 C 
ATOM     14  C   UNL     1      -7.906  12.126  -0.334  1.00  0.00     0.017 C 
ATOM     15  C   UNL     1      -8.947  13.093  -2.532  1.00  0.00    -0.020 C 
ATOM     16  C   UNL     1      -7.006  14.719  -2.882  1.00  0.00     0.032 C 
ATOM     17  C   UNL     1      -7.588  13.332  -3.285  1.00  0.00     0.006 C 
ATOM     18  C   UNL     1      -9.977  14.115  -3.121  1.00  0.00     0.008 C 
ATOM     19  C   UNL     1      -9.461  11.629  -2.772  1.00  0.00     0.012 C 
ATOM     20  C   UNL     1      -7.652  13.099  -4.892  1.00  0.00    -0.025 C 
ATOM     21  C   UNL     1      -9.814  14.495  -4.619  1.00  0.00     0.005 C 
ATOM     22  C   UNL     1      -9.097  13.430  -5.490  1.00  0.00     0.003 C 
ATOM     23  C   UNL     1      -6.545  13.957  -5.608  1.00  0.00     0.010 C 
ATOM     24  C   UNL     1      -7.302  11.597  -5.164  1.00  0.00     0.012 C 
ATOM     25  C   UNL     1      -9.175  13.702  -7.068  1.00  0.00    -0.006 C 
ATOM     26  C   UNL     1      -6.640  14.006  -7.130  1.00  0.00     0.033 C 
ATOM     27  C   UNL     1      -7.988  14.582  -7.556  1.00  0.00     0.120 C 
ATOM     28  C   UNL     1      -9.212  12.354  -7.848  1.00  0.00     0.014 C 
ATOM     29  C   UNL     1     -10.494  14.427  -7.460  1.00  0.00     0.014 C 
ENDROOT
BRANCH   1  30
ATOM     30  C   UNL     1      -9.987  14.774   2.657  1.00  0.00     0.048 C 
ATOM     31  O   UNL     1      -9.210  13.959   3.222  1.00  0.00    -0.550 OA
ATOM     32  O   UNL     1     -11.202  15.060   3.268  1.00  0.00    -0.550 OA
ENDBRANCH   1  30
BRANCH  27  33
ATOM     33  O   UNL     1      -7.988  14.707  -8.958  1.00  0.00    -0.393 OA
ATOM     34  H   UNL     1      -8.300  13.843  -9.334  1.00  0.00     0.210 HD
ENDBRANCH  27  33
TORSDOF 2
ENDMDL
MODEL 2
REMARK VINA RESULT:    -7.133      1.677      8.115
REMARK INTER + INTRA:          -8.066
REMARK INTER:                  -7.807
REMARK INTRA:                  -0.259
REMARK UNBOUND:                -0.308
REMARK SMILES C[C@@H]1[C@@H](C)CC[C@@]2(C(=O)[O-])CC[C@]3(C)C(=CC[C@@H]4[C@]5(C)CC[C@@H](O)C(C)(C)[C@@H]5CC[C@@]43C)[C@@H]12
REMARK SMILES IDX 7 1 6 2 11 3 33 4 5 5 12 6 15 7 2 8 3 9 13 10 16 11 1 12
REMARK SMILES IDX 4 13 14 14 31 15 17 16 18 17 30 18 32 19 19 20 29 21 28 22
REMARK SMILES IDX 21 23 20 24 25 25 22 26 23 27 26 28 27 29 8 30 9 31 10 32
REMARK SMILES IDX 24 33
REMARK H PARENT 24 34
REMARK Flexibility Score: inf
ROOT
ATOM      1  C   UNL     1      -8.284  13.492  -5.404  1.00  0.00     0.017 C 
ATOM      2  C   UNL     1      -8.576  14.770  -6.237  1.00  0.00     0.014 C 
ATOM      3  C   UNL     1      -7.063  13.798  -4.494  1.00  0.00     0.014 C 
ATOM      4  C   UNL     1      -9.574  13.115  -4.558  1.00  0.00     0.030 C 
ATOM      5  C   UNL     1      -9.722  14.589  -7.249  1.00  0.00     0.004 C 
ATOM      6  C   UNL     1      -6.960  12.843  -3.296  1.00  0.00     0.013 C 
ATOM      7  C   UNL     1      -9.401  13.493  -3.060  1.00  0.00    -0.063 C 
ATOM      8  C   UNL     1     -10.921  13.574  -5.241  1.00  0.00    -0.003 C 
ATOM      9  C   UNL     1     -10.796  13.576  -6.790  1.00  0.00    -0.011 C 
ATOM     10  C   UNL     1      -8.196  12.894  -2.313  1.00  0.00    -0.006 C 
ATOM     11  C   UNL     1     -10.352  14.160  -2.373  1.00  0.00    -0.027 C 
ATOM     12  C   UNL     1     -12.090  12.671  -4.778  1.00  0.00     0.008 C 
ATOM     13  C   UNL     1     -12.125  13.887  -7.504  1.00  0.00     0.008 C 
ATOM     14  C   UNL     1      -8.608  11.416  -1.995  1.00  0.00     0.017 C 
ATOM     15  C   UNL     1      -7.836  13.688  -0.949  1.00  0.00    -0.020 C 
ATOM     16  C   UNL     1     -10.207  14.644  -0.967  1.00  0.00     0.032 C 
ATOM     17  C   UNL     1      -9.129  13.940  -0.091  1.00  0.00     0.006 C 
ATOM     18  C   UNL     1      -7.212  15.093  -1.252  1.00  0.00     0.008 C 
ATOM     19  C   UNL     1      -6.805  12.814  -0.151  1.00  0.00     0.012 C 
ATOM     20  C   UNL     1      -8.867  14.681   1.331  1.00  0.00    -0.025 C 
ATOM     21  C   UNL     1      -7.393  16.191  -0.167  1.00  0.00     0.005 C 
ATOM     22  C   UNL     1      -7.603  15.659   1.275  1.00  0.00     0.003 C 
ATOM     23  C   UNL     1     -10.155  15.463   1.780  1.00  0.00     0.010 C 
ATOM     24  C   UNL     1      -8.620  13.566   2.404  1.00  0.00     0.012 C 
ATOM     25  C   UNL     1      -7.515  16.783   2.415  1.00  0.00    -0.006 C 
ATOM     26  C   UNL     1      -9.973  16.384   2.983  1.00  0.00     0.033 C 
ATOM     27  C   UNL     1      -8.903  17.432   2.687  1.00  0.00     0.120 C 
ATOM     28  C   UNL     1      -6.929  16.178   3.726  1.00  0.00     0.014 C 
ATOM     29  C   UNL     1      -6.529  17.920   2.024  1.00  0.00     0.014 C 
ENDROOT
BRANCH   1  30
ATOM     30  C   UNL     1      -7.870  12.353  -6.339  1.00  0.00     0.048 C 
ATOM     31  O   UNL     1      -7.050  12.549  -7.275  1.00  0.00    -0.550 OA
ATOM     32  O   UNL     1      -8.471  11.103  -6.240  1.00  0.00    -0.550 OA
ENDBRANCH   1  30
BRANCH  27  33
ATOM     33  O   UNL     1      -8.845  18.321   3.777  1.00  0.00    -0.393 OA
ATOM     34  H   UNL     1      -9.273  17.870   4.552  1.00  0.00     0.210 HD
ENDBRANCH  27  33
TORSDOF 2
ENDMDL
MODEL 3
REMARK VINA RESULT:    -6.810      1.865      3.160
REMARK INTER + INTRA:          -7.715
REMARK INTER:                  -7.408
REMARK INTRA:                  -0.307
REMARK UNBOUND:                -0.308
REMARK SMILES C[C@@H]1[C@@H](C)CC[C@@]2(C(=O)[O-])CC[C@]3(C)C(=CC[C@@H]4[C@]5(C)CC[C@@H](O)C(C)(C)[C@@H]5CC[C@@]43C)[C@@H]12
REMARK SMILES IDX 7 1 6 2 11 3 33 4 5 5 12 6 15 7 2 8 3 9 13 10 16 11 1 12
REMARK SMILES IDX 4 13 14 14 31 15 17 16 18 17 30 18 32 19 19 20 29 21 28 22
REMARK SMILES IDX 21 23 20 24 25 25 22 26 23 27 26 28 27 29 8 30 9 31 10 32
REMARK SMILES IDX 24 33
REMARK H PARENT 24 34
REMARK Flexibility Score: inf
ROOT
ATOM      1  C   UNL     1      -8.355  16.728   2.292  1.00  0.00     0.017 C 
ATOM      2  C   UNL     1      -6.882  17.063   2.651  1.00  0.00     0.014 C 
ATOM      3  C   UNL     1      -8.613  17.250   0.852  1.00  0.00     0.014 C 
ATOM      4  C   UNL     1      -8.576  15.160   2.404  1.00  0.00     0.030 C 
ATOM      5  C   UNL     1      -6.501  16.672   4.091  1.00  0.00     0.004 C 
ATOM      6  C   UNL     1      -9.826  16.581   0.187  1.00  0.00     0.013 C 
ATOM      7  C   UNL     1      -8.636  14.493   1.001  1.00  0.00    -0.063 C 
ATOM      8  C   UNL     1      -7.626  14.472   3.461  1.00  0.00    -0.003 C 
ATOM      9  C   UNL     1      -7.277  15.445   4.622  1.00  0.00    -0.011 C 
ATOM     10  C   UNL     1      -9.695  15.016   0.014  1.00  0.00    -0.006 C 
ATOM     11  C   UNL     1      -7.932  13.381   0.703  1.00  0.00    -0.027 C 
ATOM     12  C   UNL     1      -8.275  13.174   3.999  1.00  0.00     0.008 C 
ATOM     13  C   UNL     1      -6.463  14.778   5.746  1.00  0.00     0.008 C 
ATOM     14  C   UNL     1     -11.043  14.374   0.486  1.00  0.00     0.017 C 
ATOM     15  C   UNL     1      -9.383  14.614  -1.523  1.00  0.00    -0.020 C 
ATOM     16  C   UNL     1      -7.864  12.752  -0.650  1.00  0.00     0.032 C 
ATOM     17  C   UNL     1      -9.019  13.089  -1.639  1.00  0.00     0.006 C 
ATOM     18  C   UNL     1      -8.161  15.416  -2.088  1.00  0.00     0.008 C 
ATOM     19  C   UNL     1     -10.665  14.941  -2.368  1.00  0.00     0.012 C 
ATOM     20  C   UNL     1      -8.745  12.570  -3.154  1.00  0.00    -0.025 C 
ATOM     21  C   UNL     1      -7.355  14.751  -3.238  1.00  0.00     0.005 C 
ATOM     22  C   UNL     1      -8.150  13.724  -4.087  1.00  0.00     0.003 C 
ATOM     23  C   UNL     1      -7.787  11.323  -3.135  1.00  0.00     0.010 C 
ATOM     24  C   UNL     1     -10.112  12.076  -3.737  1.00  0.00     0.012 C 
ATOM     25  C   UNL     1      -7.404  13.251  -5.425  1.00  0.00    -0.006 C 
ATOM     26  C   UNL     1      -7.269  10.875  -4.498  1.00  0.00     0.033 C 
ATOM     27  C   UNL     1      -6.500  12.010  -5.169  1.00  0.00     0.120 C 
ATOM     28  C   UNL     1      -8.444  12.947  -6.545  1.00  0.00     0.014 C 
ATOM     29  C   UNL     1      -6.506  14.379  -6.009  1.00  0.00     0.014 C 
ENDROOT
BRANCH   1  30
ATOM     30  C   UNL     1      -9.298  17.498   3.221  1.00  0.00     0.048 C 
ATOM     31  O   UNL     1     -10.284  16.928   3.761  1.00  0.00    -0.550 OA
ATOM     32  O   UNL     1      -9.148  18.868   3.402  1.00  0.00    -0.550 OA
ENDBRANCH   1  30
BRANCH  27  33
ATOM     33  O   UNL     1      -5.953  11.521  -6.370  1.00  0.00    -0.393 OA
ATOM     34  H   UNL     1      -4.996  11.320  -6.201  1.00  0.00     0.210 HD
ENDBRANCH  27  33
TORSDOF 2
ENDMDL
MODEL 4
REMARK VINA RESULT:    -6.769      1.734      3.205
REMARK INTER + INTRA:          -7.670
REMARK INTER:                  -7.363
REMARK INTRA:                  -0.307
REMARK UNBOUND:                -0.308
REMARK SMILES C[C@@H]1[C@@H](C)CC[C@@]2(C(=O)[O-])CC[C@]3(C)C(=CC[C@@H]4[C@]5(C)CC[C@@H](O)C(C)(C)[C@@H]5CC[C@@]43C)[C@@H]12
REMARK SMILES IDX 7 1 6 2 11 3 33 4 5 5 12 6 15 7 2 8 3 9 13 10 16 11 1 12
REMARK SMILES IDX 4 13 14 14 31 15 17 16 18 17 30 18 32 19 19 20 29 21 28 22
REMARK SMILES IDX 21 23 20 24 25 25 22 26 23 27 26 28 27 29 8 30 9 31 10 32
REMARK SMILES IDX 24 33
REMARK H PARENT 24 34
REMARK Flexibility Score: inf
ROOT
ATOM      1  C   UNL     1      -9.888  14.441   3.378  1.00  0.00     0.017 C 
ATOM      2  C   UNL     1     -11.435  14.377   3.492  1.00  0.00     0.014 C 
ATOM      3  C   UNL     1      -9.430  13.197   2.567  1.00  0.00     0.014 C 
ATOM      4  C   UNL     1      -9.474  15.798   2.667  1.00  0.00     0.030 C 
ATOM      5  C   UNL     1     -12.031  15.512   4.344  1.00  0.00     0.004 C 
ATOM      6  C   UNL     1      -8.028  13.367   1.961  1.00  0.00     0.013 C 
ATOM      7  C   UNL     1      -9.047  15.559   1.191  1.00  0.00    -0.063 C 
ATOM      8  C   UNL     1     -10.504  16.969   2.911  1.00  0.00    -0.003 C 
ATOM      9  C   UNL     1     -11.208  16.820   4.290  1.00  0.00    -0.011 C 
ATOM     10  C   UNL     1      -7.900  14.564   0.938  1.00  0.00    -0.006 C 
ATOM     11  C   UNL     1      -9.514  16.316   0.176  1.00  0.00    -0.027 C 
ATOM     12  C   UNL     1      -9.796  18.339   2.793  1.00  0.00     0.008 C 
ATOM     13  C   UNL     1     -12.124  18.011   4.632  1.00  0.00     0.008 C 
ATOM     14  C   UNL     1      -6.593  15.351   1.293  1.00  0.00     0.017 C 
ATOM     15  C   UNL     1      -7.845  14.033  -0.591  1.00  0.00    -0.020 C 
ATOM     16  C   UNL     1      -9.226  16.075  -1.270  1.00  0.00     0.032 C 
ATOM     17  C   UNL     1      -7.960  15.232  -1.602  1.00  0.00     0.006 C 
ATOM     18  C   UNL     1      -9.033  13.061  -0.902  1.00  0.00     0.008 C 
ATOM     19  C   UNL     1      -6.482  13.279  -0.781  1.00  0.00     0.012 C 
ATOM     20  C   UNL     1      -7.856  14.810  -3.168  1.00  0.00    -0.025 C 
ATOM     21  C   UNL     1      -9.497  12.970  -2.383  1.00  0.00     0.005 C 
ATOM     22  C   UNL     1      -8.414  13.335  -3.432  1.00  0.00     0.003 C 
ATOM     23  C   UNL     1      -8.612  15.858  -4.063  1.00  0.00     0.010 C 
ATOM     24  C   UNL     1      -6.344  14.880  -3.574  1.00  0.00     0.012 C 
ATOM     25  C   UNL     1      -8.809  12.978  -4.944  1.00  0.00    -0.006 C 
ATOM     26  C   UNL     1      -8.784  15.465  -5.527  1.00  0.00     0.033 C 
ATOM     27  C   UNL     1      -9.560  14.154  -5.632  1.00  0.00     0.120 C 
ATOM     28  C   UNL     1      -7.537  12.591  -5.758  1.00  0.00     0.014 C 
ATOM     29  C   UNL     1      -9.726  11.723  -5.016  1.00  0.00     0.014 C 
ENDROOT
BRANCH   1  30
ATOM     30  C   UNL     1      -9.264  14.320   4.770  1.00  0.00     0.048 C 
ATOM     31  O   UNL     1      -8.307  15.062   5.118  1.00  0.00    -0.550 OA
ATOM     32  O   UNL     1      -9.670  13.316   5.642  1.00  0.00    -0.550 OA
ENDBRANCH   1  30
BRANCH  27  33
ATOM     33  O   UNL     1      -9.787  13.886  -6.996  1.00  0.00    -0.393 OA
ATOM     34  H   UNL     1      -9.067  13.275  -7.302  1.00  0.00     0.210 HD
ENDBRANCH  27  33
TORSDOF 2
ENDMDL
MODEL 5
REMARK VINA RESULT:    -6.695      1.689      2.551
REMARK INTER + INTRA:          -7.590
REMARK INTER:                  -7.354
REMARK INTRA:                  -0.236
REMARK UNBOUND:                -0.308
REMARK SMILES C[C@@H]1[C@@H](C)CC[C@@]2(C(=O)[O-])CC[C@]3(C)C(=CC[C@@H]4[C@]5(C)CC[C@@H](O)C(C)(C)[C@@H]5CC[C@@]43C)[C@@H]12
REMARK SMILES IDX 7 1 6 2 11 3 33 4 5 5 12 6 15 7 2 8 3 9 13 10 16 11 1 12
REMARK SMILES IDX 4 13 14 14 31 15 17 16 18 17 30 18 32 19 19 20 29 21 28 22
REMARK SMILES IDX 21 23 20 24 25 25 22 26 23 27 26 28 27 29 8 30 9 31 10 32
REMARK SMILES IDX 24 33
REMARK H PARENT 24 34
REMARK Flexibility Score: inf
ROOT
ATOM      1  C   UNL     1      -9.421  16.614   2.618  1.00  0.00     0.017 C 
ATOM      2  C   UNL     1      -8.264  17.630   2.824  1.00  0.00     0.014 C 
ATOM      3  C   UNL     1     -10.163  17.011   1.313  1.00  0.00     0.014 C 
ATOM      4  C   UNL     1      -8.818  15.148   2.535  1.00  0.00     0.030 C 
ATOM      5  C   UNL     1      -7.482  17.408   4.130  1.00  0.00     0.004 C 
ATOM      6  C   UNL     1     -10.990  15.857   0.725  1.00  0.00     0.013 C 
ATOM      7  C   UNL     1      -8.801  14.623   1.072  1.00  0.00    -0.063 C 
ATOM      8  C   UNL     1      -7.475  14.980   3.349  1.00  0.00    -0.003 C 
ATOM      9  C   UNL     1      -7.442  15.929   4.581  1.00  0.00    -0.011 C 
ATOM     10  C   UNL     1     -10.142  14.589   0.317  1.00  0.00    -0.006 C 
ATOM     11  C   UNL     1      -7.711  14.041   0.530  1.00  0.00    -0.027 C 
ATOM     12  C   UNL     1      -7.291  13.505   3.778  1.00  0.00     0.008 C 
ATOM     13  C   UNL     1      -6.212  15.706   5.481  1.00  0.00     0.008 C 
ATOM     14  C   UNL     1     -10.887  13.325   0.867  1.00  0.00     0.017 C 
ATOM     15  C   UNL     1      -9.964  14.488  -1.289  1.00  0.00    -0.020 C 
ATOM     16  C   UNL     1      -7.594  13.611  -0.896  1.00  0.00     0.032 C 
ATOM     17  C   UNL     1      -8.926  13.368  -1.667  1.00  0.00     0.006 C 
ATOM     18  C   UNL     1      -9.423  15.829  -1.891  1.00  0.00     0.008 C 
ATOM     19  C   UNL     1     -11.372  14.164  -1.902  1.00  0.00     0.012 C 
ATOM     20  C   UNL     1      -8.718  13.146  -3.263  1.00  0.00    -0.025 C 
ATOM     21  C   UNL     1      -8.623  15.732  -3.220  1.00  0.00     0.005 C 
ATOM     22  C   UNL     1      -8.952  14.493  -4.093  1.00  0.00     0.003 C 
ATOM     23  C   UNL     1      -7.287  12.560  -3.547  1.00  0.00     0.010 C 
ATOM     24  C   UNL     1      -9.748  12.060  -3.724  1.00  0.00     0.012 C 
ATOM     25  C   UNL     1      -8.333  14.540  -5.571  1.00  0.00    -0.006 C 
ATOM     26  C   UNL     1      -6.879  12.515  -5.016  1.00  0.00     0.033 C 
ATOM     27  C   UNL     1      -6.907  13.918  -5.615  1.00  0.00     0.120 C 
ATOM     28  C   UNL     1      -9.276  13.813  -6.576  1.00  0.00     0.014 C 
ATOM     29  C   UNL     1      -8.231  15.998  -6.103  1.00  0.00     0.014 C 
ENDROOT
BRANCH   1  30
ATOM     30  C   UNL     1     -10.430  16.745   3.763  1.00  0.00     0.048 C 
ATOM     31  O   UNL     1     -10.915  17.866   4.073  1.00  0.00    -0.550 OA
ATOM     32  O   UNL     1     -10.750  15.646   4.551  1.00  0.00    -0.550 OA
ENDBRANCH   1  30
BRANCH  27  33
ATOM     33  O   UNL     1      -6.423  13.843  -6.935  1.00  0.00    -0.393 OA
ATOM     34  H   UNL     1      -7.206  13.911  -7.542  1.00  0.00     0.210 HD
ENDBRANCH  27  33
TORSDOF 2
ENDMDL
MODEL 6
REMARK VINA RESULT:    -6.688      1.855      3.647
REMARK INTER + INTRA:          -7.582
REMARK INTER:                  -7.274
REMARK INTRA:                  -0.307
REMARK UNBOUND:                -0.308
REMARK SMILES C[C@@H]1[C@@H](C)CC[C@@]2(C(=O)[O-])CC[C@]3(C)C(=CC[C@@H]4[C@]5(C)CC[C@@H](O)C(C)(C)[C@@H]5CC[C@@]43C)[C@@H]12
REMARK SMILES IDX 7 1 6 2 11 3 33 4 5 5 12 6 15 7 2 8 3 9 13 10 16 11 1 12
REMARK SMILES IDX 4 13 14 14 31 15 17 16 18 17 30 18 32 19 19 20 29 21 28 22
REMARK SMILES IDX 21 23 20 24 25 25 22 26 23 27 26 28 27 29 8 30 9 31 10 32
REMARK SMILES IDX 24 33
REMARK H PARENT 24 34
REMARK Flexibility Score: inf
ROOT
ATOM      1  C   UNL     1      -7.960  15.761   1.939  1.00  0.00     0.017 C 
ATOM      2  C   UNL     1      -7.009  14.806   2.710  1.00  0.00     0.014 C 
ATOM      3  C   UNL     1      -7.170  16.326   0.727  1.00  0.00     0.014 C 
ATOM      4  C   UNL     1      -9.250  14.956   1.484  1.00  0.00     0.030 C 
ATOM      5  C   UNL     1      -7.635  14.227   3.992  1.00  0.00     0.004 C 
ATOM      6  C   UNL     1      -8.087  16.877  -0.375  1.00  0.00     0.013 C 
ATOM      7  C   UNL     1      -9.207  14.626  -0.035  1.00  0.00    -0.063 C 
ATOM      8  C   UNL     1      -9.608  13.757   2.446  1.00  0.00    -0.003 C 
ATOM      9  C   UNL     1      -9.169  14.058   3.907  1.00  0.00    -0.011 C 
ATOM     10  C   UNL     1      -9.059  15.806  -1.012  1.00  0.00    -0.006 C 
ATOM     11  C   UNL     1      -9.475  13.392  -0.510  1.00  0.00    -0.027 C 
ATOM     12  C   UNL     1     -11.121  13.444   2.372  1.00  0.00     0.008 C 
ATOM     13  C   UNL     1      -9.617  12.975   4.907  1.00  0.00     0.008 C 
ATOM     14  C   UNL     1     -10.485  16.450  -1.091  1.00  0.00     0.017 C 
ATOM     15  C   UNL     1      -8.558  15.353  -2.484  1.00  0.00    -0.020 C 
ATOM     16  C   UNL     1      -9.350  12.983  -1.942  1.00  0.00     0.032 C 
ATOM     17  C   UNL     1      -9.389  14.123  -3.002  1.00  0.00     0.006 C 
ATOM     18  C   UNL     1      -7.056  14.911  -2.466  1.00  0.00     0.008 C 
ATOM     19  C   UNL     1      -8.735  16.583  -3.443  1.00  0.00     0.012 C 
ATOM     20  C   UNL     1      -9.003  13.626  -4.500  1.00  0.00    -0.025 C 
ATOM     21  C   UNL     1      -6.609  13.897  -3.556  1.00  0.00     0.005 C 
ATOM     22  C   UNL     1      -7.467  13.903  -4.848  1.00  0.00     0.003 C 
ATOM     23  C   UNL     1      -9.345  12.101  -4.670  1.00  0.00     0.010 C 
ATOM     24  C   UNL     1      -9.918  14.406  -5.505  1.00  0.00     0.012 C 
ATOM     25  C   UNL     1      -6.844  13.061  -6.062  1.00  0.00    -0.006 C 
ATOM     26  C   UNL     1      -8.826  11.454  -5.951  1.00  0.00     0.033 C 
ATOM     27  C   UNL     1      -7.306  11.576  -6.025  1.00  0.00     0.120 C 
ATOM     28  C   UNL     1      -7.222  13.716  -7.424  1.00  0.00     0.014 C 
ATOM     29  C   UNL     1      -5.289  13.075  -6.030  1.00  0.00     0.014 C 
ENDROOT
BRANCH   1  30
ATOM     30  C   UNL     1      -8.324  16.953   2.828  1.00  0.00     0.048 C 
ATOM     31  O   UNL     1      -9.510  17.374   2.894  1.00  0.00    -0.550 OA
ATOM     32  O   UNL     1      -7.334  17.663   3.499  1.00  0.00    -0.550 OA
ENDBRANCH   1  30
BRANCH  27  33
ATOM     33  O   UNL     1      -6.864  10.875  -7.163  1.00  0.00    -0.393 OA
ATOM     34  H   UNL     1      -5.943  10.555  -6.976  1.00  0.00     0.210 HD
ENDBRANCH  27  33
TORSDOF 2
ENDMDL
MODEL 7
REMARK VINA RESULT:    -6.424      2.245      8.085
REMARK INTER + INTRA:          -7.294
REMARK INTER:                  -6.987
REMARK INTRA:                  -0.307
REMARK UNBOUND:                -0.308
REMARK SMILES C[C@@H]1[C@@H](C)CC[C@@]2(C(=O)[O-])CC[C@]3(C)C(=CC[C@@H]4[C@]5(C)CC[C@@H](O)C(C)(C)[C@@H]5CC[C@@]43C)[C@@H]12
REMARK SMILES IDX 7 1 6 2 11 3 33 4 5 5 12 6 15 7 2 8 3 9 13 10 16 11 1 12
REMARK SMILES IDX 4 13 14 14 31 15 17 16 18 17 30 18 32 19 19 20 29 21 28 22
REMARK SMILES IDX 21 23 20 24 25 25 22 26 23 27 26 28 27 29 8 30 9 31 10 32
REMARK SMILES IDX 24 33
REMARK H PARENT 24 34
REMARK Flexibility Score: inf
ROOT
ATOM      1  C   UNL     1      -9.487  12.576  -3.883  1.00  0.00     0.017 C 
ATOM      2  C   UNL     1      -8.142  11.915  -4.294  1.00  0.00     0.014 C 
ATOM      3  C   UNL     1      -9.909  11.963  -2.520  1.00  0.00     0.014 C 
ATOM      4  C   UNL     1      -9.288  14.148  -3.791  1.00  0.00     0.030 C 
ATOM      5  C   UNL     1      -7.636  12.371  -5.674  1.00  0.00     0.004 C 
ATOM      6  C   UNL     1     -10.922  12.837  -1.764  1.00  0.00     0.013 C 
ATOM      7  C   UNL     1      -9.208  14.625  -2.313  1.00  0.00    -0.063 C 
ATOM      8  C   UNL     1      -8.164  14.691  -4.759  1.00  0.00    -0.003 C 
ATOM      9  C   UNL     1      -8.051  13.815  -6.038  1.00  0.00    -0.011 C 
ATOM     10  C   UNL     1     -10.392  14.278  -1.393  1.00  0.00    -0.006 C 
ATOM     11  C   UNL     1      -8.247  15.467  -1.881  1.00  0.00    -0.027 C 
ATOM     12  C   UNL     1      -8.438  16.170  -5.120  1.00  0.00     0.008 C 
ATOM     13  C   UNL     1      -7.062  14.382  -7.073  1.00  0.00     0.008 C 
ATOM     14  C   UNL     1     -11.514  15.305  -1.768  1.00  0.00     0.017 C 
ATOM     15  C   UNL     1     -10.026  14.387   0.180  1.00  0.00    -0.020 C 
ATOM     16  C   UNL     1      -8.052  15.881  -0.459  1.00  0.00     0.032 C 
ATOM     17  C   UNL     1      -9.280  15.736   0.488  1.00  0.00     0.006 C 
ATOM     18  C   UNL     1      -9.071  13.229   0.628  1.00  0.00     0.008 C 
ATOM     19  C   UNL     1     -11.370  14.303   0.986  1.00  0.00     0.012 C 
ATOM     20  C   UNL     1      -8.919  15.971   2.055  1.00  0.00    -0.025 C 
ATOM     21  C   UNL     1      -8.149  13.509   1.847  1.00  0.00     0.005 C 
ATOM     22  C   UNL     1      -8.670  14.593   2.827  1.00  0.00     0.003 C 
ATOM     23  C   UNL     1      -7.669  16.915   2.188  1.00  0.00     0.010 C 
ATOM     24  C   UNL     1     -10.126  16.727   2.707  1.00  0.00     0.012 C 
ATOM     25  C   UNL     1      -7.862  14.681   4.209  1.00  0.00    -0.006 C 
ATOM     26  C   UNL     1      -7.089  17.036   3.594  1.00  0.00     0.033 C 
ATOM     27  C   UNL     1      -6.660  15.664   4.107  1.00  0.00     0.120 C 
ATOM     28  C   UNL     1      -8.816  15.103   5.367  1.00  0.00     0.014 C 
ATOM     29  C   UNL     1      -7.304  13.293   4.636  1.00  0.00     0.014 C 
ENDROOT
BRANCH   1  30
ATOM     30  C   UNL     1     -10.573  12.203  -4.895  1.00  0.00     0.048 C 
ATOM     31  O   UNL     1     -11.380  13.069  -5.327  1.00  0.00    -0.550 OA
ATOM     32  O   UNL     1     -10.758  10.879  -5.277  1.00  0.00    -0.550 OA
ENDBRANCH   1  30
BRANCH  27  33
ATOM     33  O   UNL     1      -6.035  15.838   5.357  1.00  0.00    -0.393 OA
ATOM     34  H   UNL     1      -6.032  16.810   5.555  1.00  0.00     0.210 HD
ENDBRANCH  27  33
TORSDOF 2
ENDMDL
MODEL 8
REMARK VINA RESULT:    -5.894      1.890      3.802
REMARK INTER + INTRA:          -6.718
REMARK INTER:                  -6.480
REMARK INTRA:                  -0.238
REMARK UNBOUND:                -0.308
REMARK SMILES C[C@@H]1[C@@H](C)CC[C@@]2(C(=O)[O-])CC[C@]3(C)C(=CC[C@@H]4[C@]5(C)CC[C@@H](O)C(C)(C)[C@@H]5CC[C@@]43C)[C@@H]12
REMARK SMILES IDX 7 1 6 2 11 3 33 4 5 5 12 6 15 7 2 8 3 9 13 10 16 11 1 12
REMARK SMILES IDX 4 13 14 14 31 15 17 16 18 17 30 18 32 19 19 20 29 21 28 22
REMARK SMILES IDX 21 23 20 24 25 25 22 26 23 27 26 28 27 29 8 30 9 31 10 32
REMARK SMILES IDX 24 33
REMARK H PARENT 24 34
REMARK Flexibility Score: inf
ROOT
ATOM      1  C   UNL     1      -8.223  13.701   2.655  1.00  0.00     0.017 C 
ATOM      2  C   UNL     1      -8.743  12.333   3.175  1.00  0.00     0.014 C 
ATOM      3  C   UNL     1      -7.050  13.413   1.678  1.00  0.00     0.014 C 
ATOM      4  C   UNL     1      -9.413  14.473   1.942  1.00  0.00     0.030 C 
ATOM      5  C   UNL     1      -9.864  12.464   4.221  1.00  0.00     0.004 C 
ATOM      6  C   UNL     1      -6.763  14.588   0.731  1.00  0.00     0.013 C 
ATOM      7  C   UNL     1      -9.273  14.427   0.394  1.00  0.00    -0.063 C 
ATOM      8  C   UNL     1     -10.833  14.100   2.522  1.00  0.00    -0.003 C 
ATOM      9  C   UNL     1     -10.744  13.720   4.027  1.00  0.00    -0.011 C 
ATOM     10  C   UNL     1      -7.969  14.972  -0.215  1.00  0.00    -0.006 C 
ATOM     11  C   UNL     1     -10.306  14.104  -0.412  1.00  0.00    -0.027 C 
ATOM     12  C   UNL     1     -11.824  15.267   2.301  1.00  0.00     0.008 C 
ATOM     13  C   UNL     1     -12.122  13.479   4.672  1.00  0.00     0.008 C 
ATOM     14  C   UNL     1      -8.122  16.531  -0.176  1.00  0.00     0.017 C 
ATOM     15  C   UNL     1      -7.715  14.465  -1.732  1.00  0.00    -0.020 C 
ATOM     16  C   UNL     1     -10.213  13.941  -1.894  1.00  0.00     0.032 C 
ATOM     17  C   UNL     1      -9.013  14.637  -2.602  1.00  0.00     0.006 C 
ATOM     18  C   UNL     1      -7.341  12.944  -1.772  1.00  0.00     0.008 C 
ATOM     19  C   UNL     1      -6.536  15.315  -2.324  1.00  0.00     0.012 C 
ATOM     20  C   UNL     1      -8.846  14.211  -4.161  1.00  0.00    -0.025 C 
ATOM     21  C   UNL     1      -7.678  12.172  -3.078  1.00  0.00     0.005 C 
ATOM     22  C   UNL     1      -7.765  13.049  -4.355  1.00  0.00     0.003 C 
ATOM     23  C   UNL     1     -10.236  13.780  -4.757  1.00  0.00     0.010 C 
ATOM     24  C   UNL     1      -8.394  15.485  -4.952  1.00  0.00     0.012 C 
ATOM     25  C   UNL     1      -7.840  12.220  -5.725  1.00  0.00    -0.006 C 
ATOM     26  C   UNL     1     -10.184  13.143  -6.143  1.00  0.00     0.033 C 
ATOM     27  C   UNL     1      -9.310  11.893  -6.115  1.00  0.00     0.120 C 
ATOM     28  C   UNL     1      -7.132  13.004  -6.870  1.00  0.00     0.014 C 
ATOM     29  C   UNL     1      -7.065  10.875  -5.623  1.00  0.00     0.014 C 
ENDROOT
BRANCH   1  30
ATOM     30  C   UNL     1      -7.646  14.508   3.820  1.00  0.00     0.048 C 
ATOM     31  O   UNL     1      -6.979  13.946   4.730  1.00  0.00    -0.550 OA
ATOM     32  O   UNL     1      -7.936  15.861   3.955  1.00  0.00    -0.550 OA
ENDBRANCH   1  30
BRANCH  27  33
ATOM     33  O   UNL     1      -9.377  11.282  -7.382  1.00  0.00    -0.393 OA
ATOM     34  H   UNL     1     -10.332  11.084  -7.567  1.00  0.00     0.210 HD
ENDBRANCH  27  33
TORSDOF 2
ENDMDL
