MODEL 1
REMARK VINA RESULT:    -4.301      0.000      0.000
REMARK INTER + INTRA:          -4.978
REMARK INTER:                  -4.930
REMARK INTRA:                  -0.048
REMARK UNBOUND:                -0.048
REMARK SMILES O=C([O-])c1cc(O)c(O)c(O)c1
REMARK SMILES IDX 4 1 5 2 12 3 6 4 10 5 8 6 2 7 1 8 3 9 7 10 11 12 9 14
REMARK H PARENT 7 11 11 13 9 15
REMARK Flexibility Score: inf
ROOT
ATOM      1  C   UNL     1       9.040   0.327   5.644  1.00  0.00     0.005 A 
ATOM      2  C   UNL     1       9.155   0.380   4.244  1.00  0.00     0.060 A 
ATOM      3  C   UNL     1       8.930   1.527   6.365  1.00  0.00     0.060 A 
ATOM      4  C   UNL     1       9.159   1.610   3.574  1.00  0.00     0.162 A 
ATOM      5  C   UNL     1       8.934   2.760   5.703  1.00  0.00     0.162 A 
ATOM      6  C   UNL     1       9.048   2.806   4.304  1.00  0.00     0.200 A 
ENDROOT
BRANCH   1   7
ATOM      7  C   UNL     1       9.035  -0.973   6.353  1.00  0.00     0.072 C 
ATOM      8  O   UNL     1       9.879  -1.863   6.064  1.00  0.00    -0.545 OA
ATOM      9  O   UNL     1       8.098  -1.231   7.347  1.00  0.00    -0.545 OA
ENDBRANCH   1   7
BRANCH   4  10
ATOM     10  O   UNL     1       9.274   1.649   2.185  1.00  0.00    -0.504 OA
ATOM     11  H   UNL     1       9.904   1.033   1.686  1.00  0.00     0.293 HD
ENDBRANCH   4  10
BRANCH   5  12
ATOM     12  O   UNL     1       8.822   3.929   6.456  1.00  0.00    -0.504 OA
ATOM     13  H   UNL     1       7.989   4.150   6.988  1.00  0.00     0.293 HD
ENDBRANCH   5  12
BRANCH   6  14
ATOM     14  O   UNL     1       9.051   4.041   3.653  1.00  0.00    -0.502 OA
ATOM     15  H   UNL     1       8.556   4.193   2.783  1.00  0.00     0.293 HD
ENDBRANCH   6  14
TORSDOF 4
ENDMDL
MODEL 2
REMARK VINA RESULT:    -4.300      0.074      2.430
REMARK INTER + INTRA:          -4.977
REMARK INTER:                  -4.928
REMARK INTRA:                  -0.049
REMARK UNBOUND:                -0.048
REMARK SMILES O=C([O-])c1cc(O)c(O)c(O)c1
REMARK SMILES IDX 4 1 5 2 12 3 6 4 10 5 8 6 2 7 1 8 3 9 7 10 11 12 9 14
REMARK H PARENT 7 11 11 13 9 15
REMARK Flexibility Score: inf
ROOT
ATOM      1  C   UNL     1       9.011   0.349   5.702  1.00  0.00     0.005 A 
ATOM      2  C   UNL     1       8.915   1.549   6.428  1.00  0.00     0.060 A 
ATOM      3  C   UNL     1       9.104   0.406   4.302  1.00  0.00     0.060 A 
ATOM      4  C   UNL     1       8.913   2.786   5.768  1.00  0.00     0.162 A 
ATOM      5  C   UNL     1       9.102   1.636   3.635  1.00  0.00     0.162 A 
ATOM      6  C   UNL     1       9.007   2.832   4.366  1.00  0.00     0.200 A 
ENDROOT
BRANCH   1   7
ATOM      7  C   UNL     1       9.013  -0.956   6.398  1.00  0.00     0.072 C 
ATOM      8  O   UNL     1       9.823  -1.861   6.062  1.00  0.00    -0.545 OA
ATOM      9  O   UNL     1       8.119  -1.204   7.434  1.00  0.00    -0.545 OA
ENDBRANCH   1   7
BRANCH   4  10
ATOM     10  O   UNL     1       8.817   3.968   6.500  1.00  0.00    -0.504 OA
ATOM     11  H   UNL     1       7.958   4.239   6.963  1.00  0.00     0.293 HD
ENDBRANCH   4  10
BRANCH   5  12
ATOM     12  O   UNL     1       9.198   1.649   2.243  1.00  0.00    -0.504 OA
ATOM     13  H   UNL     1       9.998   2.039   1.761  1.00  0.00     0.293 HD
ENDBRANCH   5  12
BRANCH   6  14
ATOM     14  O   UNL     1       9.006   4.054   3.693  1.00  0.00    -0.502 OA
ATOM     15  H   UNL     1       8.187   4.650   3.656  1.00  0.00     0.293 HD
ENDBRANCH   6  14
TORSDOF 4
ENDMDL
MODEL 3
REMARK VINA RESULT:    -3.993      1.774      3.247
REMARK INTER + INTRA:          -4.625
REMARK INTER:                  -4.580
REMARK INTRA:                  -0.045
REMARK UNBOUND:                -0.048
REMARK SMILES O=C([O-])c1cc(O)c(O)c(O)c1
REMARK SMILES IDX 4 1 5 2 12 3 6 4 10 5 8 6 2 7 1 8 3 9 7 10 11 12 9 14
REMARK H PARENT 7 11 11 13 9 15
REMARK Flexibility Score: inf
ROOT
ATOM      1  C   UNL     1       8.269   0.569   3.688  1.00  0.00     0.005 A 
ATOM      2  C   UNL     1       8.572   0.228   5.017  1.00  0.00     0.060 A 
ATOM      3  C   UNL     1       8.502   1.883   3.251  1.00  0.00     0.060 A 
ATOM      4  C   UNL     1       9.101   1.183   5.897  1.00  0.00     0.162 A 
ATOM      5  C   UNL     1       9.029   2.842   4.123  1.00  0.00     0.162 A 
ATOM      6  C   UNL     1       9.331   2.495   5.451  1.00  0.00     0.200 A 
ENDROOT
BRANCH   1   7
ATOM      7  C   UNL     1       7.710  -0.438   2.759  1.00  0.00     0.072 C 
ATOM      8  O   UNL     1       8.469  -1.245   2.157  1.00  0.00    -0.545 OA
ATOM      9  O   UNL     1       6.340  -0.509   2.535  1.00  0.00    -0.545 OA
ENDBRANCH   1   7
BRANCH   4  10
ATOM     10  O   UNL     1       9.397   0.832   7.213  1.00  0.00    -0.504 OA
ATOM     11  H   UNL     1      10.132   1.295   7.734  1.00  0.00     0.293 HD
ENDBRANCH   4  10
BRANCH   5  12
ATOM     12  O   UNL     1       9.247   4.137   3.650  1.00  0.00    -0.504 OA
ATOM     13  H   UNL     1       9.002   4.414   2.707  1.00  0.00     0.293 HD
ENDBRANCH   5  12
BRANCH   6  14
ATOM     14  O   UNL     1       9.857   3.459   6.313  1.00  0.00    -0.502 OA
ATOM     15  H   UNL     1       9.818   3.360   7.320  1.00  0.00     0.293 HD
ENDBRANCH   6  14
TORSDOF 4
ENDMDL
MODEL 4
REMARK VINA RESULT:    -3.989      1.825      2.884
REMARK INTER + INTRA:          -4.620
REMARK INTER:                  -4.575
REMARK INTRA:                  -0.045
REMARK UNBOUND:                -0.048
REMARK SMILES O=C([O-])c1cc(O)c(O)c(O)c1
REMARK SMILES IDX 4 1 5 2 12 3 6 4 10 5 8 6 2 7 1 8 3 9 7 10 11 12 9 14
REMARK H PARENT 7 11 11 13 9 15
REMARK Flexibility Score: inf
ROOT
ATOM      1  C   UNL     1       8.241   0.502   3.676  1.00  0.00     0.005 A 
ATOM      2  C   UNL     1       8.481   1.794   3.177  1.00  0.00     0.060 A 
ATOM      3  C   UNL     1       8.540   0.224   5.020  1.00  0.00     0.060 A 
ATOM      4  C   UNL     1       9.011   2.793   4.006  1.00  0.00     0.162 A 
ATOM      5  C   UNL     1       9.070   1.215   5.853  1.00  0.00     0.162 A 
ATOM      6  C   UNL     1       9.307   2.505   5.349  1.00  0.00     0.200 A 
ENDROOT
BRANCH   1   7
ATOM      7  C   UNL     1       7.681  -0.553   2.802  1.00  0.00     0.072 C 
ATOM      8  O   UNL     1       8.437  -1.399   2.254  1.00  0.00    -0.545 OA
ATOM      9  O   UNL     1       6.312  -0.624   2.571  1.00  0.00    -0.545 OA
ENDBRANCH   1   7
BRANCH   4  10
ATOM     10  O   UNL     1       9.245   4.070   3.498  1.00  0.00    -0.504 OA
ATOM     11  H   UNL     1       8.487   4.719   3.322  1.00  0.00     0.293 HD
ENDBRANCH   4  10
BRANCH   5  12
ATOM     12  O   UNL     1       9.353   0.898   7.182  1.00  0.00    -0.504 OA
ATOM     13  H   UNL     1       8.826   1.289   7.953  1.00  0.00     0.293 HD
ENDBRANCH   5  12
BRANCH   6  14
ATOM     14  O   UNL     1       9.836   3.487   6.188  1.00  0.00    -0.502 OA
ATOM     15  H   UNL     1       9.825   4.469   5.942  1.00  0.00     0.293 HD
ENDBRANCH   6  14
TORSDOF 4
ENDMDL
MODEL 5
REMARK VINA RESULT:    -3.970      1.704      4.117
REMARK INTER + INTRA:          -4.598
REMARK INTER:                  -4.551
REMARK INTRA:                  -0.047
REMARK UNBOUND:                -0.048
REMARK SMILES O=C([O-])c1cc(O)c(O)c(O)c1
REMARK SMILES IDX 4 1 5 2 12 3 6 4 10 5 8 6 2 7 1 8 3 9 7 10 11 12 9 14
REMARK H PARENT 7 11 11 13 9 15
REMARK Flexibility Score: inf
ROOT
ATOM      1  C   UNL     1       8.787   1.628   4.529  1.00  0.00     0.005 A 
ATOM      2  C   UNL     1       8.124   1.220   3.358  1.00  0.00     0.060 A 
ATOM      3  C   UNL     1       8.926   0.714   5.586  1.00  0.00     0.060 A 
ATOM      4  C   UNL     1       7.609  -0.078   3.243  1.00  0.00     0.162 A 
ATOM      5  C   UNL     1       8.415  -0.584   5.480  1.00  0.00     0.162 A 
ATOM      6  C   UNL     1       7.754  -0.986   4.307  1.00  0.00     0.200 A 
ENDROOT
BRANCH   1   7
ATOM      7  C   UNL     1       9.331   2.999   4.650  1.00  0.00     0.072 C 
ATOM      8  O   UNL     1      10.125   3.452   3.783  1.00  0.00    -0.545 OA
ATOM      9  O   UNL     1       8.973   3.807   5.723  1.00  0.00    -0.545 OA
ENDBRANCH   1   7
BRANCH   4  10
ATOM     10  O   UNL     1       6.954  -0.470   2.077  1.00  0.00    -0.504 OA
ATOM     11  H   UNL     1       6.111  -1.032   2.104  1.00  0.00     0.293 HD
ENDBRANCH   4  10
BRANCH   5  12
ATOM     12  O   UNL     1       8.575  -1.461   6.553  1.00  0.00    -0.504 OA
ATOM     13  H   UNL     1       8.064  -2.333   6.616  1.00  0.00     0.293 HD
ENDBRANCH   5  12
BRANCH   6  14
ATOM     14  O   UNL     1       7.247  -2.282   4.211  1.00  0.00    -0.502 OA
ATOM     15  H   UNL     1       7.095  -2.864   5.026  1.00  0.00     0.293 HD
ENDBRANCH   6  14
TORSDOF 4
ENDMDL
MODEL 6
REMARK VINA RESULT:    -3.865     19.869     20.245
REMARK INTER + INTRA:          -4.479
REMARK INTER:                  -4.428
REMARK INTRA:                  -0.050
REMARK UNBOUND:                -0.048
REMARK SMILES O=C([O-])c1cc(O)c(O)c(O)c1
REMARK SMILES IDX 4 1 5 2 12 3 6 4 10 5 8 6 2 7 1 8 3 9 7 10 11 12 9 14
REMARK H PARENT 7 11 11 13 9 15
REMARK Flexibility Score: inf
ROOT
ATOM      1  C   UNL     1      -7.559   0.766  -5.870  1.00  0.00     0.005 A 
ATOM      2  C   UNL     1      -8.088  -0.190  -4.985  1.00  0.00     0.060 A 
ATOM      3  C   UNL     1      -7.773   2.129  -5.608  1.00  0.00     0.060 A 
ATOM      4  C   UNL     1      -8.819   0.207  -3.857  1.00  0.00     0.162 A 
ATOM      5  C   UNL     1      -8.502   2.534  -4.483  1.00  0.00     0.162 A 
ATOM      6  C   UNL     1      -9.028   1.573  -3.603  1.00  0.00     0.200 A 
ENDROOT
BRANCH   1   7
ATOM      7  C   UNL     1      -6.787   0.347  -7.061  1.00  0.00     0.072 C 
ATOM      8  O   UNL     1      -5.847   1.062  -7.499  1.00  0.00    -0.545 OA
ATOM      9  O   UNL     1      -7.090  -0.842  -7.714  1.00  0.00    -0.545 OA
ENDBRANCH   1   7
BRANCH   4  10
ATOM     10  O   UNL     1      -9.338  -0.751  -2.988  1.00  0.00    -0.504 OA
ATOM     11  H   UNL     1      -9.994  -1.456  -3.304  1.00  0.00     0.293 HD
ENDBRANCH   4  10
BRANCH   5  12
ATOM     12  O   UNL     1      -8.692   3.897  -4.258  1.00  0.00    -0.504 OA
ATOM     13  H   UNL     1      -8.777   4.562  -5.018  1.00  0.00     0.293 HD
ENDBRANCH   5  12
BRANCH   6  14
ATOM     14  O   UNL     1      -9.754   1.987  -2.485  1.00  0.00    -0.502 OA
ATOM     15  H   UNL     1     -10.058   2.945  -2.364  1.00  0.00     0.293 HD
ENDBRANCH   6  14
TORSDOF 4
ENDMDL
MODEL 7
REMARK VINA RESULT:    -3.853     19.859     20.288
REMARK INTER + INTRA:          -4.464
REMARK INTER:                  -4.414
REMARK INTRA:                  -0.050
REMARK UNBOUND:                -0.048
REMARK SMILES O=C([O-])c1cc(O)c(O)c(O)c1
REMARK SMILES IDX 4 1 5 2 12 3 6 4 10 5 8 6 2 7 1 8 3 9 7 10 11 12 9 14
REMARK H PARENT 7 11 11 13 9 15
REMARK Flexibility Score: inf
ROOT
ATOM      1  C   UNL     1      -7.566   0.810  -5.863  1.00  0.00     0.005 A 
ATOM      2  C   UNL     1      -7.810   2.170  -5.605  1.00  0.00     0.060 A 
ATOM      3  C   UNL     1      -8.076  -0.154  -4.978  1.00  0.00     0.060 A 
ATOM      4  C   UNL     1      -8.552   2.562  -4.482  1.00  0.00     0.162 A 
ATOM      5  C   UNL     1      -8.818   0.229  -3.855  1.00  0.00     0.162 A 
ATOM      6  C   UNL     1      -9.059   1.590  -3.603  1.00  0.00     0.200 A 
ENDROOT
BRANCH   1   7
ATOM      7  C   UNL     1      -6.782   0.395  -7.048  1.00  0.00     0.072 C 
ATOM      8  O   UNL     1      -5.839   1.113  -7.475  1.00  0.00    -0.545 OA
ATOM      9  O   UNL     1      -7.076  -0.792  -7.707  1.00  0.00    -0.545 OA
ENDBRANCH   1   7
BRANCH   4  10
ATOM     10  O   UNL     1      -8.787   3.914  -4.238  1.00  0.00    -0.504 OA
ATOM     11  H   UNL     1      -8.149   4.473  -3.684  1.00  0.00     0.293 HD
ENDBRANCH   4  10
BRANCH   5  12
ATOM     12  O   UNL     1      -9.308  -0.759  -3.001  1.00  0.00    -0.504 OA
ATOM     13  H   UNL     1      -9.891  -0.541  -2.203  1.00  0.00     0.293 HD
ENDBRANCH   5  12
BRANCH   6  14
ATOM     14  O   UNL     1      -9.800   1.962  -2.480  1.00  0.00    -0.502 OA
ATOM     15  H   UNL     1     -10.545   1.385  -2.110  1.00  0.00     0.293 HD
ENDBRANCH   6  14
TORSDOF 4
ENDMDL
MODEL 8
REMARK VINA RESULT:    -3.840      1.455      2.302
REMARK INTER + INTRA:          -4.450
REMARK INTER:                  -4.397
REMARK INTRA:                  -0.053
REMARK UNBOUND:                -0.048
REMARK SMILES O=C([O-])c1cc(O)c(O)c(O)c1
REMARK SMILES IDX 4 1 5 2 12 3 6 4 10 5 8 6 2 7 1 8 3 9 7 10 11 12 9 14
REMARK H PARENT 7 11 11 13 9 15
REMARK Flexibility Score: inf
ROOT
ATOM      1  C   UNL     1       8.851   0.463   5.481  1.00  0.00     0.005 A 
ATOM      2  C   UNL     1       8.949   1.567   4.617  1.00  0.00     0.060 A 
ATOM      3  C   UNL     1       8.815   0.684   6.868  1.00  0.00     0.060 A 
ATOM      4  C   UNL     1       9.010   2.871   5.127  1.00  0.00     0.162 A 
ATOM      5  C   UNL     1       8.875   1.982   7.386  1.00  0.00     0.162 A 
ATOM      6  C   UNL     1       8.973   3.082   6.516  1.00  0.00     0.200 A 
ENDROOT
BRANCH   1   7
ATOM      7  C   UNL     1       8.787  -0.914   4.943  1.00  0.00     0.072 C 
ATOM      8  O   UNL     1       8.587  -1.894   5.709  1.00  0.00    -0.545 OA
ATOM      9  O   UNL     1       8.949  -1.147   3.582  1.00  0.00    -0.545 OA
ENDBRANCH   1   7
BRANCH   4  10
ATOM     10  O   UNL     1       9.107   3.957   4.259  1.00  0.00    -0.504 OA
ATOM     11  H   UNL     1       9.164   3.832   3.256  1.00  0.00     0.293 HD
ENDBRANCH   4  10
BRANCH   5  12
ATOM     12  O   UNL     1       8.836   2.159   8.769  1.00  0.00    -0.504 OA
ATOM     13  H   UNL     1       9.581   2.623   9.274  1.00  0.00     0.293 HD
ENDBRANCH   5  12
BRANCH   6  14
ATOM     14  O   UNL     1       9.032   4.373   7.042  1.00  0.00    -0.502 OA
ATOM     15  H   UNL     1       8.772   4.579   7.999  1.00  0.00     0.293 HD
ENDBRANCH   6  14
TORSDOF 4
ENDMDL
MODEL 9
REMARK VINA RESULT:    -3.798     19.905     20.179
REMARK INTER + INTRA:          -4.401
REMARK INTER:                  -4.351
REMARK INTRA:                  -0.050
REMARK UNBOUND:                -0.048
REMARK SMILES O=C([O-])c1cc(O)c(O)c(O)c1
REMARK SMILES IDX 4 1 5 2 12 3 6 4 10 5 8 6 2 7 1 8 3 9 7 10 11 12 9 14
REMARK H PARENT 7 11 11 13 9 15
REMARK Flexibility Score: inf
ROOT
ATOM      1  C   UNL     1      -8.888   0.442  -4.003  1.00  0.00     0.005 A 
ATOM      2  C   UNL     1      -8.919   1.844  -3.908  1.00  0.00     0.060 A 
ATOM      3  C   UNL     1      -8.156  -0.155  -5.042  1.00  0.00     0.060 A 
ATOM      4  C   UNL     1      -8.229   2.638  -4.834  1.00  0.00     0.162 A 
ATOM      5  C   UNL     1      -7.464   0.631  -5.971  1.00  0.00     0.162 A 
ATOM      6  C   UNL     1      -7.498   2.032  -5.870  1.00  0.00     0.200 A 
ENDROOT
BRANCH   1   7
ATOM      7  C   UNL     1      -9.617  -0.397  -3.025  1.00  0.00     0.072 C 
ATOM      8  O   UNL     1     -10.125  -1.496  -3.376  1.00  0.00    -0.545 OA
ATOM      9  O   UNL     1      -9.753   0.016  -1.705  1.00  0.00    -0.545 OA
ENDBRANCH   1   7
BRANCH   4  10
ATOM     10  O   UNL     1      -8.268   4.028  -4.728  1.00  0.00    -0.504 OA
ATOM     11  H   UNL     1      -9.122   4.549  -4.885  1.00  0.00     0.293 HD
ENDBRANCH   4  10
BRANCH   5  12
ATOM     12  O   UNL     1      -6.747  -0.001  -6.987  1.00  0.00    -0.504 OA
ATOM     13  H   UNL     1      -5.858   0.351  -7.318  1.00  0.00     0.293 HD
ENDBRANCH   5  12
BRANCH   6  14
ATOM     14  O   UNL     1      -6.805   2.807  -6.801  1.00  0.00    -0.502 OA
ATOM     15  H   UNL     1      -7.267   3.504  -7.373  1.00  0.00     0.293 HD
ENDBRANCH   6  14
TORSDOF 4
ENDMDL
