MODEL 1
REMARK VINA RESULT:    -3.649      0.000      0.000
REMARK INTER + INTRA:          -3.926
REMARK INTER:                  -3.863
REMARK INTRA:                  -0.063
REMARK UNBOUND:                -0.063
REMARK SMILES CC(=O)c1ccccc1
REMARK SMILES IDX 4 1 5 2 6 3 7 4 8 5 9 6 2 7 1 8 3 9
REMARK H PARENT
REMARK Flexibility Score: inf
ROOT
ATOM      1  C   UNL     1      -0.991  38.997  32.602  1.00  0.00     0.017 A 
ATOM      2  C   UNL     1       0.064  38.690  31.718  1.00  0.00     0.012 A 
ATOM      3  C   UNL     1       0.321  37.365  31.353  1.00  0.00     0.001 A 
ATOM      4  C   UNL     1      -0.467  36.331  31.860  1.00  0.00     0.000 A 
ATOM      5  C   UNL     1      -1.515  36.619  32.736  1.00  0.00     0.001 A 
ATOM      6  C   UNL     1      -1.777  37.942  33.105  1.00  0.00     0.012 A 
ENDROOT
BRANCH   1   7
ATOM      7  C   UNL     1      -1.282  40.400  33.003  1.00  0.00     0.159 C 
ATOM      8  C   UNL     1      -2.655  40.990  32.885  1.00  0.00     0.093 C 
ATOM      9  O   UNL     1      -0.355  41.125  33.457  1.00  0.00    -0.295 OA
ENDBRANCH   1   7
TORSDOF 1
ENDMDL
MODEL 2
REMARK VINA RESULT:    -3.617      0.576      1.636
REMARK INTER + INTRA:          -3.892
REMARK INTER:                  -3.823
REMARK INTRA:                  -0.068
REMARK UNBOUND:                -0.063
REMARK SMILES CC(=O)c1ccccc1
REMARK SMILES IDX 4 1 5 2 6 3 7 4 8 5 9 6 2 7 1 8 3 9
REMARK H PARENT
REMARK Flexibility Score: inf
ROOT
ATOM      1  C   UNL     1      -0.632  38.931  32.741  1.00  0.00     0.017 A 
ATOM      2  C   UNL     1      -1.685  38.002  32.854  1.00  0.00     0.012 A 
ATOM      3  C   UNL     1      -1.462  36.643  32.613  1.00  0.00     0.001 A 
ATOM      4  C   UNL     1      -0.191  36.193  32.257  1.00  0.00     0.000 A 
ATOM      5  C   UNL     1       0.863  37.101  32.141  1.00  0.00     0.001 A 
ATOM      6  C   UNL     1       0.647  38.461  32.380  1.00  0.00     0.012 A 
ENDROOT
BRANCH   1   7
ATOM      7  C   UNL     1      -0.848  40.382  32.993  1.00  0.00     0.159 C 
ATOM      8  C   UNL     1      -2.212  41.001  32.938  1.00  0.00     0.093 C 
ATOM      9  O   UNL     1       0.137  41.124  33.261  1.00  0.00    -0.295 OA
ENDBRANCH   1   7
TORSDOF 1
ENDMDL
MODEL 3
REMARK VINA RESULT:    -3.391      1.980      3.733
REMARK INTER + INTRA:          -3.652
REMARK INTER:                  -3.585
REMARK INTRA:                  -0.067
REMARK UNBOUND:                -0.063
REMARK SMILES CC(=O)c1ccccc1
REMARK SMILES IDX 4 1 5 2 6 3 7 4 8 5 9 6 2 7 1 8 3 9
REMARK H PARENT
REMARK Flexibility Score: inf
ROOT
ATOM      1  C   UNL     1      -0.778  38.308  32.356  1.00  0.00     0.017 A 
ATOM      2  C   UNL     1       0.045  39.094  31.524  1.00  0.00     0.012 A 
ATOM      3  C   UNL     1      -0.062  40.488  31.533  1.00  0.00     0.001 A 
ATOM      4  C   UNL     1      -0.987  41.115  32.368  1.00  0.00     0.000 A 
ATOM      5  C   UNL     1      -1.809  40.350  33.198  1.00  0.00     0.001 A 
ATOM      6  C   UNL     1      -1.707  38.956  33.194  1.00  0.00     0.012 A 
ENDROOT
BRANCH   1   7
ATOM      7  C   UNL     1      -0.680  36.822  32.362  1.00  0.00     0.159 C 
ATOM      8  C   UNL     1       0.590  36.111  32.002  1.00  0.00     0.093 C 
ATOM      9  O   UNL     1      -1.686  36.131  32.677  1.00  0.00    -0.295 OA
ENDBRANCH   1   7
TORSDOF 1
ENDMDL
MODEL 4
REMARK VINA RESULT:    -3.364      1.967      4.053
REMARK INTER + INTRA:          -3.625
REMARK INTER:                  -3.553
REMARK INTRA:                  -0.072
REMARK UNBOUND:                -0.063
REMARK SMILES CC(=O)c1ccccc1
REMARK SMILES IDX 4 1 5 2 6 3 7 4 8 5 9 6 2 7 1 8 3 9
REMARK H PARENT
REMARK Flexibility Score: inf
ROOT
ATOM      1  C   UNL     1      -0.813  38.315  32.242  1.00  0.00     0.017 A 
ATOM      2  C   UNL     1      -1.759  38.948  33.074  1.00  0.00     0.012 A 
ATOM      3  C   UNL     1      -1.831  40.343  33.133  1.00  0.00     0.001 A 
ATOM      4  C   UNL     1      -0.965  41.124  32.367  1.00  0.00     0.000 A 
ATOM      5  C   UNL     1      -0.023  40.512  31.538  1.00  0.00     0.001 A 
ATOM      6  C   UNL     1       0.055  39.118  31.474  1.00  0.00     0.012 A 
ENDROOT
BRANCH   1   7
ATOM      7  C   UNL     1      -0.719  36.832  32.164  1.00  0.00     0.159 C 
ATOM      8  C   UNL     1       0.377  36.146  31.406  1.00  0.00     0.093 C 
ATOM      9  O   UNL     1      -1.581  36.120  32.748  1.00  0.00    -0.295 OA
ENDBRANCH   1   7
TORSDOF 1
ENDMDL
MODEL 5
REMARK VINA RESULT:    -3.324      1.471      2.542
REMARK INTER + INTRA:          -3.582
REMARK INTER:                  -3.520
REMARK INTRA:                  -0.062
REMARK UNBOUND:                -0.063
REMARK SMILES CC(=O)c1ccccc1
REMARK SMILES IDX 4 1 5 2 6 3 7 4 8 5 9 6 2 7 1 8 3 9
REMARK H PARENT
REMARK Flexibility Score: inf
ROOT
ATOM      1  C   UNL     1       0.218  39.328  32.436  1.00  0.00     0.017 A 
ATOM      2  C   UNL     1      -1.050  39.481  33.031  1.00  0.00     0.012 A 
ATOM      3  C   UNL     1      -1.900  38.382  33.184  1.00  0.00     0.001 A 
ATOM      4  C   UNL     1      -1.500  37.119  32.747  1.00  0.00     0.000 A 
ATOM      5  C   UNL     1      -0.247  36.951  32.156  1.00  0.00     0.001 A 
ATOM      6  C   UNL     1       0.608  38.046  32.000  1.00  0.00     0.012 A 
ENDROOT
BRANCH   1   7
ATOM      7  C   UNL     1       1.139  40.485  32.265  1.00  0.00     0.159 C 
ATOM      8  C   UNL     1       1.619  40.921  30.913  1.00  0.00     0.093 C 
ATOM      9  O   UNL     1       1.534  41.125  33.277  1.00  0.00    -0.295 OA
ENDBRANCH   1   7
TORSDOF 1
ENDMDL
MODEL 6
REMARK VINA RESULT:    -3.274      1.610      2.833
REMARK INTER + INTRA:          -3.528
REMARK INTER:                  -3.467
REMARK INTRA:                  -0.062
REMARK UNBOUND:                -0.063
REMARK SMILES CC(=O)c1ccccc1
REMARK SMILES IDX 4 1 5 2 6 3 7 4 8 5 9 6 2 7 1 8 3 9
REMARK H PARENT
REMARK Flexibility Score: inf
ROOT
ATOM      1  C   UNL     1       0.214  39.162  31.962  1.00  0.00     0.017 A 
ATOM      2  C   UNL     1      -0.006  37.832  31.549  1.00  0.00     0.012 A 
ATOM      3  C   UNL     1      -1.023  37.068  32.128  1.00  0.00     0.001 A 
ATOM      4  C   UNL     1      -1.832  37.616  33.123  1.00  0.00     0.000 A 
ATOM      5  C   UNL     1      -1.627  38.931  33.543  1.00  0.00     0.001 A 
ATOM      6  C   UNL     1      -0.612  39.701  32.968  1.00  0.00     0.012 A 
ENDROOT
BRANCH   1   7
ATOM      7  C   UNL     1       1.291  39.993  31.358  1.00  0.00     0.159 C 
ATOM      8  C   UNL     1       2.714  39.527  31.303  1.00  0.00     0.093 C 
ATOM      9  O   UNL     1       1.011  41.125  30.875  1.00  0.00    -0.295 OA
ENDBRANCH   1   7
TORSDOF 1
ENDMDL
MODEL 7
REMARK VINA RESULT:    -3.226      1.879      2.893
REMARK INTER + INTRA:          -3.477
REMARK INTER:                  -3.415
REMARK INTRA:                  -0.063
REMARK UNBOUND:                -0.063
REMARK SMILES CC(=O)c1ccccc1
REMARK SMILES IDX 4 1 5 2 6 3 7 4 8 5 9 6 2 7 1 8 3 9
REMARK H PARENT
REMARK Flexibility Score: inf
ROOT
ATOM      1  C   UNL     1      -0.358  39.984  32.377  1.00  0.00     0.017 A 
ATOM      2  C   UNL     1       0.523  41.079  32.492  1.00  0.00     0.012 A 
ATOM      3  C   UNL     1       1.747  41.078  31.816  1.00  0.00     0.001 A 
ATOM      4  C   UNL     1       2.108  39.992  31.019  1.00  0.00     0.000 A 
ATOM      5  C   UNL     1       1.246  38.901  30.895  1.00  0.00     0.001 A 
ATOM      6  C   UNL     1       0.021  38.895  31.569  1.00  0.00     0.012 A 
ENDROOT
BRANCH   1   7
ATOM      7  C   UNL     1      -1.666  39.965  33.089  1.00  0.00     0.159 C 
ATOM      8  C   UNL     1      -2.615  41.123  33.032  1.00  0.00     0.093 C 
ATOM      9  O   UNL     1      -1.995  38.951  33.763  1.00  0.00    -0.295 OA
ENDBRANCH   1   7
TORSDOF 1
ENDMDL
MODEL 8
REMARK VINA RESULT:    -3.126      2.311      4.290
REMARK INTER + INTRA:          -3.372
REMARK INTER:                  -3.305
REMARK INTRA:                  -0.068
REMARK UNBOUND:                -0.063
REMARK SMILES CC(=O)c1ccccc1
REMARK SMILES IDX 4 1 5 2 6 3 7 4 8 5 9 6 2 7 1 8 3 9
REMARK H PARENT
REMARK Flexibility Score: inf
ROOT
ATOM      1  C   UNL     1       0.033  37.007  32.225  1.00  0.00     0.017 A 
ATOM      2  C   UNL     1      -1.319  36.990  32.623  1.00  0.00     0.012 A 
ATOM      3  C   UNL     1      -1.944  38.159  33.064  1.00  0.00     0.001 A 
ATOM      4  C   UNL     1      -1.234  39.359  33.114  1.00  0.00     0.000 A 
ATOM      5  C   UNL     1       0.106  39.393  32.723  1.00  0.00     0.001 A 
ATOM      6  C   UNL     1       0.737  38.227  32.281  1.00  0.00     0.012 A 
ENDROOT
BRANCH   1   7
ATOM      7  C   UNL     1       0.718  35.773  31.752  1.00  0.00     0.159 C 
ATOM      8  C   UNL     1       0.273  34.407  32.181  1.00  0.00     0.093 C 
ATOM      9  O   UNL     1       1.702  35.865  30.969  1.00  0.00    -0.295 OA
ENDBRANCH   1   7
TORSDOF 1
ENDMDL
