MODEL 1
REMARK VINA RESULT:    20.610      0.000      0.000
REMARK INTER + INTRA:          43.584
REMARK INTER:                  44.707
REMARK INTRA:                  -1.123
REMARK UNBOUND:                -1.123
REMARK SMILES CCCCCCCCCCCCCCCCCCCCCC(=O)[O-]
REMARK SMILES IDX 12 1 11 2 10 3 9 4 8 5 7 6 6 7 5 8 4 9 3 10 2 11 1 12 13 13
REMARK SMILES IDX 14 14 15 15 16 16 17 17 18 18 19 19 20 20 21 21 22 22 23 23
REMARK SMILES IDX 24 24
REMARK H PARENT
REMARK Flexibility Score: inf
ROOT
ATOM      1  C   UNL     1       4.470  47.863  13.985  1.00  0.00     0.000 C 
ENDROOT
BRANCH   1   2
ATOM      2  C   UNL     1       3.873  47.549  12.605  1.00  0.00     0.000 C 
BRANCH   2   3
ATOM      3  C   UNL     1       4.651  48.216  11.457  1.00  0.00     0.000 C 
BRANCH   3   4
ATOM      4  C   UNL     1       3.788  48.443  10.206  1.00  0.00    -0.000 C 
BRANCH   4   5
ATOM      5  C   UNL     1       4.504  49.294   9.140  1.00  0.00    -0.000 C 
BRANCH   5   6
ATOM      6  C   UNL     1       5.556  50.237   9.748  1.00  0.00    -0.000 C 
BRANCH   6   7
ATOM      7  C   UNL     1       6.817  50.359   8.875  1.00  0.00    -0.000 C 
BRANCH   7   8
ATOM      8  C   UNL     1       8.088  49.875   9.595  1.00  0.00    -0.000 C 
BRANCH   8   9
ATOM      9  C   UNL     1       7.834  49.023  10.856  1.00  0.00    -0.000 C 
BRANCH   9  10
ATOM     10  C   UNL     1       7.801  47.499  10.621  1.00  0.00    -0.000 C 
BRANCH  10  11
ATOM     11  C   UNL     1       7.657  47.072   9.150  1.00  0.00    -0.003 C 
ATOM     12  C   UNL     1       7.455  45.566   8.983  1.00  0.00     0.004 C 
ENDBRANCH  10  11
ENDBRANCH   9  10
ENDBRANCH   8   9
ENDBRANCH   7   8
ENDBRANCH   6   7
ENDBRANCH   5   6
ENDBRANCH   4   5
ENDBRANCH   3   4
ENDBRANCH   2   3
ENDBRANCH   1   2
BRANCH   1  13
ATOM     13  C   UNL     1       3.393  48.015  15.074  1.00  0.00     0.000 C 
BRANCH  13  14
ATOM     14  C   UNL     1       3.150  46.702  15.849  1.00  0.00     0.000 C 
BRANCH  14  15
ATOM     15  C   UNL     1       2.422  46.897  17.193  1.00  0.00     0.000 C 
BRANCH  15  16
ATOM     16  C   UNL     1       2.553  45.726  18.182  1.00  0.00     0.000 C 
BRANCH  16  17
ATOM     17  C   UNL     1       2.081  46.091  19.601  1.00  0.00     0.000 C 
BRANCH  17  18
ATOM     18  C   UNL     1       2.542  45.073  20.662  1.00  0.00     0.000 C 
BRANCH  18  19
ATOM     19  C   UNL     1       1.445  44.112  21.157  1.00  0.00     0.000 C 
BRANCH  19  20
ATOM     20  C   UNL     1       1.786  43.458  22.510  1.00  0.00     0.006 C 
BRANCH  20  21
ATOM     21  C   UNL     1       3.258  43.031  22.593  1.00  0.00     0.053 C 
BRANCH  21  22
ATOM     22  C   UNL     1       3.408  41.545  22.707  1.00  0.00     0.041 C 
ATOM     23  O   UNL     1       2.530  40.781  22.222  1.00  0.00    -0.550 OA
ATOM     24  O   UNL     1       4.498  41.001  23.377  1.00  0.00    -0.550 OA
ENDBRANCH  21  22
ENDBRANCH  20  21
ENDBRANCH  19  20
ENDBRANCH  18  19
ENDBRANCH  17  18
ENDBRANCH  16  17
ENDBRANCH  15  16
ENDBRANCH  14  15
ENDBRANCH  13  14
ENDBRANCH   1  13
TORSDOF 20
ENDMDL
MODEL 2
REMARK VINA RESULT:    20.733      8.201     11.680
REMARK INTER + INTRA:          43.851
REMARK INTER:                  38.026
REMARK INTRA:                   5.826
REMARK UNBOUND:                -1.123
REMARK SMILES CCCCCCCCCCCCCCCCCCCCCC(=O)[O-]
REMARK SMILES IDX 12 1 11 2 10 3 9 4 8 5 7 6 6 7 5 8 4 9 3 10 2 11 1 12 13 13
REMARK SMILES IDX 14 14 15 15 16 16 17 17 18 18 19 19 20 20 21 21 22 22 23 23
REMARK SMILES IDX 24 24
REMARK H PARENT
REMARK Flexibility Score: inf
ROOT
ATOM      1  C   UNL     1       8.386  44.735   9.781  1.00  0.00     0.000 C 
ENDROOT
BRANCH   1   2
ATOM      2  C   UNL     1       7.982  45.927   8.899  1.00  0.00     0.000 C 
BRANCH   2   3
ATOM      3  C   UNL     1       6.675  46.591   9.365  1.00  0.00     0.000 C 
BRANCH   3   4
ATOM      4  C   UNL     1       6.857  47.441  10.632  1.00  0.00    -0.000 C 
BRANCH   4   5
ATOM      5  C   UNL     1       5.539  48.078  11.112  1.00  0.00    -0.000 C 
BRANCH   5   6
ATOM      6  C   UNL     1       4.341  47.686  10.231  1.00  0.00    -0.000 C 
BRANCH   6   7
ATOM      7  C   UNL     1       3.617  48.908   9.640  1.00  0.00    -0.000 C 
BRANCH   7   8
ATOM      8  C   UNL     1       4.585  50.037   9.239  1.00  0.00    -0.000 C 
BRANCH   8   9
ATOM      9  C   UNL     1       6.040  49.587   8.998  1.00  0.00    -0.000 C 
BRANCH   9  10
ATOM     10  C   UNL     1       7.095  50.272   9.890  1.00  0.00    -0.000 C 
BRANCH  10  11
ATOM     11  C   UNL     1       7.623  49.408  11.050  1.00  0.00    -0.003 C 
ATOM     12  C   UNL     1       9.097  49.668  11.363  1.00  0.00     0.004 C 
ENDBRANCH  10  11
ENDBRANCH   9  10
ENDBRANCH   8   9
ENDBRANCH   7   8
ENDBRANCH   6   7
ENDBRANCH   5   6
ENDBRANCH   4   5
ENDBRANCH   3   4
ENDBRANCH   2   3
ENDBRANCH   1   2
BRANCH   1  13
ATOM     13  C   UNL     1       8.849  43.521   8.957  1.00  0.00     0.000 C 
BRANCH  13  14
ATOM     14  C   UNL     1      10.384  43.359   8.954  1.00  0.00     0.000 C 
BRANCH  14  15
ATOM     15  C   UNL     1      10.857  41.895   9.030  1.00  0.00     0.000 C 
BRANCH  15  16
ATOM     16  C   UNL     1      12.330  41.706   9.435  1.00  0.00     0.000 C 
BRANCH  16  17
ATOM     17  C   UNL     1      13.014  43.030   9.822  1.00  0.00     0.000 C 
BRANCH  17  18
ATOM     18  C   UNL     1      14.534  43.008   9.573  1.00  0.00     0.000 C 
BRANCH  18  19
ATOM     19  C   UNL     1      15.094  44.263   8.875  1.00  0.00     0.000 C 
BRANCH  19  20
ATOM     20  C   UNL     1      15.806  45.222   9.847  1.00  0.00     0.006 C 
BRANCH  20  21
ATOM     21  C   UNL     1      15.907  46.648   9.287  1.00  0.00     0.053 C 
BRANCH  21  22
ATOM     22  C   UNL     1      14.934  47.581   9.942  1.00  0.00     0.041 C 
ATOM     23  O   UNL     1      15.120  48.826   9.893  1.00  0.00    -0.550 OA
ATOM     24  O   UNL     1      13.840  47.075  10.634  1.00  0.00    -0.550 OA
ENDBRANCH  21  22
ENDBRANCH  20  21
ENDBRANCH  19  20
ENDBRANCH  18  19
ENDBRANCH  17  18
ENDBRANCH  16  17
ENDBRANCH  15  16
ENDBRANCH  14  15
ENDBRANCH  13  14
ENDBRANCH   1  13
TORSDOF 20
ENDMDL
MODEL 3
REMARK VINA RESULT:    20.952      4.618     12.090
REMARK INTER + INTRA:          44.325
REMARK INTER:                  44.281
REMARK INTRA:                   0.044
REMARK UNBOUND:                -1.123
REMARK SMILES CCCCCCCCCCCCCCCCCCCCCC(=O)[O-]
REMARK SMILES IDX 12 1 11 2 10 3 9 4 8 5 7 6 6 7 5 8 4 9 3 10 2 11 1 12 13 13
REMARK SMILES IDX 14 14 15 15 16 16 17 17 18 18 19 19 20 20 21 21 22 22 23 23
REMARK SMILES IDX 24 24
REMARK H PARENT
REMARK Flexibility Score: inf
ROOT
ATOM      1  C   UNL     1       2.778  46.744  16.611  1.00  0.00     0.000 C 
ENDROOT
BRANCH   1   2
ATOM      2  C   UNL     1       2.593  45.344  17.217  1.00  0.00     0.000 C 
BRANCH   2   3
ATOM      3  C   UNL     1       2.989  45.286  18.703  1.00  0.00     0.000 C 
BRANCH   3   4
ATOM      4  C   UNL     1       1.778  45.370  19.646  1.00  0.00    -0.000 C 
BRANCH   4   5
ATOM      5  C   UNL     1       2.121  44.953  21.088  1.00  0.00    -0.000 C 
BRANCH   5   6
ATOM      6  C   UNL     1       2.099  43.428  21.281  1.00  0.00    -0.000 C 
BRANCH   6   7
ATOM      7  C   UNL     1       2.563  43.002  22.685  1.00  0.00    -0.000 C 
BRANCH   7   8
ATOM      8  C   UNL     1       3.284  41.642  22.687  1.00  0.00    -0.000 C 
BRANCH   8   9
ATOM      9  C   UNL     1       4.503  41.557  23.628  1.00  0.00    -0.000 C 
BRANCH   9  10
ATOM     10  C   UNL     1       5.851  41.282  22.931  1.00  0.00    -0.000 C 
BRANCH  10  11
ATOM     11  C   UNL     1       6.980  42.265  23.291  1.00  0.00    -0.003 C 
ATOM     12  C   UNL     1       8.079  42.325  22.230  1.00  0.00     0.004 C 
ENDBRANCH  10  11
ENDBRANCH   9  10
ENDBRANCH   8   9
ENDBRANCH   7   8
ENDBRANCH   6   7
ENDBRANCH   5   6
ENDBRANCH   4   5
ENDBRANCH   3   4
ENDBRANCH   2   3
ENDBRANCH   1   2
BRANCH   1  13
ATOM     13  C   UNL     1       3.234  46.695  15.142  1.00  0.00     0.000 C 
BRANCH  13  14
ATOM     14  C   UNL     1       3.527  48.098  14.569  1.00  0.00     0.000 C 
BRANCH  14  15
ATOM     15  C   UNL     1       4.587  48.106  13.451  1.00  0.00     0.000 C 
BRANCH  15  16
ATOM     16  C   UNL     1       4.118  47.532  12.103  1.00  0.00     0.000 C 
BRANCH  16  17
ATOM     17  C   UNL     1       4.024  48.603  11.001  1.00  0.00     0.000 C 
BRANCH  17  18
ATOM     18  C   UNL     1       5.189  48.527   9.996  1.00  0.00     0.000 C 
BRANCH  18  19
ATOM     19  C   UNL     1       5.948  47.186   9.984  1.00  0.00     0.000 C 
BRANCH  19  20
ATOM     20  C   UNL     1       7.027  47.117   8.887  1.00  0.00     0.006 C 
BRANCH  20  21
ATOM     21  C   UNL     1       8.024  48.280   8.980  1.00  0.00     0.053 C 
BRANCH  21  22
ATOM     22  C   UNL     1       8.190  48.770  10.386  1.00  0.00     0.041 C 
ATOM     23  O   UNL     1       8.107  50.001  10.641  1.00  0.00    -0.550 OA
ATOM     24  O   UNL     1       8.470  47.872  11.410  1.00  0.00    -0.550 OA
ENDBRANCH  21  22
ENDBRANCH  20  21
ENDBRANCH  19  20
ENDBRANCH  18  19
ENDBRANCH  17  18
ENDBRANCH  16  17
ENDBRANCH  15  16
ENDBRANCH  14  15
ENDBRANCH  13  14
ENDBRANCH   1  13
TORSDOF 20
ENDMDL
MODEL 4
REMARK VINA RESULT:    21.544      4.032     11.466
REMARK INTER + INTRA:          45.610
REMARK INTER:                  46.105
REMARK INTRA:                  -0.495
REMARK UNBOUND:                -1.123
REMARK SMILES CCCCCCCCCCCCCCCCCCCCCC(=O)[O-]
REMARK SMILES IDX 12 1 11 2 10 3 9 4 8 5 7 6 6 7 5 8 4 9 3 10 2 11 1 12 13 13
REMARK SMILES IDX 14 14 15 15 16 16 17 17 18 18 19 19 20 20 21 21 22 22 23 23
REMARK SMILES IDX 24 24
REMARK H PARENT
REMARK Flexibility Score: inf
ROOT
ATOM      1  C   UNL     1       4.293  47.852  14.659  1.00  0.00     0.000 C 
ENDROOT
BRANCH   1   2
ATOM      2  C   UNL     1       3.216  47.112  15.468  1.00  0.00     0.000 C 
BRANCH   2   3
ATOM      3  C   UNL     1       3.690  45.735  15.964  1.00  0.00     0.000 C 
BRANCH   3   4
ATOM      4  C   UNL     1       2.715  45.094  16.963  1.00  0.00    -0.000 C 
BRANCH   4   5
ATOM      5  C   UNL     1       3.089  45.388  18.428  1.00  0.00    -0.000 C 
BRANCH   5   6
ATOM      6  C   UNL     1       1.933  46.029  19.214  1.00  0.00    -0.000 C 
BRANCH   6   7
ATOM      7  C   UNL     1       1.491  45.178  20.417  1.00  0.00    -0.000 C 
BRANCH   7   8
ATOM      8  C   UNL     1       2.324  43.892  20.574  1.00  0.00    -0.000 C 
BRANCH   8   9
ATOM      9  C   UNL     1       2.293  43.270  21.985  1.00  0.00    -0.000 C 
BRANCH   9  10
ATOM     10  C   UNL     1       2.419  41.734  22.028  1.00  0.00    -0.000 C 
BRANCH  10  11
ATOM     11  C   UNL     1       3.597  41.203  22.864  1.00  0.00    -0.003 C 
ATOM     12  C   UNL     1       4.458  42.318  23.458  1.00  0.00     0.004 C 
ENDBRANCH  10  11
ENDBRANCH   9  10
ENDBRANCH   8   9
ENDBRANCH   7   8
ENDBRANCH   6   7
ENDBRANCH   5   6
ENDBRANCH   4   5
ENDBRANCH   3   4
ENDBRANCH   2   3
ENDBRANCH   1   2
BRANCH   1  13
ATOM     13  C   UNL     1       3.834  48.180  13.227  1.00  0.00     0.000 C 
BRANCH  13  14
ATOM     14  C   UNL     1       3.510  46.914  12.406  1.00  0.00     0.000 C 
BRANCH  14  15
ATOM     15  C   UNL     1       3.484  47.147  10.884  1.00  0.00     0.000 C 
BRANCH  15  16
ATOM     16  C   UNL     1       3.737  48.600  10.443  1.00  0.00     0.000 C 
BRANCH  16  17
ATOM     17  C   UNL     1       4.835  48.712   9.370  1.00  0.00     0.000 C 
BRANCH  17  18
ATOM     18  C   UNL     1       5.695  49.981   9.529  1.00  0.00     0.000 C 
BRANCH  18  19
ATOM     19  C   UNL     1       7.216  49.748   9.436  1.00  0.00     0.000 C 
BRANCH  19  20
ATOM     20  C   UNL     1       7.577  48.360   8.875  1.00  0.00     0.006 C 
BRANCH  20  21
ATOM     21  C   UNL     1       7.343  47.241   9.899  1.00  0.00     0.053 C 
BRANCH  21  22
ATOM     22  C   UNL     1       7.718  47.660  11.287  1.00  0.00     0.041 C 
ATOM     23  O   UNL     1       8.922  47.620  11.658  1.00  0.00    -0.550 OA
ATOM     24  O   UNL     1       6.735  48.064  12.184  1.00  0.00    -0.550 OA
ENDBRANCH  21  22
ENDBRANCH  20  21
ENDBRANCH  19  20
ENDBRANCH  18  19
ENDBRANCH  17  18
ENDBRANCH  16  17
ENDBRANCH  15  16
ENDBRANCH  14  15
ENDBRANCH  13  14
ENDBRANCH   1  13
TORSDOF 20
ENDMDL
MODEL 5
REMARK VINA RESULT:    22.138      5.321     10.678
REMARK INTER + INTRA:          46.898
REMARK INTER:                  47.351
REMARK INTRA:                  -0.453
REMARK UNBOUND:                -1.123
REMARK SMILES CCCCCCCCCCCCCCCCCCCCCC(=O)[O-]
REMARK SMILES IDX 12 1 11 2 10 3 9 4 8 5 7 6 6 7 5 8 4 9 3 10 2 11 1 12 13 13
REMARK SMILES IDX 14 14 15 15 16 16 17 17 18 18 19 19 20 20 21 21 22 22 23 23
REMARK SMILES IDX 24 24
REMARK H PARENT
REMARK Flexibility Score: inf
ROOT
ATOM      1  C   UNL     1       3.473  45.581  17.560  1.00  0.00     0.000 C 
ENDROOT
BRANCH   1   2
ATOM      2  C   UNL     1       2.607  44.862  18.605  1.00  0.00     0.000 C 
BRANCH   2   3
ATOM      3  C   UNL     1       1.557  45.789  19.243  1.00  0.00     0.000 C 
BRANCH   3   4
ATOM      4  C   UNL     1       2.157  46.730  20.300  1.00  0.00    -0.000 C 
BRANCH   4   5
ATOM      5  C   UNL     1       3.606  47.137  19.975  1.00  0.00    -0.000 C 
BRANCH   5   6
ATOM      6  C   UNL     1       4.614  46.597  21.004  1.00  0.00    -0.000 C 
BRANCH   6   7
ATOM      7  C   UNL     1       6.066  46.980  20.668  1.00  0.00    -0.000 C 
BRANCH   7   8
ATOM      8  C   UNL     1       6.942  45.757  20.337  1.00  0.00    -0.000 C 
BRANCH   8   9
ATOM      9  C   UNL     1       8.246  46.081  19.580  1.00  0.00    -0.000 C 
BRANCH   9  10
ATOM     10  C   UNL     1       9.542  45.638  20.287  1.00  0.00    -0.000 C 
BRANCH  10  11
ATOM     11  C   UNL     1       9.917  44.159  20.086  1.00  0.00    -0.003 C 
ATOM     12  C   UNL     1       9.679  43.308  21.333  1.00  0.00     0.004 C 
ENDBRANCH  10  11
ENDBRANCH   9  10
ENDBRANCH   8   9
ENDBRANCH   7   8
ENDBRANCH   6   7
ENDBRANCH   5   6
ENDBRANCH   4   5
ENDBRANCH   3   4
ENDBRANCH   2   3
ENDBRANCH   1   2
BRANCH   1  13
ATOM     13  C   UNL     1       2.749  45.759  16.214  1.00  0.00     0.000 C 
BRANCH  13  14
ATOM     14  C   UNL     1       2.918  47.180  15.636  1.00  0.00     0.000 C 
BRANCH  14  15
ATOM     15  C   UNL     1       3.038  47.219  14.101  1.00  0.00     0.000 C 
BRANCH  15  16
ATOM     16  C   UNL     1       4.395  47.708  13.564  1.00  0.00     0.000 C 
BRANCH  16  17
ATOM     17  C   UNL     1       4.253  48.613  12.327  1.00  0.00     0.000 C 
BRANCH  17  18
ATOM     18  C   UNL     1       4.422  47.843  11.004  1.00  0.00     0.000 C 
BRANCH  18  19
ATOM     19  C   UNL     1       4.452  48.725   9.740  1.00  0.00     0.000 C 
BRANCH  19  20
ATOM     20  C   UNL     1       5.797  48.654   8.992  1.00  0.00     0.006 C 
BRANCH  20  21
ATOM     21  C   UNL     1       6.784  47.687   9.661  1.00  0.00     0.053 C 
BRANCH  21  22
ATOM     22  C   UNL     1       7.728  48.395  10.584  1.00  0.00     0.041 C 
ATOM     23  O   UNL     1       8.026  49.602  10.381  1.00  0.00    -0.550 OA
ATOM     24  O   UNL     1       8.304  47.714  11.650  1.00  0.00    -0.550 OA
ENDBRANCH  21  22
ENDBRANCH  20  21
ENDBRANCH  19  20
ENDBRANCH  18  19
ENDBRANCH  17  18
ENDBRANCH  16  17
ENDBRANCH  15  16
ENDBRANCH  14  15
ENDBRANCH  13  14
ENDBRANCH   1  13
TORSDOF 20
ENDMDL
MODEL 6
REMARK VINA RESULT:    22.197      2.673      3.280
REMARK INTER + INTRA:          47.026
REMARK INTER:                  47.030
REMARK INTRA:                  -0.004
REMARK UNBOUND:                -1.123
REMARK SMILES CCCCCCCCCCCCCCCCCCCCCC(=O)[O-]
REMARK SMILES IDX 12 1 11 2 10 3 9 4 8 5 7 6 6 7 5 8 4 9 3 10 2 11 1 12 13 13
REMARK SMILES IDX 14 14 15 15 16 16 17 17 18 18 19 19 20 20 21 21 22 22 23 23
REMARK SMILES IDX 24 24
REMARK H PARENT
REMARK Flexibility Score: inf
ROOT
ATOM      1  C   UNL     1       4.948  47.692  13.487  1.00  0.00     0.000 C 
ENDROOT
BRANCH   1   2
ATOM      2  C   UNL     1       4.598  48.623  12.316  1.00  0.00     0.000 C 
BRANCH   2   3
ATOM      3  C   UNL     1       3.838  47.898  11.191  1.00  0.00     0.000 C 
BRANCH   3   4
ATOM      4  C   UNL     1       3.136  48.866  10.226  1.00  0.00    -0.000 C 
BRANCH   4   5
ATOM      5  C   UNL     1       3.867  48.989   8.875  1.00  0.00    -0.000 C 
BRANCH   5   6
ATOM      6  C   UNL     1       5.138  49.848   8.969  1.00  0.00    -0.000 C 
BRANCH   6   7
ATOM      7  C   UNL     1       6.426  49.011   8.875  1.00  0.00    -0.000 C 
BRANCH   7   8
ATOM      8  C   UNL     1       7.654  49.744   9.445  1.00  0.00    -0.000 C 
BRANCH   8   9
ATOM      9  C   UNL     1       8.146  49.219  10.809  1.00  0.00    -0.000 C 
BRANCH   9  10
ATOM     10  C   UNL     1       7.889  47.721  11.067  1.00  0.00    -0.000 C 
BRANCH  10  11
ATOM     11  C   UNL     1       7.229  46.966   9.899  1.00  0.00    -0.003 C 
ATOM     12  C   UNL     1       8.245  46.335   8.947  1.00  0.00     0.004 C 
ENDBRANCH  10  11
ENDBRANCH   9  10
ENDBRANCH   8   9
ENDBRANCH   7   8
ENDBRANCH   6   7
ENDBRANCH   5   6
ENDBRANCH   4   5
ENDBRANCH   3   4
ENDBRANCH   2   3
ENDBRANCH   1   2
BRANCH   1  13
ATOM     13  C   UNL     1       4.524  48.271  14.849  1.00  0.00     0.000 C 
BRANCH  13  14
ATOM     14  C   UNL     1       2.991  48.306  15.022  1.00  0.00     0.000 C 
BRANCH  14  15
ATOM     15  C   UNL     1       2.391  46.984  15.538  1.00  0.00     0.000 C 
BRANCH  15  16
ATOM     16  C   UNL     1       3.146  45.714  15.108  1.00  0.00     0.000 C 
BRANCH  16  17
ATOM     17  C   UNL     1       3.252  44.675  16.239  1.00  0.00     0.000 C 
BRANCH  17  18
ATOM     18  C   UNL     1       3.347  45.321  17.634  1.00  0.00     0.000 C 
BRANCH  18  19
ATOM     19  C   UNL     1       2.186  44.979  18.588  1.00  0.00     0.000 C 
BRANCH  19  20
ATOM     20  C   UNL     1       2.527  45.240  20.066  1.00  0.00     0.006 C 
BRANCH  20  21
ATOM     21  C   UNL     1       1.520  46.186  20.737  1.00  0.00     0.053 C 
BRANCH  21  22
ATOM     22  C   UNL     1       1.988  47.609  20.722  1.00  0.00     0.041 C 
ATOM     23  O   UNL     1       3.217  47.871  20.632  1.00  0.00    -0.550 OA
ATOM     24  O   UNL     1       1.070  48.647  20.839  1.00  0.00    -0.550 OA
ENDBRANCH  21  22
ENDBRANCH  20  21
ENDBRANCH  19  20
ENDBRANCH  18  19
ENDBRANCH  17  18
ENDBRANCH  16  17
ENDBRANCH  15  16
ENDBRANCH  14  15
ENDBRANCH  13  14
ENDBRANCH   1  13
TORSDOF 20
ENDMDL
MODEL 7
REMARK VINA RESULT:    22.305      1.154      2.288
REMARK INTER + INTRA:          47.261
REMARK INTER:                  48.058
REMARK INTRA:                  -0.797
REMARK UNBOUND:                -1.123
REMARK SMILES CCCCCCCCCCCCCCCCCCCCCC(=O)[O-]
REMARK SMILES IDX 12 1 11 2 10 3 9 4 8 5 7 6 6 7 5 8 4 9 3 10 2 11 1 12 13 13
REMARK SMILES IDX 14 14 15 15 16 16 17 17 18 18 19 19 20 20 21 21 22 22 23 23
REMARK SMILES IDX 24 24
REMARK H PARENT
REMARK Flexibility Score: inf
ROOT
ATOM      1  C   UNL     1       2.721  46.780  15.622  1.00  0.00     0.000 C 
ENDROOT
BRANCH   1   2
ATOM      2  C   UNL     1       2.685  47.300  14.176  1.00  0.00     0.000 C 
BRANCH   2   3
ATOM      3  C   UNL     1       3.968  48.055  13.787  1.00  0.00     0.000 C 
BRANCH   3   4
ATOM      4  C   UNL     1       4.542  47.597  12.437  1.00  0.00    -0.000 C 
BRANCH   4   5
ATOM      5  C   UNL     1       3.966  48.392  11.249  1.00  0.00    -0.000 C 
BRANCH   5   6
ATOM      6  C   UNL     1       5.054  49.134  10.455  1.00  0.00    -0.000 C 
BRANCH   6   7
ATOM      7  C   UNL     1       5.201  48.605   9.017  1.00  0.00    -0.000 C 
BRANCH   7   8
ATOM      8  C   UNL     1       5.555  47.107   8.967  1.00  0.00    -0.000 C 
BRANCH   8   9
ATOM      9  C   UNL     1       7.055  46.791   9.137  1.00  0.00    -0.000 C 
BRANCH   9  10
ATOM     10  C   UNL     1       7.985  48.021   9.169  1.00  0.00    -0.000 C 
BRANCH  10  11
ATOM     11  C   UNL     1       8.298  48.561  10.576  1.00  0.00    -0.003 C 
ATOM     12  C   UNL     1       8.430  50.084  10.614  1.00  0.00     0.004 C 
ENDBRANCH  10  11
ENDBRANCH   9  10
ENDBRANCH   8   9
ENDBRANCH   7   8
ENDBRANCH   6   7
ENDBRANCH   5   6
ENDBRANCH   4   5
ENDBRANCH   3   4
ENDBRANCH   2   3
ENDBRANCH   1   2
BRANCH   1  13
ATOM     13  C   UNL     1       4.118  46.288  16.038  1.00  0.00     0.000 C 
BRANCH  13  14
ATOM     14  C   UNL     1       4.119  44.801  16.455  1.00  0.00     0.000 C 
BRANCH  14  15
ATOM     15  C   UNL     1       2.711  44.209  16.654  1.00  0.00     0.000 C 
BRANCH  15  16
ATOM     16  C   UNL     1       2.270  44.055  18.120  1.00  0.00     0.000 C 
BRANCH  16  17
ATOM     17  C   UNL     1       2.667  45.262  18.989  1.00  0.00     0.000 C 
BRANCH  17  18
ATOM     18  C   UNL     1       1.628  45.575  20.083  1.00  0.00     0.000 C 
BRANCH  18  19
ATOM     19  C   UNL     1       1.437  44.462  21.132  1.00  0.00     0.000 C 
BRANCH  19  20
ATOM     20  C   UNL     1       2.698  43.600  21.327  1.00  0.00     0.006 C 
BRANCH  20  21
ATOM     21  C   UNL     1       2.802  43.036  22.751  1.00  0.00     0.053 C 
BRANCH  21  22
ATOM     22  C   UNL     1       3.315  41.629  22.764  1.00  0.00     0.041 C 
ATOM     23  O   UNL     1       4.146  41.265  23.639  1.00  0.00    -0.550 OA
ATOM     24  O   UNL     1       2.901  40.726  21.791  1.00  0.00    -0.550 OA
ENDBRANCH  21  22
ENDBRANCH  20  21
ENDBRANCH  19  20
ENDBRANCH  18  19
ENDBRANCH  17  18
ENDBRANCH  16  17
ENDBRANCH  15  16
ENDBRANCH  14  15
ENDBRANCH  13  14
ENDBRANCH   1  13
TORSDOF 20
ENDMDL
