MODEL 1
REMARK VINA RESULT:    -3.519      0.000      0.000
REMARK INTER + INTRA:          -4.241
REMARK INTER:                  -4.136
REMARK INTRA:                  -0.105
REMARK UNBOUND:                -0.105
REMARK SMILES O=C([O-])CCC(=O)[O-]
REMARK SMILES IDX 4 1 2 2 1 3 3 4 5 5 6 6 7 7 8 8
REMARK H PARENT
REMARK Flexibility Score: inf
ROOT
ATOM      1  C   UNL     1      -7.895  33.838 -15.812  1.00  0.00     0.059 C 
ENDROOT
BRANCH   1   2
ATOM      2  C   UNL     1      -8.109  32.379 -16.077  1.00  0.00     0.042 C 
ATOM      3  O   UNL     1      -8.076  31.936 -17.254  1.00  0.00    -0.550 OA
ATOM      4  O   UNL     1      -8.305  31.502 -15.018  1.00  0.00    -0.550 OA
ENDBRANCH   1   2
BRANCH   1   5
ATOM      5  C   UNL     1      -6.427  34.235 -15.996  1.00  0.00     0.059 C 
BRANCH   5   6
ATOM      6  C   UNL     1      -6.273  35.322 -17.015  1.00  0.00     0.042 C 
ATOM      7  O   UNL     1      -6.535  35.097 -18.226  1.00  0.00    -0.550 OA
ATOM      8  O   UNL     1      -5.878  36.594 -16.621  1.00  0.00    -0.550 OA
ENDBRANCH   5   6
ENDBRANCH   1   5
TORSDOF 3
ENDMDL
MODEL 2
REMARK VINA RESULT:    -3.426      0.167      3.972
REMARK INTER + INTRA:          -4.132
REMARK INTER:                  -4.026
REMARK INTRA:                  -0.106
REMARK UNBOUND:                -0.105
REMARK SMILES O=C([O-])CCC(=O)[O-]
REMARK SMILES IDX 4 1 2 2 1 3 3 4 5 5 6 6 7 7 8 8
REMARK H PARENT
REMARK Flexibility Score: inf
ROOT
ATOM      1  C   UNL     1      -6.523  34.162 -15.994  1.00  0.00     0.059 C 
ENDROOT
BRANCH   1   2
ATOM      2  C   UNL     1      -6.330  35.184 -17.073  1.00  0.00     0.042 C 
ATOM      3  O   UNL     1      -6.613  34.906 -18.268  1.00  0.00    -0.550 OA
ATOM      4  O   UNL     1      -5.875  36.456 -16.751  1.00  0.00    -0.550 OA
ENDBRANCH   1   2
BRANCH   1   5
ATOM      5  C   UNL     1      -7.997  33.777 -15.839  1.00  0.00     0.059 C 
BRANCH   5   6
ATOM      6  C   UNL     1      -8.203  32.303 -16.013  1.00  0.00     0.042 C 
ATOM      7  O   UNL     1      -8.120  31.781 -17.155  1.00  0.00    -0.550 OA
ATOM      8  O   UNL     1      -8.447  31.500 -14.905  1.00  0.00    -0.550 OA
ENDBRANCH   5   6
ENDBRANCH   1   5
TORSDOF 3
ENDMDL
MODEL 3
REMARK VINA RESULT:    -1.156     13.397     13.862
REMARK INTER + INTRA:          -1.464
REMARK INTER:                  -1.429
REMARK INTRA:                  -0.035
REMARK UNBOUND:                -0.105
REMARK SMILES O=C([O-])CCC(=O)[O-]
REMARK SMILES IDX 4 1 2 2 1 3 3 4 5 5 6 6 7 7 8 8
REMARK H PARENT
REMARK Flexibility Score: inf
ROOT
ATOM      1  C   UNL     1     -15.817  24.184 -20.536  1.00  0.00     0.059 C 
ENDROOT
BRANCH   1   2
ATOM      2  C   UNL     1     -16.283  24.228 -19.113  1.00  0.00     0.042 C 
ATOM      3  O   UNL     1     -16.219  23.198 -18.392  1.00  0.00    -0.550 OA
ATOM      4  O   UNL     1     -16.749  25.419 -18.572  1.00  0.00    -0.550 OA
ENDBRANCH   1   2
BRANCH   1   5
ATOM      5  C   UNL     1     -15.083  22.876 -20.849  1.00  0.00     0.059 C 
BRANCH   5   6
ATOM      6  C   UNL     1     -14.115  23.044 -21.980  1.00  0.00     0.042 C 
ATOM      7  O   UNL     1     -14.526  23.373 -23.124  1.00  0.00    -0.550 OA
ATOM      8  O   UNL     1     -12.754  22.875 -21.761  1.00  0.00    -0.550 OA
ENDBRANCH   5   6
ENDBRANCH   1   5
TORSDOF 3
ENDMDL
MODEL 4
REMARK VINA RESULT:    -0.801     13.361     14.142
REMARK INTER + INTRA:          -1.046
REMARK INTER:                  -1.005
REMARK INTRA:                  -0.041
REMARK UNBOUND:                -0.105
REMARK SMILES O=C([O-])CCC(=O)[O-]
REMARK SMILES IDX 4 1 2 2 1 3 3 4 5 5 6 6 7 7 8 8
REMARK H PARENT
REMARK Flexibility Score: inf
ROOT
ATOM      1  C   UNL     1     -15.625  22.897 -20.748  1.00  0.00     0.059 C 
ENDROOT
BRANCH   1   2
ATOM      2  C   UNL     1     -14.524  22.896 -21.764  1.00  0.00     0.042 C 
ATOM      3  O   UNL     1     -13.321  22.876 -21.396  1.00  0.00    -0.550 OA
ATOM      4  O   UNL     1     -14.829  22.877 -23.119  1.00  0.00    -0.550 OA
ENDBRANCH   1   2
BRANCH   1   5
ATOM      5  C   UNL     1     -15.971  24.318 -20.293  1.00  0.00     0.059 C 
BRANCH   5   6
ATOM      6  C   UNL     1     -16.376  24.352 -18.851  1.00  0.00     0.042 C 
ATOM      7  O   UNL     1     -16.800  25.420 -18.336  1.00  0.00    -0.550 OA
ATOM      8  O   UNL     1     -16.322  23.194 -18.086  1.00  0.00    -0.550 OA
ENDBRANCH   5   6
ENDBRANCH   1   5
TORSDOF 3
ENDMDL
