MODEL 1
REMARK VINA RESULT:    -3.974      0.000      0.000
REMARK INTER + INTRA:          -4.504
REMARK INTER:                  -4.439
REMARK INTRA:                  -0.065
REMARK UNBOUND:                -0.065
REMARK SMILES COc1ccc(C(=O)[O-])cc1
REMARK SMILES IDX 6 1 5 2 10 3 4 4 11 5 3 6 7 7 8 8 9 9 2 10 1 11
REMARK H PARENT
REMARK Flexibility Score: inf
ROOT
ATOM      1  C   UNL     1      42.663 184.889  33.191  1.00  0.00    -0.003 A 
ATOM      2  C   UNL     1      42.392 186.193  33.644  1.00  0.00     0.014 A 
ATOM      3  C   UNL     1      41.892 184.359  32.143  1.00  0.00     0.014 A 
ATOM      4  C   UNL     1      41.371 186.949  33.060  1.00  0.00     0.047 A 
ATOM      5  C   UNL     1      40.873 185.116  31.560  1.00  0.00     0.047 A 
ATOM      6  C   UNL     1      40.602 186.413  32.011  1.00  0.00     0.118 A 
ENDROOT
BRANCH   1   7
ATOM      7  C   UNL     1      43.744 184.085  33.805  1.00  0.00     0.071 C 
ATOM      8  O   UNL     1      43.779 183.906  35.051  1.00  0.00    -0.545 OA
ATOM      9  O   UNL     1      44.734 183.515  33.014  1.00  0.00    -0.545 OA
ENDBRANCH   1   7
BRANCH   6  10
ATOM     10  O   UNL     1      39.566 187.130  31.393  1.00  0.00    -0.497 OA
ATOM     11  C   UNL     1      38.829 186.665  30.267  1.00  0.00     0.278 C 
ENDBRANCH   6  10
TORSDOF 2
ENDMDL
MODEL 2
REMARK VINA RESULT:    -3.906      0.098      1.757
REMARK INTER + INTRA:          -4.427
REMARK INTER:                  -4.367
REMARK INTRA:                  -0.060
REMARK UNBOUND:                -0.065
REMARK SMILES COc1ccc(C(=O)[O-])cc1
REMARK SMILES IDX 6 1 5 2 10 3 4 4 11 5 3 6 7 7 8 8 9 9 2 10 1 11
REMARK H PARENT
REMARK Flexibility Score: inf
ROOT
ATOM      1  C   UNL     1      42.653 184.830  33.147  1.00  0.00    -0.003 A 
ATOM      2  C   UNL     1      41.874 184.304  32.101  1.00  0.00     0.014 A 
ATOM      3  C   UNL     1      42.377 186.125  33.617  1.00  0.00     0.014 A 
ATOM      4  C   UNL     1      40.840 185.059  31.537  1.00  0.00     0.047 A 
ATOM      5  C   UNL     1      41.344 186.878  33.053  1.00  0.00     0.047 A 
ATOM      6  C   UNL     1      40.568 186.356  32.011  1.00  0.00     0.118 A 
ENDROOT
BRANCH   1   7
ATOM      7  C   UNL     1      43.747 184.034  33.748  1.00  0.00     0.071 C 
ATOM      8  O   UNL     1      44.623 183.499  33.018  1.00  0.00    -0.545 OA
ATOM      9  O   UNL     1      43.823 183.868  35.125  1.00  0.00    -0.545 OA
ENDBRANCH   1   7
BRANCH   6  10
ATOM     10  O   UNL     1      39.544 187.153  31.479  1.00  0.00    -0.497 OA
ATOM     11  C   UNL     1      38.840 186.859  30.276  1.00  0.00     0.278 C 
ENDBRANCH   6  10
TORSDOF 2
ENDMDL
MODEL 3
REMARK VINA RESULT:    -3.820      0.909      4.983
REMARK INTER + INTRA:          -4.331
REMARK INTER:                  -4.269
REMARK INTRA:                  -0.061
REMARK UNBOUND:                -0.065
REMARK SMILES COc1ccc(C(=O)[O-])cc1
REMARK SMILES IDX 6 1 5 2 10 3 4 4 11 5 3 6 7 7 8 8 9 9 2 10 1 11
REMARK H PARENT
REMARK Flexibility Score: inf
ROOT
ATOM      1  C   UNL     1      40.811 185.923  31.953  1.00  0.00    -0.003 A 
ATOM      2  C   UNL     1      41.205 184.586  31.764  1.00  0.00     0.014 A 
ATOM      3  C   UNL     1      41.444 186.684  32.949  1.00  0.00     0.014 A 
ATOM      4  C   UNL     1      42.212 184.025  32.555  1.00  0.00     0.047 A 
ATOM      5  C   UNL     1      42.451 186.122  33.739  1.00  0.00     0.047 A 
ATOM      6  C   UNL     1      42.843 184.791  33.551  1.00  0.00     0.118 A 
ENDROOT
BRANCH   1   7
ATOM      7  C   UNL     1      39.746 186.522  31.118  1.00  0.00     0.071 C 
ATOM      8  O   UNL     1      39.475 186.042  29.985  1.00  0.00    -0.545 OA
ATOM      9  O   UNL     1      39.029 187.622  31.572  1.00  0.00    -0.545 OA
ENDBRANCH   1   7
BRANCH   6  10
ATOM     10  O   UNL     1      43.858 184.274  34.371  1.00  0.00    -0.497 OA
ATOM     11  C   UNL     1      44.951 183.493  33.898  1.00  0.00     0.278 C 
ENDBRANCH   6  10
TORSDOF 2
ENDMDL
MODEL 4
REMARK VINA RESULT:    -3.805      0.907      4.761
REMARK INTER + INTRA:          -4.314
REMARK INTER:                  -4.248
REMARK INTRA:                  -0.066
REMARK UNBOUND:                -0.065
REMARK SMILES COc1ccc(C(=O)[O-])cc1
REMARK SMILES IDX 6 1 5 2 10 3 4 4 11 5 3 6 7 7 8 8 9 9 2 10 1 11
REMARK H PARENT
REMARK Flexibility Score: inf
ROOT
ATOM      1  C   UNL     1      40.786 186.029  32.094  1.00  0.00    -0.003 A 
ATOM      2  C   UNL     1      41.363 186.745  33.158  1.00  0.00     0.014 A 
ATOM      3  C   UNL     1      41.255 184.735  31.811  1.00  0.00     0.014 A 
ATOM      4  C   UNL     1      42.387 186.176  33.923  1.00  0.00     0.047 A 
ATOM      5  C   UNL     1      42.277 184.169  32.576  1.00  0.00     0.047 A 
ATOM      6  C   UNL     1      42.852 184.880  33.635  1.00  0.00     0.118 A 
ENDROOT
BRANCH   1   7
ATOM      7  C   UNL     1      39.702 186.626  31.282  1.00  0.00     0.071 C 
ATOM      8  O   UNL     1      39.358 186.101  30.190  1.00  0.00    -0.545 OA
ATOM      9  O   UNL     1      39.047 187.772  31.715  1.00  0.00    -0.545 OA
ENDBRANCH   1   7
BRANCH   6  10
ATOM     10  O   UNL     1      43.877 184.267  34.372  1.00  0.00    -0.497 OA
ATOM     11  C   UNL     1      44.945 183.523  33.795  1.00  0.00     0.278 C 
ENDBRANCH   6  10
TORSDOF 2
ENDMDL
MODEL 5
REMARK VINA RESULT:    -3.619      1.729      5.113
REMARK INTER + INTRA:          -4.106
REMARK INTER:                  -4.048
REMARK INTRA:                  -0.059
REMARK UNBOUND:                -0.065
REMARK SMILES COc1ccc(C(=O)[O-])cc1
REMARK SMILES IDX 6 1 5 2 10 3 4 4 11 5 3 6 7 7 8 8 9 9 2 10 1 11
REMARK H PARENT
REMARK Flexibility Score: inf
ROOT
ATOM      1  C   UNL     1      39.396 185.845  31.518  1.00  0.00    -0.003 A 
ATOM      2  C   UNL     1      40.669 185.987  30.938  1.00  0.00     0.014 A 
ATOM      3  C   UNL     1      39.302 185.533  32.885  1.00  0.00     0.014 A 
ATOM      4  C   UNL     1      41.823 185.822  31.711  1.00  0.00     0.047 A 
ATOM      5  C   UNL     1      40.456 185.368  33.655  1.00  0.00     0.047 A 
ATOM      6  C   UNL     1      41.724 185.509  33.079  1.00  0.00     0.118 A 
ENDROOT
BRANCH   1   7
ATOM      7  C   UNL     1      38.172 186.020  30.706  1.00  0.00     0.071 C 
ATOM      8  O   UNL     1      38.190 186.733  29.667  1.00  0.00    -0.545 OA
ATOM      9  O   UNL     1      36.985 185.399  31.076  1.00  0.00    -0.545 OA
ENDBRANCH   1   7
BRANCH   6  10
ATOM     10  O   UNL     1      42.851 185.333  33.896  1.00  0.00    -0.497 OA
ATOM     11  C   UNL     1      43.655 184.158  33.911  1.00  0.00     0.278 C 
ENDBRANCH   6  10
TORSDOF 2
ENDMDL
MODEL 6
REMARK VINA RESULT:    -3.513      1.642      5.049
REMARK INTER + INTRA:          -3.988
REMARK INTER:                  -3.927
REMARK INTRA:                  -0.061
REMARK UNBOUND:                -0.065
REMARK SMILES COc1ccc(C(=O)[O-])cc1
REMARK SMILES IDX 6 1 5 2 10 3 4 4 11 5 3 6 7 7 8 8 9 9 2 10 1 11
REMARK H PARENT
REMARK Flexibility Score: inf
ROOT
ATOM      1  C   UNL     1      39.518 185.723  31.631  1.00  0.00    -0.003 A 
ATOM      2  C   UNL     1      39.412 185.104  32.889  1.00  0.00     0.014 A 
ATOM      3  C   UNL     1      40.795 185.986  31.107  1.00  0.00     0.014 A 
ATOM      4  C   UNL     1      40.560 184.756  33.607  1.00  0.00     0.047 A 
ATOM      5  C   UNL     1      41.941 185.637  31.826  1.00  0.00     0.047 A 
ATOM      6  C   UNL     1      41.837 185.022  33.079  1.00  0.00     0.118 A 
ENDROOT
BRANCH   1   7
ATOM      7  C   UNL     1      38.306 186.092  30.866  1.00  0.00     0.071 C 
ATOM      8  O   UNL     1      38.348 187.010  30.004  1.00  0.00    -0.545 OA
ATOM      9  O   UNL     1      37.105 185.429  31.086  1.00  0.00    -0.545 OA
ENDBRANCH   1   7
BRANCH   6  10
ATOM     10  O   UNL     1      43.018 184.693  33.760  1.00  0.00    -0.497 OA
ATOM     11  C   UNL     1      43.993 183.773  33.278  1.00  0.00     0.278 C 
ENDBRANCH   6  10
TORSDOF 2
ENDMDL
MODEL 7
REMARK VINA RESULT:    -3.478      1.940      2.616
REMARK INTER + INTRA:          -3.949
REMARK INTER:                  -3.897
REMARK INTRA:                  -0.052
REMARK UNBOUND:                -0.065
REMARK SMILES COc1ccc(C(=O)[O-])cc1
REMARK SMILES IDX 6 1 5 2 10 3 4 4 11 5 3 6 7 7 8 8 9 9 2 10 1 11
REMARK H PARENT
REMARK Flexibility Score: inf
ROOT
ATOM      1  C   UNL     1      40.677 185.951  32.798  1.00  0.00    -0.003 A 
ATOM      2  C   UNL     1      39.494 186.692  32.978  1.00  0.00     0.014 A 
ATOM      3  C   UNL     1      41.003 185.491  31.511  1.00  0.00     0.014 A 
ATOM      4  C   UNL     1      38.657 186.965  31.892  1.00  0.00     0.047 A 
ATOM      5  C   UNL     1      40.165 185.766  30.427  1.00  0.00     0.047 A 
ATOM      6  C   UNL     1      38.988 186.502  30.605  1.00  0.00     0.118 A 
ENDROOT
BRANCH   1   7
ATOM      7  C   UNL     1      41.567 185.660  33.944  1.00  0.00     0.071 C 
ATOM      8  O   UNL     1      42.701 186.202  34.026  1.00  0.00    -0.545 OA
ATOM      9  O   UNL     1      41.164 184.785  34.945  1.00  0.00    -0.545 OA
ENDBRANCH   1   7
BRANCH   6  10
ATOM     10  O   UNL     1      38.181 186.750  29.484  1.00  0.00    -0.497 OA
ATOM     11  C   UNL     1      38.142 187.988  28.781  1.00  0.00     0.278 C 
ENDBRANCH   6  10
TORSDOF 2
ENDMDL
MODEL 8
REMARK VINA RESULT:    -3.441      1.814      2.417
REMARK INTER + INTRA:          -3.908
REMARK INTER:                  -3.851
REMARK INTRA:                  -0.057
REMARK UNBOUND:                -0.065
REMARK SMILES COc1ccc(C(=O)[O-])cc1
REMARK SMILES IDX 6 1 5 2 10 3 4 4 11 5 3 6 7 7 8 8 9 9 2 10 1 11
REMARK H PARENT
REMARK Flexibility Score: inf
ROOT
ATOM      1  C   UNL     1      40.931 184.972  32.052  1.00  0.00    -0.003 A 
ATOM      2  C   UNL     1      40.241 185.593  33.109  1.00  0.00     0.014 A 
ATOM      3  C   UNL     1      40.653 185.369  30.733  1.00  0.00     0.014 A 
ATOM      4  C   UNL     1      39.295 186.589  32.851  1.00  0.00     0.047 A 
ATOM      5  C   UNL     1      39.708 186.365  30.477  1.00  0.00     0.047 A 
ATOM      6  C   UNL     1      39.021 186.983  31.528  1.00  0.00     0.118 A 
ENDROOT
BRANCH   1   7
ATOM      7  C   UNL     1      41.934 183.917  32.320  1.00  0.00     0.071 C 
ATOM      8  O   UNL     1      43.162 184.147  32.161  1.00  0.00    -0.545 OA
ATOM      9  O   UNL     1      41.535 182.659  32.754  1.00  0.00    -0.545 OA
ENDBRANCH   1   7
BRANCH   6  10
ATOM     10  O   UNL     1      38.081 187.977  31.217  1.00  0.00    -0.497 OA
ATOM     11  C   UNL     1      37.639 188.977  32.130  1.00  0.00     0.278 C 
ENDBRANCH   6  10
TORSDOF 2
ENDMDL
MODEL 9
REMARK VINA RESULT:    -3.350      1.933      5.100
REMARK INTER + INTRA:          -3.806
REMARK INTER:                  -3.746
REMARK INTRA:                  -0.060
REMARK UNBOUND:                -0.065
REMARK SMILES COc1ccc(C(=O)[O-])cc1
REMARK SMILES IDX 6 1 5 2 10 3 4 4 11 5 3 6 7 7 8 8 9 9 2 10 1 11
REMARK H PARENT
REMARK Flexibility Score: inf
ROOT
ATOM      1  C   UNL     1      41.376 184.390  32.459  1.00  0.00    -0.003 A 
ATOM      2  C   UNL     1      40.912 183.315  33.237  1.00  0.00     0.014 A 
ATOM      3  C   UNL     1      42.759 184.553  32.279  1.00  0.00     0.014 A 
ATOM      4  C   UNL     1      41.814 182.421  33.822  1.00  0.00     0.047 A 
ATOM      5  C   UNL     1      43.660 183.659  32.864  1.00  0.00     0.047 A 
ATOM      6  C   UNL     1      43.199 182.589  33.639  1.00  0.00     0.118 A 
ENDROOT
BRANCH   1   7
ATOM      7  C   UNL     1      40.424 185.338  31.836  1.00  0.00     0.071 C 
ATOM      8  O   UNL     1      39.473 185.823  32.506  1.00  0.00    -0.545 OA
ATOM      9  O   UNL     1      40.568 185.709  30.505  1.00  0.00    -0.545 OA
ENDBRANCH   1   7
BRANCH   6  10
ATOM     10  O   UNL     1      44.145 181.720  34.205  1.00  0.00    -0.497 OA
ATOM     11  C   UNL     1      43.895 180.352  34.514  1.00  0.00     0.278 C 
ENDBRANCH   6  10
TORSDOF 2
ENDMDL
