MODEL 1
REMARK VINA RESULT:    -2.469      0.000      0.000
REMARK INTER + INTRA:          -4.068
REMARK INTER:                  -3.912
REMARK INTRA:                  -0.156
REMARK UNBOUND:                -0.156
REMARK SMILES CCCCCCCCCCCC(=O)[O-]
REMARK SMILES IDX 7 1 8 2 9 3 10 4 11 5 12 6 13 7 14 8 6 9 5 10 4 11 3 12 2 13
REMARK SMILES IDX 1 14
REMARK H PARENT
REMARK Flexibility Score: inf
ROOT
ATOM      1  C   UNL     1     -18.386  34.702 -20.078  1.00  0.00     0.000 C 
ENDROOT
BRANCH   1   2
ATOM      2  C   UNL     1     -19.811  34.591 -20.649  1.00  0.00     0.000 C 
BRANCH   2   3
ATOM      3  C   UNL     1     -20.893  34.758 -19.570  1.00  0.00     0.000 C 
BRANCH   3   4
ATOM      4  C   UNL     1     -20.795  36.106 -18.834  1.00  0.00     0.006 C 
BRANCH   4   5
ATOM      5  C   UNL     1     -20.886  35.942 -17.312  1.00  0.00     0.053 C 
BRANCH   5   6
ATOM      6  C   UNL     1     -19.534  35.982 -16.668  1.00  0.00     0.041 C 
ATOM      7  O   UNL     1     -19.430  36.125 -15.421  1.00  0.00    -0.550 OA
ATOM      8  O   UNL     1     -18.391  35.829 -17.441  1.00  0.00    -0.550 OA
ENDBRANCH   5   6
ENDBRANCH   4   5
ENDBRANCH   3   4
ENDBRANCH   2   3
ENDBRANCH   1   2
BRANCH   1   9
ATOM      9  C   UNL     1     -17.321  34.152 -21.039  1.00  0.00     0.000 C 
BRANCH   9  10
ATOM     10  C   UNL     1     -15.887  34.466 -20.582  1.00  0.00    -0.000 C 
BRANCH  10  11
ATOM     11  C   UNL     1     -15.641  33.955 -19.157  1.00  0.00    -0.000 C 
BRANCH  11  12
ATOM     12  C   UNL     1     -14.316  34.496 -18.599  1.00  0.00    -0.000 C 
BRANCH  12  13
ATOM     13  C   UNL     1     -14.511  35.738 -17.716  1.00  0.00    -0.003 C 
ATOM     14  C   UNL     1     -14.021  35.528 -16.284  1.00  0.00     0.004 C 
ENDBRANCH  12  13
ENDBRANCH  11  12
ENDBRANCH  10  11
ENDBRANCH   9  10
ENDBRANCH   1   9
TORSDOF 10
ENDMDL
MODEL 2
REMARK VINA RESULT:    -2.392      1.640      2.174
REMARK INTER + INTRA:          -3.947
REMARK INTER:                  -3.338
REMARK INTRA:                  -0.609
REMARK UNBOUND:                -0.156
REMARK SMILES CCCCCCCCCCCC(=O)[O-]
REMARK SMILES IDX 7 1 8 2 9 3 10 4 11 5 12 6 13 7 14 8 6 9 5 10 4 11 3 12 2 13
REMARK SMILES IDX 1 14
REMARK H PARENT
REMARK Flexibility Score: inf
ROOT
ATOM      1  C   UNL     1     -17.411  35.670 -19.872  1.00  0.00     0.000 C 
ENDROOT
BRANCH   1   2
ATOM      2  C   UNL     1     -18.302  35.580 -21.125  1.00  0.00     0.000 C 
BRANCH   2   3
ATOM      3  C   UNL     1     -19.219  34.348 -21.108  1.00  0.00     0.000 C 
BRANCH   3   4
ATOM      4  C   UNL     1     -20.714  34.719 -21.125  1.00  0.00     0.006 C 
BRANCH   4   5
ATOM      5  C   UNL     1     -21.090  35.653 -19.968  1.00  0.00     0.053 C 
BRANCH   5   6
ATOM      6  C   UNL     1     -21.067  34.941 -18.651  1.00  0.00     0.041 C 
ATOM      7  O   UNL     1     -21.081  35.597 -17.575  1.00  0.00    -0.550 OA
ATOM      8  O   UNL     1     -21.063  33.553 -18.611  1.00  0.00    -0.550 OA
ENDBRANCH   5   6
ENDBRANCH   4   5
ENDBRANCH   3   4
ENDBRANCH   2   3
ENDBRANCH   1   2
BRANCH   1   9
ATOM      9  C   UNL     1     -17.573  34.454 -18.946  1.00  0.00     0.000 C 
BRANCH   9  10
ATOM     10  C   UNL     1     -16.736  33.247 -19.397  1.00  0.00    -0.000 C 
BRANCH  10  11
ATOM     11  C   UNL     1     -15.361  33.693 -19.908  1.00  0.00    -0.000 C 
BRANCH  11  12
ATOM     12  C   UNL     1     -14.357  33.816 -18.752  1.00  0.00    -0.000 C 
BRANCH  12  13
ATOM     13  C   UNL     1     -13.949  35.272 -18.478  1.00  0.00    -0.003 C 
ATOM     14  C   UNL     1     -14.774  35.918 -17.366  1.00  0.00     0.004 C 
ENDBRANCH  12  13
ENDBRANCH  11  12
ENDBRANCH  10  11
ENDBRANCH   9  10
ENDBRANCH   1   9
TORSDOF 10
ENDMDL
MODEL 3
REMARK VINA RESULT:    -1.625      1.073      1.959
REMARK INTER + INTRA:          -2.731
REMARK INTER:                  -3.729
REMARK INTRA:                   0.998
REMARK UNBOUND:                -0.156
REMARK SMILES CCCCCCCCCCCC(=O)[O-]
REMARK SMILES IDX 7 1 8 2 9 3 10 4 11 5 12 6 13 7 14 8 6 9 5 10 4 11 3 12 2 13
REMARK SMILES IDX 1 14
REMARK H PARENT
REMARK Flexibility Score: inf
ROOT
ATOM      1  C   UNL     1     -17.828  34.148 -20.439  1.00  0.00     0.000 C 
ENDROOT
BRANCH   1   2
ATOM      2  C   UNL     1     -19.322  34.286 -20.783  1.00  0.00     0.000 C 
BRANCH   2   3
ATOM      3  C   UNL     1     -20.208  34.385 -19.532  1.00  0.00     0.000 C 
BRANCH   3   4
ATOM      4  C   UNL     1     -20.535  35.840 -19.149  1.00  0.00     0.006 C 
BRANCH   4   5
ATOM      5  C   UNL     1     -20.866  35.985 -17.658  1.00  0.00     0.053 C 
BRANCH   5   6
ATOM      6  C   UNL     1     -19.629  35.993 -16.814  1.00  0.00     0.041 C 
ATOM      7  O   UNL     1     -18.493  35.910 -17.353  1.00  0.00    -0.550 OA
ATOM      8  O   UNL     1     -19.729  36.125 -15.435  1.00  0.00    -0.550 OA
ENDBRANCH   5   6
ENDBRANCH   4   5
ENDBRANCH   3   4
ENDBRANCH   2   3
ENDBRANCH   1   2
BRANCH   1   9
ATOM      9  C   UNL     1     -17.083  35.491 -20.497  1.00  0.00     0.000 C 
BRANCH   9  10
ATOM     10  C   UNL     1     -16.890  36.125 -19.110  1.00  0.00    -0.000 C 
BRANCH  10  11
ATOM     11  C   UNL     1     -15.428  36.021 -18.657  1.00  0.00    -0.000 C 
BRANCH  11  12
ATOM     12  C   UNL     1     -15.098  34.596 -18.187  1.00  0.00    -0.000 C 
BRANCH  12  13
ATOM     13  C   UNL     1     -14.638  33.686 -19.336  1.00  0.00    -0.003 C 
ATOM     14  C   UNL     1     -15.223  32.277 -19.245  1.00  0.00     0.004 C 
ENDBRANCH  12  13
ENDBRANCH  11  12
ENDBRANCH  10  11
ENDBRANCH   9  10
ENDBRANCH   1   9
TORSDOF 10
ENDMDL
MODEL 4
REMARK VINA RESULT:    -1.210      2.086      2.955
REMARK INTER + INTRA:          -2.073
REMARK INTER:                  -3.204
REMARK INTRA:                   1.130
REMARK UNBOUND:                -0.156
REMARK SMILES CCCCCCCCCCCC(=O)[O-]
REMARK SMILES IDX 7 1 8 2 9 3 10 4 11 5 12 6 13 7 14 8 6 9 5 10 4 11 3 12 2 13
REMARK SMILES IDX 1 14
REMARK H PARENT
REMARK Flexibility Score: inf
ROOT
ATOM      1  C   UNL     1     -17.763  35.147 -17.771  1.00  0.00     0.000 C 
ENDROOT
BRANCH   1   2
ATOM      2  C   UNL     1     -19.043  35.840 -17.269  1.00  0.00     0.000 C 
BRANCH   2   3
ATOM      3  C   UNL     1     -20.082  36.037 -18.384  1.00  0.00     0.000 C 
BRANCH   3   4
ATOM      4  C   UNL     1     -21.125  34.906 -18.432  1.00  0.00     0.006 C 
BRANCH   4   5
ATOM      5  C   UNL     1     -21.054  34.108 -19.740  1.00  0.00     0.053 C 
BRANCH   5   6
ATOM      6  C   UNL     1     -20.024  34.666 -20.674  1.00  0.00     0.041 C 
ATOM      7  O   UNL     1     -19.102  33.931 -21.115  1.00  0.00    -0.550 OA
ATOM      8  O   UNL     1     -20.103  35.991 -21.083  1.00  0.00    -0.550 OA
ENDBRANCH   5   6
ENDBRANCH   4   5
ENDBRANCH   3   4
ENDBRANCH   2   3
ENDBRANCH   1   2
BRANCH   1   9
ATOM      9  C   UNL     1     -16.812  36.117 -18.490  1.00  0.00     0.000 C 
BRANCH   9  10
ATOM     10  C   UNL     1     -16.478  35.670 -19.922  1.00  0.00    -0.000 C 
BRANCH  10  11
ATOM     11  C   UNL     1     -16.054  34.196 -19.952  1.00  0.00    -0.000 C 
BRANCH  11  12
ATOM     12  C   UNL     1     -15.139  33.862 -18.764  1.00  0.00    -0.000 C 
BRANCH  12  13
ATOM     13  C   UNL     1     -14.167  35.003 -18.428  1.00  0.00    -0.003 C 
ATOM     14  C   UNL     1     -14.105  35.306 -16.932  1.00  0.00     0.004 C 
ENDBRANCH  12  13
ENDBRANCH  11  12
ENDBRANCH  10  11
ENDBRANCH   9  10
ENDBRANCH   1   9
TORSDOF 10
ENDMDL
MODEL 5
REMARK VINA RESULT:    -1.090      1.988      2.523
REMARK INTER + INTRA:          -1.883
REMARK INTER:                  -2.883
REMARK INTRA:                   1.000
REMARK UNBOUND:                -0.156
REMARK SMILES CCCCCCCCCCCC(=O)[O-]
REMARK SMILES IDX 7 1 8 2 9 3 10 4 11 5 12 6 13 7 14 8 6 9 5 10 4 11 3 12 2 13
REMARK SMILES IDX 1 14
REMARK H PARENT
REMARK Flexibility Score: inf
ROOT
ATOM      1  C   UNL     1     -17.240  33.573 -19.028  1.00  0.00     0.000 C 
ENDROOT
BRANCH   1   2
ATOM      2  C   UNL     1     -18.061  34.312 -17.957  1.00  0.00     0.000 C 
BRANCH   2   3
ATOM      3  C   UNL     1     -18.587  35.669 -18.450  1.00  0.00     0.000 C 
BRANCH   3   4
ATOM      4  C   UNL     1     -19.852  36.124 -17.700  1.00  0.00     0.006 C 
BRANCH   4   5
ATOM      5  C   UNL     1     -21.125  35.903 -18.526  1.00  0.00     0.053 C 
BRANCH   5   6
ATOM      6  C   UNL     1     -20.834  35.192 -19.813  1.00  0.00     0.041 C 
ATOM      7  O   UNL     1     -20.952  33.941 -19.887  1.00  0.00    -0.550 OA
ATOM      8  O   UNL     1     -20.465  35.917 -20.939  1.00  0.00    -0.550 OA
ENDBRANCH   5   6
ENDBRANCH   4   5
ENDBRANCH   3   4
ENDBRANCH   2   3
ENDBRANCH   1   2
BRANCH   1   9
ATOM      9  C   UNL     1     -17.301  34.264 -20.400  1.00  0.00     0.000 C 
BRANCH   9  10
ATOM     10  C   UNL     1     -15.911  34.627 -20.946  1.00  0.00    -0.000 C 
BRANCH  10  11
ATOM     11  C   UNL     1     -14.830  33.726 -20.337  1.00  0.00    -0.000 C 
BRANCH  11  12
ATOM     12  C   UNL     1     -14.864  33.784 -18.802  1.00  0.00    -0.000 C 
BRANCH  12  13
ATOM     13  C   UNL     1     -14.073  34.974 -18.239  1.00  0.00    -0.003 C 
ATOM     14  C   UNL     1     -14.973  36.125 -17.792  1.00  0.00     0.004 C 
ENDBRANCH  12  13
ENDBRANCH  11  12
ENDBRANCH  10  11
ENDBRANCH   9  10
ENDBRANCH   1   9
TORSDOF 10
ENDMDL
MODEL 6
REMARK VINA RESULT:    -0.525      1.758      3.048
REMARK INTER + INTRA:          -0.988
REMARK INTER:                  -1.999
REMARK INTRA:                   1.011
REMARK UNBOUND:                -0.156
REMARK SMILES CCCCCCCCCCCC(=O)[O-]
REMARK SMILES IDX 7 1 8 2 9 3 10 4 11 5 12 6 13 7 14 8 6 9 5 10 4 11 3 12 2 13
REMARK SMILES IDX 1 14
REMARK H PARENT
REMARK Flexibility Score: inf
ROOT
ATOM      1  C   UNL     1     -17.979  35.202 -18.502  1.00  0.00     0.000 C 
ENDROOT
BRANCH   1   2
ATOM      2  C   UNL     1     -17.711  35.111 -20.015  1.00  0.00     0.000 C 
BRANCH   2   3
ATOM      3  C   UNL     1     -18.546  36.116 -20.823  1.00  0.00     0.000 C 
BRANCH   3   4
ATOM      4  C   UNL     1     -20.011  35.672 -20.991  1.00  0.00     0.006 C 
BRANCH   4   5
ATOM      5  C   UNL     1     -20.860  36.002 -19.757  1.00  0.00     0.053 C 
BRANCH   5   6
ATOM      6  C   UNL     1     -21.016  34.815 -18.858  1.00  0.00     0.041 C 
ATOM      7  O   UNL     1     -21.020  33.651 -19.339  1.00  0.00    -0.550 OA
ATOM      8  O   UNL     1     -21.124  34.992 -17.485  1.00  0.00    -0.550 OA
ENDBRANCH   5   6
ENDBRANCH   4   5
ENDBRANCH   3   4
ENDBRANCH   2   3
ENDBRANCH   1   2
BRANCH   1   9
ATOM      9  C   UNL     1     -16.734  35.625 -17.707  1.00  0.00     0.000 C 
BRANCH   9  10
ATOM     10  C   UNL     1     -15.557  36.021 -18.612  1.00  0.00    -0.000 C 
BRANCH  10  11
ATOM     11  C   UNL     1     -14.403  35.020 -18.481  1.00  0.00    -0.000 C 
BRANCH  11  12
ATOM     12  C   UNL     1     -14.932  33.602 -18.216  1.00  0.00    -0.000 C 
BRANCH  12  13
ATOM     13  C   UNL     1     -15.270  32.846 -19.509  1.00  0.00    -0.003 C 
ATOM     14  C   UNL     1     -15.238  33.745 -20.745  1.00  0.00     0.004 C 
ENDBRANCH  12  13
ENDBRANCH  11  12
ENDBRANCH  10  11
ENDBRANCH   9  10
ENDBRANCH   1   9
TORSDOF 10
ENDMDL
MODEL 7
REMARK VINA RESULT:    -0.097      2.705      5.636
REMARK INTER + INTRA:          -0.310
REMARK INTER:                   0.320
REMARK INTRA:                  -0.630
REMARK UNBOUND:                -0.156
REMARK SMILES CCCCCCCCCCCC(=O)[O-]
REMARK SMILES IDX 7 1 8 2 9 3 10 4 11 5 12 6 13 7 14 8 6 9 5 10 4 11 3 12 2 13
REMARK SMILES IDX 1 14
REMARK H PARENT
REMARK Flexibility Score: inf
ROOT
ATOM      1  C   UNL     1     -15.177  33.380 -19.220  1.00  0.00     0.000 C 
ENDROOT
BRANCH   1   2
ATOM      2  C   UNL     1     -14.277  34.588 -18.904  1.00  0.00     0.000 C 
BRANCH   2   3
ATOM      3  C   UNL     1     -15.015  35.682 -18.117  1.00  0.00     0.000 C 
BRANCH   3   4
ATOM      4  C   UNL     1     -14.354  35.986 -16.760  1.00  0.00     0.006 C 
BRANCH   4   5
ATOM      5  C   UNL     1     -13.911  34.710 -16.033  1.00  0.00     0.053 C 
BRANCH   5   6
ATOM      6  C   UNL     1     -13.170  35.020 -14.769  1.00  0.00     0.041 C 
ATOM      7  O   UNL     1     -12.580  36.125 -14.635  1.00  0.00    -0.550 OA
ATOM      8  O   UNL     1     -13.160  34.103 -13.727  1.00  0.00    -0.550 OA
ENDBRANCH   5   6
ENDBRANCH   4   5
ENDBRANCH   3   4
ENDBRANCH   2   3
ENDBRANCH   1   2
BRANCH   1   9
ATOM      9  C   UNL     1     -16.669  33.749 -19.256  1.00  0.00     0.000 C 
BRANCH   9  10
ATOM     10  C   UNL     1     -17.031  34.640 -20.455  1.00  0.00    -0.000 C 
BRANCH  10  11
ATOM     11  C   UNL     1     -18.165  35.608 -20.096  1.00  0.00    -0.000 C 
BRANCH  11  12
ATOM     12  C   UNL     1     -18.622  35.406 -18.643  1.00  0.00    -0.000 C 
BRANCH  12  13
ATOM     13  C   UNL     1     -20.147  35.275 -18.517  1.00  0.00    -0.003 C 
ATOM     14  C   UNL     1     -20.828  34.984 -19.854  1.00  0.00     0.004 C 
ENDBRANCH  12  13
ENDBRANCH  11  12
ENDBRANCH  10  11
ENDBRANCH   9  10
ENDBRANCH   1   9
TORSDOF 10
ENDMDL
MODEL 8
REMARK VINA RESULT:    -0.083      2.488      5.495
REMARK INTER + INTRA:          -0.288
REMARK INTER:                   0.333
REMARK INTRA:                  -0.620
REMARK UNBOUND:                -0.156
REMARK SMILES CCCCCCCCCCCC(=O)[O-]
REMARK SMILES IDX 7 1 8 2 9 3 10 4 11 5 12 6 13 7 14 8 6 9 5 10 4 11 3 12 2 13
REMARK SMILES IDX 1 14
REMARK H PARENT
REMARK Flexibility Score: inf
ROOT
ATOM      1  C   UNL     1     -17.537  34.842 -18.090  1.00  0.00     0.000 C 
ENDROOT
BRANCH   1   2
ATOM      2  C   UNL     1     -17.046  36.094 -18.840  1.00  0.00     0.000 C 
BRANCH   2   3
ATOM      3  C   UNL     1     -15.518  36.125 -18.996  1.00  0.00     0.000 C 
BRANCH   3   4
ATOM      4  C   UNL     1     -14.808  35.096 -18.098  1.00  0.00     0.006 C 
BRANCH   4   5
ATOM      5  C   UNL     1     -14.084  34.018 -18.914  1.00  0.00     0.053 C 
BRANCH   5   6
ATOM      6  C   UNL     1     -15.040  33.216 -19.742  1.00  0.00     0.041 C 
ATOM      7  O   UNL     1     -15.491  32.122 -19.311  1.00  0.00    -0.550 OA
ATOM      8  O   UNL     1     -15.459  33.693 -20.978  1.00  0.00    -0.550 OA
ENDBRANCH   5   6
ENDBRANCH   4   5
ENDBRANCH   3   4
ENDBRANCH   2   3
ENDBRANCH   1   2
BRANCH   1   9
ATOM      9  C   UNL     1     -18.468  33.969 -18.946  1.00  0.00     0.000 C 
BRANCH   9  10
ATOM     10  C   UNL     1     -18.703  34.549 -20.350  1.00  0.00    -0.000 C 
BRANCH  10  11
ATOM     11  C   UNL     1     -20.195  34.544 -20.703  1.00  0.00    -0.000 C 
BRANCH  11  12
ATOM     12  C   UNL     1     -21.061  34.634 -19.437  1.00  0.00    -0.000 C 
BRANCH  12  13
ATOM     13  C   UNL     1     -21.118  36.057 -18.861  1.00  0.00    -0.003 C 
ATOM     14  C   UNL     1     -20.658  36.125 -17.405  1.00  0.00     0.004 C 
ENDBRANCH  12  13
ENDBRANCH  11  12
ENDBRANCH  10  11
ENDBRANCH   9  10
ENDBRANCH   1   9
TORSDOF 10
ENDMDL
