MODEL 1
REMARK VINA RESULT:    -5.465      0.000      0.000
REMARK INTER + INTRA:         -11.105
REMARK INTER:                  -9.938
REMARK INTRA:                  -1.167
REMARK UNBOUND:                -1.167
REMARK SMILES CCCCCCCCCCCCCCCC(=O)[O-]
REMARK SMILES IDX 9 1 10 2 11 3 12 4 13 5 14 6 15 7 16 8 17 9 18 10 8 11 7 12
REMARK SMILES IDX 6 13 5 14 4 15 3 16 2 17 1 18
REMARK H PARENT
REMARK Flexibility Score: inf
ROOT
ATOM      1  C   UNL     1     -10.809  -2.181  -9.665  1.00  0.00     0.000 C 
ENDROOT
BRANCH   1   2
ATOM      2  C   UNL     1      -9.588  -2.983 -10.131  1.00  0.00     0.000 C 
BRANCH   2   3
ATOM      3  C   UNL     1      -9.107  -3.944  -9.032  1.00  0.00     0.000 C 
BRANCH   3   4
ATOM      4  C   UNL     1      -9.423  -3.431  -7.618  1.00  0.00     0.000 C 
BRANCH   4   5
ATOM      5  C   UNL     1     -10.190  -4.464  -6.773  1.00  0.00     0.000 C 
BRANCH   5   6
ATOM      6  C   UNL     1     -10.264  -5.842  -7.450  1.00  0.00     0.006 C 
BRANCH   6   7
ATOM      7  C   UNL     1     -11.640  -6.506  -7.299  1.00  0.00     0.053 C 
BRANCH   7   8
ATOM      8  C   UNL     1     -12.602  -5.946  -8.299  1.00  0.00     0.041 C 
ATOM      9  O   UNL     1     -12.190  -5.556  -9.424  1.00  0.00    -0.550 OA
ATOM     10  O   UNL     1     -13.960  -5.907  -8.012  1.00  0.00    -0.550 OA
ENDBRANCH   7   8
ENDBRANCH   6   7
ENDBRANCH   5   6
ENDBRANCH   4   5
ENDBRANCH   3   4
ENDBRANCH   2   3
ENDBRANCH   1   2
BRANCH   1  11
ATOM     11  C   UNL     1     -10.872  -0.818 -10.370  1.00  0.00     0.000 C 
BRANCH  11  12
ATOM     12  C   UNL     1     -12.090   0.015  -9.939  1.00  0.00    -0.000 C 
BRANCH  12  13
ATOM     13  C   UNL     1     -13.420  -0.581 -10.432  1.00  0.00    -0.000 C 
BRANCH  13  14
ATOM     14  C   UNL     1     -14.635   0.263 -10.018  1.00  0.00    -0.000 C 
BRANCH  14  15
ATOM     15  C   UNL     1     -14.330   1.772  -9.999  1.00  0.00    -0.000 C 
BRANCH  15  16
ATOM     16  C   UNL     1     -14.785   2.441  -8.684  1.00  0.00    -0.000 C 
BRANCH  16  17
ATOM     17  C   UNL     1     -14.102   3.792  -8.413  1.00  0.00    -0.003 C 
ATOM     18  C   UNL     1     -12.624   3.804  -8.799  1.00  0.00     0.004 C 
ENDBRANCH  16  17
ENDBRANCH  15  16
ENDBRANCH  14  15
ENDBRANCH  13  14
ENDBRANCH  12  13
ENDBRANCH  11  12
ENDBRANCH   1  11
TORSDOF 14
ENDMDL
MODEL 2
REMARK VINA RESULT:    -5.342      3.197      7.540
REMARK INTER + INTRA:         -10.880
REMARK INTER:                  -9.545
REMARK INTRA:                  -1.336
REMARK UNBOUND:                -1.167
REMARK SMILES CCCCCCCCCCCCCCCC(=O)[O-]
REMARK SMILES IDX 9 1 10 2 11 3 12 4 13 5 14 6 15 7 16 8 17 9 18 10 8 11 7 12
REMARK SMILES IDX 6 13 5 14 4 15 3 16 2 17 1 18
REMARK H PARENT
REMARK Flexibility Score: inf
ROOT
ATOM      1  C   UNL     1     -10.842  -2.342  -9.598  1.00  0.00     0.000 C 
ENDROOT
BRANCH   1   2
ATOM      2  C   UNL     1     -10.850  -0.994 -10.329  1.00  0.00     0.000 C 
BRANCH   2   3
ATOM      3  C   UNL     1     -12.090  -0.169  -9.949  1.00  0.00     0.000 C 
BRANCH   3   4
ATOM      4  C   UNL     1     -13.375  -0.693 -10.612  1.00  0.00     0.000 C 
BRANCH   4   5
ATOM      5  C   UNL     1     -14.648  -0.156  -9.935  1.00  0.00     0.000 C 
BRANCH   5   6
ATOM      6  C   UNL     1     -14.815   1.362 -10.110  1.00  0.00     0.006 C 
BRANCH   6   7
ATOM      7  C   UNL     1     -14.838   2.117  -8.774  1.00  0.00     0.053 C 
BRANCH   7   8
ATOM      8  C   UNL     1     -13.876   3.263  -8.806  1.00  0.00     0.041 C 
ATOM      9  O   UNL     1     -14.244   4.409  -8.436  1.00  0.00    -0.550 OA
ATOM     10  O   UNL     1     -12.558   3.053  -9.192  1.00  0.00    -0.550 OA
ENDBRANCH   7   8
ENDBRANCH   6   7
ENDBRANCH   5   6
ENDBRANCH   4   5
ENDBRANCH   3   4
ENDBRANCH   2   3
ENDBRANCH   1   2
BRANCH   1  11
ATOM     11  C   UNL     1      -9.652  -3.202 -10.048  1.00  0.00     0.000 C 
BRANCH  11  12
ATOM     12  C   UNL     1      -9.147  -4.139  -8.939  1.00  0.00    -0.000 C 
BRANCH  12  13
ATOM     13  C   UNL     1      -9.333  -3.545  -7.531  1.00  0.00    -0.000 C 
BRANCH  13  14
ATOM     14  C   UNL     1     -10.189  -4.440  -6.622  1.00  0.00    -0.000 C 
BRANCH  14  15
ATOM     15  C   UNL     1     -10.642  -5.735  -7.320  1.00  0.00    -0.000 C 
BRANCH  15  16
ATOM     16  C   UNL     1     -12.175  -5.912  -7.283  1.00  0.00    -0.000 C 
BRANCH  16  17
ATOM     17  C   UNL     1     -12.863  -5.602  -8.623  1.00  0.00    -0.003 C 
ATOM     18  C   UNL     1     -12.277  -6.391  -9.793  1.00  0.00     0.004 C 
ENDBRANCH  16  17
ENDBRANCH  15  16
ENDBRANCH  14  15
ENDBRANCH  13  14
ENDBRANCH  12  13
ENDBRANCH  11  12
ENDBRANCH   1  11
TORSDOF 14
ENDMDL
MODEL 3
REMARK VINA RESULT:    -5.308      1.620      2.302
REMARK INTER + INTRA:         -10.820
REMARK INTER:                  -9.896
REMARK INTRA:                  -0.923
REMARK UNBOUND:                -1.167
REMARK SMILES CCCCCCCCCCCCCCCC(=O)[O-]
REMARK SMILES IDX 9 1 10 2 11 3 12 4 13 5 14 6 15 7 16 8 17 9 18 10 8 11 7 12
REMARK SMILES IDX 6 13 5 14 4 15 3 16 2 17 1 18
REMARK H PARENT
REMARK Flexibility Score: inf
ROOT
ATOM      1  C   UNL     1     -11.965  -0.255 -10.029  1.00  0.00     0.000 C 
ENDROOT
BRANCH   1   2
ATOM      2  C   UNL     1     -10.620  -0.986 -10.112  1.00  0.00     0.000 C 
BRANCH   2   3
ATOM      3  C   UNL     1     -10.758  -2.448  -9.660  1.00  0.00     0.000 C 
BRANCH   3   4
ATOM      4  C   UNL     1      -9.959  -2.750  -8.382  1.00  0.00     0.000 C 
BRANCH   4   5
ATOM      5  C   UNL     1      -9.519  -4.222  -8.296  1.00  0.00     0.000 C 
BRANCH   5   6
ATOM      6  C   UNL     1     -10.644  -5.147  -7.805  1.00  0.00     0.006 C 
BRANCH   6   7
ATOM      7  C   UNL     1     -10.661  -5.306  -6.278  1.00  0.00     0.053 C 
BRANCH   7   8
ATOM      8  C   UNL     1     -10.974  -6.721  -5.905  1.00  0.00     0.041 C 
ATOM      9  O   UNL     1     -10.478  -7.674  -6.563  1.00  0.00    -0.550 OA
ATOM     10  O   UNL     1     -11.768  -6.987  -4.797  1.00  0.00    -0.550 OA
ENDBRANCH   7   8
ENDBRANCH   6   7
ENDBRANCH   5   6
ENDBRANCH   4   5
ENDBRANCH   3   4
ENDBRANCH   2   3
ENDBRANCH   1   2
BRANCH   1  11
ATOM     11  C   UNL     1     -13.116  -1.170 -10.475  1.00  0.00     0.000 C 
BRANCH  11  12
ATOM     12  C   UNL     1     -14.441  -0.412 -10.652  1.00  0.00    -0.000 C 
BRANCH  12  13
ATOM     13  C   UNL     1     -14.770   0.496  -9.453  1.00  0.00    -0.000 C 
BRANCH  13  14
ATOM     14  C   UNL     1     -14.931   1.969  -9.855  1.00  0.00    -0.000 C 
BRANCH  14  15
ATOM     15  C   UNL     1     -14.996   2.912  -8.640  1.00  0.00    -0.000 C 
BRANCH  15  16
ATOM     16  C   UNL     1     -13.776   3.855  -8.568  1.00  0.00    -0.000 C 
BRANCH  16  17
ATOM     17  C   UNL     1     -12.525   3.297  -9.267  1.00  0.00    -0.003 C 
ATOM     18  C   UNL     1     -11.251   3.468  -8.441  1.00  0.00     0.004 C 
ENDBRANCH  16  17
ENDBRANCH  15  16
ENDBRANCH  14  15
ENDBRANCH  13  14
ENDBRANCH  12  13
ENDBRANCH  11  12
ENDBRANCH   1  11
TORSDOF 14
ENDMDL
MODEL 4
REMARK VINA RESULT:    -5.176      1.356      1.757
REMARK INTER + INTRA:         -10.579
REMARK INTER:                  -9.605
REMARK INTRA:                  -0.974
REMARK UNBOUND:                -1.167
REMARK SMILES CCCCCCCCCCCCCCCC(=O)[O-]
REMARK SMILES IDX 9 1 10 2 11 3 12 4 13 5 14 6 15 7 16 8 17 9 18 10 8 11 7 12
REMARK SMILES IDX 6 13 5 14 4 15 3 16 2 17 1 18
REMARK H PARENT
REMARK Flexibility Score: inf
ROOT
ATOM      1  C   UNL     1     -11.012  -2.262  -9.624  1.00  0.00     0.000 C 
ENDROOT
BRANCH   1   2
ATOM      2  C   UNL     1      -9.896  -2.512  -8.602  1.00  0.00     0.000 C 
BRANCH   2   3
ATOM      3  C   UNL     1     -10.024  -3.911  -7.978  1.00  0.00     0.000 C 
BRANCH   3   4
ATOM      4  C   UNL     1     -11.044  -4.795  -8.713  1.00  0.00     0.000 C 
BRANCH   4   5
ATOM      5  C   UNL     1     -11.272  -6.144  -8.007  1.00  0.00     0.000 C 
BRANCH   5   6
ATOM      6  C   UNL     1     -10.747  -6.150  -6.563  1.00  0.00     0.006 C 
BRANCH   6   7
ATOM      7  C   UNL     1     -11.850  -5.886  -5.528  1.00  0.00     0.053 C 
BRANCH   7   8
ATOM      8  C   UNL     1     -12.966  -6.869  -5.694  1.00  0.00     0.041 C 
ATOM      9  O   UNL     1     -12.807  -8.071  -5.350  1.00  0.00    -0.550 OA
ATOM     10  O   UNL     1     -14.199  -6.448  -6.174  1.00  0.00    -0.550 OA
ENDBRANCH   7   8
ENDBRANCH   6   7
ENDBRANCH   5   6
ENDBRANCH   4   5
ENDBRANCH   3   4
ENDBRANCH   2   3
ENDBRANCH   1   2
BRANCH   1  11
ATOM     11  C   UNL     1     -10.890  -0.859 -10.237  1.00  0.00     0.000 C 
BRANCH  11  12
ATOM     12  C   UNL     1     -12.124   0.015  -9.965  1.00  0.00    -0.000 C 
BRANCH  12  13
ATOM     13  C   UNL     1     -13.433  -0.646 -10.434  1.00  0.00    -0.000 C 
BRANCH  13  14
ATOM     14  C   UNL     1     -14.681   0.093  -9.927  1.00  0.00    -0.000 C 
BRANCH  14  15
ATOM     15  C   UNL     1     -14.554   1.623 -10.047  1.00  0.00    -0.000 C 
BRANCH  15  16
ATOM     16  C   UNL     1     -14.772   2.333  -8.694  1.00  0.00    -0.000 C 
BRANCH  16  17
ATOM     17  C   UNL     1     -14.070   3.698  -8.595  1.00  0.00    -0.003 C 
ATOM     18  C   UNL     1     -12.568   3.619  -8.861  1.00  0.00     0.004 C 
ENDBRANCH  16  17
ENDBRANCH  15  16
ENDBRANCH  14  15
ENDBRANCH  13  14
ENDBRANCH  12  13
ENDBRANCH  11  12
ENDBRANCH   1  11
TORSDOF 14
ENDMDL
MODEL 5
REMARK VINA RESULT:    -5.059      3.283      7.880
REMARK INTER + INTRA:         -10.367
REMARK INTER:                  -9.469
REMARK INTRA:                  -0.898
REMARK UNBOUND:                -1.167
REMARK SMILES CCCCCCCCCCCCCCCC(=O)[O-]
REMARK SMILES IDX 9 1 10 2 11 3 12 4 13 5 14 6 15 7 16 8 17 9 18 10 8 11 7 12
REMARK SMILES IDX 6 13 5 14 4 15 3 16 2 17 1 18
REMARK H PARENT
REMARK Flexibility Score: inf
ROOT
ATOM      1  C   UNL     1     -11.038  -2.550  -9.640  1.00  0.00     0.000 C 
ENDROOT
BRANCH   1   2
ATOM      2  C   UNL     1     -10.702  -1.090  -9.967  1.00  0.00     0.000 C 
BRANCH   2   3
ATOM      3  C   UNL     1     -11.971  -0.224  -9.989  1.00  0.00     0.000 C 
BRANCH   3   4
ATOM      4  C   UNL     1     -13.212  -1.005 -10.452  1.00  0.00     0.000 C 
BRANCH   4   5
ATOM      5  C   UNL     1     -14.527  -0.343 -10.003  1.00  0.00     0.000 C 
BRANCH   5   6
ATOM      6  C   UNL     1     -14.598   1.145 -10.380  1.00  0.00     0.006 C 
BRANCH   6   7
ATOM      7  C   UNL     1     -15.125   2.024  -9.236  1.00  0.00     0.053 C 
BRANCH   7   8
ATOM      8  C   UNL     1     -14.112   3.062  -8.869  1.00  0.00     0.041 C 
ATOM      9  O   UNL     1     -14.348   3.875  -7.935  1.00  0.00    -0.550 OA
ATOM     10  O   UNL     1     -12.885   3.097  -9.519  1.00  0.00    -0.550 OA
ENDBRANCH   7   8
ENDBRANCH   6   7
ENDBRANCH   5   6
ENDBRANCH   4   5
ENDBRANCH   3   4
ENDBRANCH   2   3
ENDBRANCH   1   2
BRANCH   1  11
ATOM     11  C   UNL     1      -9.758  -3.373  -9.431  1.00  0.00     0.000 C 
BRANCH  11  12
ATOM     12  C   UNL     1      -9.151  -3.180  -8.032  1.00  0.00    -0.000 C 
BRANCH  12  13
ATOM     13  C   UNL     1      -9.730  -4.159  -6.995  1.00  0.00    -0.000 C 
BRANCH  13  14
ATOM     14  C   UNL     1     -10.161  -5.494  -7.621  1.00  0.00    -0.000 C 
BRANCH  14  15
ATOM     15  C   UNL     1     -11.583  -5.913  -7.205  1.00  0.00    -0.000 C 
BRANCH  15  16
ATOM     16  C   UNL     1     -11.757  -5.941  -5.671  1.00  0.00    -0.000 C 
BRANCH  16  17
ATOM     17  C   UNL     1     -11.741  -7.358  -5.075  1.00  0.00    -0.003 C 
ATOM     18  C   UNL     1     -13.105  -8.043  -5.125  1.00  0.00     0.004 C 
ENDBRANCH  16  17
ENDBRANCH  15  16
ENDBRANCH  14  15
ENDBRANCH  13  14
ENDBRANCH  12  13
ENDBRANCH  11  12
ENDBRANCH   1  11
TORSDOF 14
ENDMDL
MODEL 6
REMARK VINA RESULT:    -4.900      2.452      6.719
REMARK INTER + INTRA:         -10.078
REMARK INTER:                  -8.447
REMARK INTRA:                  -1.630
REMARK UNBOUND:                -1.167
REMARK SMILES CCCCCCCCCCCCCCCC(=O)[O-]
REMARK SMILES IDX 9 1 10 2 11 3 12 4 13 5 14 6 15 7 16 8 17 9 18 10 8 11 7 12
REMARK SMILES IDX 6 13 5 14 4 15 3 16 2 17 1 18
REMARK H PARENT
REMARK Flexibility Score: inf
ROOT
ATOM      1  C   UNL     1     -10.043  -4.395  -6.903  1.00  0.00     0.000 C 
ENDROOT
BRANCH   1   2
ATOM      2  C   UNL     1      -9.217  -3.394  -7.720  1.00  0.00     0.000 C 
BRANCH   2   3
ATOM      3  C   UNL     1      -9.077  -3.856  -9.179  1.00  0.00     0.000 C 
BRANCH   3   4
ATOM      4  C   UNL     1      -9.740  -2.888 -10.172  1.00  0.00     0.000 C 
BRANCH   4   5
ATOM      5  C   UNL     1     -10.701  -1.903  -9.483  1.00  0.00     0.000 C 
BRANCH   5   6
ATOM      6  C   UNL     1     -11.070  -0.711 -10.382  1.00  0.00     0.006 C 
BRANCH   6   7
ATOM      7  C   UNL     1     -11.875   0.365  -9.641  1.00  0.00     0.053 C 
BRANCH   7   8
ATOM      8  C   UNL     1     -13.323   0.277 -10.007  1.00  0.00     0.041 C 
ATOM      9  O   UNL     1     -14.120   1.191  -9.667  1.00  0.00    -0.550 OA
ATOM     10  O   UNL     1     -13.782  -0.787 -10.773  1.00  0.00    -0.550 OA
ENDBRANCH   7   8
ENDBRANCH   6   7
ENDBRANCH   5   6
ENDBRANCH   4   5
ENDBRANCH   3   4
ENDBRANCH   2   3
ENDBRANCH   1   2
BRANCH   1  11
ATOM     11  C   UNL     1      -9.884  -5.819  -7.456  1.00  0.00     0.000 C 
BRANCH  11  12
ATOM     12  C   UNL     1     -10.654  -6.864  -6.632  1.00  0.00    -0.000 C 
BRANCH  12  13
ATOM     13  C   UNL     1     -11.462  -6.233  -5.484  1.00  0.00    -0.000 C 
BRANCH  13  14
ATOM     14  C   UNL     1     -12.960  -6.567  -5.565  1.00  0.00    -0.000 C 
BRANCH  14  15
ATOM     15  C   UNL     1     -13.388  -7.037  -6.967  1.00  0.00    -0.000 C 
BRANCH  15  16
ATOM     16  C   UNL     1     -14.359  -6.044  -7.642  1.00  0.00    -0.000 C 
BRANCH  16  17
ATOM     17  C   UNL     1     -14.077  -5.829  -9.138  1.00  0.00    -0.003 C 
ATOM     18  C   UNL     1     -12.744  -5.131  -9.402  1.00  0.00     0.004 C 
ENDBRANCH  16  17
ENDBRANCH  15  16
ENDBRANCH  14  15
ENDBRANCH  13  14
ENDBRANCH  12  13
ENDBRANCH  11  12
ENDBRANCH   1  11
TORSDOF 14
ENDMDL
MODEL 7
REMARK VINA RESULT:    -4.787      1.921      3.566
REMARK INTER + INTRA:          -9.871
REMARK INTER:                  -8.559
REMARK INTRA:                  -1.312
REMARK UNBOUND:                -1.167
REMARK SMILES CCCCCCCCCCCCCCCC(=O)[O-]
REMARK SMILES IDX 9 1 10 2 11 3 12 4 13 5 14 6 15 7 16 8 17 9 18 10 8 11 7 12
REMARK SMILES IDX 6 13 5 14 4 15 3 16 2 17 1 18
REMARK H PARENT
REMARK Flexibility Score: inf
ROOT
ATOM      1  C   UNL     1      -9.766  -3.448  -7.447  1.00  0.00     0.000 C 
ENDROOT
BRANCH   1   2
ATOM      2  C   UNL     1     -10.460  -4.744  -7.009  1.00  0.00     0.000 C 
BRANCH   2   3
ATOM      3  C   UNL     1      -9.869  -5.960  -7.740  1.00  0.00     0.000 C 
BRANCH   3   4
ATOM      4  C   UNL     1     -10.934  -6.772  -8.494  1.00  0.00     0.000 C 
BRANCH   4   5
ATOM      5  C   UNL     1     -12.259  -6.005  -8.651  1.00  0.00     0.000 C 
BRANCH   5   6
ATOM      6  C   UNL     1     -13.370  -6.552  -7.741  1.00  0.00     0.006 C 
BRANCH   6   7
ATOM      7  C   UNL     1     -13.055  -7.952  -7.194  1.00  0.00     0.053 C 
BRANCH   7   8
ATOM      8  C   UNL     1     -13.176  -7.968  -5.703  1.00  0.00     0.041 C 
ATOM      9  O   UNL     1     -12.156  -7.796  -4.983  1.00  0.00    -0.550 OA
ATOM     10  O   UNL     1     -14.422  -8.115  -5.108  1.00  0.00    -0.550 OA
ENDBRANCH   7   8
ENDBRANCH   6   7
ENDBRANCH   5   6
ENDBRANCH   4   5
ENDBRANCH   3   4
ENDBRANCH   2   3
ENDBRANCH   1   2
BRANCH   1  11
ATOM     11  C   UNL     1      -9.012  -3.650  -8.770  1.00  0.00     0.000 C 
BRANCH  11  12
ATOM     12  C   UNL     1      -9.858  -3.272  -9.997  1.00  0.00    -0.000 C 
BRANCH  12  13
ATOM     13  C   UNL     1     -11.041  -2.354  -9.640  1.00  0.00    -0.000 C 
BRANCH  13  14
ATOM     14  C   UNL     1     -10.778  -0.885 -10.005  1.00  0.00    -0.000 C 
BRANCH  14  15
ATOM     15  C   UNL     1     -12.076  -0.086 -10.223  1.00  0.00    -0.000 C 
BRANCH  15  16
ATOM     16  C   UNL     1     -13.294  -1.006 -10.456  1.00  0.00    -0.000 C 
BRANCH  16  17
ATOM     17  C   UNL     1     -14.633  -0.368 -10.051  1.00  0.00    -0.003 C 
ATOM     18  C   UNL     1     -14.510   1.116  -9.710  1.00  0.00     0.004 C 
ENDBRANCH  16  17
ENDBRANCH  15  16
ENDBRANCH  14  15
ENDBRANCH  13  14
ENDBRANCH  12  13
ENDBRANCH  11  12
ENDBRANCH   1  11
TORSDOF 14
ENDMDL
MODEL 8
REMARK VINA RESULT:    -4.766     16.626     18.599
REMARK INTER + INTRA:          -9.834
REMARK INTER:                  -8.507
REMARK INTRA:                  -1.327
REMARK UNBOUND:                -1.167
REMARK SMILES CCCCCCCCCCCCCCCC(=O)[O-]
REMARK SMILES IDX 9 1 10 2 11 3 12 4 13 5 14 6 15 7 16 8 17 9 18 10 8 11 7 12
REMARK SMILES IDX 6 13 5 14 4 15 3 16 2 17 1 18
REMARK H PARENT
REMARK Flexibility Score: inf
ROOT
ATOM      1  C   UNL     1      -9.544   5.371   6.840  1.00  0.00     0.000 C 
ENDROOT
BRANCH   1   2
ATOM      2  C   UNL     1     -10.160   5.289   8.242  1.00  0.00     0.000 C 
BRANCH   2   3
ATOM      3  C   UNL     1     -10.702   3.879   8.524  1.00  0.00     0.000 C 
BRANCH   3   4
ATOM      4  C   UNL     1     -12.164   3.892   9.000  1.00  0.00     0.000 C 
BRANCH   4   5
ATOM      5  C   UNL     1     -12.887   5.205   8.651  1.00  0.00     0.000 C 
BRANCH   5   6
ATOM      6  C   UNL     1     -13.898   5.036   7.505  1.00  0.00     0.006 C 
BRANCH   6   7
ATOM      7  C   UNL     1     -13.500   5.811   6.241  1.00  0.00     0.053 C 
BRANCH   7   8
ATOM      8  C   UNL     1     -13.109   4.863   5.151  1.00  0.00     0.041 C 
ATOM      9  O   UNL     1     -12.385   3.865   5.409  1.00  0.00    -0.550 OA
ATOM     10  O   UNL     1     -13.591   5.050   3.862  1.00  0.00    -0.550 OA
ENDBRANCH   7   8
ENDBRANCH   6   7
ENDBRANCH   5   6
ENDBRANCH   4   5
ENDBRANCH   3   4
ENDBRANCH   2   3
ENDBRANCH   1   2
BRANCH   1  11
ATOM     11  C   UNL     1      -9.824   6.738   6.197  1.00  0.00     0.000 C 
BRANCH  11  12
ATOM     12  C   UNL     1      -8.665   7.729   6.385  1.00  0.00    -0.000 C 
BRANCH  12  13
ATOM     13  C   UNL     1      -8.330   8.501   5.096  1.00  0.00    -0.000 C 
BRANCH  13  14
ATOM     14  C   UNL     1      -7.290   9.608   5.325  1.00  0.00    -0.000 C 
BRANCH  14  15
ATOM     15  C   UNL     1      -7.129   9.973   6.812  1.00  0.00    -0.000 C 
BRANCH  15  16
ATOM     16  C   UNL     1      -5.889  10.857   7.064  1.00  0.00    -0.000 C 
BRANCH  16  17
ATOM     17  C   UNL     1      -4.609  10.327   6.397  1.00  0.00    -0.003 C 
ATOM     18  C   UNL     1      -4.014  11.302   5.382  1.00  0.00     0.004 C 
ENDBRANCH  16  17
ENDBRANCH  15  16
ENDBRANCH  14  15
ENDBRANCH  13  14
ENDBRANCH  12  13
ENDBRANCH  11  12
ENDBRANCH   1  11
TORSDOF 14
ENDMDL
MODEL 9
REMARK VINA RESULT:    -4.656     17.208     19.286
REMARK INTER + INTRA:          -9.634
REMARK INTER:                  -7.872
REMARK INTRA:                  -1.762
REMARK UNBOUND:                -1.167
REMARK SMILES CCCCCCCCCCCCCCCC(=O)[O-]
REMARK SMILES IDX 9 1 10 2 11 3 12 4 13 5 14 6 15 7 16 8 17 9 18 10 8 11 7 12
REMARK SMILES IDX 6 13 5 14 4 15 3 16 2 17 1 18
REMARK H PARENT
REMARK Flexibility Score: inf
ROOT
ATOM      1  C   UNL     1     -10.297   5.368   7.868  1.00  0.00     0.000 C 
ENDROOT
BRANCH   1   2
ATOM      2  C   UNL     1      -9.415   5.671   6.651  1.00  0.00     0.000 C 
BRANCH   2   3
ATOM      3  C   UNL     1      -9.654   7.100   6.140  1.00  0.00     0.000 C 
BRANCH   3   4
ATOM      4  C   UNL     1      -8.420   8.002   6.309  1.00  0.00     0.000 C 
BRANCH   4   5
ATOM      5  C   UNL     1      -8.089   8.795   5.032  1.00  0.00     0.000 C 
BRANCH   5   6
ATOM      6  C   UNL     1      -7.212  10.025   5.311  1.00  0.00     0.006 C 
BRANCH   6   7
ATOM      7  C   UNL     1      -6.307   9.845   6.538  1.00  0.00     0.053 C 
BRANCH   7   8
ATOM      8  C   UNL     1      -5.188  10.838   6.510  1.00  0.00     0.041 C 
ATOM      9  O   UNL     1      -4.516  11.006   5.457  1.00  0.00    -0.550 OA
ATOM     10  O   UNL     1      -4.923  11.618   7.628  1.00  0.00    -0.550 OA
ENDBRANCH   7   8
ENDBRANCH   6   7
ENDBRANCH   5   6
ENDBRANCH   4   5
ENDBRANCH   3   4
ENDBRANCH   2   3
ENDBRANCH   1   2
BRANCH   1  11
ATOM     11  C   UNL     1     -10.862   3.941   7.795  1.00  0.00     0.000 C 
BRANCH  11  12
ATOM     12  C   UNL     1     -11.320   3.558   6.379  1.00  0.00    -0.000 C 
BRANCH  12  13
ATOM     13  C   UNL     1     -12.796   3.912   6.118  1.00  0.00    -0.000 C 
BRANCH  13  14
ATOM     14  C   UNL     1     -12.956   5.138   5.206  1.00  0.00    -0.000 C 
BRANCH  14  15
ATOM     15  C   UNL     1     -13.591   6.338   5.931  1.00  0.00    -0.000 C 
BRANCH  15  16
ATOM     16  C   UNL     1     -14.073   5.971   7.351  1.00  0.00    -0.000 C 
BRANCH  16  17
ATOM     17  C   UNL     1     -13.620   6.967   8.432  1.00  0.00    -0.003 C 
ATOM     18  C   UNL     1     -12.768   8.106   7.876  1.00  0.00     0.004 C 
ENDBRANCH  16  17
ENDBRANCH  15  16
ENDBRANCH  14  15
ENDBRANCH  13  14
ENDBRANCH  12  13
ENDBRANCH  11  12
ENDBRANCH   1  11
TORSDOF 14
ENDMDL
