MODEL 1
REMARK VINA RESULT:    -4.266      0.000      0.000
REMARK INTER + INTRA:          -4.640
REMARK INTER:                  -4.640
REMARK INTRA:                   0.000
REMARK UNBOUND:                 0.000
REMARK SMILES Cc1cc(O)c2c(c1)C(=O)c1cc(O)cc(O)c1C2=O
REMARK SMILES IDX 1 1 2 2 8 3 7 4 6 5 4 6 3 7 19 8 20 9 18 10 11 11 9 12 10 13
REMARK SMILES IDX 12 14 13 15 15 16 16 17 5 18 17 20 14 22
REMARK H PARENT 5 19 17 21 14 23
REMARK Flexibility Score: inf
ROOT
ATOM      1  C   UNL     1      19.747   9.183  87.429  1.00  0.00     0.044 C 
ATOM      2  C   UNL     1      19.810  10.613  86.979  1.00  0.00    -0.047 A 
ATOM      3  C   UNL     1      20.998  11.341  87.107  1.00  0.00     0.016 A 
ATOM      4  C   UNL     1      21.078  12.670  86.656  1.00  0.00     0.038 A 
ATOM      5  C   UNL     1      19.954  13.278  86.053  1.00  0.00     0.076 A 
ATOM      6  C   UNL     1      18.762  12.528  85.906  1.00  0.00     0.127 A 
ATOM      7  C   UNL     1      18.703  11.205  86.364  1.00  0.00     0.050 A 
ATOM      8  C   UNL     1      20.052  14.688  85.582  1.00  0.00     0.201 C 
ATOM      9  O   UNL     1      19.051  15.240  85.049  1.00  0.00    -0.288 OA
ATOM     10  C   UNL     1      21.322  15.453  85.735  1.00  0.00     0.076 A 
ATOM     11  C   UNL     1      22.436  14.828  86.338  1.00  0.00     0.041 A 
ATOM     12  C   UNL     1      22.340  13.430  86.811  1.00  0.00     0.194 C 
ATOM     13  O   UNL     1      23.341  12.880  87.351  1.00  0.00    -0.289 OA
ATOM     14  C   UNL     1      23.640  15.541  86.488  1.00  0.00     0.059 A 
ATOM     15  C   UNL     1      23.744  16.862  86.046  1.00  0.00     0.120 A 
ATOM     16  C   UNL     1      22.648  17.482  85.450  1.00  0.00     0.093 A 
ATOM     17  C   UNL     1      21.439  16.793  85.290  1.00  0.00     0.131 A 
ENDROOT
BRANCH   6  18
ATOM     18  O   UNL     1      17.634  13.089  85.307  1.00  0.00    -0.507 OA
ATOM     19  H   UNL     1      17.108  12.598  84.592  1.00  0.00     0.293 HD
ENDBRANCH   6  18
BRANCH  17  20
ATOM     20  O   UNL     1      20.362  17.445  84.689  1.00  0.00    -0.507 OA
ATOM     21  H   UNL     1      20.327  17.611  83.690  1.00  0.00     0.293 HD
ENDBRANCH  17  20
BRANCH  15  22
ATOM     22  O   UNL     1      24.936  17.569  86.195  1.00  0.00    -0.508 OA
ATOM     23  H   UNL     1      24.954  18.581  86.207  1.00  0.00     0.293 HD
ENDBRANCH  15  22
TORSDOF 3
ENDMDL
MODEL 2
REMARK VINA RESULT:    -4.217      1.211      5.478
REMARK INTER + INTRA:          -4.587
REMARK INTER:                  -4.587
REMARK INTRA:                   0.000
REMARK UNBOUND:                 0.000
REMARK SMILES Cc1cc(O)c2c(c1)C(=O)c1cc(O)cc(O)c1C2=O
REMARK SMILES IDX 1 1 2 2 8 3 7 4 6 5 4 6 3 7 19 8 20 9 18 10 11 11 9 12 10 13
REMARK SMILES IDX 12 14 13 15 15 16 16 17 5 18 17 20 14 22
REMARK H PARENT 5 19 17 21 14 23
REMARK Flexibility Score: inf
ROOT
ATOM      1  C   UNL     1      25.359  17.405  85.864  1.00  0.00     0.044 C 
ATOM      2  C   UNL     1      24.050  16.681  85.739  1.00  0.00    -0.047 A 
ATOM      3  C   UNL     1      23.863  15.449  86.373  1.00  0.00     0.016 A 
ATOM      4  C   UNL     1      22.629  14.779  86.293  1.00  0.00     0.038 A 
ATOM      5  C   UNL     1      21.559  15.360  85.576  1.00  0.00     0.076 A 
ATOM      6  C   UNL     1      21.749  16.618  84.955  1.00  0.00     0.127 A 
ATOM      7  C   UNL     1      22.986  17.268  85.046  1.00  0.00     0.050 A 
ATOM      8  C   UNL     1      20.257  14.639  85.497  1.00  0.00     0.201 C 
ATOM      9  O   UNL     1      19.300  15.147  84.853  1.00  0.00    -0.288 OA
ATOM     10  C   UNL     1      20.078  13.322  86.170  1.00  0.00     0.076 A 
ATOM     11  C   UNL     1      21.158  12.758  86.884  1.00  0.00     0.041 A 
ATOM     12  C   UNL     1      22.453  13.469  86.961  1.00  0.00     0.194 C 
ATOM     13  O   UNL     1      23.414  12.957  87.600  1.00  0.00    -0.289 OA
ATOM     14  C   UNL     1      20.999  11.515  87.524  1.00  0.00     0.059 A 
ATOM     15  C   UNL     1      19.782  10.831  87.460  1.00  0.00     0.120 A 
ATOM     16  C   UNL     1      18.714  11.384  86.757  1.00  0.00     0.093 A 
ATOM     17  C   UNL     1      18.847  12.621  86.112  1.00  0.00     0.131 A 
ENDROOT
BRANCH   6  18
ATOM     18  O   UNL     1      20.714  17.229  84.247  1.00  0.00    -0.507 OA
ATOM     19  H   UNL     1      20.663  18.236  84.136  1.00  0.00     0.293 HD
ENDBRANCH   6  18
BRANCH  17  20
ATOM     20  O   UNL     1      17.757  13.144  85.417  1.00  0.00    -0.507 OA
ATOM     21  H   UNL     1      17.048  13.703  85.878  1.00  0.00     0.293 HD
ENDBRANCH  17  20
BRANCH  15  22
ATOM     22  O   UNL     1      19.624   9.600  88.093  1.00  0.00    -0.508 OA
ATOM     23  H   UNL     1      20.285   8.845  87.956  1.00  0.00     0.293 HD
ENDBRANCH  15  22
TORSDOF 3
ENDMDL
MODEL 3
REMARK VINA RESULT:    -4.082     14.430     15.406
REMARK INTER + INTRA:          -4.440
REMARK INTER:                  -4.440
REMARK INTRA:                   0.000
REMARK UNBOUND:                 0.000
REMARK SMILES Cc1cc(O)c2c(c1)C(=O)c1cc(O)cc(O)c1C2=O
REMARK SMILES IDX 1 1 2 2 8 3 7 4 6 5 4 6 3 7 19 8 20 9 18 10 11 11 9 12 10 13
REMARK SMILES IDX 12 14 13 15 15 16 16 17 5 18 17 20 14 22
REMARK H PARENT 5 19 17 21 14 23
REMARK Flexibility Score: inf
ROOT
ATOM      1  C   UNL     1      14.728  11.553  68.297  1.00  0.00     0.044 C 
ATOM      2  C   UNL     1      15.865  11.761  69.255  1.00  0.00    -0.047 A 
ATOM      3  C   UNL     1      16.423  13.033  69.421  1.00  0.00     0.016 A 
ATOM      4  C   UNL     1      17.464  13.245  70.342  1.00  0.00     0.038 A 
ATOM      5  C   UNL     1      17.947  12.169  71.120  1.00  0.00     0.076 A 
ATOM      6  C   UNL     1      17.362  10.889  70.962  1.00  0.00     0.127 A 
ATOM      7  C   UNL     1      16.327  10.699  70.038  1.00  0.00     0.050 A 
ATOM      8  C   UNL     1      19.052  12.409  72.090  1.00  0.00     0.201 C 
ATOM      9  O   UNL     1      19.494  11.452  72.783  1.00  0.00    -0.288 OA
ATOM     10  C   UNL     1      19.642  13.768  72.248  1.00  0.00     0.076 A 
ATOM     11  C   UNL     1      19.146  14.832  71.463  1.00  0.00     0.041 A 
ATOM     12  C   UNL     1      18.051  14.597  70.496  1.00  0.00     0.194 C 
ATOM     13  O   UNL     1      17.614  15.554  69.797  1.00  0.00    -0.289 OA
ATOM     14  C   UNL     1      19.696  16.119  71.604  1.00  0.00     0.059 A 
ATOM     15  C   UNL     1      20.730  16.356  72.513  1.00  0.00     0.120 A 
ATOM     16  C   UNL     1      21.223  15.309  73.290  1.00  0.00     0.093 A 
ATOM     17  C   UNL     1      20.691  14.019  73.167  1.00  0.00     0.131 A 
ENDROOT
BRANCH   6  18
ATOM     18  O   UNL     1      17.804   9.804  71.719  1.00  0.00    -0.507 OA
ATOM     19  H   UNL     1      18.641   9.855  72.289  1.00  0.00     0.293 HD
ENDBRANCH   6  18
BRANCH  17  20
ATOM     20  O   UNL     1      21.209  12.995  73.960  1.00  0.00    -0.507 OA
ATOM     21  H   UNL     1      21.814  13.185  74.750  1.00  0.00     0.293 HD
ENDBRANCH  17  20
BRANCH  15  22
ATOM     22  O   UNL     1      21.275  17.631  72.653  1.00  0.00    -0.508 OA
ATOM     23  H   UNL     1      21.498  18.203  71.848  1.00  0.00     0.293 HD
ENDBRANCH  15  22
TORSDOF 3
ENDMDL
MODEL 4
REMARK VINA RESULT:    -3.888     14.235     15.979
REMARK INTER + INTRA:          -4.228
REMARK INTER:                  -4.228
REMARK INTRA:                   0.000
REMARK UNBOUND:                 0.000
REMARK SMILES Cc1cc(O)c2c(c1)C(=O)c1cc(O)cc(O)c1C2=O
REMARK SMILES IDX 1 1 2 2 8 3 7 4 6 5 4 6 3 7 19 8 20 9 18 10 11 11 9 12 10 13
REMARK SMILES IDX 12 14 13 15 15 16 16 17 5 18 17 20 14 22
REMARK H PARENT 5 19 17 21 14 23
REMARK Flexibility Score: inf
ROOT
ATOM      1  C   UNL     1      21.927  17.496  72.959  1.00  0.00     0.044 C 
ATOM      2  C   UNL     1      21.201  16.194  72.777  1.00  0.00    -0.047 A 
ATOM      3  C   UNL     1      20.115  16.109  71.900  1.00  0.00     0.016 A 
ATOM      4  C   UNL     1      19.450  14.887  71.696  1.00  0.00     0.038 A 
ATOM      5  C   UNL     1      19.890  13.726  72.369  1.00  0.00     0.076 A 
ATOM      6  C   UNL     1      21.005  13.814  73.238  1.00  0.00     0.127 A 
ATOM      7  C   UNL     1      21.651  15.042  73.429  1.00  0.00     0.050 A 
ATOM      8  C   UNL     1      19.176  12.437  72.145  1.00  0.00     0.201 C 
ATOM      9  O   UNL     1      19.558  11.398  72.748  1.00  0.00    -0.288 OA
ATOM     10  C   UNL     1      18.013  12.367  71.215  1.00  0.00     0.076 A 
ATOM     11  C   UNL     1      17.589  13.537  70.548  1.00  0.00     0.041 A 
ATOM     12  C   UNL     1      18.294  14.819  70.772  1.00  0.00     0.194 C 
ATOM     13  O   UNL     1      17.907  15.861  70.174  1.00  0.00    -0.289 OA
ATOM     14  C   UNL     1      16.493  13.482  69.668  1.00  0.00     0.059 A 
ATOM     15  C   UNL     1      15.818  12.279  69.447  1.00  0.00     0.120 A 
ATOM     16  C   UNL     1      16.233  11.121  70.102  1.00  0.00     0.093 A 
ATOM     17  C   UNL     1      17.322  11.151  70.983  1.00  0.00     0.131 A 
ENDROOT
BRANCH   6  18
ATOM     18  O   UNL     1      21.476  12.688  73.914  1.00  0.00    -0.507 OA
ATOM     19  H   UNL     1      21.766  11.851  73.420  1.00  0.00     0.293 HD
ENDBRANCH   6  18
BRANCH  17  20
ATOM     20  O   UNL     1      17.710   9.974  71.622  1.00  0.00    -0.507 OA
ATOM     21  H   UNL     1      17.126   9.146  71.617  1.00  0.00     0.293 HD
ENDBRANCH  17  20
BRANCH  15  22
ATOM     22  O   UNL     1      14.732  12.223  68.576  1.00  0.00    -0.508 OA
ATOM     23  H   UNL     1      14.018  12.941  68.572  1.00  0.00     0.293 HD
ENDBRANCH  15  22
TORSDOF 3
ENDMDL
MODEL 5
REMARK VINA RESULT:    -3.882     14.742     16.346
REMARK INTER + INTRA:          -4.223
REMARK INTER:                  -4.223
REMARK INTRA:                   0.000
REMARK UNBOUND:                 0.000
REMARK SMILES Cc1cc(O)c2c(c1)C(=O)c1cc(O)cc(O)c1C2=O
REMARK SMILES IDX 1 1 2 2 8 3 7 4 6 5 4 6 3 7 19 8 20 9 18 10 11 11 9 12 10 13
REMARK SMILES IDX 12 14 13 15 15 16 16 17 5 18 17 20 14 22
REMARK H PARENT 5 19 17 21 14 23
REMARK Flexibility Score: inf
ROOT
ATOM      1  C   UNL     1      20.571  16.358  72.950  1.00  0.00     0.044 C 
ATOM      2  C   UNL     1      19.750  15.348  72.203  1.00  0.00    -0.047 A 
ATOM      3  C   UNL     1      19.740  14.009  72.608  1.00  0.00     0.016 A 
ATOM      4  C   UNL     1      18.947  13.061  71.937  1.00  0.00     0.038 A 
ATOM      5  C   UNL     1      18.139  13.463  70.851  1.00  0.00     0.076 A 
ATOM      6  C   UNL     1      18.137  14.824  70.459  1.00  0.00     0.127 A 
ATOM      7  C   UNL     1      18.936  15.752  71.140  1.00  0.00     0.050 A 
ATOM      8  C   UNL     1      17.305  12.448  70.147  1.00  0.00     0.201 C 
ATOM      9  O   UNL     1      16.587  12.797  69.171  1.00  0.00    -0.288 OA
ATOM     10  C   UNL     1      17.313  11.024  70.585  1.00  0.00     0.076 A 
ATOM     11  C   UNL     1      18.125  10.641  71.676  1.00  0.00     0.041 A 
ATOM     12  C   UNL     1      18.957  11.646  72.374  1.00  0.00     0.194 C 
ATOM     13  O   UNL     1      19.682  11.294  73.346  1.00  0.00    -0.289 OA
ATOM     14  C   UNL     1      18.140   9.299  72.098  1.00  0.00     0.059 A 
ATOM     15  C   UNL     1      17.360   8.340  71.449  1.00  0.00     0.120 A 
ATOM     16  C   UNL     1      16.557   8.712  70.373  1.00  0.00     0.093 A 
ATOM     17  C   UNL     1      16.525  10.043  69.934  1.00  0.00     0.131 A 
ENDROOT
BRANCH   6  18
ATOM     18  O   UNL     1      17.345  15.262  69.397  1.00  0.00    -0.507 OA
ATOM     19  H   UNL     1      16.503  14.771  69.121  1.00  0.00     0.293 HD
ENDBRANCH   6  18
BRANCH  17  20
ATOM     20  O   UNL     1      15.710  10.381  68.854  1.00  0.00    -0.507 OA
ATOM     21  H   UNL     1      16.091  10.758  67.994  1.00  0.00     0.293 HD
ENDBRANCH  17  20
BRANCH  15  22
ATOM     22  O   UNL     1      17.375   7.010  71.866  1.00  0.00    -0.508 OA
ATOM     23  H   UNL     1      17.777   6.279  71.293  1.00  0.00     0.293 HD
ENDBRANCH  15  22
TORSDOF 3
ENDMDL
MODEL 6
REMARK VINA RESULT:    -3.866      3.082      6.559
REMARK INTER + INTRA:          -4.205
REMARK INTER:                  -4.205
REMARK INTRA:                   0.000
REMARK UNBOUND:                 0.000
REMARK SMILES Cc1cc(O)c2c(c1)C(=O)c1cc(O)cc(O)c1C2=O
REMARK SMILES IDX 1 1 2 2 8 3 7 4 6 5 4 6 3 7 19 8 20 9 18 10 11 11 9 12 10 13
REMARK SMILES IDX 12 14 13 15 15 16 16 17 5 18 17 20 14 22
REMARK H PARENT 5 19 17 21 14 23
REMARK Flexibility Score: inf
ROOT
ATOM      1  C   UNL     1      27.085  14.786  85.219  1.00  0.00     0.044 C 
ATOM      2  C   UNL     1      26.081  13.671  85.210  1.00  0.00    -0.047 A 
ATOM      3  C   UNL     1      24.889  13.790  85.932  1.00  0.00     0.016 A 
ATOM      4  C   UNL     1      23.925  12.766  85.902  1.00  0.00     0.038 A 
ATOM      5  C   UNL     1      24.151  11.610  85.123  1.00  0.00     0.076 A 
ATOM      6  C   UNL     1      25.350  11.506  84.377  1.00  0.00     0.127 A 
ATOM      7  C   UNL     1      26.298  12.536  84.422  1.00  0.00     0.050 A 
ATOM      8  C   UNL     1      23.122  10.532  85.102  1.00  0.00     0.201 C 
ATOM      9  O   UNL     1      23.320   9.493  84.415  1.00  0.00    -0.288 OA
ATOM     10  C   UNL     1      21.863  10.670  85.886  1.00  0.00     0.076 A 
ATOM     11  C   UNL     1      21.652  11.835  86.657  1.00  0.00     0.041 A 
ATOM     12  C   UNL     1      22.674  12.905  86.683  1.00  0.00     0.194 C 
ATOM     13  O   UNL     1      22.479  13.942  87.377  1.00  0.00    -0.289 OA
ATOM     14  C   UNL     1      20.467  11.976  87.400  1.00  0.00     0.059 A 
ATOM     15  C   UNL     1      19.493  10.974  87.385  1.00  0.00     0.120 A 
ATOM     16  C   UNL     1      19.696   9.823  86.625  1.00  0.00     0.093 A 
ATOM     17  C   UNL     1      20.869   9.660  85.876  1.00  0.00     0.131 A 
ENDROOT
BRANCH   6  18
ATOM     18  O   UNL     1      25.606  10.384  83.588  1.00  0.00    -0.507 OA
ATOM     19  H   UNL     1      26.033   9.548  83.970  1.00  0.00     0.293 HD
ENDBRANCH   6  18
BRANCH  17  20
ATOM     20  O   UNL     1      21.038   8.495  85.128  1.00  0.00    -0.507 OA
ATOM     21  H   UNL     1      20.258   8.030  84.679  1.00  0.00     0.293 HD
ENDBRANCH  17  20
BRANCH  15  22
ATOM     22  O   UNL     1      18.319  11.112  88.122  1.00  0.00    -0.508 OA
ATOM     23  H   UNL     1      18.034  10.418  88.802  1.00  0.00     0.293 HD
ENDBRANCH  15  22
TORSDOF 3
ENDMDL
MODEL 7
REMARK VINA RESULT:    -3.798      2.311      5.986
REMARK INTER + INTRA:          -4.131
REMARK INTER:                  -4.131
REMARK INTRA:                   0.000
REMARK UNBOUND:                 0.000
REMARK SMILES Cc1cc(O)c2c(c1)C(=O)c1cc(O)cc(O)c1C2=O
REMARK SMILES IDX 1 1 2 2 8 3 7 4 6 5 4 6 3 7 19 8 20 9 18 10 11 11 9 12 10 13
REMARK SMILES IDX 12 14 13 15 15 16 16 17 5 18 17 20 14 22
REMARK H PARENT 5 19 17 21 14 23
REMARK Flexibility Score: inf
ROOT
ATOM      1  C   UNL     1      16.489  17.069  82.939  1.00  0.00     0.044 C 
ATOM      2  C   UNL     1      17.510  16.322  83.745  1.00  0.00    -0.047 A 
ATOM      3  C   UNL     1      17.321  14.968  84.043  1.00  0.00     0.016 A 
ATOM      4  C   UNL     1      18.288  14.250  84.768  1.00  0.00     0.038 A 
ATOM      5  C   UNL     1      19.473  14.893  85.189  1.00  0.00     0.076 A 
ATOM      6  C   UNL     1      19.669  16.257  84.865  1.00  0.00     0.127 A 
ATOM      7  C   UNL     1      18.692  16.955  84.144  1.00  0.00     0.050 A 
ATOM      8  C   UNL     1      20.489  14.119  85.958  1.00  0.00     0.201 C 
ATOM      9  O   UNL     1      21.546  14.688  86.345  1.00  0.00    -0.288 OA
ATOM     10  C   UNL     1      20.266  12.681  86.276  1.00  0.00     0.076 A 
ATOM     11  C   UNL     1      19.077  12.053  85.844  1.00  0.00     0.041 A 
ATOM     12  C   UNL     1      18.064  12.820  85.084  1.00  0.00     0.194 C 
ATOM     13  O   UNL     1      17.003  12.252  84.703  1.00  0.00    -0.289 OA
ATOM     14  C   UNL     1      18.856  10.696  86.138  1.00  0.00     0.059 A 
ATOM     15  C   UNL     1      19.803   9.960  86.855  1.00  0.00     0.120 A 
ATOM     16  C   UNL     1      20.979  10.574  87.283  1.00  0.00     0.093 A 
ATOM     17  C   UNL     1      21.221  11.925  87.002  1.00  0.00     0.131 A 
ENDROOT
BRANCH   6  18
ATOM     18  O   UNL     1      20.830  16.925  85.255  1.00  0.00    -0.507 OA
ATOM     19  H   UNL     1      21.714  16.782  84.779  1.00  0.00     0.293 HD
ENDBRANCH   6  18
BRANCH  17  20
ATOM     20  O   UNL     1      22.407  12.508  87.445  1.00  0.00    -0.507 OA
ATOM     21  H   UNL     1      22.412  13.366  87.985  1.00  0.00     0.293 HD
ENDBRANCH  17  20
BRANCH  15  22
ATOM     22  O   UNL     1      19.585   8.615  87.147  1.00  0.00    -0.508 OA
ATOM     23  H   UNL     1      20.041   7.878  86.624  1.00  0.00     0.293 HD
ENDBRANCH  15  22
TORSDOF 3
ENDMDL
MODEL 8
REMARK VINA RESULT:    -3.774      1.548      5.099
REMARK INTER + INTRA:          -4.105
REMARK INTER:                  -4.105
REMARK INTRA:                   0.000
REMARK UNBOUND:                 0.000
REMARK SMILES Cc1cc(O)c2c(c1)C(=O)c1cc(O)cc(O)c1C2=O
REMARK SMILES IDX 1 1 2 2 8 3 7 4 6 5 4 6 3 7 19 8 20 9 18 10 11 11 9 12 10 13
REMARK SMILES IDX 12 14 13 15 15 16 16 17 5 18 17 20 14 22
REMARK H PARENT 5 19 17 21 14 23
REMARK Flexibility Score: inf
ROOT
ATOM      1  C   UNL     1      25.907  13.381  88.125  1.00  0.00     0.044 C 
ATOM      2  C   UNL     1      24.696  13.838  87.365  1.00  0.00    -0.047 A 
ATOM      3  C   UNL     1      23.523  13.076  87.383  1.00  0.00     0.016 A 
ATOM      4  C   UNL     1      22.372  13.513  86.705  1.00  0.00     0.038 A 
ATOM      5  C   UNL     1      22.390  14.741  86.008  1.00  0.00     0.076 A 
ATOM      6  C   UNL     1      23.573  15.519  86.013  1.00  0.00     0.127 A 
ATOM      7  C   UNL     1      24.709  15.065  86.694  1.00  0.00     0.050 A 
ATOM      8  C   UNL     1      21.163  15.191  85.291  1.00  0.00     0.201 C 
ATOM      9  O   UNL     1      21.172  16.284  84.661  1.00  0.00    -0.288 OA
ATOM     10  C   UNL     1      19.925  14.362  85.312  1.00  0.00     0.076 A 
ATOM     11  C   UNL     1      19.925  13.138  86.016  1.00  0.00     0.041 A 
ATOM     12  C   UNL     1      21.143  12.686  86.724  1.00  0.00     0.194 C 
ATOM     13  O   UNL     1      21.135  11.589  87.350  1.00  0.00    -0.289 OA
ATOM     14  C   UNL     1      18.762  12.347  86.042  1.00  0.00     0.059 A 
ATOM     15  C   UNL     1      17.605  12.760  85.377  1.00  0.00     0.120 A 
ATOM     16  C   UNL     1      17.600  13.968  84.682  1.00  0.00     0.093 A 
ATOM     17  C   UNL     1      18.746  14.773  84.641  1.00  0.00     0.131 A 
ENDROOT
BRANCH   6  18
ATOM     18  O   UNL     1      23.627  16.743  85.345  1.00  0.00    -0.507 OA
ATOM     19  H   UNL     1      24.475  17.297  85.314  1.00  0.00     0.293 HD
ENDBRANCH   6  18
BRANCH  17  20
ATOM     20  O   UNL     1      18.705  15.975  83.936  1.00  0.00    -0.507 OA
ATOM     21  H   UNL     1      18.339  16.029  82.992  1.00  0.00     0.293 HD
ENDBRANCH  17  20
BRANCH  15  22
ATOM     22  O   UNL     1      16.452  11.977  85.402  1.00  0.00    -0.508 OA
ATOM     23  H   UNL     1      16.488  10.987  85.610  1.00  0.00     0.293 HD
ENDBRANCH  15  22
TORSDOF 3
ENDMDL
MODEL 9
REMARK VINA RESULT:    -3.773     13.082     13.545
REMARK INTER + INTRA:          -4.103
REMARK INTER:                  -4.103
REMARK INTRA:                   0.000
REMARK UNBOUND:                 0.000
REMARK SMILES Cc1cc(O)c2c(c1)C(=O)c1cc(O)cc(O)c1C2=O
REMARK SMILES IDX 1 1 2 2 8 3 7 4 6 5 4 6 3 7 19 8 20 9 18 10 11 11 9 12 10 13
REMARK SMILES IDX 12 14 13 15 15 16 16 17 5 18 17 20 14 22
REMARK H PARENT 5 19 17 21 14 23
REMARK Flexibility Score: inf
ROOT
ATOM      1  C   UNL     1      17.815  10.201  72.411  1.00  0.00     0.044 C 
ATOM      2  C   UNL     1      18.542  11.514  72.403  1.00  0.00    -0.047 A 
ATOM      3  C   UNL     1      19.879  11.582  72.809  1.00  0.00     0.016 A 
ATOM      4  C   UNL     1      20.580  12.800  72.772  1.00  0.00     0.038 A 
ATOM      5  C   UNL     1      19.937  13.968  72.307  1.00  0.00     0.076 A 
ATOM      6  C   UNL     1      18.590  13.888  71.877  1.00  0.00     0.127 A 
ATOM      7  C   UNL     1      17.909  12.665  71.923  1.00  0.00     0.050 A 
ATOM      8  C   UNL     1      20.691  15.253  72.275  1.00  0.00     0.201 C 
ATOM      9  O   UNL     1      20.122  16.302  71.868  1.00  0.00    -0.288 OA
ATOM     10  C   UNL     1      22.112  15.310  72.721  1.00  0.00     0.076 A 
ATOM     11  C   UNL     1      22.740  14.131  73.180  1.00  0.00     0.041 A 
ATOM     12  C   UNL     1      21.992  12.855  73.218  1.00  0.00     0.194 C 
ATOM     13  O   UNL     1      22.561  11.806  73.632  1.00  0.00    -0.289 OA
ATOM     14  C   UNL     1      24.081  14.173  73.603  1.00  0.00     0.059 A 
ATOM     15  C   UNL     1      24.799  15.371  73.574  1.00  0.00     0.120 A 
ATOM     16  C   UNL     1      24.184  16.537  73.121  1.00  0.00     0.093 A 
ATOM     17  C   UNL     1      22.850  16.520  72.695  1.00  0.00     0.131 A 
ENDROOT
BRANCH   6  18
ATOM     18  O   UNL     1      17.923  15.018  71.401  1.00  0.00    -0.507 OA
ATOM     19  H   UNL     1      17.717  15.141  70.416  1.00  0.00     0.293 HD
ENDBRANCH   6  18
BRANCH  17  20
ATOM     20  O   UNL     1      22.266  17.705  72.248  1.00  0.00    -0.507 OA
ATOM     21  H   UNL     1      22.812  18.545  72.096  1.00  0.00     0.293 HD
ENDBRANCH  17  20
BRANCH  15  22
ATOM     22  O   UNL     1      26.127  15.414  73.994  1.00  0.00    -0.508 OA
ATOM     23  H   UNL     1      26.818  15.975  73.511  1.00  0.00     0.293 HD
ENDBRANCH  15  22
TORSDOF 3
ENDMDL
