MODEL 1
REMARK VINA RESULT:    -2.824      0.000      0.000
REMARK INTER + INTRA:          -3.852
REMARK INTER:                  -3.402
REMARK INTRA:                  -0.450
REMARK UNBOUND:                -0.450
REMARK SMILES NC(=O)C[C@H]([NH3+])C(=O)[O-]
REMARK SMILES IDX 4 1 5 2 6 3 7 7 8 8 9 9 2 10 3 11 1 12
REMARK H PARENT 6 4 6 5 6 6 1 13 1 14
REMARK Flexibility Score: inf
ROOT
ATOM      1  C   UNL     1       1.655  30.530 -14.991  1.00  0.00     0.171 C 
ENDROOT
BRANCH   1   2
ATOM      2  C   UNL     1       1.865  30.467 -13.465  1.00  0.00     0.237 C 
BRANCH   2   3
ATOM      3  N   UNL     1       3.020  29.620 -13.140  1.00  0.00    -0.350 N 
ATOM      4  H   UNL     1       3.361  29.839 -12.176  1.00  0.00     0.345 HD
ATOM      5  H   UNL     1       3.799  29.811 -13.813  1.00  0.00     0.345 HD
ATOM      6  H   UNL     1       2.764  28.607 -13.194  1.00  0.00     0.345 HD
ENDBRANCH   2   3
BRANCH   2   7
ATOM      7  C   UNL     1       0.631  29.953 -12.769  1.00  0.00     0.100 C 
ATOM      8  O   UNL     1      -0.274  30.748 -12.400  1.00  0.00    -0.544 OA
ATOM      9  O   UNL     1       0.495  28.594 -12.512  1.00  0.00    -0.544 OA
ENDBRANCH   2   7
ENDBRANCH   1   2
BRANCH   1  10
ATOM     10  C   UNL     1       1.866  29.190 -15.636  1.00  0.00     0.223 C 
ATOM     11  O   UNL     1       2.991  28.903 -16.125  1.00  0.00    -0.275 OA
ATOM     12  N   UNL     1       0.792  28.256 -15.735  1.00  0.00    -0.369 N 
ATOM     13  H   UNL     1      -0.153  28.485 -15.352  1.00  0.00     0.159 HD
ATOM     14  H   UNL     1       0.939  27.332 -16.198  1.00  0.00     0.159 HD
ENDBRANCH   1  10
TORSDOF 4
ENDMDL
MODEL 2
REMARK VINA RESULT:    -2.795      2.226      2.657
REMARK INTER + INTRA:          -3.818
REMARK INTER:                  -3.605
REMARK INTRA:                  -0.213
REMARK UNBOUND:                -0.450
REMARK SMILES NC(=O)C[C@H]([NH3+])C(=O)[O-]
REMARK SMILES IDX 4 1 5 2 6 3 7 7 8 8 9 9 2 10 3 11 1 12
REMARK H PARENT 6 4 6 5 6 6 1 13 1 14
REMARK Flexibility Score: inf
ROOT
ATOM      1  C   UNL     1       0.259  28.513 -13.769  1.00  0.00     0.171 C 
ENDROOT
BRANCH   1   2
ATOM      2  C   UNL     1       0.777  29.692 -12.921  1.00  0.00     0.237 C 
BRANCH   2   3
ATOM      3  N   UNL     1      -0.030  30.894 -13.164  1.00  0.00    -0.350 N 
ATOM      4  H   UNL     1       0.171  31.611 -12.430  1.00  0.00     0.345 HD
ATOM      5  H   UNL     1      -1.047  30.653 -13.114  1.00  0.00     0.345 HD
ATOM      6  H   UNL     1       0.179  31.297 -14.106  1.00  0.00     0.345 HD
ENDBRANCH   2   3
BRANCH   2   7
ATOM      7  C   UNL     1       2.229  29.973 -13.212  1.00  0.00     0.100 C 
ATOM      8  O   UNL     1       3.125  29.616 -12.402  1.00  0.00    -0.544 OA
ATOM      9  O   UNL     1       2.586  30.646 -14.374  1.00  0.00    -0.544 OA
ENDBRANCH   2   7
ENDBRANCH   1   2
BRANCH   1  10
ATOM     10  C   UNL     1       0.355  28.805 -15.240  1.00  0.00     0.223 C 
ATOM     11  O   UNL     1      -0.436  29.635 -15.765  1.00  0.00    -0.275 OA
ATOM     12  N   UNL     1       1.306  28.121 -16.054  1.00  0.00    -0.369 N 
ATOM     13  H   UNL     1       1.956  27.417 -15.640  1.00  0.00     0.159 HD
ATOM     14  H   UNL     1       1.358  28.316 -17.079  1.00  0.00     0.159 HD
ENDBRANCH   1  10
TORSDOF 4
ENDMDL
MODEL 3
REMARK VINA RESULT:    -2.436      2.207      3.331
REMARK INTER + INTRA:          -3.385
REMARK INTER:                  -3.156
REMARK INTRA:                  -0.229
REMARK UNBOUND:                -0.450
REMARK SMILES NC(=O)C[C@H]([NH3+])C(=O)[O-]
REMARK SMILES IDX 4 1 5 2 6 3 7 7 8 8 9 9 2 10 3 11 1 12
REMARK H PARENT 6 4 6 5 6 6 1 13 1 14
REMARK Flexibility Score: inf
ROOT
ATOM      1  C   UNL     1       0.519  28.683 -13.658  1.00  0.00     0.171 C 
ENDROOT
BRANCH   1   2
ATOM      2  C   UNL     1       0.538  28.709 -15.199  1.00  0.00     0.237 C 
BRANCH   2   3
ATOM      3  N   UNL     1       1.891  28.438 -15.701  1.00  0.00    -0.350 N 
ATOM      4  H   UNL     1       2.561  28.375 -14.900  1.00  0.00     0.345 HD
ATOM      5  H   UNL     1       2.200  29.221 -16.323  1.00  0.00     0.345 HD
ATOM      6  H   UNL     1       1.913  27.543 -16.241  1.00  0.00     0.345 HD
ENDBRANCH   2   3
BRANCH   2   7
ATOM      7  C   UNL     1       0.043  30.033 -15.725  1.00  0.00     0.100 C 
ATOM      8  O   UNL     1      -1.192  30.261 -15.824  1.00  0.00    -0.544 OA
ATOM      9  O   UNL     1       0.953  31.004 -16.123  1.00  0.00    -0.544 OA
ENDBRANCH   2   7
ENDBRANCH   1   2
BRANCH   1  10
ATOM     10  C   UNL     1       1.356  29.786 -13.075  1.00  0.00     0.223 C 
ATOM     11  O   UNL     1       2.572  29.577 -12.818  1.00  0.00    -0.275 OA
ATOM     12  N   UNL     1       0.776  31.054 -12.771  1.00  0.00    -0.369 N 
ATOM     13  H   UNL     1      -0.235  31.238 -12.960  1.00  0.00     0.159 HD
ATOM     14  H   UNL     1       1.358  31.812 -12.351  1.00  0.00     0.159 HD
ENDBRANCH   1  10
TORSDOF 4
ENDMDL
MODEL 4
REMARK VINA RESULT:    -2.224      2.044      3.343
REMARK INTER + INTRA:          -3.129
REMARK INTER:                  -2.852
REMARK INTRA:                  -0.278
REMARK UNBOUND:                -0.450
REMARK SMILES NC(=O)C[C@H]([NH3+])C(=O)[O-]
REMARK SMILES IDX 4 1 5 2 6 3 7 7 8 8 9 9 2 10 3 11 1 12
REMARK H PARENT 6 4 6 5 6 6 1 13 1 14
REMARK Flexibility Score: inf
ROOT
ATOM      1  C   UNL     1       0.092  29.414 -14.866  1.00  0.00     0.171 C 
ENDROOT
BRANCH   1   2
ATOM      2  C   UNL     1       1.301  29.419 -15.823  1.00  0.00     0.237 C 
BRANCH   2   3
ATOM      3  N   UNL     1       1.782  28.051 -16.051  1.00  0.00    -0.350 N 
ATOM      4  H   UNL     1       2.142  27.959 -17.028  1.00  0.00     0.345 HD
ATOM      5  H   UNL     1       0.993  27.374 -15.928  1.00  0.00     0.345 HD
ATOM      6  H   UNL     1       2.546  27.809 -15.378  1.00  0.00     0.345 HD
ENDBRANCH   2   3
BRANCH   2   7
ATOM      7  C   UNL     1       2.416  30.279 -15.283  1.00  0.00     0.100 C 
ATOM      8  O   UNL     1       2.987  31.124 -16.022  1.00  0.00    -0.544 OA
ATOM      9  O   UNL     1       2.832  30.128 -13.966  1.00  0.00    -0.544 OA
ENDBRANCH   2   7
ENDBRANCH   1   2
BRANCH   1  10
ATOM     10  C   UNL     1       0.281  28.440 -13.739  1.00  0.00     0.223 C 
ATOM     11  O   UNL     1       0.108  27.208 -13.943  1.00  0.00    -0.275 OA
ATOM     12  N   UNL     1       0.615  28.900 -12.431  1.00  0.00    -0.369 N 
ATOM     13  H   UNL     1       0.744  29.919 -12.239  1.00  0.00     0.159 HD
ATOM     14  H   UNL     1       0.730  28.220 -11.647  1.00  0.00     0.159 HD
ENDBRANCH   1  10
TORSDOF 4
ENDMDL
MODEL 5
REMARK VINA RESULT:    -2.143      1.638      3.553
REMARK INTER + INTRA:          -3.031
REMARK INTER:                  -2.620
REMARK INTRA:                  -0.411
REMARK UNBOUND:                -0.450
REMARK SMILES NC(=O)C[C@H]([NH3+])C(=O)[O-]
REMARK SMILES IDX 4 1 5 2 6 3 7 7 8 8 9 9 2 10 3 11 1 12
REMARK H PARENT 6 4 6 5 6 6 1 13 1 14
REMARK Flexibility Score: inf
ROOT
ATOM      1  C   UNL     1       2.031  30.041 -13.312  1.00  0.00     0.171 C 
ENDROOT
BRANCH   1   2
ATOM      2  C   UNL     1       1.938  30.313 -14.826  1.00  0.00     0.237 C 
BRANCH   2   3
ATOM      3  N   UNL     1       0.754  31.125 -15.132  1.00  0.00    -0.350 N 
ATOM      4  H   UNL     1      -0.085  30.723 -14.654  1.00  0.00     0.345 HD
ATOM      5  H   UNL     1       0.577  31.117 -16.163  1.00  0.00     0.345 HD
ATOM      6  H   UNL     1       0.890  32.113 -14.816  1.00  0.00     0.345 HD
ENDBRANCH   2   3
BRANCH   2   7
ATOM      7  C   UNL     1       1.901  29.024 -15.607  1.00  0.00     0.100 C 
ATOM      8  O   UNL     1       2.951  28.559 -16.125  1.00  0.00    -0.544 OA
ATOM      9  O   UNL     1       0.698  28.350 -15.776  1.00  0.00    -0.544 OA
ENDBRANCH   2   7
ENDBRANCH   1   2
BRANCH   1  10
ATOM     10  C   UNL     1       0.697  29.660 -12.735  1.00  0.00     0.223 C 
ATOM     11  O   UNL     1      -0.126  30.560 -12.418  1.00  0.00    -0.275 OA
ATOM     12  N   UNL     1       0.372  28.290 -12.505  1.00  0.00    -0.369 N 
ATOM     13  H   UNL     1       1.050  27.532 -12.744  1.00  0.00     0.159 HD
ATOM     14  H   UNL     1      -0.550  28.030 -12.090  1.00  0.00     0.159 HD
ENDBRANCH   1  10
TORSDOF 4
ENDMDL
MODEL 6
REMARK VINA RESULT:    -2.079      1.647      2.996
REMARK INTER + INTRA:          -2.954
REMARK INTER:                  -2.841
REMARK INTRA:                  -0.114
REMARK UNBOUND:                -0.450
REMARK SMILES NC(=O)C[C@H]([NH3+])C(=O)[O-]
REMARK SMILES IDX 4 1 5 2 6 3 7 7 8 8 9 9 2 10 3 11 1 12
REMARK H PARENT 6 4 6 5 6 6 1 13 1 14
REMARK Flexibility Score: inf
ROOT
ATOM      1  C   UNL     1       0.803  29.540 -13.147  1.00  0.00     0.171 C 
ENDROOT
BRANCH   1   2
ATOM      2  C   UNL     1       2.197  29.922 -13.682  1.00  0.00     0.237 C 
BRANCH   2   3
ATOM      3  N   UNL     1       2.959  30.649 -12.658  1.00  0.00    -0.350 N 
ATOM      4  H   UNL     1       3.089  31.644 -12.953  1.00  0.00     0.345 HD
ATOM      5  H   UNL     1       3.904  30.215 -12.547  1.00  0.00     0.345 HD
ATOM      6  H   UNL     1       2.461  30.624 -11.738  1.00  0.00     0.345 HD
ENDBRANCH   2   3
BRANCH   2   7
ATOM      7  C   UNL     1       2.088  30.751 -14.936  1.00  0.00     0.100 C 
ATOM      8  O   UNL     1       3.124  31.124 -15.548  1.00  0.00    -0.544 OA
ATOM      9  O   UNL     1       0.838  31.125 -15.414  1.00  0.00    -0.544 OA
ENDBRANCH   2   7
ENDBRANCH   1   2
BRANCH   1  10
ATOM     10  C   UNL     1       0.356  28.204 -13.669  1.00  0.00     0.223 C 
ATOM     11  O   UNL     1       0.017  27.299 -12.860  1.00  0.00    -0.275 OA
ATOM     12  N   UNL     1       0.351  27.938 -15.071  1.00  0.00    -0.369 N 
ATOM     13  H   UNL     1       0.647  28.670 -15.755  1.00  0.00     0.159 HD
ATOM     14  H   UNL     1       0.055  27.003 -15.428  1.00  0.00     0.159 HD
ENDBRANCH   1  10
TORSDOF 4
ENDMDL
MODEL 7
REMARK VINA RESULT:    -1.947      2.131      2.344
REMARK INTER + INTRA:          -2.796
REMARK INTER:                  -2.622
REMARK INTRA:                  -0.174
REMARK UNBOUND:                -0.450
REMARK SMILES NC(=O)C[C@H]([NH3+])C(=O)[O-]
REMARK SMILES IDX 4 1 5 2 6 3 7 7 8 8 9 9 2 10 3 11 1 12
REMARK H PARENT 6 4 6 5 6 6 1 13 1 14
REMARK Flexibility Score: inf
ROOT
ATOM      1  C   UNL     1       0.030  30.971 -13.788  1.00  0.00     0.171 C 
ENDROOT
BRANCH   1   2
ATOM      2  C   UNL     1       1.043  29.931 -13.266  1.00  0.00     0.237 C 
BRANCH   2   3
ATOM      3  N   UNL     1       2.310  30.034 -14.001  1.00  0.00    -0.350 N 
ATOM      4  H   UNL     1       3.105  30.122 -13.328  1.00  0.00     0.345 HD
ATOM      5  H   UNL     1       2.299  30.887 -14.606  1.00  0.00     0.345 HD
ATOM      6  H   UNL     1       2.459  29.191 -14.603  1.00  0.00     0.345 HD
ENDBRANCH   2   3
BRANCH   2   7
ATOM      7  C   UNL     1       0.490  28.533 -13.376  1.00  0.00     0.100 C 
ATOM      8  O   UNL     1       0.251  27.857 -12.341  1.00  0.00    -0.544 OA
ATOM      9  O   UNL     1       0.257  27.976 -14.628  1.00  0.00    -0.544 OA
ENDBRANCH   2   7
ENDBRANCH   1   2
BRANCH   1  10
ATOM     10  C   UNL     1      -0.180  30.844 -15.269  1.00  0.00     0.223 C 
ATOM     11  O   UNL     1       0.761  31.124 -16.060  1.00  0.00    -0.275 OA
ATOM     12  N   UNL     1      -1.448  30.449 -15.790  1.00  0.00    -0.369 N 
ATOM     13  H   UNL     1      -2.245  30.232 -15.150  1.00  0.00     0.159 HD
ATOM     14  H   UNL     1      -1.595  30.378 -16.822  1.00  0.00     0.159 HD
ENDBRANCH   1  10
TORSDOF 4
ENDMDL
