MODEL 1
REMARK VINA RESULT:    -4.944      0.000      0.000
REMARK INTER + INTRA:          -5.947
REMARK INTER:                  -6.100
REMARK INTRA:                   0.152
REMARK UNBOUND:                 0.152
REMARK SMILES C=C1CC[C@@H]2[C@H]1[C@@H]1[C@H](CC[C@H]2C)C1(C)C
REMARK SMILES IDX 6 1 5 2 4 3 3 4 2 5 1 6 11 7 12 8 10 9 7 11 8 12 13 13 14 14
REMARK SMILES IDX 15 15 9 16
REMARK H PARENT
REMARK Flexibility Score: 80.00
ROOT
ATOM      1  C   UNL     1      10.609  32.894  22.034  1.00  0.00     0.022 C 
ATOM      2  C   UNL     1       9.387  33.527  21.321  1.00  0.00    -0.000 C 
ATOM      3  C   UNL     1       8.888  34.630  22.275  1.00  0.00     0.009 C 
ATOM      4  C   UNL     1       9.294  34.213  23.682  1.00  0.00     0.031 C 
ATOM      5  C   UNL     1      10.399  33.244  23.470  1.00  0.00    -0.074 C 
ATOM      6  C   UNL     1      11.105  32.712  24.476  1.00  0.00     0.008 C 
ENDROOT
BRANCH   2   7
ATOM      7  C   UNL     1       9.633  34.056  19.871  1.00  0.00    -0.011 C 
ATOM      8  C   UNL     1       8.344  34.656  19.282  1.00  0.00     0.008 C 
BRANCH   7   9
ATOM      9  C   UNL     1      10.163  32.970  18.894  1.00  0.00     0.004 CG0
ATOM     10  G   UNL     1      11.435  32.220  19.338  1.00  0.00     0.000 G0
ENDBRANCH   7   9
ENDBRANCH   2   7
BRANCH   1  11
ATOM     11  C   UNL     1      11.964  33.484  21.562  1.00  0.00     0.006 C 
ATOM     12  C   UNL     1      12.406  33.127  20.128  1.00  0.00    -0.001 C 
ATOM     13  C   UNL     1      13.200  32.592  21.332  1.00  0.00    -0.029 C 
ATOM     14  C   UNL     1      13.196  31.080  21.629  1.00  0.00     0.012 C 
ATOM     15  C   UNL     1      14.545  33.294  21.553  1.00  0.00     0.012 C 
BRANCH  12  16
ATOM     16  C   UNL     1      11.437  32.221  19.341  1.00  0.00     0.005 CG0
ATOM     17  G   UNL     1      10.166  32.971  18.894  1.00  0.00     0.000 G0
ENDBRANCH  12  16
ENDBRANCH   1  11
TORSDOF 0
ENDMDL
MODEL 2
REMARK VINA RESULT:    -4.877      1.896      4.110
REMARK INTER + INTRA:          -5.865
REMARK INTER:                  -6.013
REMARK INTRA:                   0.147
REMARK UNBOUND:                 0.152
REMARK SMILES C=C1CC[C@@H]2[C@H]1[C@@H]1[C@H](CC[C@H]2C)C1(C)C
REMARK SMILES IDX 6 1 5 2 4 3 3 4 2 5 1 6 11 7 12 8 10 9 7 11 8 12 13 13 14 14
REMARK SMILES IDX 15 15 9 16
REMARK H PARENT
REMARK Flexibility Score: 80.00
ROOT
ATOM      1  C   UNL     1       9.049  33.269  23.147  1.00  0.00     0.022 C 
ATOM      2  C   UNL     1      10.588  33.456  23.152  1.00  0.00    -0.000 C 
ATOM      3  C   UNL     1      11.065  32.850  24.486  1.00  0.00     0.009 C 
ATOM      4  C   UNL     1       9.904  32.964  25.463  1.00  0.00     0.031 C 
ATOM      5  C   UNL     1       8.709  33.114  24.592  1.00  0.00    -0.074 C 
ATOM      6  C   UNL     1       7.459  33.145  25.069  1.00  0.00     0.008 C 
ENDROOT
BRANCH   2   7
ATOM      7  C   UNL     1      11.356  32.874  21.920  1.00  0.00    -0.011 C 
ATOM      8  C   UNL     1      12.869  33.126  22.051  1.00  0.00     0.008 C 
BRANCH   7   9
ATOM      9  C   UNL     1      10.875  33.448  20.559  1.00  0.00     0.004 CG0
ATOM     10  G   UNL     1       9.366  33.332  20.267  1.00  0.00     0.000 G0
ENDBRANCH   7   9
ENDBRANCH   2   7
BRANCH   1  11
ATOM     11  C   UNL     1       8.590  32.001  22.379  1.00  0.00     0.006 C 
ATOM     12  C   UNL     1       8.755  32.030  20.846  1.00  0.00    -0.001 C 
ATOM     13  C   UNL     1       7.348  32.012  21.467  1.00  0.00    -0.029 C 
ATOM     14  C   UNL     1       6.441  33.249  21.318  1.00  0.00     0.012 C 
ATOM     15  C   UNL     1       6.631  30.663  21.348  1.00  0.00     0.012 C 
BRANCH  12  16
ATOM     16  C   UNL     1       9.360  33.326  20.267  1.00  0.00     0.005 CG0
ATOM     17  G   UNL     1      10.869  33.449  20.559  1.00  0.00     0.000 G0
ENDBRANCH  12  16
ENDBRANCH   1  11
TORSDOF 0
ENDMDL
MODEL 3
REMARK VINA RESULT:    -4.629      1.903      4.502
REMARK INTER + INTRA:          -5.559
REMARK INTER:                  -5.707
REMARK INTRA:                   0.148
REMARK UNBOUND:                 0.152
REMARK SMILES C=C1CC[C@@H]2[C@H]1[C@@H]1[C@H](CC[C@H]2C)C1(C)C
REMARK SMILES IDX 6 1 5 2 4 3 3 4 2 5 1 6 11 7 12 8 10 9 7 11 8 12 13 13 14 14
REMARK SMILES IDX 15 15 9 16
REMARK H PARENT
REMARK Flexibility Score: 80.00
ROOT
ATOM      1  C   UNL     1      12.084  33.223  19.696  1.00  0.00     0.022 C 
ATOM      2  C   UNL     1      13.455  33.575  19.064  1.00  0.00    -0.000 C 
ATOM      3  C   UNL     1      13.289  35.000  18.503  1.00  0.00     0.009 C 
ATOM      4  C   UNL     1      11.811  35.179  18.184  1.00  0.00     0.031 C 
ATOM      5  C   UNL     1      11.133  34.146  19.009  1.00  0.00    -0.074 C 
ATOM      6  C   UNL     1       9.801  34.037  19.091  1.00  0.00     0.008 C 
ENDROOT
BRANCH   2   7
ATOM      7  C   UNL     1      14.700  33.441  20.002  1.00  0.00    -0.011 C 
ATOM      8  C   UNL     1      15.989  33.825  19.255  1.00  0.00     0.008 C 
BRANCH   7   9
ATOM      9  C   UNL     1      14.879  32.018  20.598  1.00  0.00     0.004 CG0
ATOM     10  G   UNL     1      13.671  31.444  21.365  1.00  0.00     0.000 G0
ENDBRANCH   7   9
ENDBRANCH   2   7
BRANCH   1  11
ATOM     11  C   UNL     1      12.030  33.484  21.224  1.00  0.00     0.006 C 
ATOM     12  C   UNL     1      12.870  32.543  22.111  1.00  0.00    -0.001 C 
ATOM     13  C   UNL     1      11.334  32.505  22.189  1.00  0.00    -0.029 C 
ATOM     14  C   UNL     1      10.583  31.252  21.699  1.00  0.00     0.012 C 
ATOM     15  C   UNL     1      10.758  33.155  23.453  1.00  0.00     0.012 C 
BRANCH  12  16
ATOM     16  C   UNL     1      13.662  31.453  21.360  1.00  0.00     0.005 CG0
ATOM     17  G   UNL     1      14.875  32.028  20.603  1.00  0.00     0.000 G0
ENDBRANCH  12  16
ENDBRANCH   1  11
TORSDOF 0
ENDMDL
MODEL 4
REMARK VINA RESULT:    -4.627      2.127      3.903
REMARK INTER + INTRA:          -5.557
REMARK INTER:                  -5.709
REMARK INTRA:                   0.152
REMARK UNBOUND:                 0.152
REMARK SMILES C=C1CC[C@@H]2[C@H]1[C@@H]1[C@H](CC[C@H]2C)C1(C)C
REMARK SMILES IDX 6 1 5 2 4 3 3 4 2 5 1 6 11 7 12 8 10 9 7 11 8 12 13 13 14 14
REMARK SMILES IDX 15 15 9 16
REMARK H PARENT
REMARK Flexibility Score: 80.00
ROOT
ATOM      1  C   UNL     1       9.700  33.673  21.462  1.00  0.00     0.022 C 
ATOM      2  C   UNL     1       8.532  33.760  22.477  1.00  0.00    -0.000 C 
ATOM      3  C   UNL     1       7.268  33.402  21.671  1.00  0.00     0.009 C 
ATOM      4  C   UNL     1       7.546  33.781  20.223  1.00  0.00     0.031 C 
ATOM      5  C   UNL     1       9.029  33.830  20.138  1.00  0.00    -0.074 C 
ATOM      6  C   UNL     1       9.686  34.035  18.990  1.00  0.00     0.008 C 
ENDROOT
BRANCH   2   7
ATOM      7  C   UNL     1       8.680  32.897  23.773  1.00  0.00    -0.011 C 
ATOM      8  C   UNL     1       7.457  33.074  24.689  1.00  0.00     0.008 C 
BRANCH   7   9
ATOM      9  C   UNL     1       9.961  33.219  24.591  1.00  0.00     0.004 CG0
ATOM     10  G   UNL     1      11.297  33.127  23.826  1.00  0.00     0.000 G0
ENDBRANCH   7   9
ENDBRANCH   2   7
BRANCH   1  11
ATOM     11  C   UNL     1      10.440  32.310  21.497  1.00  0.00     0.006 C 
ATOM     12  C   UNL     1      11.288  32.021  22.752  1.00  0.00    -0.001 C 
ATOM     13  C   UNL     1      11.974  32.218  21.389  1.00  0.00    -0.029 C 
ATOM     14  C   UNL     1      12.864  33.455  21.162  1.00  0.00     0.012 C 
ATOM     15  C   UNL     1      12.494  30.920  20.760  1.00  0.00     0.012 C 
BRANCH  12  16
ATOM     16  C   UNL     1      11.294  33.134  23.820  1.00  0.00     0.005 CG0
ATOM     17  G   UNL     1       9.960  33.215  24.589  1.00  0.00     0.000 G0
ENDBRANCH  12  16
ENDBRANCH   1  11
TORSDOF 0
ENDMDL
MODEL 5
REMARK VINA RESULT:    -4.523      2.397      2.872
REMARK INTER + INTRA:          -5.429
REMARK INTER:                  -5.576
REMARK INTRA:                   0.147
REMARK UNBOUND:                 0.152
REMARK SMILES C=C1CC[C@@H]2[C@H]1[C@@H]1[C@H](CC[C@H]2C)C1(C)C
REMARK SMILES IDX 6 1 5 2 4 3 3 4 2 5 1 6 11 7 12 8 10 9 7 11 8 12 13 13 14 14
REMARK SMILES IDX 15 15 9 16
REMARK H PARENT
REMARK Flexibility Score: 80.00
ROOT
ATOM      1  C   UNL     1       9.720  32.185  23.382  1.00  0.00     0.022 C 
ATOM      2  C   UNL     1       8.267  31.649  23.298  1.00  0.00    -0.000 C 
ATOM      3  C   UNL     1       7.382  32.794  23.828  1.00  0.00     0.009 C 
ATOM      4  C   UNL     1       8.239  33.608  24.787  1.00  0.00     0.031 C 
ATOM      5  C   UNL     1       9.634  33.273  24.401  1.00  0.00    -0.074 C 
ATOM      6  C   UNL     1      10.703  33.866  24.947  1.00  0.00     0.008 C 
ENDROOT
BRANCH   2   7
ATOM      7  C   UNL     1       7.805  31.132  21.897  1.00  0.00    -0.011 C 
ATOM      8  C   UNL     1       6.351  30.630  21.954  1.00  0.00     0.008 C 
BRANCH   7   9
ATOM      9  C   UNL     1       8.698  29.996  21.327  1.00  0.00     0.004 CG0
ATOM     10  G   UNL     1      10.209  30.294  21.249  1.00  0.00     0.000 G0
ENDBRANCH   7   9
ENDBRANCH   2   7
BRANCH   1  11
ATOM     11  C   UNL     1      10.228  32.783  22.044  1.00  0.00     0.006 C 
ATOM     12  C   UNL     1      10.492  31.781  20.902  1.00  0.00    -0.001 C 
ATOM     13  C   UNL     1      11.665  32.541  21.543  1.00  0.00    -0.029 C 
ATOM     14  C   UNL     1      12.709  31.762  22.367  1.00  0.00     0.012 C 
ATOM     15  C   UNL     1      12.235  33.663  20.668  1.00  0.00     0.012 C 
BRANCH  12  16
ATOM     16  C   UNL     1      10.214  30.302  21.238  1.00  0.00     0.005 CG0
ATOM     17  G   UNL     1       8.706  29.994  21.325  1.00  0.00     0.000 G0
ENDBRANCH  12  16
ENDBRANCH   1  11
TORSDOF 0
ENDMDL
MODEL 6
REMARK VINA RESULT:    -4.447      2.991      4.386
REMARK INTER + INTRA:          -5.335
REMARK INTER:                  -5.482
REMARK INTRA:                   0.147
REMARK UNBOUND:                 0.152
REMARK SMILES C=C1CC[C@@H]2[C@H]1[C@@H]1[C@H](CC[C@H]2C)C1(C)C
REMARK SMILES IDX 6 1 5 2 4 3 3 4 2 5 1 6 11 7 12 8 10 9 7 11 8 12 13 13 14 14
REMARK SMILES IDX 15 15 9 16
REMARK H PARENT
REMARK Flexibility Score: 80.00
ROOT
ATOM      1  C   UNL     1       7.652  31.558  22.856  1.00  0.00     0.022 C 
ATOM      2  C   UNL     1       7.894  32.617  23.962  1.00  0.00    -0.000 C 
ATOM      3  C   UNL     1       7.888  31.829  25.286  1.00  0.00     0.009 C 
ATOM      4  C   UNL     1       7.022  30.597  25.062  1.00  0.00     0.031 C 
ATOM      5  C   UNL     1       7.002  30.429  23.586  1.00  0.00    -0.074 C 
ATOM      6  C   UNL     1       6.422  29.387  22.979  1.00  0.00     0.008 C 
ENDROOT
BRANCH   2   7
ATOM      7  C   UNL     1       9.171  33.504  23.798  1.00  0.00    -0.011 C 
ATOM      8  C   UNL     1       9.291  34.508  24.959  1.00  0.00     0.008 C 
BRANCH   7   9
ATOM      9  C   UNL     1       9.215  34.290  22.459  1.00  0.00     0.004 CG0
ATOM     10  G   UNL     1       9.063  33.452  21.174  1.00  0.00     0.000 G0
ENDBRANCH   7   9
ENDBRANCH   2   7
BRANCH   1  11
ATOM     11  C   UNL     1       8.963  31.049  22.201  1.00  0.00     0.006 C 
ATOM     12  C   UNL     1       9.715  32.053  21.303  1.00  0.00    -0.001 C 
ATOM     13  C   UNL     1       9.067  30.803  20.683  1.00  0.00    -0.029 C 
ATOM     14  C   UNL     1       7.865  30.968  19.733  1.00  0.00     0.012 C 
ATOM     15  C   UNL     1      10.070  29.716  20.279  1.00  0.00     0.012 C 
BRANCH  12  16
ATOM     16  C   UNL     1       9.063  33.444  21.170  1.00  0.00     0.005 CG0
ATOM     17  G   UNL     1       9.212  34.286  22.453  1.00  0.00     0.000 G0
ENDBRANCH  12  16
ENDBRANCH   1  11
TORSDOF 0
ENDMDL
MODEL 7
REMARK VINA RESULT:    -4.378      2.941      5.399
REMARK INTER + INTRA:          -5.249
REMARK INTER:                  -5.402
REMARK INTRA:                   0.153
REMARK UNBOUND:                 0.152
REMARK SMILES C=C1CC[C@@H]2[C@H]1[C@@H]1[C@H](CC[C@H]2C)C1(C)C
REMARK SMILES IDX 6 1 5 2 4 3 3 4 2 5 1 6 11 7 12 8 10 9 7 11 8 12 13 13 14 14
REMARK SMILES IDX 15 15 9 16
REMARK H PARENT
REMARK Flexibility Score: 80.00
ROOT
ATOM      1  C   UNL     1       9.707  31.908  22.284  1.00  0.00     0.022 C 
ATOM      2  C   UNL     1      10.564  32.373  23.489  1.00  0.00    -0.000 C 
ATOM      3  C   UNL     1      11.691  33.228  22.877  1.00  0.00     0.009 C 
ATOM      4  C   UNL     1      11.905  32.725  21.456  1.00  0.00     0.031 C 
ATOM      5  C   UNL     1      10.638  32.026  21.123  1.00  0.00    -0.074 C 
ATOM      6  C   UNL     1      10.382  31.520  19.910  1.00  0.00     0.008 C 
ENDROOT
BRANCH   2   7
ATOM      7  C   UNL     1       9.799  33.118  24.631  1.00  0.00    -0.011 C 
ATOM      8  C   UNL     1      10.764  33.525  25.759  1.00  0.00     0.008 C 
BRANCH   7   9
ATOM      9  C   UNL     1       8.640  32.288  25.248  1.00  0.00     0.004 CG0
ATOM     10  G   UNL     1       7.592  31.743  24.257  1.00  0.00     0.000 G0
ENDBRANCH   7   9
ENDBRANCH   2   7
BRANCH   1  11
ATOM     11  C   UNL     1       8.467  32.806  22.033  1.00  0.00     0.006 C 
ATOM     12  C   UNL     1       7.337  32.724  23.080  1.00  0.00    -0.001 C 
ATOM     13  C   UNL     1       7.099  32.210  21.650  1.00  0.00    -0.029 C 
ATOM     14  C   UNL     1       6.890  30.701  21.415  1.00  0.00     0.012 C 
ATOM     15  C   UNL     1       6.218  33.128  20.795  1.00  0.00     0.012 C 
BRANCH  12  16
ATOM     16  C   UNL     1       7.586  31.752  24.251  1.00  0.00     0.005 CG0
ATOM     17  G   UNL     1       8.636  32.288  25.245  1.00  0.00     0.000 G0
ENDBRANCH  12  16
ENDBRANCH   1  11
TORSDOF 0
ENDMDL
MODEL 8
REMARK VINA RESULT:    -4.372      1.801      3.707
REMARK INTER + INTRA:          -5.242
REMARK INTER:                  -5.399
REMARK INTRA:                   0.157
REMARK UNBOUND:                 0.152
REMARK SMILES C=C1CC[C@@H]2[C@H]1[C@@H]1[C@H](CC[C@H]2C)C1(C)C
REMARK SMILES IDX 6 1 5 2 4 3 3 4 2 5 1 6 11 7 12 8 10 9 7 11 8 12 13 13 14 14
REMARK SMILES IDX 15 15 9 16
REMARK H PARENT
REMARK Flexibility Score: 80.00
ROOT
ATOM      1  C   UNL     1      13.247  33.096  20.555  1.00  0.00     0.022 C 
ATOM      2  C   UNL     1      11.982  33.881  20.124  1.00  0.00    -0.000 C 
ATOM      3  C   UNL     1      12.300  34.420  18.716  1.00  0.00     0.009 C 
ATOM      4  C   UNL     1      13.813  34.567  18.630  1.00  0.00     0.031 C 
ATOM      5  C   UNL     1      14.326  33.669  19.697  1.00  0.00    -0.074 C 
ATOM      6  C   UNL     1      15.630  33.434  19.887  1.00  0.00     0.008 C 
ENDROOT
BRANCH   2   7
ATOM      7  C   UNL     1      10.633  33.093  20.174  1.00  0.00    -0.011 C 
ATOM      8  C   UNL     1       9.462  33.987  19.727  1.00  0.00     0.008 C 
BRANCH   7   9
ATOM      9  C   UNL     1      10.303  32.513  21.577  1.00  0.00     0.004 CG0
ATOM     10  G   UNL     1      11.385  31.618  22.214  1.00  0.00     0.000 G0
ENDBRANCH   7   9
ENDBRANCH   2   7
BRANCH   1  11
ATOM     11  C   UNL     1      13.141  31.572  20.286  1.00  0.00     0.006 C 
ATOM     12  C   UNL     1      12.152  30.786  21.170  1.00  0.00    -0.001 C 
ATOM     13  C   UNL     1      13.664  30.533  21.297  1.00  0.00    -0.029 C 
ATOM     14  C   UNL     1      14.392  30.933  22.595  1.00  0.00     0.012 C 
ATOM     15  C   UNL     1      14.129  29.212  20.673  1.00  0.00     0.012 C 
BRANCH  12  16
ATOM     16  C   UNL     1      11.389  31.622  22.218  1.00  0.00     0.005 CG0
ATOM     17  G   UNL     1      10.306  32.515  21.580  1.00  0.00     0.000 G0
ENDBRANCH  12  16
ENDBRANCH   1  11
TORSDOF 0
ENDMDL
MODEL 9
REMARK VINA RESULT:    -4.287      1.239      3.744
REMARK INTER + INTRA:          -5.137
REMARK INTER:                  -5.293
REMARK INTRA:                   0.157
REMARK UNBOUND:                 0.152
REMARK SMILES C=C1CC[C@@H]2[C@H]1[C@@H]1[C@H](CC[C@H]2C)C1(C)C
REMARK SMILES IDX 6 1 5 2 4 3 3 4 2 5 1 6 11 7 12 8 10 9 7 11 8 12 13 13 14 14
REMARK SMILES IDX 15 15 9 16
REMARK H PARENT
REMARK Flexibility Score: 80.00
ROOT
ATOM      1  C   UNL     1      10.386  33.625  21.769  1.00  0.00     0.022 C 
ATOM      2  C   UNL     1      11.870  33.454  22.183  1.00  0.00    -0.000 C 
ATOM      3  C   UNL     1      11.842  32.537  23.421  1.00  0.00     0.009 C 
ATOM      4  C   UNL     1      10.491  32.743  24.092  1.00  0.00     0.031 C 
ATOM      5  C   UNL     1       9.633  33.307  23.018  1.00  0.00    -0.074 C 
ATOM      6  C   UNL     1       8.324  33.539  23.177  1.00  0.00     0.008 C 
ENDROOT
BRANCH   2   7
ATOM      7  C   UNL     1      12.839  32.932  21.073  1.00  0.00    -0.011 C 
ATOM      8  C   UNL     1      14.276  32.818  21.612  1.00  0.00     0.008 C 
BRANCH   7   9
ATOM      9  C   UNL     1      12.859  33.819  19.797  1.00  0.00     0.004 CG0
ATOM     10  G   UNL     1      11.491  34.100  19.143  1.00  0.00     0.000 G0
ENDBRANCH   7   9
ENDBRANCH   2   7
BRANCH   1  11
ATOM     11  C   UNL     1       9.948  32.645  20.649  1.00  0.00     0.006 C 
ATOM     12  C   UNL     1      10.537  32.898  19.246  1.00  0.00    -0.001 C 
ATOM     13  C   UNL     1       9.031  33.093  19.494  1.00  0.00    -0.029 C 
ATOM     14  C   UNL     1       8.429  34.509  19.416  1.00  0.00     0.012 C 
ATOM     15  C   UNL     1       8.154  31.981  18.906  1.00  0.00     0.012 C 
BRANCH  12  16
ATOM     16  C   UNL     1      11.493  34.104  19.135  1.00  0.00     0.005 CG0
ATOM     17  G   UNL     1      12.864  33.826  19.784  1.00  0.00     0.000 G0
ENDBRANCH  12  16
ENDBRANCH   1  11
TORSDOF 0
ENDMDL
