MODEL 1
REMARK VINA RESULT:    -0.095      0.000      0.000
REMARK INTER + INTRA:          -0.097
REMARK INTER:                  -0.097
REMARK INTRA:                   0.000
REMARK UNBOUND:                 0.000
REMARK SMILES O=c1ccc2cc(O)ccc2o1
REMARK SMILES IDX 9 1 10 2 11 3 5 4 4 5 3 6 2 7 1 8 12 9 6 10 7 11 8 12
REMARK H PARENT 8 13
REMARK Flexibility Score: inf
ROOT
ATOM      1  C   UNL     1      -4.843  -1.969  -0.251  1.00  0.00     0.050 A 
ATOM      2  C   UNL     1      -3.715  -1.217   0.089  1.00  0.00     0.052 A 
ATOM      3  C   UNL     1      -3.482  -0.864   1.423  1.00  0.00     0.138 A 
ATOM      4  C   UNL     1      -4.392  -1.272   2.424  1.00  0.00     0.021 A 
ATOM      5  C   UNL     1      -4.133  -0.905   3.748  1.00  0.00     0.019 A 
ATOM      6  C   UNL     1      -2.995  -0.154   4.041  1.00  0.00     0.094 A 
ATOM      7  C   UNL     1      -2.139   0.213   2.997  1.00  0.00     0.336 A 
ATOM      8  O   UNL     1      -1.106   0.892   3.240  1.00  0.00    -0.246 OA
ATOM      9  O   UNL     1      -2.408  -0.149   1.745  1.00  0.00    -0.423 OA
ATOM     10  C   UNL     1      -5.522  -2.027   2.078  1.00  0.00     0.058 A 
ATOM     11  C   UNL     1      -5.748  -2.375   0.738  1.00  0.00     0.116 A 
ENDROOT
BRANCH  11  12
ATOM     12  O   UNL     1      -6.866  -3.125   0.379  1.00  0.00    -0.508 OA
ATOM     13  H   UNL     1      -7.129  -3.249  -0.592  1.00  0.00     0.293 HD
ENDBRANCH  11  12
TORSDOF 1
ENDMDL
MODEL 2
REMARK VINA RESULT:     1.152      1.272      4.279
REMARK INTER + INTRA:           1.185
REMARK INTER:                   1.185
REMARK INTRA:                   0.000
REMARK UNBOUND:                 0.000
REMARK SMILES O=c1ccc2cc(O)ccc2o1
REMARK SMILES IDX 9 1 10 2 11 3 5 4 4 5 3 6 2 7 1 8 12 9 6 10 7 11 8 12
REMARK H PARENT 8 13
REMARK Flexibility Score: inf
ROOT
ATOM      1  C   UNL     1      -2.044   0.456   2.588  1.00  0.00     0.050 A 
ATOM      2  C   UNL     1      -2.392  -0.135   1.370  1.00  0.00     0.052 A 
ATOM      3  C   UNL     1      -3.511  -0.971   1.290  1.00  0.00     0.138 A 
ATOM      4  C   UNL     1      -4.288  -1.214   2.445  1.00  0.00     0.021 A 
ATOM      5  C   UNL     1      -5.401  -2.053   2.335  1.00  0.00     0.019 A 
ATOM      6  C   UNL     1      -5.710  -2.622   1.100  1.00  0.00     0.094 A 
ATOM      7  C   UNL     1      -4.894  -2.336  -0.001  1.00  0.00     0.336 A 
ATOM      8  O   UNL     1      -5.156  -2.840  -1.125  1.00  0.00    -0.246 OA
ATOM      9  O   UNL     1      -3.841  -1.534   0.131  1.00  0.00    -0.423 OA
ATOM     10  C   UNL     1      -3.935  -0.617   3.664  1.00  0.00     0.058 A 
ATOM     11  C   UNL     1      -2.811   0.219   3.735  1.00  0.00     0.116 A 
ENDROOT
BRANCH  11  12
ATOM     12  O   UNL     1      -2.448   0.819   4.939  1.00  0.00    -0.508 OA
ATOM     13  H   UNL     1      -3.144   1.151   5.596  1.00  0.00     0.293 HD
ENDBRANCH  11  12
TORSDOF 1
ENDMDL
MODEL 3
REMARK VINA RESULT:     1.431      0.835      4.769
REMARK INTER + INTRA:           1.473
REMARK INTER:                   1.473
REMARK INTRA:                   0.000
REMARK UNBOUND:                 0.000
REMARK SMILES O=c1ccc2cc(O)ccc2o1
REMARK SMILES IDX 9 1 10 2 11 3 5 4 4 5 3 6 2 7 1 8 12 9 6 10 7 11 8 12
REMARK H PARENT 8 13
REMARK Flexibility Score: inf
ROOT
ATOM      1  C   UNL     1      -3.159  -0.235   4.131  1.00  0.00     0.050 A 
ATOM      2  C   UNL     1      -4.251  -1.014   3.738  1.00  0.00     0.052 A 
ATOM      3  C   UNL     1      -4.431  -1.340   2.390  1.00  0.00     0.138 A 
ATOM      4  C   UNL     1      -3.506  -0.879   1.427  1.00  0.00     0.021 A 
ATOM      5  C   UNL     1      -3.711  -1.221   0.087  1.00  0.00     0.019 A 
ATOM      6  C   UNL     1      -4.815  -2.000  -0.259  1.00  0.00     0.094 A 
ATOM      7  C   UNL     1      -5.690  -2.421   0.749  1.00  0.00     0.336 A 
ATOM      8  O   UNL     1      -6.692  -3.125   0.457  1.00  0.00    -0.246 OA
ATOM      9  O   UNL     1      -5.471  -2.082   2.017  1.00  0.00    -0.423 OA
ATOM     10  C   UNL     1      -2.411  -0.098   1.826  1.00  0.00     0.058 A 
ATOM     11  C   UNL     1      -2.238   0.224   3.181  1.00  0.00     0.116 A 
ENDROOT
BRANCH  11  12
ATOM     12  O   UNL     1      -1.156   1.000   3.593  1.00  0.00    -0.508 OA
ATOM     13  H   UNL     1      -0.202   0.677   3.481  1.00  0.00     0.293 HD
ENDBRANCH  11  12
TORSDOF 1
ENDMDL
