MODEL 1
REMARK VINA RESULT:    -4.497      0.000      0.000
REMARK INTER + INTRA:         -10.360
REMARK INTER:                  -8.703
REMARK INTRA:                  -1.657
REMARK UNBOUND:                -1.657
REMARK SMILES CCCCCCCCCCCCCCCCCC(=O)[O-]
REMARK SMILES IDX 10 1 11 2 12 3 13 4 14 5 15 6 16 7 17 8 18 9 19 10 20 11
REMARK SMILES IDX 9 12 8 13 7 14 6 15 5 16 4 17 3 18 2 19 1 20
REMARK H PARENT
REMARK Flexibility Score: inf
ROOT
ATOM      1  C   UNL     1     111.949 112.628 121.290  1.00  0.00     0.000 C 
ENDROOT
BRANCH   1   2
ATOM      2  C   UNL     1     110.582 112.985 120.680  1.00  0.00     0.000 C 
BRANCH   2   3
ATOM      3  C   UNL     1     110.429 112.452 119.239  1.00  0.00     0.000 C 
BRANCH   3   4
ATOM      4  C   UNL     1     109.069 111.786 118.969  1.00  0.00     0.000 C 
BRANCH   4   5
ATOM      5  C   UNL     1     109.169 110.262 118.823  1.00  0.00     0.000 C 
BRANCH   5   6
ATOM      6  C   UNL     1     107.777 109.625 118.728  1.00  0.00     0.000 C 
BRANCH   6   7
ATOM      7  C   UNL     1     107.769 108.224 119.357  1.00  0.00     0.006 C 
BRANCH   7   8
ATOM      8  C   UNL     1     106.349 107.662 119.504  1.00  0.00     0.053 C 
BRANCH   8   9
ATOM      9  C   UNL     1     105.818 107.143 118.203  1.00  0.00     0.041 C 
ATOM     10  O   UNL     1     106.599 106.624 117.363  1.00  0.00    -0.550 OA
ATOM     11  O   UNL     1     104.467 107.264 117.904  1.00  0.00    -0.550 OA
ENDBRANCH   8   9
ENDBRANCH   7   8
ENDBRANCH   6   7
ENDBRANCH   5   6
ENDBRANCH   4   5
ENDBRANCH   3   4
ENDBRANCH   2   3
ENDBRANCH   1   2
BRANCH   1  12
ATOM     12  C   UNL     1     111.831 111.593 122.430  1.00  0.00     0.000 C 
BRANCH  12  13
ATOM     13  C   UNL     1     112.067 110.144 121.972  1.00  0.00    -0.000 C 
BRANCH  13  14
ATOM     14  C   UNL     1     112.885 110.055 120.673  1.00  0.00    -0.000 C 
BRANCH  14  15
ATOM     15  C   UNL     1     114.155 109.197 120.822  1.00  0.00    -0.000 C 
BRANCH  15  16
ATOM     16  C   UNL     1     115.482 109.979 120.771  1.00  0.00    -0.000 C 
BRANCH  16  17
ATOM     17  C   UNL     1     116.122 110.167 122.157  1.00  0.00    -0.000 C 
BRANCH  17  18
ATOM     18  C   UNL     1     115.611 111.422 122.888  1.00  0.00    -0.000 C 
BRANCH  18  19
ATOM     19  C   UNL     1     115.879 112.754 122.164  1.00  0.00    -0.003 C 
ATOM     20  C   UNL     1     117.364 113.009 121.909  1.00  0.00     0.004 C 
ENDBRANCH  18  19
ENDBRANCH  17  18
ENDBRANCH  16  17
ENDBRANCH  15  16
ENDBRANCH  14  15
ENDBRANCH  13  14
ENDBRANCH  12  13
ENDBRANCH   1  12
TORSDOF 16
ENDMDL
MODEL 2
REMARK VINA RESULT:    -4.391      3.488      5.459
REMARK INTER + INTRA:         -10.155
REMARK INTER:                  -7.142
REMARK INTRA:                  -3.013
REMARK UNBOUND:                -1.657
REMARK SMILES CCCCCCCCCCCCCCCCCC(=O)[O-]
REMARK SMILES IDX 10 1 11 2 12 3 13 4 14 5 15 6 16 7 17 8 18 9 19 10 20 11
REMARK SMILES IDX 9 12 8 13 7 14 6 15 5 16 4 17 3 18 2 19 1 20
REMARK H PARENT
REMARK Flexibility Score: inf
ROOT
ATOM      1  C   UNL     1     116.123 110.065 122.185  1.00  0.00     0.000 C 
ENDROOT
BRANCH   1   2
ATOM      2  C   UNL     1     114.843 109.260 121.893  1.00  0.00     0.000 C 
BRANCH   2   3
ATOM      3  C   UNL     1     114.250 109.591 120.506  1.00  0.00     0.000 C 
BRANCH   3   4
ATOM      4  C   UNL     1     112.789 110.069 120.560  1.00  0.00     0.000 C 
BRANCH   4   5
ATOM      5  C   UNL     1     112.222 110.100 121.986  1.00  0.00     0.000 C 
BRANCH   5   6
ATOM      6  C   UNL     1     111.757 111.511 122.363  1.00  0.00     0.000 C 
BRANCH   6   7
ATOM      7  C   UNL     1     111.803 112.449 121.148  1.00  0.00     0.006 C 
BRANCH   7   8
ATOM      8  C   UNL     1     110.402 112.890 120.702  1.00  0.00     0.053 C 
BRANCH   8   9
ATOM      9  C   UNL     1     110.191 112.674 119.235  1.00  0.00     0.041 C 
ATOM     10  O   UNL     1     109.042 112.804 118.735  1.00  0.00    -0.550 OA
ATOM     11  O   UNL     1     111.254 112.293 118.426  1.00  0.00    -0.550 OA
ENDBRANCH   8   9
ENDBRANCH   7   8
ENDBRANCH   6   7
ENDBRANCH   5   6
ENDBRANCH   4   5
ENDBRANCH   3   4
ENDBRANCH   2   3
ENDBRANCH   1   2
BRANCH   1  12
ATOM     12  C   UNL     1     115.840 111.337 123.011  1.00  0.00     0.000 C 
BRANCH  12  13
ATOM     13  C   UNL     1     116.329 112.630 122.337  1.00  0.00    -0.000 C 
BRANCH  13  14
ATOM     14  C   UNL     1     115.323 113.188 121.317  1.00  0.00    -0.000 C 
BRANCH  14  15
ATOM     15  C   UNL     1     115.787 113.011 119.860  1.00  0.00    -0.000 C 
BRANCH  15  16
ATOM     16  C   UNL     1     114.668 113.089 118.803  1.00  0.00    -0.000 C 
BRANCH  16  17
ATOM     17  C   UNL     1     114.729 111.942 117.780  1.00  0.00    -0.000 C 
BRANCH  17  18
ATOM     18  C   UNL     1     116.168 111.580 117.369  1.00  0.00    -0.000 C 
BRANCH  18  19
ATOM     19  C   UNL     1     116.594 110.134 117.685  1.00  0.00    -0.003 C 
ATOM     20  C   UNL     1     117.731 110.053 118.702  1.00  0.00     0.004 C 
ENDBRANCH  18  19
ENDBRANCH  17  18
ENDBRANCH  16  17
ENDBRANCH  15  16
ENDBRANCH  14  15
ENDBRANCH  13  14
ENDBRANCH  12  13
ENDBRANCH   1  12
TORSDOF 16
ENDMDL
MODEL 3
REMARK VINA RESULT:    -4.367      3.575      6.947
REMARK INTER + INTRA:         -10.109
REMARK INTER:                  -7.159
REMARK INTRA:                  -2.950
REMARK UNBOUND:                -1.657
REMARK SMILES CCCCCCCCCCCCCCCCCC(=O)[O-]
REMARK SMILES IDX 10 1 11 2 12 3 13 4 14 5 15 6 16 7 17 8 18 9 19 10 20 11
REMARK SMILES IDX 9 12 8 13 7 14 6 15 5 16 4 17 3 18 2 19 1 20
REMARK H PARENT
REMARK Flexibility Score: inf
ROOT
ATOM      1  C   UNL     1     115.741 110.050 122.028  1.00  0.00     0.000 C 
ENDROOT
BRANCH   1   2
ATOM      2  C   UNL     1     115.355 111.349 122.758  1.00  0.00     0.000 C 
BRANCH   2   3
ATOM      3  C   UNL     1     115.976 112.598 122.095  1.00  0.00     0.000 C 
BRANCH   3   4
ATOM      4  C   UNL     1     115.154 113.140 120.914  1.00  0.00     0.000 C 
BRANCH   4   5
ATOM      5  C   UNL     1     116.025 113.553 119.720  1.00  0.00     0.000 C 
BRANCH   5   6
ATOM      6  C   UNL     1     115.649 112.760 118.463  1.00  0.00     0.000 C 
BRANCH   6   7
ATOM      7  C   UNL     1     116.001 111.274 118.624  1.00  0.00     0.006 C 
BRANCH   7   8
ATOM      8  C   UNL     1     114.927 110.354 118.029  1.00  0.00     0.053 C 
BRANCH   8   9
ATOM      9  C   UNL     1     115.425 108.951 117.862  1.00  0.00     0.041 C 
ATOM     10  O   UNL     1     114.776 107.987 118.348  1.00  0.00    -0.550 OA
ATOM     11  O   UNL     1     116.622 108.711 117.200  1.00  0.00    -0.550 OA
ENDBRANCH   8   9
ENDBRANCH   7   8
ENDBRANCH   6   7
ENDBRANCH   5   6
ENDBRANCH   4   5
ENDBRANCH   3   4
ENDBRANCH   2   3
ENDBRANCH   1   2
BRANCH   1  12
ATOM     12  C   UNL     1     114.514 109.170 121.707  1.00  0.00     0.000 C 
BRANCH  12  13
ATOM     13  C   UNL     1     113.305 109.968 121.189  1.00  0.00    -0.000 C 
BRANCH  13  14
ATOM     14  C   UNL     1     112.048 109.773 122.054  1.00  0.00    -0.000 C 
BRANCH  14  15
ATOM     15  C   UNL     1     111.499 111.097 122.618  1.00  0.00    -0.000 C 
BRANCH  15  16
ATOM     16  C   UNL     1     111.848 112.352 121.795  1.00  0.00    -0.000 C 
BRANCH  16  17
ATOM     17  C   UNL     1     110.838 112.632 120.669  1.00  0.00    -0.000 C 
BRANCH  17  18
ATOM     18  C   UNL     1     111.474 112.586 119.268  1.00  0.00    -0.000 C 
BRANCH  18  19
ATOM     19  C   UNL     1     111.282 111.261 118.507  1.00  0.00    -0.003 C 
ATOM     20  C   UNL     1     110.037 110.492 118.946  1.00  0.00     0.004 C 
ENDBRANCH  18  19
ENDBRANCH  17  18
ENDBRANCH  16  17
ENDBRANCH  15  16
ENDBRANCH  14  15
ENDBRANCH  13  14
ENDBRANCH  12  13
ENDBRANCH   1  12
TORSDOF 16
ENDMDL
MODEL 4
REMARK VINA RESULT:    -4.365      4.282      8.682
REMARK INTER + INTRA:         -10.104
REMARK INTER:                  -8.375
REMARK INTRA:                  -1.729
REMARK UNBOUND:                -1.657
REMARK SMILES CCCCCCCCCCCCCCCCCC(=O)[O-]
REMARK SMILES IDX 10 1 11 2 12 3 13 4 14 5 15 6 16 7 17 8 18 9 19 10 20 11
REMARK SMILES IDX 9 12 8 13 7 14 6 15 5 16 4 17 3 18 2 19 1 20
REMARK H PARENT
REMARK Flexibility Score: inf
ROOT
ATOM      1  C   UNL     1     111.840 111.422 122.473  1.00  0.00     0.000 C 
ENDROOT
BRANCH   1   2
ATOM      2  C   UNL     1     112.016 109.995 121.923  1.00  0.00     0.000 C 
BRANCH   2   3
ATOM      3  C   UNL     1     113.187 109.897 120.921  1.00  0.00     0.000 C 
BRANCH   3   4
ATOM      4  C   UNL     1     114.468 109.300 121.526  1.00  0.00     0.000 C 
BRANCH   4   5
ATOM      5  C   UNL     1     115.421 110.367 122.081  1.00  0.00     0.000 C 
BRANCH   5   6
ATOM      6  C   UNL     1     115.710 111.447 121.031  1.00  0.00     0.000 C 
BRANCH   6   7
ATOM      7  C   UNL     1     115.546 112.852 121.628  1.00  0.00     0.006 C 
BRANCH   7   8
ATOM      8  C   UNL     1     115.202 113.900 120.560  1.00  0.00     0.053 C 
BRANCH   8   9
ATOM      9  C   UNL     1     116.393 114.253 119.723  1.00  0.00     0.041 C 
ATOM     10  O   UNL     1     116.417 113.952 118.499  1.00  0.00    -0.550 OA
ATOM     11  O   UNL     1     117.489 114.882 120.299  1.00  0.00    -0.550 OA
ENDBRANCH   8   9
ENDBRANCH   7   8
ENDBRANCH   6   7
ENDBRANCH   5   6
ENDBRANCH   4   5
ENDBRANCH   3   4
ENDBRANCH   2   3
ENDBRANCH   1   2
BRANCH   1  12
ATOM     12  C   UNL     1     111.900 112.491 121.361  1.00  0.00     0.000 C 
BRANCH  12  13
ATOM     13  C   UNL     1     110.570 112.674 120.611  1.00  0.00    -0.000 C 
BRANCH  13  14
ATOM     14  C   UNL     1     110.612 112.117 119.178  1.00  0.00    -0.000 C 
BRANCH  14  15
ATOM     15  C   UNL     1     109.721 110.875 118.993  1.00  0.00    -0.000 C 
BRANCH  15  16
ATOM     16  C   UNL     1     108.352 111.144 118.340  1.00  0.00    -0.000 C 
BRANCH  16  17
ATOM     17  C   UNL     1     107.476 109.883 118.241  1.00  0.00    -0.000 C 
BRANCH  17  18
ATOM     18  C   UNL     1     108.052 108.690 119.026  1.00  0.00    -0.000 C 
BRANCH  18  19
ATOM     19  C   UNL     1     107.028 107.910 119.871  1.00  0.00    -0.003 C 
ATOM     20  C   UNL     1     105.883 107.330 119.041  1.00  0.00     0.004 C 
ENDBRANCH  18  19
ENDBRANCH  17  18
ENDBRANCH  16  17
ENDBRANCH  15  16
ENDBRANCH  14  15
ENDBRANCH  13  14
ENDBRANCH  12  13
ENDBRANCH   1  12
TORSDOF 16
ENDMDL
MODEL 5
REMARK VINA RESULT:    -4.306      2.809      4.080
REMARK INTER + INTRA:          -9.991
REMARK INTER:                  -7.228
REMARK INTRA:                  -2.762
REMARK UNBOUND:                -1.657
REMARK SMILES CCCCCCCCCCCCCCCCCC(=O)[O-]
REMARK SMILES IDX 10 1 11 2 12 3 13 4 14 5 15 6 16 7 17 8 18 9 19 10 20 11
REMARK SMILES IDX 9 12 8 13 7 14 6 15 5 16 4 17 3 18 2 19 1 20
REMARK H PARENT
REMARK Flexibility Score: inf
ROOT
ATOM      1  C   UNL     1     113.588 110.160 121.662  1.00  0.00     0.000 C 
ENDROOT
BRANCH   1   2
ATOM      2  C   UNL     1     112.073 110.107 121.928  1.00  0.00     0.000 C 
BRANCH   2   3
ATOM      3  C   UNL     1     111.561 111.376 122.644  1.00  0.00     0.000 C 
BRANCH   3   4
ATOM      4  C   UNL     1     111.706 112.656 121.804  1.00  0.00     0.000 C 
BRANCH   4   5
ATOM      5  C   UNL     1     110.544 112.863 120.823  1.00  0.00     0.000 C 
BRANCH   5   6
ATOM      6  C   UNL     1     110.974 112.551 119.385  1.00  0.00     0.000 C 
BRANCH   6   7
ATOM      7  C   UNL     1     110.232 111.322 118.842  1.00  0.00     0.006 C 
BRANCH   7   8
ATOM      8  C   UNL     1     108.709 111.508 118.860  1.00  0.00     0.053 C 
BRANCH   8   9
ATOM      9  C   UNL     1     108.252 112.459 117.796  1.00  0.00     0.041 C 
ATOM     10  O   UNL     1     108.627 112.302 116.604  1.00  0.00    -0.550 OA
ATOM     11  O   UNL     1     107.441 113.536 118.127  1.00  0.00    -0.550 OA
ENDBRANCH   8   9
ENDBRANCH   7   8
ENDBRANCH   6   7
ENDBRANCH   5   6
ENDBRANCH   4   5
ENDBRANCH   3   4
ENDBRANCH   2   3
ENDBRANCH   1   2
BRANCH   1  12
ATOM     12  C   UNL     1     113.970 109.512 120.314  1.00  0.00     0.000 C 
BRANCH  12  13
ATOM     13  C   UNL     1     114.913 110.376 119.460  1.00  0.00    -0.000 C 
BRANCH  13  14
ATOM     14  C   UNL     1     114.396 111.811 119.268  1.00  0.00    -0.000 C 
BRANCH  14  15
ATOM     15  C   UNL     1     115.414 112.879 119.708  1.00  0.00    -0.000 C 
BRANCH  15  16
ATOM     16  C   UNL     1     115.228 113.407 121.143  1.00  0.00    -0.000 C 
BRANCH  16  17
ATOM     17  C   UNL     1     116.257 112.833 122.132  1.00  0.00    -0.000 C 
BRANCH  17  18
ATOM     18  C   UNL     1     117.580 112.431 121.455  1.00  0.00    -0.000 C 
BRANCH  18  19
ATOM     19  C   UNL     1     117.926 110.933 121.534  1.00  0.00    -0.003 C 
ATOM     20  C   UNL     1     117.016 110.157 122.485  1.00  0.00     0.004 C 
ENDBRANCH  18  19
ENDBRANCH  17  18
ENDBRANCH  16  17
ENDBRANCH  15  16
ENDBRANCH  14  15
ENDBRANCH  13  14
ENDBRANCH  12  13
ENDBRANCH   1  12
TORSDOF 16
ENDMDL
MODEL 6
REMARK VINA RESULT:    -4.253      3.608      6.767
REMARK INTER + INTRA:          -9.887
REMARK INTER:                  -6.992
REMARK INTRA:                  -2.895
REMARK UNBOUND:                -1.657
REMARK SMILES CCCCCCCCCCCCCCCCCC(=O)[O-]
REMARK SMILES IDX 10 1 11 2 12 3 13 4 14 5 15 6 16 7 17 8 18 9 19 10 20 11
REMARK SMILES IDX 9 12 8 13 7 14 6 15 5 16 4 17 3 18 2 19 1 20
REMARK H PARENT
REMARK Flexibility Score: inf
ROOT
ATOM      1  C   UNL     1     115.742 110.019 121.857  1.00  0.00     0.000 C 
ENDROOT
BRANCH   1   2
ATOM      2  C   UNL     1     115.476 111.251 122.742  1.00  0.00     0.000 C 
BRANCH   2   3
ATOM      3  C   UNL     1     116.145 112.526 122.182  1.00  0.00     0.000 C 
BRANCH   3   4
ATOM      4  C   UNL     1     115.239 113.332 121.236  1.00  0.00     0.000 C 
BRANCH   4   5
ATOM      5  C   UNL     1     115.614 113.159 119.758  1.00  0.00     0.000 C 
BRANCH   5   6
ATOM      6  C   UNL     1     114.485 112.473 118.980  1.00  0.00     0.000 C 
BRANCH   6   7
ATOM      7  C   UNL     1     113.929 113.397 117.887  1.00  0.00     0.006 C 
BRANCH   7   8
ATOM      8  C   UNL     1     113.839 112.698 116.524  1.00  0.00     0.053 C 
BRANCH   8   9
ATOM      9  C   UNL     1     112.780 113.304 115.656  1.00  0.00     0.041 C 
ATOM     10  O   UNL     1     113.064 113.702 114.495  1.00  0.00    -0.550 OA
ATOM     11  O   UNL     1     111.488 113.461 116.140  1.00  0.00    -0.550 OA
ENDBRANCH   8   9
ENDBRANCH   7   8
ENDBRANCH   6   7
ENDBRANCH   5   6
ENDBRANCH   4   5
ENDBRANCH   3   4
ENDBRANCH   2   3
ENDBRANCH   1   2
BRANCH   1  12
ATOM     12  C   UNL     1     114.474 109.165 121.646  1.00  0.00     0.000 C 
BRANCH  12  13
ATOM     13  C   UNL     1     113.258 109.976 121.166  1.00  0.00    -0.000 C 
BRANCH  13  14
ATOM     14  C   UNL     1     112.028 109.799 122.072  1.00  0.00    -0.000 C 
BRANCH  14  15
ATOM     15  C   UNL     1     111.499 111.132 122.632  1.00  0.00    -0.000 C 
BRANCH  15  16
ATOM     16  C   UNL     1     111.847 112.377 121.794  1.00  0.00    -0.000 C 
BRANCH  16  17
ATOM     17  C   UNL     1     110.631 112.961 121.054  1.00  0.00    -0.000 C 
BRANCH  17  18
ATOM     18  C   UNL     1     110.646 112.660 119.544  1.00  0.00    -0.000 C 
BRANCH  18  19
ATOM     19  C   UNL     1     110.181 111.244 119.156  1.00  0.00    -0.003 C 
ATOM     20  C   UNL     1     111.152 110.531 118.215  1.00  0.00     0.004 C 
ENDBRANCH  18  19
ENDBRANCH  17  18
ENDBRANCH  16  17
ENDBRANCH  15  16
ENDBRANCH  14  15
ENDBRANCH  13  14
ENDBRANCH  12  13
ENDBRANCH   1  12
TORSDOF 16
ENDMDL
MODEL 7
REMARK VINA RESULT:    -4.235      1.093      2.318
REMARK INTER + INTRA:          -9.853
REMARK INTER:                  -8.370
REMARK INTRA:                  -1.483
REMARK UNBOUND:                -1.657
REMARK SMILES CCCCCCCCCCCCCCCCCC(=O)[O-]
REMARK SMILES IDX 10 1 11 2 12 3 13 4 14 5 15 6 16 7 17 8 18 9 19 10 20 11
REMARK SMILES IDX 9 12 8 13 7 14 6 15 5 16 4 17 3 18 2 19 1 20
REMARK H PARENT
REMARK Flexibility Score: inf
ROOT
ATOM      1  C   UNL     1     110.752 112.520 119.186  1.00  0.00     0.000 C 
ENDROOT
BRANCH   1   2
ATOM      2  C   UNL     1     109.668 111.611 118.581  1.00  0.00     0.000 C 
BRANCH   2   3
ATOM      3  C   UNL     1     109.779 110.155 119.085  1.00  0.00     0.000 C 
BRANCH   3   4
ATOM      4  C   UNL     1     108.920 109.160 118.287  1.00  0.00     0.000 C 
BRANCH   4   5
ATOM      5  C   UNL     1     107.419 109.298 118.579  1.00  0.00     0.000 C 
BRANCH   5   6
ATOM      6  C   UNL     1     106.965 108.271 119.623  1.00  0.00     0.000 C 
BRANCH   6   7
ATOM      7  C   UNL     1     105.861 107.365 119.058  1.00  0.00     0.006 C 
BRANCH   7   8
ATOM      8  C   UNL     1     105.937 107.238 117.531  1.00  0.00     0.053 C 
BRANCH   8   9
ATOM      9  C   UNL     1     104.617 107.517 116.882  1.00  0.00     0.041 C 
ATOM     10  O   UNL     1     103.640 107.909 117.576  1.00  0.00    -0.550 OA
ATOM     11  O   UNL     1     104.453 107.311 115.518  1.00  0.00    -0.550 OA
ENDBRANCH   8   9
ENDBRANCH   7   8
ENDBRANCH   6   7
ENDBRANCH   5   6
ENDBRANCH   4   5
ENDBRANCH   3   4
ENDBRANCH   2   3
ENDBRANCH   1   2
BRANCH   1  12
ATOM     12  C   UNL     1     110.584 112.700 120.710  1.00  0.00     0.000 C 
BRANCH  12  13
ATOM     13  C   UNL     1     111.904 112.591 121.492  1.00  0.00    -0.000 C 
BRANCH  13  14
ATOM     14  C   UNL     1     111.906 111.430 122.500  1.00  0.00    -0.000 C 
BRANCH  14  15
ATOM     15  C   UNL     1     112.119 110.059 121.833  1.00  0.00    -0.000 C 
BRANCH  15  16
ATOM     16  C   UNL     1     113.080 110.059 120.629  1.00  0.00    -0.000 C 
BRANCH  16  17
ATOM     17  C   UNL     1     114.364 109.252 120.887  1.00  0.00    -0.000 C 
BRANCH  17  18
ATOM     18  C   UNL     1     115.186 109.793 122.071  1.00  0.00    -0.000 C 
BRANCH  18  19
ATOM     19  C   UNL     1     115.747 111.214 121.880  1.00  0.00    -0.003 C 
ATOM     20  C   UNL     1     116.822 111.294 120.797  1.00  0.00     0.004 C 
ENDBRANCH  18  19
ENDBRANCH  17  18
ENDBRANCH  16  17
ENDBRANCH  15  16
ENDBRANCH  14  15
ENDBRANCH  13  14
ENDBRANCH  12  13
ENDBRANCH   1  12
TORSDOF 16
ENDMDL
MODEL 8
REMARK VINA RESULT:    -4.227      2.935      4.390
REMARK INTER + INTRA:          -9.837
REMARK INTER:                  -6.735
REMARK INTRA:                  -3.102
REMARK UNBOUND:                -1.657
REMARK SMILES CCCCCCCCCCCCCCCCCC(=O)[O-]
REMARK SMILES IDX 10 1 11 2 12 3 13 4 14 5 15 6 16 7 17 8 18 9 19 10 20 11
REMARK SMILES IDX 9 12 8 13 7 14 6 15 5 16 4 17 3 18 2 19 1 20
REMARK H PARENT
REMARK Flexibility Score: inf
ROOT
ATOM      1  C   UNL     1     111.927 111.175 122.440  1.00  0.00     0.000 C 
ENDROOT
BRANCH   1   2
ATOM      2  C   UNL     1     112.175 109.847 121.702  1.00  0.00     0.000 C 
BRANCH   2   3
ATOM      3  C   UNL     1     113.667 109.449 121.703  1.00  0.00     0.000 C 
BRANCH   3   4
ATOM      4  C   UNL     1     114.241 109.207 120.297  1.00  0.00     0.000 C 
BRANCH   4   5
ATOM      5  C   UNL     1     114.130 110.437 119.387  1.00  0.00     0.000 C 
BRANCH   5   6
ATOM      6  C   UNL     1     113.336 110.113 118.116  1.00  0.00     0.000 C 
BRANCH   6   7
ATOM      7  C   UNL     1     112.176 111.100 117.925  1.00  0.00     0.006 C 
BRANCH   7   8
ATOM      8  C   UNL     1     110.818 110.476 118.272  1.00  0.00     0.053 C 
BRANCH   8   9
ATOM      9  C   UNL     1     109.700 111.463 118.138  1.00  0.00     0.041 C 
ATOM     10  O   UNL     1     109.649 112.231 117.141  1.00  0.00    -0.550 OA
ATOM     11  O   UNL     1     108.733 111.560 119.131  1.00  0.00    -0.550 OA
ENDBRANCH   8   9
ENDBRANCH   7   8
ENDBRANCH   6   7
ENDBRANCH   5   6
ENDBRANCH   4   5
ENDBRANCH   3   4
ENDBRANCH   2   3
ENDBRANCH   1   2
BRANCH   1  12
ATOM     12  C   UNL     1     111.225 112.220 121.546  1.00  0.00     0.000 C 
BRANCH  12  13
ATOM     13  C   UNL     1     112.171 113.312 121.018  1.00  0.00    -0.000 C 
BRANCH  13  14
ATOM     14  C   UNL     1     113.531 113.321 121.736  1.00  0.00    -0.000 C 
BRANCH  14  15
ATOM     15  C   UNL     1     114.711 113.577 120.780  1.00  0.00    -0.000 C 
BRANCH  15  16
ATOM     16  C   UNL     1     116.073 113.045 121.267  1.00  0.00    -0.000 C 
BRANCH  16  17
ATOM     17  C   UNL     1     115.960 112.164 122.523  1.00  0.00    -0.000 C 
BRANCH  17  18
ATOM     18  C   UNL     1     116.930 110.969 122.507  1.00  0.00    -0.000 C 
BRANCH  18  19
ATOM     19  C   UNL     1     117.557 110.655 121.136  1.00  0.00    -0.003 C 
ATOM     20  C   UNL     1     119.027 110.250 121.228  1.00  0.00     0.004 C 
ENDBRANCH  18  19
ENDBRANCH  17  18
ENDBRANCH  16  17
ENDBRANCH  15  16
ENDBRANCH  14  15
ENDBRANCH  13  14
ENDBRANCH  12  13
ENDBRANCH   1  12
TORSDOF 16
ENDMDL
MODEL 9
REMARK VINA RESULT:    -4.186      2.012      4.612
REMARK INTER + INTRA:          -9.758
REMARK INTER:                  -8.420
REMARK INTRA:                  -1.338
REMARK UNBOUND:                -1.657
REMARK SMILES CCCCCCCCCCCCCCCCCC(=O)[O-]
REMARK SMILES IDX 10 1 11 2 12 3 13 4 14 5 15 6 16 7 17 8 18 9 19 10 20 11
REMARK SMILES IDX 9 12 8 13 7 14 6 15 5 16 4 17 3 18 2 19 1 20
REMARK H PARENT
REMARK Flexibility Score: inf
ROOT
ATOM      1  C   UNL     1     108.518 109.071 118.367  1.00  0.00     0.000 C 
ENDROOT
BRANCH   1   2
ATOM      2  C   UNL     1     108.150 108.145 119.541  1.00  0.00     0.000 C 
BRANCH   2   3
ATOM      3  C   UNL     1     106.632 108.141 119.827  1.00  0.00     0.000 C 
BRANCH   3   4
ATOM      4  C   UNL     1     105.863 107.059 119.050  1.00  0.00     0.000 C 
BRANCH   4   5
ATOM      5  C   UNL     1     105.016 107.633 117.907  1.00  0.00     0.000 C 
BRANCH   5   6
ATOM      6  C   UNL     1     105.248 106.857 116.605  1.00  0.00     0.000 C 
BRANCH   6   7
ATOM      7  C   UNL     1     105.876 105.484 116.888  1.00  0.00     0.006 C 
BRANCH   7   8
ATOM      8  C   UNL     1     106.879 105.069 115.803  1.00  0.00     0.053 C 
BRANCH   8   9
ATOM      9  C   UNL     1     107.987 106.067 115.658  1.00  0.00     0.041 C 
ATOM     10  O   UNL     1     107.985 106.879 114.695  1.00  0.00    -0.550 OA
ATOM     11  O   UNL     1     109.039 106.077 116.565  1.00  0.00    -0.550 OA
ENDBRANCH   8   9
ENDBRANCH   7   8
ENDBRANCH   6   7
ENDBRANCH   5   6
ENDBRANCH   4   5
ENDBRANCH   3   4
ENDBRANCH   2   3
ENDBRANCH   1   2
BRANCH   1  12
ATOM     12  C   UNL     1     109.757 109.941 118.672  1.00  0.00     0.000 C 
BRANCH  12  13
ATOM     13  C   UNL     1     109.415 111.404 119.001  1.00  0.00    -0.000 C 
BRANCH  13  14
ATOM     14  C   UNL     1     110.642 112.217 119.446  1.00  0.00    -0.000 C 
BRANCH  14  15
ATOM     15  C   UNL     1     110.436 112.919 120.800  1.00  0.00    -0.000 C 
BRANCH  15  16
ATOM     16  C   UNL     1     111.713 113.100 121.644  1.00  0.00    -0.000 C 
BRANCH  16  17
ATOM     17  C   UNL     1     112.078 111.845 122.456  1.00  0.00    -0.000 C 
BRANCH  17  18
ATOM     18  C   UNL     1     113.412 111.214 122.019  1.00  0.00    -0.000 C 
BRANCH  18  19
ATOM     19  C   UNL     1     113.305 109.783 121.460  1.00  0.00    -0.003 C 
ATOM     20  C   UNL     1     114.050 109.597 120.139  1.00  0.00     0.004 C 
ENDBRANCH  18  19
ENDBRANCH  17  18
ENDBRANCH  16  17
ENDBRANCH  15  16
ENDBRANCH  14  15
ENDBRANCH  13  14
ENDBRANCH  12  13
ENDBRANCH   1  12
TORSDOF 16
ENDMDL
