MODEL 1
REMARK VINA RESULT:    -3.507      0.000      0.000
REMARK INTER + INTRA:          -3.839
REMARK INTER:                  -4.634
REMARK INTRA:                   0.796
REMARK UNBOUND:                 0.796
REMARK SMILES CC(C)=CCC[C@@H](C(=O)[O-])[C@H]1CC[C@]2(C)C3=C(CC[C@]12C)[C@]1(C)CC[C@@H](O)C(C)(C)[C@@H]1CC3
REMARK SMILES IDX 6 1 7 2 8 3 9 4 10 5 11 6 12 7 20 8 13 9 14 10 19 11 21 12
REMARK SMILES IDX 15 13 16 14 18 15 17 16 33 17 22 18 32 19 31 20 24 21 23 22
REMARK SMILES IDX 28 23 25 24 26 25 29 26 30 27 27 28 5 30 4 31 2 32 1 33 3 34
REMARK H PARENT 27 29
REMARK Flexibility Score: inf
ROOT
ATOM      1  C   UNL     1      32.793   8.589 107.567  1.00  0.00     0.014 C 
ENDROOT
BRANCH   1   2
ATOM      2  C   UNL     1      33.111   8.984 106.102  1.00  0.00     0.039 C 
BRANCH   2   3
ATOM      3  C   UNL     1      31.813   9.211 105.356  1.00  0.00     0.045 C 
ATOM      4  O   UNL     1      31.297  10.356 105.297  1.00  0.00    -0.550 OA
ATOM      5  O   UNL     1      31.185   8.146 104.721  1.00  0.00    -0.550 OA
ENDBRANCH   2   3
BRANCH   2   6
ATOM      6  C   UNL     1      34.062  10.218 105.920  1.00  0.00     0.004 C 
ATOM      7  C   UNL     1      33.471  11.578 106.245  1.00  0.00     0.006 C 
ATOM      8  C   UNL     1      35.485  10.205 106.597  1.00  0.00    -0.020 C 
ATOM      9  C   UNL     1      34.660  12.515 106.124  1.00  0.00     0.012 C 
ATOM     10  C   UNL     1      35.867  11.764 106.743  1.00  0.00    -0.006 C 
ATOM     11  C   UNL     1      36.477   9.428 105.688  1.00  0.00     0.012 C 
ATOM     12  C   UNL     1      35.479   9.438 107.956  1.00  0.00     0.012 C 
ATOM     13  C   UNL     1      35.963  12.215 108.238  1.00  0.00     0.017 C 
ATOM     14  C   UNL     1      37.171  12.209 106.003  1.00  0.00    -0.064 C 
ATOM     15  C   UNL     1      36.963  10.267 104.522  1.00  0.00     0.032 C 
ATOM     16  C   UNL     1      37.759  11.437 105.046  1.00  0.00    -0.064 C 
ATOM     17  C   UNL     1      37.753  13.567 106.350  1.00  0.00     0.032 C 
ATOM     18  C   UNL     1      39.139  11.757 104.401  1.00  0.00    -0.008 C 
ATOM     19  C   UNL     1      38.739  14.098 105.317  1.00  0.00     0.009 C 
ATOM     20  C   UNL     1      39.837  13.065 104.970  1.00  0.00     0.007 C 
ATOM     21  C   UNL     1      40.076  10.533 104.577  1.00  0.00     0.014 C 
ATOM     22  C   UNL     1      38.910  11.956 102.876  1.00  0.00     0.016 C 
ATOM     23  C   UNL     1      40.969  12.835 106.083  1.00  0.00    -0.006 C 
ATOM     24  C   UNL     1      40.506  10.284 106.036  1.00  0.00     0.033 C 
ATOM     25  C   UNL     1      40.639  11.551 106.909  1.00  0.00     0.120 C 
ATOM     26  C   UNL     1      42.377  12.705 105.420  1.00  0.00     0.014 C 
ATOM     27  C   UNL     1      41.114  14.054 107.043  1.00  0.00     0.014 C 
BRANCH  25  28
ATOM     28  O   UNL     1      41.620  11.301 107.885  1.00  0.00    -0.393 OA
ATOM     29  H   UNL     1      42.440  11.805 107.633  1.00  0.00     0.210 HD
ENDBRANCH  25  28
ENDBRANCH   2   6
ENDBRANCH   1   2
BRANCH   1  30
ATOM     30  C   UNL     1      31.780   7.434 107.623  1.00  0.00     0.028 C 
BRANCH  30  31
ATOM     31  C   UNL     1      32.470   6.113 107.843  1.00  0.00    -0.028 C 
ATOM     32  C   UNL     1      32.249   5.003 107.105  1.00  0.00    -0.080 C 
ATOM     33  C   UNL     1      31.296   4.991 105.934  1.00  0.00     0.039 C 
ATOM     34  C   UNL     1      33.003   3.735 107.422  1.00  0.00     0.039 C 
ENDBRANCH  30  31
ENDBRANCH   1  30
TORSDOF 6
ENDMDL
MODEL 2
REMARK VINA RESULT:    -3.093      1.510      2.195
REMARK INTER + INTRA:          -3.292
REMARK INTER:                  -2.287
REMARK INTRA:                  -1.005
REMARK UNBOUND:                 0.796
REMARK SMILES CC(C)=CCC[C@@H](C(=O)[O-])[C@H]1CC[C@]2(C)C3=C(CC[C@]12C)[C@]1(C)CC[C@@H](O)C(C)(C)[C@@H]1CC3
REMARK SMILES IDX 6 1 7 2 8 3 9 4 10 5 11 6 12 7 20 8 13 9 14 10 19 11 21 12
REMARK SMILES IDX 15 13 16 14 18 15 17 16 33 17 22 18 32 19 31 20 24 21 23 22
REMARK SMILES IDX 28 23 25 24 26 25 29 26 30 27 27 28 5 30 4 31 2 32 1 33 3 34
REMARK H PARENT 27 29
REMARK Flexibility Score: inf
ROOT
ATOM      1  C   UNL     1      32.224   8.224 108.678  1.00  0.00     0.014 C 
ENDROOT
BRANCH   1   2
ATOM      2  C   UNL     1      32.928   8.542 107.332  1.00  0.00     0.039 C 
BRANCH   2   3
ATOM      3  C   UNL     1      31.880   8.713 106.253  1.00  0.00     0.045 C 
ATOM      4  O   UNL     1      31.263   7.719 105.793  1.00  0.00    -0.550 OA
ATOM      5  O   UNL     1      31.587   9.982 105.768  1.00  0.00    -0.550 OA
ENDBRANCH   2   3
BRANCH   2   6
ATOM      6  C   UNL     1      33.898   9.775 107.345  1.00  0.00     0.004 C 
ATOM      7  C   UNL     1      34.156  10.416 108.697  1.00  0.00     0.006 C 
ATOM      8  C   UNL     1      35.312   9.654 106.661  1.00  0.00    -0.020 C 
ATOM      9  C   UNL     1      35.228  11.448 108.397  1.00  0.00     0.012 C 
ATOM     10  C   UNL     1      36.203  10.779 107.394  1.00  0.00    -0.006 C 
ATOM     11  C   UNL     1      35.165   9.906 105.135  1.00  0.00     0.012 C 
ATOM     12  C   UNL     1      35.902   8.215 106.788  1.00  0.00     0.012 C 
ATOM     13  C   UNL     1      37.367  10.159 108.237  1.00  0.00     0.017 C 
ATOM     14  C   UNL     1      36.797  11.881 106.457  1.00  0.00    -0.064 C 
ATOM     15  C   UNL     1      35.055  11.383 104.807  1.00  0.00     0.032 C 
ATOM     16  C   UNL     1      36.341  12.076 105.189  1.00  0.00    -0.064 C 
ATOM     17  C   UNL     1      37.886  12.777 107.021  1.00  0.00     0.032 C 
ATOM     18  C   UNL     1      37.005  13.044 104.167  1.00  0.00    -0.008 C 
ATOM     19  C   UNL     1      38.103  14.058 106.227  1.00  0.00     0.009 C 
ATOM     20  C   UNL     1      38.298  13.785 104.717  1.00  0.00     0.007 C 
ATOM     21  C   UNL     1      37.352  12.257 102.875  1.00  0.00     0.014 C 
ATOM     22  C   UNL     1      35.953  14.125 103.789  1.00  0.00     0.016 C 
ATOM     23  C   UNL     1      39.709  13.158 104.286  1.00  0.00    -0.006 C 
ATOM     24  C   UNL     1      38.486  11.230 103.058  1.00  0.00     0.033 C 
ATOM     25  C   UNL     1      39.561  11.615 104.097  1.00  0.00     0.120 C 
ATOM     26  C   UNL     1      40.229  13.818 102.970  1.00  0.00     0.014 C 
ATOM     27  C   UNL     1      40.833  13.454 105.326  1.00  0.00     0.014 C 
BRANCH  25  28
ATOM     28  O   UNL     1      40.774  11.027 103.699  1.00  0.00    -0.393 OA
ATOM     29  H   UNL     1      41.003  11.374 102.795  1.00  0.00     0.210 HD
ENDBRANCH  25  28
ENDBRANCH   2   6
ENDBRANCH   1   2
BRANCH   1  30
ATOM     30  C   UNL     1      31.783   6.753 108.739  1.00  0.00     0.028 C 
BRANCH  30  31
ATOM     31  C   UNL     1      32.891   5.832 108.300  1.00  0.00    -0.028 C 
ATOM     32  C   UNL     1      32.760   4.875 107.355  1.00  0.00    -0.080 C 
ATOM     33  C   UNL     1      31.470   4.658 106.603  1.00  0.00     0.039 C 
ATOM     34  C   UNL     1      33.946   4.012 107.000  1.00  0.00     0.039 C 
ENDBRANCH  30  31
ENDBRANCH   1  30
TORSDOF 6
ENDMDL
MODEL 3
REMARK VINA RESULT:    -1.018      1.477      2.595
REMARK INTER + INTRA:          -0.550
REMARK INTER:                   0.762
REMARK INTRA:                  -1.311
REMARK UNBOUND:                 0.796
REMARK SMILES CC(C)=CCC[C@@H](C(=O)[O-])[C@H]1CC[C@]2(C)C3=C(CC[C@]12C)[C@]1(C)CC[C@@H](O)C(C)(C)[C@@H]1CC3
REMARK SMILES IDX 6 1 7 2 8 3 9 4 10 5 11 6 12 7 20 8 13 9 14 10 19 11 21 12
REMARK SMILES IDX 15 13 16 14 18 15 17 16 33 17 22 18 32 19 31 20 24 21 23 22
REMARK SMILES IDX 28 23 25 24 26 25 29 26 30 27 27 28 5 30 4 31 2 32 1 33 3 34
REMARK H PARENT 27 29
REMARK Flexibility Score: inf
ROOT
ATOM      1  C   UNL     1      31.352   7.240 108.002  1.00  0.00     0.014 C 
ENDROOT
BRANCH   1   2
ATOM      2  C   UNL     1      32.106   7.867 106.800  1.00  0.00     0.039 C 
BRANCH   2   3
ATOM      3  C   UNL     1      31.108   8.223 105.720  1.00  0.00     0.045 C 
ATOM      4  O   UNL     1      30.943   9.418 105.365  1.00  0.00    -0.550 OA
ATOM      5  O   UNL     1      30.369   7.220 105.103  1.00  0.00    -0.550 OA
ENDBRANCH   2   3
BRANCH   2   6
ATOM      6  C   UNL     1      33.009   9.106 107.133  1.00  0.00     0.004 C 
ATOM      7  C   UNL     1      33.122   9.483 108.599  1.00  0.00     0.006 C 
ATOM      8  C   UNL     1      34.478   9.166 106.569  1.00  0.00    -0.020 C 
ATOM      9  C   UNL     1      34.162  10.589 108.598  1.00  0.00     0.012 C 
ATOM     10  C   UNL     1      35.249  10.159 107.578  1.00  0.00    -0.006 C 
ATOM     11  C   UNL     1      34.445   9.703 105.111  1.00  0.00     0.012 C 
ATOM     12  C   UNL     1      35.128   7.750 106.475  1.00  0.00     0.012 C 
ATOM     13  C   UNL     1      36.368   9.428 108.391  1.00  0.00     0.017 C 
ATOM     14  C   UNL     1      35.862  11.440 106.925  1.00  0.00    -0.064 C 
ATOM     15  C   UNL     1      34.289  11.211 105.059  1.00  0.00     0.032 C 
ATOM     16  C   UNL     1      35.502  11.860 105.679  1.00  0.00    -0.064 C 
ATOM     17  C   UNL     1      36.854  12.246 107.743  1.00  0.00     0.032 C 
ATOM     18  C   UNL     1      36.198  13.028 104.923  1.00  0.00    -0.008 C 
ATOM     19  C   UNL     1      37.071  13.663 107.228  1.00  0.00     0.009 C 
ATOM     20  C   UNL     1      37.403  13.693 105.717  1.00  0.00     0.007 C 
ATOM     21  C   UNL     1      36.690  12.516 103.543  1.00  0.00     0.014 C 
ATOM     22  C   UNL     1      35.128  14.125 104.662  1.00  0.00     0.016 C 
ATOM     23  C   UNL     1      38.875  13.207 105.305  1.00  0.00    -0.006 C 
ATOM     24  C   UNL     1      37.855  11.512 103.630  1.00  0.00     0.033 C 
ATOM     25  C   UNL     1      38.820  11.725 104.816  1.00  0.00     0.120 C 
ATOM     26  C   UNL     1      39.467  14.125 104.190  1.00  0.00     0.014 C 
ATOM     27  C   UNL     1      39.893  13.336 106.479  1.00  0.00     0.014 C 
BRANCH  25  28
ATOM     28  O   UNL     1      40.090  11.266 104.426  1.00  0.00    -0.393 OA
ATOM     29  H   UNL     1      40.686  12.057 104.324  1.00  0.00     0.210 HD
ENDBRANCH  25  28
ENDBRANCH   2   6
ENDBRANCH   1   2
BRANCH   1  30
ATOM     30  C   UNL     1      31.829   5.803 108.268  1.00  0.00     0.028 C 
BRANCH  30  31
ATOM     31  C   UNL     1      32.119   5.077 106.981  1.00  0.00    -0.028 C 
ATOM     32  C   UNL     1      33.144   4.214 106.805  1.00  0.00    -0.080 C 
ATOM     33  C   UNL     1      34.097   3.857 107.920  1.00  0.00     0.039 C 
ATOM     34  C   UNL     1      33.332   3.545 105.465  1.00  0.00     0.039 C 
ENDBRANCH  30  31
ENDBRANCH   1  30
TORSDOF 6
ENDMDL
MODEL 4
REMARK VINA RESULT:    -0.944      2.033      8.287
REMARK INTER + INTRA:          -0.452
REMARK INTER:                   0.987
REMARK INTRA:                  -1.438
REMARK UNBOUND:                 0.796
REMARK SMILES CC(C)=CCC[C@@H](C(=O)[O-])[C@H]1CC[C@]2(C)C3=C(CC[C@]12C)[C@]1(C)CC[C@@H](O)C(C)(C)[C@@H]1CC3
REMARK SMILES IDX 6 1 7 2 8 3 9 4 10 5 11 6 12 7 20 8 13 9 14 10 19 11 21 12
REMARK SMILES IDX 15 13 16 14 18 15 17 16 33 17 22 18 32 19 31 20 24 21 23 22
REMARK SMILES IDX 28 23 25 24 26 25 29 26 30 27 27 28 5 30 4 31 2 32 1 33 3 34
REMARK H PARENT 27 29
REMARK Flexibility Score: inf
ROOT
ATOM      1  C   UNL     1      36.714  14.008 105.885  1.00  0.00     0.014 C 
ENDROOT
BRANCH   1   2
ATOM      2  C   UNL     1      36.529  12.781 106.815  1.00  0.00     0.039 C 
BRANCH   2   3
ATOM      3  C   UNL     1      36.691  13.221 108.254  1.00  0.00     0.045 C 
ATOM      4  O   UNL     1      37.509  14.125 108.562  1.00  0.00    -0.550 OA
ATOM      5  O   UNL     1      35.923  12.629 109.249  1.00  0.00    -0.550 OA
ENDBRANCH   2   3
BRANCH   2   6
ATOM      6  C   UNL     1      35.187  11.989 106.639  1.00  0.00     0.004 C 
ATOM      7  C   UNL     1      34.229  12.512 105.583  1.00  0.00     0.006 C 
ATOM      8  C   UNL     1      35.231  10.428 106.431  1.00  0.00    -0.020 C 
ATOM      9  C   UNL     1      33.133  11.462 105.553  1.00  0.00     0.012 C 
ATOM     10  C   UNL     1      33.845  10.089 105.682  1.00  0.00    -0.006 C 
ATOM     11  C   UNL     1      35.349   9.731 107.814  1.00  0.00     0.012 C 
ATOM     12  C   UNL     1      36.494   9.980 105.631  1.00  0.00     0.012 C 
ATOM     13  C   UNL     1      34.069   9.557 104.228  1.00  0.00     0.017 C 
ATOM     14  C   UNL     1      32.897   9.099 106.435  1.00  0.00    -0.064 C 
ATOM     15  C   UNL     1      34.019   9.666 108.539  1.00  0.00     0.032 C 
ATOM     16  C   UNL     1      33.063   8.800 107.754  1.00  0.00    -0.064 C 
ATOM     17  C   UNL     1      31.739   8.500 105.658  1.00  0.00     0.032 C 
ATOM     18  C   UNL     1      32.254   7.703 108.504  1.00  0.00    -0.008 C 
ATOM     19  C   UNL     1      30.647   7.906 106.540  1.00  0.00     0.009 C 
ATOM     20  C   UNL     1      31.214   6.923 107.591  1.00  0.00     0.007 C 
ATOM     21  C   UNL     1      33.243   6.703 109.159  1.00  0.00     0.014 C 
ATOM     22  C   UNL     1      31.465   8.399 109.648  1.00  0.00     0.016 C 
ATOM     23  C   UNL     1      31.690   5.494 107.040  1.00  0.00    -0.006 C 
ATOM     24  C   UNL     1      34.011   5.833 108.145  1.00  0.00     0.033 C 
ATOM     25  C   UNL     1      33.240   5.495 106.850  1.00  0.00     0.120 C 
ATOM     26  C   UNL     1      31.265   4.355 108.020  1.00  0.00     0.014 C 
ATOM     27  C   UNL     1      30.996   5.114 105.697  1.00  0.00     0.014 C 
BRANCH  25  28
ATOM     28  O   UNL     1      33.702   4.251 106.387  1.00  0.00    -0.393 OA
ATOM     29  H   UNL     1      34.221   4.407 105.552  1.00  0.00     0.210 HD
ENDBRANCH  25  28
ENDBRANCH   2   6
ENDBRANCH   1   2
BRANCH   1  30
ATOM     30  C   UNL     1      37.737  13.714 104.775  1.00  0.00     0.028 C 
BRANCH  30  31
ATOM     31  C   UNL     1      38.932  12.974 105.316  1.00  0.00    -0.028 C 
ATOM     32  C   UNL     1      39.487  11.889 104.734  1.00  0.00    -0.080 C 
ATOM     33  C   UNL     1      38.974  11.323 103.431  1.00  0.00     0.039 C 
ATOM     34  C   UNL     1      40.686  11.232 105.372  1.00  0.00     0.039 C 
ENDBRANCH  30  31
ENDBRANCH   1  30
TORSDOF 6
ENDMDL
MODEL 5
REMARK VINA RESULT:    -0.530      1.254      1.568
REMARK INTER + INTRA:           0.095
REMARK INTER:                  -1.584
REMARK INTRA:                   1.679
REMARK UNBOUND:                 0.796
REMARK SMILES CC(C)=CCC[C@@H](C(=O)[O-])[C@H]1CC[C@]2(C)C3=C(CC[C@]12C)[C@]1(C)CC[C@@H](O)C(C)(C)[C@@H]1CC3
REMARK SMILES IDX 6 1 7 2 8 3 9 4 10 5 11 6 12 7 20 8 13 9 14 10 19 11 21 12
REMARK SMILES IDX 15 13 16 14 18 15 17 16 33 17 22 18 32 19 31 20 24 21 23 22
REMARK SMILES IDX 28 23 25 24 26 25 29 26 30 27 27 28 5 30 4 31 2 32 1 33 3 34
REMARK H PARENT 27 29
REMARK Flexibility Score: inf
ROOT
ATOM      1  C   UNL     1      33.201   8.702 106.176  1.00  0.00     0.014 C 
ENDROOT
BRANCH   1   2
ATOM      2  C   UNL     1      33.252   9.935 105.236  1.00  0.00     0.039 C 
BRANCH   2   3
ATOM      3  C   UNL     1      31.902  10.620 105.243  1.00  0.00     0.045 C 
ATOM      4  O   UNL     1      30.854   9.973 105.495  1.00  0.00    -0.550 OA
ATOM      5  O   UNL     1      31.815  11.981 104.977  1.00  0.00    -0.550 OA
ENDBRANCH   2   3
BRANCH   2   6
ATOM      6  C   UNL     1      34.388  10.974 105.537  1.00  0.00     0.004 C 
ATOM      7  C   UNL     1      34.123  11.955 106.666  1.00  0.00     0.006 C 
ATOM      8  C   UNL     1      35.863  10.467 105.758  1.00  0.00    -0.020 C 
ATOM      9  C   UNL     1      35.440  12.697 106.802  1.00  0.00     0.012 C 
ATOM     10  C   UNL     1      36.556  11.633 106.628  1.00  0.00    -0.006 C 
ATOM     11  C   UNL     1      36.546  10.263 104.378  1.00  0.00     0.012 C 
ATOM     12  C   UNL     1      35.902   9.069 106.451  1.00  0.00     0.012 C 
ATOM     13  C   UNL     1      36.949  11.150 108.063  1.00  0.00     0.017 C 
ATOM     14  C   UNL     1      37.802  12.312 105.971  1.00  0.00    -0.064 C 
ATOM     15  C   UNL     1      37.013  11.572 103.771  1.00  0.00     0.032 C 
ATOM     16  C   UNL     1      38.087  12.173 104.646  1.00  0.00    -0.064 C 
ATOM     17  C   UNL     1      38.679  13.184 106.851  1.00  0.00     0.032 C 
ATOM     18  C   UNL     1      39.396  12.690 103.981  1.00  0.00    -0.008 C 
ATOM     19  C   UNL     1      39.591  14.125 106.074  1.00  0.00     0.009 C 
ATOM     20  C   UNL     1      40.408  13.385 104.989  1.00  0.00     0.007 C 
ATOM     21  C   UNL     1      40.095  11.510 103.255  1.00  0.00     0.014 C 
ATOM     22  C   UNL     1      38.996  13.734 102.901  1.00  0.00     0.016 C 
ATOM     23  C   UNL     1      41.621  12.476 105.513  1.00  0.00    -0.006 C 
ATOM     24  C   UNL     1      40.673  10.446 104.209  1.00  0.00     0.033 C 
ATOM     25  C   UNL     1      41.170  10.982 105.569  1.00  0.00     0.120 C 
ATOM     26  C   UNL     1      42.868  12.632 104.587  1.00  0.00     0.014 C 
ATOM     27  C   UNL     1      42.135  12.922 106.916  1.00  0.00     0.014 C 
BRANCH  25  28
ATOM     28  O   UNL     1      42.213  10.146 106.005  1.00  0.00    -0.393 OA
ATOM     29  H   UNL     1      42.641  10.574 106.795  1.00  0.00     0.210 HD
ENDBRANCH  25  28
ENDBRANCH   2   6
ENDBRANCH   1   2
BRANCH   1  30
ATOM     30  C   UNL     1      32.513   9.047 107.507  1.00  0.00     0.028 C 
BRANCH  30  31
ATOM     31  C   UNL     1      32.196   7.804 108.296  1.00  0.00    -0.028 C 
ATOM     32  C   UNL     1      31.638   6.690 107.774  1.00  0.00    -0.080 C 
ATOM     33  C   UNL     1      31.307   6.566 106.306  1.00  0.00     0.039 C 
ATOM     34  C   UNL     1      31.366   5.504 108.667  1.00  0.00     0.039 C 
ENDBRANCH  30  31
ENDBRANCH   1  30
TORSDOF 6
ENDMDL
