MODEL 1
REMARK VINA RESULT:    -4.434      0.000      0.000
REMARK INTER + INTRA:          -4.833
REMARK INTER:                  -4.823
REMARK INTRA:                  -0.010
REMARK UNBOUND:                -0.010
REMARK SMILES OCc1ccccc1
REMARK SMILES IDX 2 1 3 2 6 3 5 4 7 5 4 6 8 7 1 8
REMARK H PARENT 1 9
REMARK Flexibility Score: inf
ROOT
ATOM      1  C   UNL     1      31.906  14.053  18.082  1.00  0.00     0.191 C 
ENDROOT
BRANCH   1   2
ATOM      2  C   UNL     1      32.263  12.842  18.898  1.00  0.00    -0.023 A 
ATOM      3  C   UNL     1      32.976  10.625  20.463  1.00  0.00     0.000 A 
ATOM      4  C   UNL     1      33.727  10.950  19.331  1.00  0.00     0.000 A 
ATOM      5  C   UNL     1      31.875  11.408  20.823  1.00  0.00     0.000 A 
ATOM      6  C   UNL     1      33.376  12.058  18.552  1.00  0.00     0.006 A 
ATOM      7  C   UNL     1      31.522  12.517  20.047  1.00  0.00     0.006 A 
ENDBRANCH   1   2
BRANCH   1   8
ATOM      8  O   UNL     1      32.744  15.124  18.420  1.00  0.00    -0.392 OA
ATOM      9  H   UNL     1      32.193  15.947  18.354  1.00  0.00     0.211 HD
ENDBRANCH   1   8
TORSDOF 2
ENDMDL
MODEL 2
REMARK VINA RESULT:    -4.416     14.479     15.225
REMARK INTER + INTRA:          -4.814
REMARK INTER:                  -4.804
REMARK INTRA:                  -0.009
REMARK UNBOUND:                -0.010
REMARK SMILES OCc1ccccc1
REMARK SMILES IDX 2 1 3 2 6 3 5 4 7 5 4 6 8 7 1 8
REMARK H PARENT 1 9
REMARK Flexibility Score: inf
ROOT
ATOM      1  C   UNL     1      18.320  13.647  17.512  1.00  0.00     0.191 C 
ENDROOT
BRANCH   1   2
ATOM      2  C   UNL     1      18.109  12.852  16.253  1.00  0.00    -0.023 A 
ATOM      3  C   UNL     1      17.767  11.316  13.930  1.00  0.00     0.000 A 
ATOM      4  C   UNL     1      18.765  12.292  13.981  1.00  0.00     0.000 A 
ATOM      5  C   UNL     1      16.944  11.097  15.040  1.00  0.00     0.000 A 
ATOM      6  C   UNL     1      18.941  13.055  15.140  1.00  0.00     0.006 A 
ATOM      7  C   UNL     1      17.117  11.858  16.200  1.00  0.00     0.006 A 
ENDBRANCH   1   2
BRANCH   1   8
ATOM      8  O   UNL     1      17.507  14.789  17.501  1.00  0.00    -0.392 OA
ATOM      9  H   UNL     1      17.668  15.243  16.633  1.00  0.00     0.211 HD
ENDBRANCH   1   8
TORSDOF 2
ENDMDL
MODEL 3
REMARK VINA RESULT:    -4.387     14.763     15.565
REMARK INTER + INTRA:          -4.782
REMARK INTER:                  -4.764
REMARK INTRA:                  -0.017
REMARK UNBOUND:                -0.010
REMARK SMILES OCc1ccccc1
REMARK SMILES IDX 2 1 3 2 6 3 5 4 7 5 4 6 8 7 1 8
REMARK H PARENT 1 9
REMARK Flexibility Score: inf
ROOT
ATOM      1  C   UNL     1      16.277  10.697  14.874  1.00  0.00     0.191 C 
ENDROOT
BRANCH   1   2
ATOM      2  C   UNL     1      17.361  11.707  15.131  1.00  0.00    -0.023 A 
ATOM      3  C   UNL     1      19.336  13.647  15.588  1.00  0.00     0.000 A 
ATOM      4  C   UNL     1      19.215  13.057  14.327  1.00  0.00     0.000 A 
ATOM      5  C   UNL     1      18.467  13.279  16.619  1.00  0.00     0.000 A 
ATOM      6  C   UNL     1      18.228  12.093  14.095  1.00  0.00     0.006 A 
ATOM      7  C   UNL     1      17.479  12.316  16.392  1.00  0.00     0.006 A 
ENDBRANCH   1   2
BRANCH   1   8
ATOM      8  O   UNL     1      15.889  10.091  16.076  1.00  0.00    -0.392 OA
ATOM      9  H   UNL     1      16.697   9.642  16.441  1.00  0.00     0.211 HD
ENDBRANCH   1   8
TORSDOF 2
ENDMDL
MODEL 4
REMARK VINA RESULT:    -4.373     20.958     21.357
REMARK INTER + INTRA:          -4.767
REMARK INTER:                  -4.749
REMARK INTRA:                  -0.018
REMARK UNBOUND:                -0.010
REMARK SMILES OCc1ccccc1
REMARK SMILES IDX 2 1 3 2 6 3 5 4 7 5 4 6 8 7 1 8
REMARK H PARENT 1 9
REMARK Flexibility Score: inf
ROOT
ATOM      1  C   UNL     1      16.612  -1.170  14.972  1.00  0.00     0.191 C 
ENDROOT
BRANCH   1   2
ATOM      2  C   UNL     1      17.747  -2.146  14.828  1.00  0.00    -0.023 A 
ATOM      3  C   UNL     1      19.815  -4.025  14.573  1.00  0.00     0.000 A 
ATOM      4  C   UNL     1      19.501  -3.499  15.829  1.00  0.00     0.000 A 
ATOM      5  C   UNL     1      19.093  -3.623  13.445  1.00  0.00     0.000 A 
ATOM      6  C   UNL     1      18.466  -2.566  15.959  1.00  0.00     0.006 A 
ATOM      7  C   UNL     1      18.058  -2.691  13.571  1.00  0.00     0.006 A 
ENDBRANCH   1   2
BRANCH   1   8
ATOM      8  O   UNL     1      16.373  -0.526  13.751  1.00  0.00    -0.392 OA
ATOM      9  H   UNL     1      17.143  -0.741  13.162  1.00  0.00     0.211 HD
ENDBRANCH   1   8
TORSDOF 2
ENDMDL
MODEL 5
REMARK VINA RESULT:    -4.357     15.160     15.902
REMARK INTER + INTRA:          -4.749
REMARK INTER:                  -4.730
REMARK INTRA:                  -0.019
REMARK UNBOUND:                -0.010
REMARK SMILES OCc1ccccc1
REMARK SMILES IDX 2 1 3 2 6 3 5 4 7 5 4 6 8 7 1 8
REMARK H PARENT 1 9
REMARK Flexibility Score: inf
ROOT
ATOM      1  C   UNL     1      19.343  12.860  14.133  1.00  0.00     0.191 C 
ENDROOT
BRANCH   1   2
ATOM      2  C   UNL     1      18.120  12.038  14.429  1.00  0.00    -0.023 A 
ATOM      3  C   UNL     1      15.876  10.440  14.962  1.00  0.00     0.000 A 
ATOM      4  C   UNL     1      16.074  10.960  13.680  1.00  0.00     0.000 A 
ATOM      5  C   UNL     1      16.799  10.708  15.977  1.00  0.00     0.000 A 
ATOM      6  C   UNL     1      17.196  11.752  13.411  1.00  0.00     0.006 A 
ATOM      7  C   UNL     1      17.921  11.499  15.712  1.00  0.00     0.006 A 
ENDBRANCH   1   2
BRANCH   1   8
ATOM      8  O   UNL     1      19.173  13.559  12.930  1.00  0.00    -0.392 OA
ATOM      9  H   UNL     1      19.990  14.110  12.804  1.00  0.00     0.211 HD
ENDBRANCH   1   8
TORSDOF 2
ENDMDL
MODEL 6
REMARK VINA RESULT:    -4.341      1.947      3.400
REMARK INTER + INTRA:          -4.732
REMARK INTER:                  -4.713
REMARK INTRA:                  -0.018
REMARK UNBOUND:                -0.010
REMARK SMILES OCc1ccccc1
REMARK SMILES IDX 2 1 3 2 6 3 5 4 7 5 4 6 8 7 1 8
REMARK H PARENT 1 9
REMARK Flexibility Score: inf
ROOT
ATOM      1  C   UNL     1      34.256  10.639  19.184  1.00  0.00     0.191 C 
ENDROOT
BRANCH   1   2
ATOM      2  C   UNL     1      33.172  11.681  19.182  1.00  0.00    -0.023 A 
ATOM      3  C   UNL     1      31.194  13.670  19.225  1.00  0.00     0.000 A 
ATOM      4  C   UNL     1      31.206  12.676  20.208  1.00  0.00     0.000 A 
ATOM      5  C   UNL     1      32.172  13.679  18.226  1.00  0.00     0.000 A 
ATOM      6  C   UNL     1      32.195  11.687  20.191  1.00  0.00     0.006 A 
ATOM      7  C   UNL     1      33.162  12.692  18.207  1.00  0.00     0.006 A 
ENDBRANCH   1   2
BRANCH   1   8
ATOM      8  O   UNL     1      34.867  10.578  17.925  1.00  0.00    -0.392 OA
ATOM      9  H   UNL     1      35.742  11.039  18.011  1.00  0.00     0.211 HD
ENDBRANCH   1   8
TORSDOF 2
ENDMDL
MODEL 7
REMARK VINA RESULT:    -4.331     14.278     14.890
REMARK INTER + INTRA:          -4.721
REMARK INTER:                  -4.704
REMARK INTRA:                  -0.017
REMARK UNBOUND:                -0.010
REMARK SMILES OCc1ccccc1
REMARK SMILES IDX 2 1 3 2 6 3 5 4 7 5 4 6 8 7 1 8
REMARK H PARENT 1 9
REMARK Flexibility Score: inf
ROOT
ATOM      1  C   UNL     1      32.417  -1.702  12.463  1.00  0.00     0.191 C 
ENDROOT
BRANCH   1   2
ATOM      2  C   UNL     1      33.489  -1.246  13.413  1.00  0.00    -0.023 A 
ATOM      3  C   UNL     1      35.462  -0.325  15.183  1.00  0.00     0.000 A 
ATOM      4  C   UNL     1      35.681  -0.272  13.804  1.00  0.00     0.000 A 
ATOM      5  C   UNL     1      34.256  -0.828  15.681  1.00  0.00     0.000 A 
ATOM      6  C   UNL     1      34.697  -0.726  12.920  1.00  0.00     0.006 A 
ATOM      7  C   UNL     1      33.270  -1.282  14.800  1.00  0.00     0.006 A 
ENDBRANCH   1   2
BRANCH   1   8
ATOM      8  O   UNL     1      32.993  -2.147  11.265  1.00  0.00    -0.392 OA
ATOM      9  H   UNL     1      32.833  -1.435  10.592  1.00  0.00     0.211 HD
ENDBRANCH   1   8
TORSDOF 2
ENDMDL
MODEL 8
REMARK VINA RESULT:    -4.303     20.981     21.353
REMARK INTER + INTRA:          -4.690
REMARK INTER:                  -4.679
REMARK INTRA:                  -0.011
REMARK UNBOUND:                -0.010
REMARK SMILES OCc1ccccc1
REMARK SMILES IDX 2 1 3 2 6 3 5 4 7 5 4 6 8 7 1 8
REMARK H PARENT 1 9
REMARK Flexibility Score: inf
ROOT
ATOM      1  C   UNL     1      20.021  -4.125  17.989  1.00  0.00     0.191 C 
ENDROOT
BRANCH   1   2
ATOM      2  C   UNL     1      19.568  -3.691  16.622  1.00  0.00    -0.023 A 
ATOM      3  C   UNL     1      18.665  -2.933  14.076  1.00  0.00     0.000 A 
ATOM      4  C   UNL     1      19.591  -3.972  14.208  1.00  0.00     0.000 A 
ATOM      5  C   UNL     1      18.181  -2.277  15.212  1.00  0.00     0.000 A 
ATOM      6  C   UNL     1      20.038  -4.355  15.477  1.00  0.00     0.006 A 
ATOM      7  C   UNL     1      18.626  -2.658  16.482  1.00  0.00     0.006 A 
ENDBRANCH   1   2
BRANCH   1   8
ATOM      8  O   UNL     1      18.976  -4.777  18.657  1.00  0.00    -0.392 OA
ATOM      9  H   UNL     1      19.396  -5.473  19.228  1.00  0.00     0.211 HD
ENDBRANCH   1   8
TORSDOF 2
ENDMDL
MODEL 9
REMARK VINA RESULT:    -4.280     15.579     16.471
REMARK INTER + INTRA:          -4.665
REMARK INTER:                  -4.653
REMARK INTRA:                  -0.012
REMARK UNBOUND:                -0.010
REMARK SMILES OCc1ccccc1
REMARK SMILES IDX 2 1 3 2 6 3 5 4 7 5 4 6 8 7 1 8
REMARK H PARENT 1 9
REMARK Flexibility Score: inf
ROOT
ATOM      1  C   UNL     1      31.947  -2.511  10.829  1.00  0.00     0.191 C 
ENDROOT
BRANCH   1   2
ATOM      2  C   UNL     1      32.361  -2.501  12.274  1.00  0.00    -0.023 A 
ATOM      3  C   UNL     1      33.196  -2.526  14.953  1.00  0.00     0.000 A 
ATOM      4  C   UNL     1      32.370  -3.545  14.470  1.00  0.00     0.000 A 
ATOM      5  C   UNL     1      33.614  -1.500  14.101  1.00  0.00     0.000 A 
ATOM      6  C   UNL     1      31.957  -3.537  13.133  1.00  0.00     0.006 A 
ATOM      7  C   UNL     1      33.204  -1.489  12.764  1.00  0.00     0.006 A 
ENDBRANCH   1   2
BRANCH   1   8
ATOM      8  O   UNL     1      33.079  -2.561  10.005  1.00  0.00    -0.392 OA
ATOM      9  H   UNL     1      33.121  -1.692   9.528  1.00  0.00     0.211 HD
ENDBRANCH   1   8
TORSDOF 2
ENDMDL
