MODEL 1
REMARK VINA RESULT:    -3.293      0.000      0.000
REMARK INTER + INTRA:         -13.052
REMARK INTER:                  -8.298
REMARK INTRA:                  -4.754
REMARK UNBOUND:                -4.754
REMARK SMILES CCCCCCCCCCCCCCCCCCCCCCCCCCCC(=O)[O-]
REMARK SMILES IDX 15 1 16 2 17 3 18 4 19 5 20 6 21 7 22 8 23 9 24 10 25 11
REMARK SMILES IDX 26 12 27 13 28 14 29 15 30 16 14 17 13 18 12 19 11 20 10 21
REMARK SMILES IDX 9 22 8 23 7 24 6 25 5 26 4 27 3 28 2 29 1 30
REMARK H PARENT
REMARK Flexibility Score: inf
ROOT
ATOM      1  C   UNL     1      63.478  32.442  57.592  1.00  0.00     0.000 C 
ENDROOT
BRANCH   1   2
ATOM      2  C   UNL     1      64.563  32.952  58.549  1.00  0.00     0.000 C 
BRANCH   2   3
ATOM      3  C   UNL     1      64.359  32.395  59.965  1.00  0.00     0.000 C 
BRANCH   3   4
ATOM      4  C   UNL     1      63.969  33.511  60.942  1.00  0.00     0.000 C 
BRANCH   4   5
ATOM      5  C   UNL     1      64.627  34.842  60.551  1.00  0.00     0.000 C 
BRANCH   5   6
ATOM      6  C   UNL     1      64.841  35.733  61.781  1.00  0.00     0.000 C 
BRANCH   6   7
ATOM      7  C   UNL     1      63.884  36.936  61.828  1.00  0.00     0.000 C 
BRANCH   7   8
ATOM      8  C   UNL     1      62.952  37.040  60.601  1.00  0.00     0.000 C 
BRANCH   8   9
ATOM      9  C   UNL     1      61.471  36.862  60.980  1.00  0.00     0.000 C 
BRANCH   9  10
ATOM     10  C   UNL     1      60.899  35.509  60.528  1.00  0.00     0.000 C 
BRANCH  10  11
ATOM     11  C   UNL     1      61.276  35.156  59.082  1.00  0.00     0.000 C 
BRANCH  11  12
ATOM     12  C   UNL     1      60.050  34.665  58.299  1.00  0.00     0.006 C 
BRANCH  12  13
ATOM     13  C   UNL     1      60.274  34.704  56.781  1.00  0.00     0.053 C 
BRANCH  13  14
ATOM     14  C   UNL     1      59.059  34.259  56.028  1.00  0.00     0.041 C 
ATOM     15  O   UNL     1      58.664  34.906  55.023  1.00  0.00    -0.550 OA
ATOM     16  O   UNL     1      58.348  33.143  56.452  1.00  0.00    -0.550 OA
ENDBRANCH  13  14
ENDBRANCH  12  13
ENDBRANCH  11  12
ENDBRANCH  10  11
ENDBRANCH   9  10
ENDBRANCH   8   9
ENDBRANCH   7   8
ENDBRANCH   6   7
ENDBRANCH   5   6
ENDBRANCH   4   5
ENDBRANCH   3   4
ENDBRANCH   2   3
ENDBRANCH   1   2
BRANCH   1  17
ATOM     17  C   UNL     1      62.735  31.243  58.200  1.00  0.00     0.000 C 
BRANCH  17  18
ATOM     18  C   UNL     1      61.206  31.370  58.096  1.00  0.00     0.000 C 
BRANCH  18  19
ATOM     19  C   UNL     1      60.424  30.842  59.316  1.00  0.00     0.000 C 
BRANCH  19  20
ATOM     20  C   UNL     1      60.856  31.468  60.659  1.00  0.00     0.000 C 
BRANCH  20  21
ATOM     21  C   UNL     1      61.526  30.445  61.595  1.00  0.00     0.000 C 
BRANCH  21  22
ATOM     22  C   UNL     1      61.144  28.996  61.263  1.00  0.00    -0.000 C 
BRANCH  22  23
ATOM     23  C   UNL     1      62.374  28.093  61.049  1.00  0.00    -0.000 C 
BRANCH  23  24
ATOM     24  C   UNL     1      63.675  28.893  60.869  1.00  0.00    -0.000 C 
BRANCH  24  25
ATOM     25  C   UNL     1      64.683  28.273  59.883  1.00  0.00    -0.000 C 
BRANCH  25  26
ATOM     26  C   UNL     1      65.759  29.261  59.384  1.00  0.00    -0.000 C 
BRANCH  26  27
ATOM     27  C   UNL     1      67.185  28.749  59.649  1.00  0.00    -0.000 C 
BRANCH  27  28
ATOM     28  C   UNL     1      67.227  27.622  60.691  1.00  0.00    -0.000 C 
BRANCH  28  29
ATOM     29  C   UNL     1      68.581  27.528  61.413  1.00  0.00    -0.003 C 
ATOM     30  C   UNL     1      69.224  28.907  61.560  1.00  0.00     0.004 C 
ENDBRANCH  28  29
ENDBRANCH  27  28
ENDBRANCH  26  27
ENDBRANCH  25  26
ENDBRANCH  24  25
ENDBRANCH  23  24
ENDBRANCH  22  23
ENDBRANCH  21  22
ENDBRANCH  20  21
ENDBRANCH  19  20
ENDBRANCH  18  19
ENDBRANCH  17  18
ENDBRANCH   1  17
TORSDOF 26
ENDMDL
MODEL 2
REMARK VINA RESULT:    -3.278     10.504     12.735
REMARK INTER + INTRA:         -13.014
REMARK INTER:                  -7.973
REMARK INTRA:                  -5.041
REMARK UNBOUND:                -4.754
REMARK SMILES CCCCCCCCCCCCCCCCCCCCCCCCCCCC(=O)[O-]
REMARK SMILES IDX 15 1 16 2 17 3 18 4 19 5 20 6 21 7 22 8 23 9 24 10 25 11
REMARK SMILES IDX 26 12 27 13 28 14 29 15 30 16 14 17 13 18 12 19 11 20 10 21
REMARK SMILES IDX 9 22 8 23 7 24 6 25 5 26 4 27 3 28 2 29 1 30
REMARK H PARENT
REMARK Flexibility Score: inf
ROOT
ATOM      1  C   UNL     1      60.278  24.874  54.504  1.00  0.00     0.000 C 
ENDROOT
BRANCH   1   2
ATOM      2  C   UNL     1      60.186  25.369  53.055  1.00  0.00     0.000 C 
BRANCH   2   3
ATOM      3  C   UNL     1      58.726  25.588  52.637  1.00  0.00     0.000 C 
BRANCH   3   4
ATOM      4  C   UNL     1      58.502  25.159  51.181  1.00  0.00     0.000 C 
BRANCH   4   5
ATOM      5  C   UNL     1      57.264  25.845  50.588  1.00  0.00     0.000 C 
BRANCH   5   6
ATOM      6  C   UNL     1      56.686  26.879  51.564  1.00  0.00     0.000 C 
BRANCH   6   7
ATOM      7  C   UNL     1      56.271  28.191  50.877  1.00  0.00     0.000 C 
BRANCH   7   8
ATOM      8  C   UNL     1      57.393  29.251  50.827  1.00  0.00     0.000 C 
BRANCH   8   9
ATOM      9  C   UNL     1      58.353  29.138  52.023  1.00  0.00     0.000 C 
BRANCH   9  10
ATOM     10  C   UNL     1      59.826  29.030  51.596  1.00  0.00     0.000 C 
BRANCH  10  11
ATOM     11  C   UNL     1      59.998  28.919  50.074  1.00  0.00     0.000 C 
BRANCH  11  12
ATOM     12  C   UNL     1      60.525  27.531  49.681  1.00  0.00     0.006 C 
BRANCH  12  13
ATOM     13  C   UNL     1      61.807  27.160  50.440  1.00  0.00     0.053 C 
BRANCH  13  14
ATOM     14  C   UNL     1      62.944  28.069  50.088  1.00  0.00     0.041 C 
ATOM     15  O   UNL     1      63.419  28.067  48.923  1.00  0.00    -0.550 OA
ATOM     16  O   UNL     1      63.493  28.901  51.056  1.00  0.00    -0.550 OA
ENDBRANCH  13  14
ENDBRANCH  12  13
ENDBRANCH  11  12
ENDBRANCH  10  11
ENDBRANCH   9  10
ENDBRANCH   8   9
ENDBRANCH   7   8
ENDBRANCH   6   7
ENDBRANCH   5   6
ENDBRANCH   4   5
ENDBRANCH   3   4
ENDBRANCH   2   3
ENDBRANCH   1   2
BRANCH   1  17
ATOM     17  C   UNL     1      59.327  23.690  54.738  1.00  0.00     0.000 C 
BRANCH  17  18
ATOM     18  C   UNL     1      59.845  22.376  54.132  1.00  0.00     0.000 C 
BRANCH  18  19
ATOM     19  C   UNL     1      59.017  21.834  52.949  1.00  0.00     0.000 C 
BRANCH  19  20
ATOM     20  C   UNL     1      57.958  20.785  53.350  1.00  0.00     0.000 C 
BRANCH  20  21
ATOM     21  C   UNL     1      58.577  19.404  53.628  1.00  0.00     0.000 C 
BRANCH  21  22
ATOM     22  C   UNL     1      57.834  18.264  52.916  1.00  0.00    -0.000 C 
BRANCH  22  23
ATOM     23  C   UNL     1      57.351  18.661  51.507  1.00  0.00    -0.000 C 
BRANCH  23  24
ATOM     24  C   UNL     1      58.258  18.115  50.392  1.00  0.00    -0.000 C 
BRANCH  24  25
ATOM     25  C   UNL     1      59.291  19.121  49.850  1.00  0.00    -0.000 C 
BRANCH  25  26
ATOM     26  C   UNL     1      60.670  19.035  50.539  1.00  0.00    -0.000 C 
BRANCH  26  27
ATOM     27  C   UNL     1      61.426  20.373  50.493  1.00  0.00    -0.000 C 
BRANCH  27  28
ATOM     28  C   UNL     1      60.685  21.446  49.680  1.00  0.00    -0.000 C 
BRANCH  28  29
ATOM     29  C   UNL     1      61.146  22.873  50.019  1.00  0.00    -0.003 C 
ATOM     30  C   UNL     1      62.151  22.869  51.170  1.00  0.00     0.004 C 
ENDBRANCH  28  29
ENDBRANCH  27  28
ENDBRANCH  26  27
ENDBRANCH  25  26
ENDBRANCH  24  25
ENDBRANCH  23  24
ENDBRANCH  22  23
ENDBRANCH  21  22
ENDBRANCH  20  21
ENDBRANCH  19  20
ENDBRANCH  18  19
ENDBRANCH  17  18
ENDBRANCH   1  17
TORSDOF 26
ENDMDL
MODEL 3
REMARK VINA RESULT:    -3.204      8.084     11.561
REMARK INTER + INTRA:         -12.829
REMARK INTER:                  -7.936
REMARK INTRA:                  -4.892
REMARK UNBOUND:                -4.754
REMARK SMILES CCCCCCCCCCCCCCCCCCCCCCCCCCCC(=O)[O-]
REMARK SMILES IDX 15 1 16 2 17 3 18 4 19 5 20 6 21 7 22 8 23 9 24 10 25 11
REMARK SMILES IDX 26 12 27 13 28 14 29 15 30 16 14 17 13 18 12 19 11 20 10 21
REMARK SMILES IDX 9 22 8 23 7 24 6 25 5 26 4 27 3 28 2 29 1 30
REMARK H PARENT
REMARK Flexibility Score: inf
ROOT
ATOM      1  C   UNL     1      58.978  25.311  52.314  1.00  0.00     0.000 C 
ENDROOT
BRANCH   1   2
ATOM      2  C   UNL     1      60.349  25.885  51.935  1.00  0.00     0.000 C 
BRANCH   2   3
ATOM      3  C   UNL     1      60.475  26.061  50.416  1.00  0.00     0.000 C 
BRANCH   3   4
ATOM      4  C   UNL     1      59.260  26.806  49.848  1.00  0.00     0.000 C 
BRANCH   4   5
ATOM      5  C   UNL     1      59.612  28.263  49.519  1.00  0.00     0.000 C 
BRANCH   5   6
ATOM      6  C   UNL     1      58.530  29.221  50.035  1.00  0.00     0.000 C 
BRANCH   6   7
ATOM      7  C   UNL     1      58.537  29.371  51.566  1.00  0.00     0.000 C 
BRANCH   7   8
ATOM      8  C   UNL     1      59.677  30.266  52.099  1.00  0.00     0.000 C 
BRANCH   8   9
ATOM      9  C   UNL     1      60.756  29.454  52.837  1.00  0.00     0.000 C 
BRANCH   9  10
ATOM     10  C   UNL     1      62.097  29.425  52.086  1.00  0.00     0.000 C 
BRANCH  10  11
ATOM     11  C   UNL     1      62.076  30.262  50.798  1.00  0.00     0.000 C 
BRANCH  11  12
ATOM     12  C   UNL     1      62.756  31.622  51.016  1.00  0.00     0.006 C 
BRANCH  12  13
ATOM     13  C   UNL     1      63.142  32.298  49.694  1.00  0.00     0.053 C 
BRANCH  13  14
ATOM     14  C   UNL     1      62.785  33.752  49.688  1.00  0.00     0.041 C 
ATOM     15  O   UNL     1      62.324  34.287  48.646  1.00  0.00    -0.550 OA
ATOM     16  O   UNL     1      62.986  34.522  50.827  1.00  0.00    -0.550 OA
ENDBRANCH  13  14
ENDBRANCH  12  13
ENDBRANCH  11  12
ENDBRANCH  10  11
ENDBRANCH   9  10
ENDBRANCH   8   9
ENDBRANCH   7   8
ENDBRANCH   6   7
ENDBRANCH   5   6
ENDBRANCH   4   5
ENDBRANCH   3   4
ENDBRANCH   2   3
ENDBRANCH   1   2
BRANCH   1  17
ATOM     17  C   UNL     1      58.279  26.204  53.351  1.00  0.00     0.000 C 
BRANCH  17  18
ATOM     18  C   UNL     1      56.886  26.670  52.899  1.00  0.00     0.000 C 
BRANCH  18  19
ATOM     19  C   UNL     1      56.058  25.608  52.146  1.00  0.00     0.000 C 
BRANCH  19  20
ATOM     20  C   UNL     1      55.823  25.934  50.656  1.00  0.00     0.000 C 
BRANCH  20  21
ATOM     21  C   UNL     1      55.416  27.402  50.433  1.00  0.00     0.000 C 
BRANCH  21  22
ATOM     22  C   UNL     1      53.925  27.564  50.107  1.00  0.00    -0.000 C 
BRANCH  22  23
ATOM     23  C   UNL     1      53.395  28.972  50.440  1.00  0.00    -0.000 C 
BRANCH  23  24
ATOM     24  C   UNL     1      54.439  29.849  51.149  1.00  0.00    -0.000 C 
BRANCH  24  25
ATOM     25  C   UNL     1      53.858  30.860  52.155  1.00  0.00    -0.000 C 
BRANCH  25  26
ATOM     26  C   UNL     1      54.745  31.085  53.399  1.00  0.00    -0.000 C 
BRANCH  26  27
ATOM     27  C   UNL     1      55.373  29.777  53.909  1.00  0.00    -0.000 C 
BRANCH  27  28
ATOM     28  C   UNL     1      56.075  29.944  55.265  1.00  0.00    -0.000 C 
BRANCH  28  29
ATOM     29  C   UNL     1      57.586  30.192  55.126  1.00  0.00    -0.003 C 
ATOM     30  C   UNL     1      58.392  29.051  55.743  1.00  0.00     0.004 C 
ENDBRANCH  28  29
ENDBRANCH  27  28
ENDBRANCH  26  27
ENDBRANCH  25  26
ENDBRANCH  24  25
ENDBRANCH  23  24
ENDBRANCH  22  23
ENDBRANCH  21  22
ENDBRANCH  20  21
ENDBRANCH  19  20
ENDBRANCH  18  19
ENDBRANCH  17  18
ENDBRANCH   1  17
TORSDOF 26
ENDMDL
MODEL 4
REMARK VINA RESULT:    -3.167     11.009     14.918
REMARK INTER + INTRA:         -12.734
REMARK INTER:                  -9.430
REMARK INTRA:                  -3.304
REMARK UNBOUND:                -4.754
REMARK SMILES CCCCCCCCCCCCCCCCCCCCCCCCCCCC(=O)[O-]
REMARK SMILES IDX 15 1 16 2 17 3 18 4 19 5 20 6 21 7 22 8 23 9 24 10 25 11
REMARK SMILES IDX 26 12 27 13 28 14 29 15 30 16 14 17 13 18 12 19 11 20 10 21
REMARK SMILES IDX 9 22 8 23 7 24 6 25 5 26 4 27 3 28 2 29 1 30
REMARK H PARENT
REMARK Flexibility Score: inf
ROOT
ATOM      1  C   UNL     1      60.482  28.583  50.355  1.00  0.00     0.000 C 
ENDROOT
BRANCH   1   2
ATOM      2  C   UNL     1      60.618  27.156  49.809  1.00  0.00     0.000 C 
BRANCH   2   3
ATOM      3  C   UNL     1      61.518  26.301  50.711  1.00  0.00     0.000 C 
BRANCH   3   4
ATOM      4  C   UNL     1      60.802  25.015  51.139  1.00  0.00     0.000 C 
BRANCH   4   5
ATOM      5  C   UNL     1      61.647  23.777  50.810  1.00  0.00     0.000 C 
BRANCH   5   6
ATOM      6  C   UNL     1      60.795  22.689  50.143  1.00  0.00     0.000 C 
BRANCH   6   7
ATOM      7  C   UNL     1      61.600  21.428  49.783  1.00  0.00     0.000 C 
BRANCH   7   8
ATOM      8  C   UNL     1      60.789  20.119  49.893  1.00  0.00     0.000 C 
BRANCH   8   9
ATOM      9  C   UNL     1      61.288  19.221  51.039  1.00  0.00     0.000 C 
BRANCH   9  10
ATOM     10  C   UNL     1      60.142  18.639  51.881  1.00  0.00     0.000 C 
BRANCH  10  11
ATOM     11  C   UNL     1      58.930  18.227  51.033  1.00  0.00     0.000 C 
BRANCH  11  12
ATOM     12  C   UNL     1      57.617  18.630  51.720  1.00  0.00     0.006 C 
BRANCH  12  13
ATOM     13  C   UNL     1      56.388  18.313  50.857  1.00  0.00     0.053 C 
BRANCH  13  14
ATOM     14  C   UNL     1      55.221  19.184  51.209  1.00  0.00     0.041 C 
ATOM     15  O   UNL     1      54.453  19.608  50.307  1.00  0.00    -0.550 OA
ATOM     16  O   UNL     1      54.999  19.547  52.532  1.00  0.00    -0.550 OA
ENDBRANCH  13  14
ENDBRANCH  12  13
ENDBRANCH  11  12
ENDBRANCH  10  11
ENDBRANCH   9  10
ENDBRANCH   8   9
ENDBRANCH   7   8
ENDBRANCH   6   7
ENDBRANCH   5   6
ENDBRANCH   4   5
ENDBRANCH   3   4
ENDBRANCH   2   3
ENDBRANCH   1   2
BRANCH   1  17
ATOM     17  C   UNL     1      59.231  29.269  49.784  1.00  0.00     0.000 C 
BRANCH  17  18
ATOM     18  C   UNL     1      57.923  28.723  50.380  1.00  0.00     0.000 C 
BRANCH  18  19
ATOM     19  C   UNL     1      57.885  28.665  51.921  1.00  0.00     0.000 C 
BRANCH  19  20
ATOM     20  C   UNL     1      57.554  27.269  52.491  1.00  0.00     0.000 C 
BRANCH  20  21
ATOM     21  C   UNL     1      57.239  26.245  51.386  1.00  0.00     0.000 C 
BRANCH  21  22
ATOM     22  C   UNL     1      55.756  25.850  51.345  1.00  0.00    -0.000 C 
BRANCH  22  23
ATOM     23  C   UNL     1      55.124  26.060  49.956  1.00  0.00    -0.000 C 
BRANCH  23  24
ATOM     24  C   UNL     1      53.917  27.012  49.988  1.00  0.00    -0.000 C 
BRANCH  24  25
ATOM     25  C   UNL     1      54.237  28.445  50.452  1.00  0.00    -0.000 C 
BRANCH  25  26
ATOM     26  C   UNL     1      53.533  28.849  51.766  1.00  0.00    -0.000 C 
BRANCH  26  27
ATOM     27  C   UNL     1      54.501  29.504  52.765  1.00  0.00    -0.000 C 
BRANCH  27  28
ATOM     28  C   UNL     1      54.043  29.350  54.223  1.00  0.00    -0.000 C 
BRANCH  28  29
ATOM     29  C   UNL     1      54.991  28.473  55.056  1.00  0.00    -0.003 C 
ATOM     30  C   UNL     1      54.733  26.988  54.804  1.00  0.00     0.004 C 
ENDBRANCH  28  29
ENDBRANCH  27  28
ENDBRANCH  26  27
ENDBRANCH  25  26
ENDBRANCH  24  25
ENDBRANCH  23  24
ENDBRANCH  22  23
ENDBRANCH  21  22
ENDBRANCH  20  21
ENDBRANCH  19  20
ENDBRANCH  18  19
ENDBRANCH  17  18
ENDBRANCH   1  17
TORSDOF 26
ENDMDL
MODEL 5
REMARK VINA RESULT:    -3.156     11.142     13.472
REMARK INTER + INTRA:         -12.708
REMARK INTER:                  -8.871
REMARK INTRA:                  -3.837
REMARK UNBOUND:                -4.754
REMARK SMILES CCCCCCCCCCCCCCCCCCCCCCCCCCCC(=O)[O-]
REMARK SMILES IDX 15 1 16 2 17 3 18 4 19 5 20 6 21 7 22 8 23 9 24 10 25 11
REMARK SMILES IDX 26 12 27 13 28 14 29 15 30 16 14 17 13 18 12 19 11 20 10 21
REMARK SMILES IDX 9 22 8 23 7 24 6 25 5 26 4 27 3 28 2 29 1 30
REMARK H PARENT
REMARK Flexibility Score: inf
ROOT
ATOM      1  C   UNL     1      60.426  22.957  51.430  1.00  0.00     0.000 C 
ENDROOT
BRANCH   1   2
ATOM      2  C   UNL     1      61.364  23.928  52.158  1.00  0.00     0.000 C 
BRANCH   2   3
ATOM      3  C   UNL     1      62.372  24.557  51.186  1.00  0.00     0.000 C 
BRANCH   3   4
ATOM      4  C   UNL     1      62.649  26.019  51.555  1.00  0.00     0.000 C 
BRANCH   4   5
ATOM      5  C   UNL     1      62.418  26.945  50.353  1.00  0.00     0.000 C 
BRANCH   5   6
ATOM      6  C   UNL     1      61.179  27.824  50.564  1.00  0.00     0.000 C 
BRANCH   6   7
ATOM      7  C   UNL     1      59.988  27.412  49.683  1.00  0.00     0.000 C 
BRANCH   7   8
ATOM      8  C   UNL     1      59.098  26.317  50.310  1.00  0.00     0.000 C 
BRANCH   8   9
ATOM      9  C   UNL     1      57.833  26.900  50.962  1.00  0.00     0.000 C 
BRANCH   9  10
ATOM     10  C   UNL     1      57.557  28.350  50.536  1.00  0.00     0.000 C 
BRANCH  10  11
ATOM     11  C   UNL     1      56.286  28.927  51.176  1.00  0.00     0.000 C 
BRANCH  11  12
ATOM     12  C   UNL     1      55.241  27.826  51.410  1.00  0.00     0.006 C 
BRANCH  12  13
ATOM     13  C   UNL     1      54.364  27.585  50.173  1.00  0.00     0.053 C 
BRANCH  13  14
ATOM     14  C   UNL     1      54.071  26.129  49.976  1.00  0.00     0.041 C 
ATOM     15  O   UNL     1      54.562  25.273  50.757  1.00  0.00    -0.550 OA
ATOM     16  O   UNL     1      53.275  25.718  48.913  1.00  0.00    -0.550 OA
ENDBRANCH  13  14
ENDBRANCH  12  13
ENDBRANCH  11  12
ENDBRANCH  10  11
ENDBRANCH   9  10
ENDBRANCH   8   9
ENDBRANCH   7   8
ENDBRANCH   6   7
ENDBRANCH   5   6
ENDBRANCH   4   5
ENDBRANCH   3   4
ENDBRANCH   2   3
ENDBRANCH   1   2
BRANCH   1  17
ATOM     17  C   UNL     1      60.796  22.853  49.942  1.00  0.00     0.000 C 
BRANCH  17  18
ATOM     18  C   UNL     1      61.266  21.446  49.538  1.00  0.00     0.000 C 
BRANCH  18  19
ATOM     19  C   UNL     1      60.288  20.307  49.893  1.00  0.00     0.000 C 
BRANCH  19  20
ATOM     20  C   UNL     1      60.965  19.069  50.520  1.00  0.00     0.000 C 
BRANCH  20  21
ATOM     21  C   UNL     1      62.156  19.444  51.420  1.00  0.00     0.000 C 
BRANCH  21  22
ATOM     22  C   UNL     1      62.348  18.469  52.590  1.00  0.00    -0.000 C 
BRANCH  22  23
ATOM     23  C   UNL     1      62.017  19.108  53.954  1.00  0.00    -0.000 C 
BRANCH  23  24
ATOM     24  C   UNL     1      61.369  20.495  53.820  1.00  0.00    -0.000 C 
BRANCH  24  25
ATOM     25  C   UNL     1      59.937  20.596  54.377  1.00  0.00    -0.000 C 
BRANCH  25  26
ATOM     26  C   UNL     1      58.836  20.360  53.322  1.00  0.00    -0.000 C 
BRANCH  26  27
ATOM     27  C   UNL     1      58.491  18.869  53.166  1.00  0.00    -0.000 C 
BRANCH  27  28
ATOM     28  C   UNL     1      57.036  18.638  52.734  1.00  0.00    -0.000 C 
BRANCH  28  29
ATOM     29  C   UNL     1      56.834  18.792  51.217  1.00  0.00    -0.003 C 
ATOM     30  C   UNL     1      57.515  17.658  50.452  1.00  0.00     0.004 C 
ENDBRANCH  28  29
ENDBRANCH  27  28
ENDBRANCH  26  27
ENDBRANCH  25  26
ENDBRANCH  24  25
ENDBRANCH  23  24
ENDBRANCH  22  23
ENDBRANCH  21  22
ENDBRANCH  20  21
ENDBRANCH  19  20
ENDBRANCH  18  19
ENDBRANCH  17  18
ENDBRANCH   1  17
TORSDOF 26
ENDMDL
MODEL 6
REMARK VINA RESULT:    -3.139      2.616      7.629
REMARK INTER + INTRA:         -12.664
REMARK INTER:                  -7.039
REMARK INTRA:                  -5.625
REMARK UNBOUND:                -4.754
REMARK SMILES CCCCCCCCCCCCCCCCCCCCCCCCCCCC(=O)[O-]
REMARK SMILES IDX 15 1 16 2 17 3 18 4 19 5 20 6 21 7 22 8 23 9 24 10 25 11
REMARK SMILES IDX 26 12 27 13 28 14 29 15 30 16 14 17 13 18 12 19 11 20 10 21
REMARK SMILES IDX 9 22 8 23 7 24 6 25 5 26 4 27 3 28 2 29 1 30
REMARK H PARENT
REMARK Flexibility Score: inf
ROOT
ATOM      1  C   UNL     1      63.793  31.044  57.424  1.00  0.00     0.000 C 
ENDROOT
BRANCH   1   2
ATOM      2  C   UNL     1      62.342  31.445  57.131  1.00  0.00     0.000 C 
BRANCH   2   3
ATOM      3  C   UNL     1      61.359  30.382  57.641  1.00  0.00     0.000 C 
BRANCH   3   4
ATOM      4  C   UNL     1      60.369  30.987  58.644  1.00  0.00     0.000 C 
BRANCH   4   5
ATOM      5  C   UNL     1      61.104  31.777  59.736  1.00  0.00     0.000 C 
BRANCH   5   6
ATOM      6  C   UNL     1      60.778  31.224  61.130  1.00  0.00     0.000 C 
BRANCH   6   7
ATOM      7  C   UNL     1      61.841  30.245  61.655  1.00  0.00     0.000 C 
BRANCH   7   8
ATOM      8  C   UNL     1      63.253  30.489  61.078  1.00  0.00     0.000 C 
BRANCH   8   9
ATOM      9  C   UNL     1      64.018  29.176  60.840  1.00  0.00     0.000 C 
BRANCH   9  10
ATOM     10  C   UNL     1      63.205  28.150  60.035  1.00  0.00     0.000 C 
BRANCH  10  11
ATOM     11  C   UNL     1      62.802  26.924  60.868  1.00  0.00     0.000 C 
BRANCH  11  12
ATOM     12  C   UNL     1      61.299  26.640  60.734  1.00  0.00     0.006 C 
BRANCH  12  13
ATOM     13  C   UNL     1      60.696  27.280  59.476  1.00  0.00     0.053 C 
BRANCH  13  14
ATOM     14  C   UNL     1      59.304  27.777  59.718  1.00  0.00     0.041 C 
ATOM     15  O   UNL     1      58.940  28.099  60.879  1.00  0.00    -0.550 OA
ATOM     16  O   UNL     1      58.402  27.860  58.664  1.00  0.00    -0.550 OA
ENDBRANCH  13  14
ENDBRANCH  12  13
ENDBRANCH  11  12
ENDBRANCH  10  11
ENDBRANCH   9  10
ENDBRANCH   8   9
ENDBRANCH   7   8
ENDBRANCH   6   7
ENDBRANCH   5   6
ENDBRANCH   4   5
ENDBRANCH   3   4
ENDBRANCH   2   3
ENDBRANCH   1   2
BRANCH   1  17
ATOM     17  C   UNL     1      64.665  32.286  57.664  1.00  0.00     0.000 C 
BRANCH  17  18
ATOM     18  C   UNL     1      63.854  33.507  58.126  1.00  0.00     0.000 C 
BRANCH  18  19
ATOM     19  C   UNL     1      64.539  34.372  59.204  1.00  0.00     0.000 C 
BRANCH  19  20
ATOM     20  C   UNL     1      64.075  34.069  60.644  1.00  0.00     0.000 C 
BRANCH  20  21
ATOM     21  C   UNL     1      63.553  35.323  61.369  1.00  0.00     0.000 C 
BRANCH  21  22
ATOM     22  C   UNL     1      62.494  36.082  60.557  1.00  0.00    -0.000 C 
BRANCH  22  23
ATOM     23  C   UNL     1      61.118  35.390  60.584  1.00  0.00    -0.000 C 
BRANCH  23  24
ATOM     24  C   UNL     1      60.274  35.695  59.336  1.00  0.00    -0.000 C 
BRANCH  24  25
ATOM     25  C   UNL     1      61.086  36.065  58.081  1.00  0.00    -0.000 C 
BRANCH  25  26
ATOM     26  C   UNL     1      60.769  35.191  56.849  1.00  0.00    -0.000 C 
BRANCH  26  27
ATOM     27  C   UNL     1      59.715  34.114  57.157  1.00  0.00    -0.000 C 
BRANCH  27  28
ATOM     28  C   UNL     1      58.650  33.993  56.057  1.00  0.00    -0.000 C 
BRANCH  28  29
ATOM     29  C   UNL     1      57.535  35.044  56.190  1.00  0.00    -0.003 C 
ATOM     30  C   UNL     1      57.011  35.113  57.624  1.00  0.00     0.004 C 
ENDBRANCH  28  29
ENDBRANCH  27  28
ENDBRANCH  26  27
ENDBRANCH  25  26
ENDBRANCH  24  25
ENDBRANCH  23  24
ENDBRANCH  22  23
ENDBRANCH  21  22
ENDBRANCH  20  21
ENDBRANCH  19  20
ENDBRANCH  18  19
ENDBRANCH  17  18
ENDBRANCH   1  17
TORSDOF 26
ENDMDL
MODEL 7
REMARK VINA RESULT:    -3.057      6.791     10.330
REMARK INTER + INTRA:         -12.458
REMARK INTER:                  -6.834
REMARK INTRA:                  -5.624
REMARK UNBOUND:                -4.754
REMARK SMILES CCCCCCCCCCCCCCCCCCCCCCCCCCCC(=O)[O-]
REMARK SMILES IDX 15 1 16 2 17 3 18 4 19 5 20 6 21 7 22 8 23 9 24 10 25 11
REMARK SMILES IDX 26 12 27 13 28 14 29 15 30 16 14 17 13 18 12 19 11 20 10 21
REMARK SMILES IDX 9 22 8 23 7 24 6 25 5 26 4 27 3 28 2 29 1 30
REMARK H PARENT
REMARK Flexibility Score: inf
ROOT
ATOM      1  C   UNL     1      57.861  28.856  50.423  1.00  0.00     0.000 C 
ENDROOT
BRANCH   1   2
ATOM      2  C   UNL     1      59.188  29.019  49.672  1.00  0.00     0.000 C 
BRANCH   2   3
ATOM      3  C   UNL     1      59.974  27.701  49.643  1.00  0.00     0.000 C 
BRANCH   3   4
ATOM      4  C   UNL     1      61.442  27.930  50.025  1.00  0.00     0.000 C 
BRANCH   4   5
ATOM      5  C   UNL     1      61.714  27.476  51.466  1.00  0.00     0.000 C 
BRANCH   5   6
ATOM      6  C   UNL     1      62.210  28.645  52.328  1.00  0.00     0.000 C 
BRANCH   6   7
ATOM      7  C   UNL     1      61.084  29.327  53.123  1.00  0.00     0.000 C 
BRANCH   7   8
ATOM      8  C   UNL     1      60.666  30.702  52.558  1.00  0.00     0.000 C 
BRANCH   8   9
ATOM      9  C   UNL     1      59.266  31.125  53.034  1.00  0.00     0.000 C 
BRANCH   9  10
ATOM     10  C   UNL     1      59.293  31.873  54.376  1.00  0.00     0.000 C 
BRANCH  10  11
ATOM     11  C   UNL     1      58.473  33.171  54.350  1.00  0.00     0.000 C 
BRANCH  11  12
ATOM     12  C   UNL     1      56.980  32.873  54.146  1.00  0.00     0.006 C 
BRANCH  12  13
ATOM     13  C   UNL     1      56.096  33.596  55.172  1.00  0.00     0.053 C 
BRANCH  13  14
ATOM     14  C   UNL     1      55.604  32.664  56.236  1.00  0.00     0.041 C 
ATOM     15  O   UNL     1      54.524  32.037  56.078  1.00  0.00    -0.550 OA
ATOM     16  O   UNL     1      56.328  32.507  57.412  1.00  0.00    -0.550 OA
ENDBRANCH  13  14
ENDBRANCH  12  13
ENDBRANCH  11  12
ENDBRANCH  10  11
ENDBRANCH   9  10
ENDBRANCH   8   9
ENDBRANCH   7   8
ENDBRANCH   6   7
ENDBRANCH   5   6
ENDBRANCH   4   5
ENDBRANCH   3   4
ENDBRANCH   2   3
ENDBRANCH   1   2
BRANCH   1  17
ATOM     17  C   UNL     1      58.030  27.925  51.634  1.00  0.00     0.000 C 
BRANCH  17  18
ATOM     18  C   UNL     1      56.974  26.810  51.685  1.00  0.00     0.000 C 
BRANCH  18  19
ATOM     19  C   UNL     1      56.611  26.195  50.318  1.00  0.00     0.000 C 
BRANCH  19  20
ATOM     20  C   UNL     1      55.096  26.161  50.025  1.00  0.00     0.000 C 
BRANCH  20  21
ATOM     21  C   UNL     1      54.301  27.117  50.934  1.00  0.00     0.000 C 
BRANCH  21  22
ATOM     22  C   UNL     1      53.942  28.438  50.239  1.00  0.00    -0.000 C 
BRANCH  22  23
ATOM     23  C   UNL     1      54.402  29.672  51.039  1.00  0.00    -0.000 C 
BRANCH  23  24
ATOM     24  C   UNL     1      54.225  29.498  52.556  1.00  0.00    -0.000 C 
BRANCH  24  25
ATOM     25  C   UNL     1      55.492  29.765  53.389  1.00  0.00    -0.000 C 
BRANCH  25  26
ATOM     26  C   UNL     1      55.574  28.934  54.688  1.00  0.00    -0.000 C 
BRANCH  26  27
ATOM     27  C   UNL     1      56.829  29.266  55.512  1.00  0.00    -0.000 C 
BRANCH  27  28
ATOM     28  C   UNL     1      58.035  28.391  55.136  1.00  0.00    -0.000 C 
BRANCH  28  29
ATOM     29  C   UNL     1      58.863  27.963  56.359  1.00  0.00    -0.003 C 
ATOM     30  C   UNL     1      59.975  28.969  56.652  1.00  0.00     0.004 C 
ENDBRANCH  28  29
ENDBRANCH  27  28
ENDBRANCH  26  27
ENDBRANCH  25  26
ENDBRANCH  24  25
ENDBRANCH  23  24
ENDBRANCH  22  23
ENDBRANCH  21  22
ENDBRANCH  20  21
ENDBRANCH  19  20
ENDBRANCH  18  19
ENDBRANCH  17  18
ENDBRANCH   1  17
TORSDOF 26
ENDMDL
MODEL 8
REMARK VINA RESULT:    -3.057      7.991     11.689
REMARK INTER + INTRA:         -12.457
REMARK INTER:                  -6.831
REMARK INTRA:                  -5.625
REMARK UNBOUND:                -4.754
REMARK SMILES CCCCCCCCCCCCCCCCCCCCCCCCCCCC(=O)[O-]
REMARK SMILES IDX 15 1 16 2 17 3 18 4 19 5 20 6 21 7 22 8 23 9 24 10 25 11
REMARK SMILES IDX 26 12 27 13 28 14 29 15 30 16 14 17 13 18 12 19 11 20 10 21
REMARK SMILES IDX 9 22 8 23 7 24 6 25 5 26 4 27 3 28 2 29 1 30
REMARK H PARENT
REMARK Flexibility Score: inf
ROOT
ATOM      1  C   UNL     1      57.885  25.601  52.142  1.00  0.00     0.000 C 
ENDROOT
BRANCH   1   2
ATOM      2  C   UNL     1      58.700  25.461  50.850  1.00  0.00     0.000 C 
BRANCH   2   3
ATOM      3  C   UNL     1      59.955  26.344  50.890  1.00  0.00     0.000 C 
BRANCH   3   4
ATOM      4  C   UNL     1      60.013  27.269  49.668  1.00  0.00     0.000 C 
BRANCH   4   5
ATOM      5  C   UNL     1      59.941  28.744  50.089  1.00  0.00     0.000 C 
BRANCH   5   6
ATOM      6  C   UNL     1      58.485  29.210  50.214  1.00  0.00     0.000 C 
BRANCH   6   7
ATOM      7  C   UNL     1      57.997  29.281  51.671  1.00  0.00     0.000 C 
BRANCH   7   8
ATOM      8  C   UNL     1      58.871  30.175  52.578  1.00  0.00     0.000 C 
BRANCH   8   9
ATOM      9  C   UNL     1      58.842  29.716  54.046  1.00  0.00     0.000 C 
BRANCH   9  10
ATOM     10  C   UNL     1      57.837  28.581  54.296  1.00  0.00     0.000 C 
BRANCH  10  11
ATOM     11  C   UNL     1      58.243  27.673  55.467  1.00  0.00     0.000 C 
BRANCH  11  12
ATOM     12  C   UNL     1      57.173  26.603  55.729  1.00  0.00     0.006 C 
BRANCH  12  13
ATOM     13  C   UNL     1      55.750  27.141  55.519  1.00  0.00     0.053 C 
BRANCH  13  14
ATOM     14  C   UNL     1      55.086  27.475  56.819  1.00  0.00     0.041 C 
ATOM     15  O   UNL     1      53.913  27.932  56.832  1.00  0.00    -0.550 OA
ATOM     16  O   UNL     1      55.773  27.306  58.015  1.00  0.00    -0.550 OA
ENDBRANCH  13  14
ENDBRANCH  12  13
ENDBRANCH  11  12
ENDBRANCH  10  11
ENDBRANCH   9  10
ENDBRANCH   8   9
ENDBRANCH   7   8
ENDBRANCH   6   7
ENDBRANCH   5   6
ENDBRANCH   4   5
ENDBRANCH   3   4
ENDBRANCH   2   3
ENDBRANCH   1   2
BRANCH   1  17
ATOM     17  C   UNL     1      56.410  25.895  51.827  1.00  0.00     0.000 C 
BRANCH  17  18
ATOM     18  C   UNL     1      56.178  26.292  50.361  1.00  0.00     0.000 C 
BRANCH  18  19
ATOM     19  C   UNL     1      54.709  26.224  49.893  1.00  0.00     0.000 C 
BRANCH  19  20
ATOM     20  C   UNL     1      53.729  27.022  50.779  1.00  0.00     0.000 C 
BRANCH  20  21
ATOM     21  C   UNL     1      53.528  28.465  50.280  1.00  0.00     0.000 C 
BRANCH  21  22
ATOM     22  C   UNL     1      54.271  29.499  51.137  1.00  0.00    -0.000 C 
BRANCH  22  23
ATOM     23  C   UNL     1      54.589  28.979  52.552  1.00  0.00    -0.000 C 
BRANCH  23  24
ATOM     24  C   UNL     1      53.983  29.856  53.659  1.00  0.00    -0.000 C 
BRANCH  24  25
ATOM     25  C   UNL     1      53.981  31.367  53.357  1.00  0.00    -0.000 C 
BRANCH  25  26
ATOM     26  C   UNL     1      55.292  32.085  53.743  1.00  0.00    -0.000 C 
BRANCH  26  27
ATOM     27  C   UNL     1      55.879  31.553  55.061  1.00  0.00    -0.000 C 
BRANCH  27  28
ATOM     28  C   UNL     1      55.034  31.938  56.285  1.00  0.00    -0.000 C 
BRANCH  28  29
ATOM     29  C   UNL     1      55.396  31.123  57.537  1.00  0.00    -0.003 C 
ATOM     30  C   UNL     1      56.842  30.633  57.478  1.00  0.00     0.004 C 
ENDBRANCH  28  29
ENDBRANCH  27  28
ENDBRANCH  26  27
ENDBRANCH  25  26
ENDBRANCH  24  25
ENDBRANCH  23  24
ENDBRANCH  22  23
ENDBRANCH  21  22
ENDBRANCH  20  21
ENDBRANCH  19  20
ENDBRANCH  18  19
ENDBRANCH  17  18
ENDBRANCH   1  17
TORSDOF 26
ENDMDL
MODEL 9
REMARK VINA RESULT:    -3.044      7.455     11.260
REMARK INTER + INTRA:         -12.424
REMARK INTER:                  -6.400
REMARK INTRA:                  -6.025
REMARK UNBOUND:                -4.754
REMARK SMILES CCCCCCCCCCCCCCCCCCCCCCCCCCCC(=O)[O-]
REMARK SMILES IDX 15 1 16 2 17 3 18 4 19 5 20 6 21 7 22 8 23 9 24 10 25 11
REMARK SMILES IDX 26 12 27 13 28 14 29 15 30 16 14 17 13 18 12 19 11 20 10 21
REMARK SMILES IDX 9 22 8 23 7 24 6 25 5 26 4 27 3 28 2 29 1 30
REMARK H PARENT
REMARK Flexibility Score: inf
ROOT
ATOM      1  C   UNL     1      54.580  27.679  50.979  1.00  0.00     0.000 C 
ENDROOT
BRANCH   1   2
ATOM      2  C   UNL     1      55.711  26.787  50.451  1.00  0.00     0.000 C 
BRANCH   2   3
ATOM      3  C   UNL     1      56.283  25.900  51.565  1.00  0.00     0.000 C 
BRANCH   3   4
ATOM      4  C   UNL     1      57.795  25.711  51.393  1.00  0.00     0.000 C 
BRANCH   4   5
ATOM      5  C   UNL     1      58.265  26.237  50.030  1.00  0.00     0.000 C 
BRANCH   5   6
ATOM      6  C   UNL     1      59.636  26.918  50.144  1.00  0.00     0.000 C 
BRANCH   6   7
ATOM      7  C   UNL     1      59.634  28.368  49.631  1.00  0.00     0.000 C 
BRANCH   7   8
ATOM      8  C   UNL     1      58.550  29.257  50.279  1.00  0.00     0.000 C 
BRANCH   8   9
ATOM      9  C   UNL     1      58.896  29.629  51.731  1.00  0.00     0.000 C 
BRANCH   9  10
ATOM     10  C   UNL     1      57.895  29.056  52.747  1.00  0.00     0.000 C 
BRANCH  10  11
ATOM     11  C   UNL     1      58.553  28.678  54.082  1.00  0.00     0.000 C 
BRANCH  11  12
ATOM     12  C   UNL     1      57.842  27.476  54.722  1.00  0.00     0.006 C 
BRANCH  12  13
ATOM     13  C   UNL     1      56.318  27.651  54.755  1.00  0.00     0.053 C 
BRANCH  13  14
ATOM     14  C   UNL     1      55.827  27.982  56.131  1.00  0.00     0.041 C 
ATOM     15  O   UNL     1      56.541  27.730  57.136  1.00  0.00    -0.550 OA
ATOM     16  O   UNL     1      54.569  28.547  56.303  1.00  0.00    -0.550 OA
ENDBRANCH  13  14
ENDBRANCH  12  13
ENDBRANCH  11  12
ENDBRANCH  10  11
ENDBRANCH   9  10
ENDBRANCH   8   9
ENDBRANCH   7   8
ENDBRANCH   6   7
ENDBRANCH   5   6
ENDBRANCH   4   5
ENDBRANCH   3   4
ENDBRANCH   2   3
ENDBRANCH   1   2
BRANCH   1  17
ATOM     17  C   UNL     1      54.907  29.164  50.757  1.00  0.00     0.000 C 
BRANCH  17  18
ATOM     18  C   UNL     1      53.953  30.106  51.509  1.00  0.00     0.000 C 
BRANCH  18  19
ATOM     19  C   UNL     1      54.016  30.004  53.047  1.00  0.00     0.000 C 
BRANCH  19  20
ATOM     20  C   UNL     1      55.030  30.968  53.700  1.00  0.00     0.000 C 
BRANCH  20  21
ATOM     21  C   UNL     1      54.357  32.229  54.271  1.00  0.00     0.000 C 
BRANCH  21  22
ATOM     22  C   UNL     1      54.163  32.162  55.793  1.00  0.00    -0.000 C 
BRANCH  22  23
ATOM     23  C   UNL     1      54.801  33.360  56.524  1.00  0.00    -0.000 C 
BRANCH  23  24
ATOM     24  C   UNL     1      55.961  32.946  57.444  1.00  0.00    -0.000 C 
BRANCH  24  25
ATOM     25  C   UNL     1      56.339  31.454  57.375  1.00  0.00    -0.000 C 
BRANCH  25  26
ATOM     26  C   UNL     1      57.703  31.184  56.705  1.00  0.00    -0.000 C 
BRANCH  26  27
ATOM     27  C   UNL     1      58.285  32.445  56.045  1.00  0.00    -0.000 C 
BRANCH  27  28
ATOM     28  C   UNL     1      58.296  32.361  54.511  1.00  0.00    -0.000 C 
BRANCH  28  29
ATOM     29  C   UNL     1      57.840  33.667  53.840  1.00  0.00    -0.003 C 
ATOM     30  C   UNL     1      57.815  34.822  54.841  1.00  0.00     0.004 C 
ENDBRANCH  28  29
ENDBRANCH  27  28
ENDBRANCH  26  27
ENDBRANCH  25  26
ENDBRANCH  24  25
ENDBRANCH  23  24
ENDBRANCH  22  23
ENDBRANCH  21  22
ENDBRANCH  20  21
ENDBRANCH  19  20
ENDBRANCH  18  19
ENDBRANCH  17  18
ENDBRANCH   1  17
TORSDOF 26
ENDMDL
