MODEL 1
REMARK VINA RESULT:    -6.556      0.000      0.000
REMARK INTER + INTRA:         -10.431
REMARK INTER:                  -9.622
REMARK INTRA:                  -0.809
REMARK UNBOUND:                -0.809
REMARK SMILES O=c1c(O[C@H]2O[C@@H](CO)[C@H](O)[C@@H](O)[C@@H]2O)c(-c2ccc(O)c(O)c2)oc2cc(O)cc(O)c12
REMARK SMILES IDX 4 1 3 2 16 3 25 4 2 5 26 6 1 7 33 8 27 9 31 10 28 11 30 12
REMARK SMILES IDX 17 13 18 14 19 15 20 16 24 17 22 18 21 19 23 21 32 23 29 25
REMARK SMILES IDX 5 27 14 28 6 29 12 30 7 31 10 32 15 33 13 35 8 37 9 38 11 40
REMARK H PARENT 21 20 23 22 32 24 29 26 15 34 13 36 9 39 11 41
REMARK Flexibility Score: inf
ROOT
ATOM      1  O   UNL     1      12.100   0.866   0.806  1.00  0.00    -0.454 OA
ENDROOT
BRANCH   1   2
ATOM      2  C   UNL     1      11.623   1.995   0.107  1.00  0.00     0.214 A 
ATOM      3  C   UNL     1      12.265   2.530  -1.035  1.00  0.00     0.180 A 
ATOM      4  O   UNL     1      11.718   3.556  -1.687  1.00  0.00    -0.452 OA
ATOM      5  C   UNL     1      10.462   2.629   0.577  1.00  0.00     0.239 A 
ATOM      6  C   UNL     1      10.609   4.165  -1.291  1.00  0.00     0.146 A 
ATOM      7  O   UNL     1       9.924   2.227   1.645  1.00  0.00    -0.285 OA
ATOM      8  C   UNL     1       9.920   3.724  -0.136  1.00  0.00     0.111 A 
ATOM      9  C   UNL     1      10.140   5.266  -2.010  1.00  0.00     0.094 A 
ATOM     10  C   UNL     1       8.740   4.397   0.263  1.00  0.00     0.134 A 
ATOM     11  C   UNL     1       8.982   5.937  -1.612  1.00  0.00     0.123 A 
ATOM     12  C   UNL     1       8.292   5.513  -0.468  1.00  0.00     0.093 A 
BRANCH   3  13
ATOM     13  C   UNL     1      13.558   2.019  -1.516  1.00  0.00     0.025 A 
ATOM     14  C   UNL     1      13.618   0.843  -2.276  1.00  0.00     0.016 A 
ATOM     15  C   UNL     1      14.862   0.329  -2.674  1.00  0.00     0.051 A 
ATOM     16  C   UNL     1      16.048   0.993  -2.326  1.00  0.00     0.157 A 
ATOM     17  C   UNL     1      14.740   2.713  -1.209  1.00  0.00     0.062 A 
ATOM     18  C   UNL     1      15.983   2.199  -1.593  1.00  0.00     0.158 A 
BRANCH  16  19
ATOM     19  O   UNL     1      17.282   0.474  -2.729  1.00  0.00    -0.504 OA
ATOM     20  H   UNL     1      18.101   1.052  -2.887  1.00  0.00     0.293 HD
ENDBRANCH  16  19
BRANCH  18  21
ATOM     21  O   UNL     1      17.156   2.862  -1.227  1.00  0.00    -0.504 OA
ATOM     22  H   UNL     1      17.569   2.733  -0.313  1.00  0.00     0.293 HD
ENDBRANCH  18  21
ENDBRANCH   3  13
BRANCH  10  23
ATOM     23  O   UNL     1       8.015   3.972   1.370  1.00  0.00    -0.507 OA
ATOM     24  H   UNL     1       7.967   4.534   2.230  1.00  0.00     0.293 HD
ENDBRANCH  10  23
BRANCH  11  25
ATOM     25  O   UNL     1       8.513   7.020  -2.354  1.00  0.00    -0.508 OA
ATOM     26  H   UNL     1       8.882   7.949  -2.197  1.00  0.00     0.293 HD
ENDBRANCH  11  25
ENDBRANCH   1   2
BRANCH   1  27
ATOM     27  C   UNL     1      12.814   0.922   2.049  1.00  0.00     0.339 C 
ATOM     28  C   UNL     1      14.022   1.896   1.976  1.00  0.00     0.214 C 
ATOM     29  O   UNL     1      13.120  -0.405   2.485  1.00  0.00    -0.332 OA
ATOM     30  C   UNL     1      14.909   1.614   3.196  1.00  0.00     0.180 C 
ATOM     31  C   UNL     1      14.483  -0.797   2.363  1.00  0.00     0.179 C 
ATOM     32  C   UNL     1      15.486   0.186   3.073  1.00  0.00     0.177 C 
BRANCH  28  33
ATOM     33  O   UNL     1      13.598   3.245   1.925  1.00  0.00    -0.384 OA
ATOM     34  H   UNL     1      14.248   3.776   1.359  1.00  0.00     0.211 HD
ENDBRANCH  28  33
BRANCH  30  35
ATOM     35  O   UNL     1      15.936   2.565   3.342  1.00  0.00    -0.387 OA
ATOM     36  H   UNL     1      16.577   2.239   4.019  1.00  0.00     0.211 HD
ENDBRANCH  30  35
BRANCH  31  37
ATOM     37  C   UNL     1      14.863  -1.125   0.898  1.00  0.00     0.191 C 
BRANCH  37  38
ATOM     38  O   UNL     1      16.141  -0.625   0.604  1.00  0.00    -0.394 OA
ATOM     39  H   UNL     1      16.532  -1.240  -0.068  1.00  0.00     0.210 HD
ENDBRANCH  37  38
ENDBRANCH  31  37
BRANCH  32  40
ATOM     40  O   UNL     1      15.877  -0.279   4.347  1.00  0.00    -0.387 OA
ATOM     41  H   UNL     1      15.730  -1.259   4.391  1.00  0.00     0.211 HD
ENDBRANCH  32  40
ENDBRANCH   1  27
TORSDOF 12
ENDMDL
MODEL 2
REMARK VINA RESULT:    -6.153      2.227      6.300
REMARK INTER + INTRA:          -9.841
REMARK INTER:                  -9.700
REMARK INTRA:                  -0.140
REMARK UNBOUND:                -0.809
REMARK SMILES O=c1c(O[C@H]2O[C@@H](CO)[C@H](O)[C@@H](O)[C@@H]2O)c(-c2ccc(O)c(O)c2)oc2cc(O)cc(O)c12
REMARK SMILES IDX 4 1 3 2 16 3 25 4 2 5 26 6 1 7 33 8 27 9 31 10 28 11 30 12
REMARK SMILES IDX 17 13 18 14 19 15 20 16 24 17 22 18 21 19 23 21 32 23 29 25
REMARK SMILES IDX 5 27 14 28 6 29 12 30 7 31 10 32 15 33 13 35 8 37 9 38 11 40
REMARK H PARENT 21 20 23 22 32 24 29 26 15 34 13 36 9 39 11 41
REMARK Flexibility Score: inf
ROOT
ATOM      1  O   UNL     1      12.484   3.395   0.345  1.00  0.00    -0.454 OA
ENDROOT
BRANCH   1   2
ATOM      2  C   UNL     1      11.494   2.716   1.085  1.00  0.00     0.214 A 
ATOM      3  C   UNL     1      10.121   3.055   1.038  1.00  0.00     0.180 A 
ATOM      4  O   UNL     1       9.231   2.324   1.710  1.00  0.00    -0.452 OA
ATOM      5  C   UNL     1      11.892   1.663   1.923  1.00  0.00     0.239 A 
ATOM      6  C   UNL     1       9.565   1.304   2.490  1.00  0.00     0.146 A 
ATOM      7  O   UNL     1      13.120   1.402   2.052  1.00  0.00    -0.285 OA
ATOM      8  C   UNL     1      10.919   0.919   2.631  1.00  0.00     0.111 A 
ATOM      9  C   UNL     1       8.566   0.630   3.197  1.00  0.00     0.094 A 
ATOM     10  C   UNL     1      11.242  -0.171   3.474  1.00  0.00     0.134 A 
ATOM     11  C   UNL     1       8.885  -0.439   4.036  1.00  0.00     0.123 A 
ATOM     12  C   UNL     1      10.223  -0.829   4.186  1.00  0.00     0.093 A 
BRANCH   3  13
ATOM     13  C   UNL     1       9.629   4.228   0.299  1.00  0.00     0.025 A 
ATOM     14  C   UNL     1       9.666   4.251  -1.101  1.00  0.00     0.016 A 
ATOM     15  C   UNL     1       9.256   5.401  -1.794  1.00  0.00     0.051 A 
ATOM     16  C   UNL     1       8.797   6.526  -1.092  1.00  0.00     0.157 A 
ATOM     17  C   UNL     1       9.123   5.333   1.002  1.00  0.00     0.062 A 
ATOM     18  C   UNL     1       8.724   6.486   0.318  1.00  0.00     0.158 A 
BRANCH  16  19
ATOM     19  O   UNL     1       8.389   7.666  -1.791  1.00  0.00    -0.504 OA
ATOM     20  H   UNL     1       9.040   8.354  -2.154  1.00  0.00     0.293 HD
ENDBRANCH  16  19
BRANCH  18  21
ATOM     21  O   UNL     1       8.284   7.603   1.031  1.00  0.00    -0.504 OA
ATOM     22  H   UNL     1       8.936   8.277   1.408  1.00  0.00     0.293 HD
ENDBRANCH  18  21
ENDBRANCH   3  13
BRANCH  10  23
ATOM     23  O   UNL     1      12.557  -0.603   3.609  1.00  0.00    -0.507 OA
ATOM     24  H   UNL     1      13.090  -0.964   2.808  1.00  0.00     0.293 HD
ENDBRANCH  10  23
BRANCH  11  25
ATOM     25  O   UNL     1       7.875  -1.118   4.716  1.00  0.00    -0.508 OA
ATOM     26  H   UNL     1       7.367  -1.869   4.266  1.00  0.00     0.293 HD
ENDBRANCH  11  25
ENDBRANCH   1   2
BRANCH   1  27
ATOM     27  C   UNL     1      13.828   2.926   0.165  1.00  0.00     0.339 C 
ATOM     28  C   UNL     1      14.848   4.098   0.129  1.00  0.00     0.214 C 
ATOM     29  O   UNL     1      13.877   2.034  -0.952  1.00  0.00    -0.332 OA
ATOM     30  C   UNL     1      16.166   3.538  -0.420  1.00  0.00     0.180 C 
ATOM     31  C   UNL     1      14.494   2.549  -2.128  1.00  0.00     0.179 C 
ATOM     32  C   UNL     1      15.949   3.098  -1.885  1.00  0.00     0.177 C 
BRANCH  28  33
ATOM     33  O   UNL     1      15.007   4.685   1.406  1.00  0.00    -0.384 OA
ATOM     34  H   UNL     1      15.562   5.527   1.317  1.00  0.00     0.211 HD
ENDBRANCH  28  33
BRANCH  30  35
ATOM     35  O   UNL     1      17.223   4.462  -0.320  1.00  0.00    -0.387 OA
ATOM     36  H   UNL     1      17.965   4.160  -0.897  1.00  0.00     0.211 HD
ENDBRANCH  30  35
BRANCH  31  37
ATOM     37  C   UNL     1      13.571   3.539  -2.880  1.00  0.00     0.191 C 
BRANCH  37  38
ATOM     38  O   UNL     1      14.261   4.729  -3.160  1.00  0.00    -0.394 OA
ATOM     39  H   UNL     1      13.569   5.425  -3.297  1.00  0.00     0.210 HD
ENDBRANCH  37  38
ENDBRANCH  31  37
BRANCH  32  40
ATOM     40  O   UNL     1      16.940   2.161  -2.251  1.00  0.00    -0.387 OA
ATOM     41  H   UNL     1      17.705   2.242  -1.623  1.00  0.00     0.211 HD
ENDBRANCH  32  40
ENDBRANCH   1  27
TORSDOF 12
ENDMDL
MODEL 3
REMARK VINA RESULT:    -6.061      1.820      3.011
REMARK INTER + INTRA:          -9.705
REMARK INTER:                  -8.957
REMARK INTRA:                  -0.748
REMARK UNBOUND:                -0.809
REMARK SMILES O=c1c(O[C@H]2O[C@@H](CO)[C@H](O)[C@@H](O)[C@@H]2O)c(-c2ccc(O)c(O)c2)oc2cc(O)cc(O)c12
REMARK SMILES IDX 4 1 3 2 16 3 25 4 2 5 26 6 1 7 33 8 27 9 31 10 28 11 30 12
REMARK SMILES IDX 17 13 18 14 19 15 20 16 24 17 22 18 21 19 23 21 32 23 29 25
REMARK SMILES IDX 5 27 14 28 6 29 12 30 7 31 10 32 15 33 13 35 8 37 9 38 11 40
REMARK H PARENT 21 20 23 22 32 24 29 26 15 34 13 36 9 39 11 41
REMARK Flexibility Score: inf
ROOT
ATOM      1  O   UNL     1      14.950   2.759   2.191  1.00  0.00    -0.454 OA
ENDROOT
BRANCH   1   2
ATOM      2  C   UNL     1      13.905   3.124   1.316  1.00  0.00     0.214 A 
ATOM      3  C   UNL     1      13.902   2.807  -0.063  1.00  0.00     0.180 A 
ATOM      4  O   UNL     1      12.847   3.121  -0.816  1.00  0.00    -0.452 OA
ATOM      5  C   UNL     1      12.822   3.850   1.836  1.00  0.00     0.239 A 
ATOM      6  C   UNL     1      11.794   3.783  -0.356  1.00  0.00     0.146 A 
ATOM      7  O   UNL     1      12.846   4.223   3.041  1.00  0.00    -0.285 OA
ATOM      8  C   UNL     1      11.728   4.176   1.001  1.00  0.00     0.111 A 
ATOM      9  C   UNL     1      10.759   4.113  -1.234  1.00  0.00     0.094 A 
ATOM     10  C   UNL     1      10.591   4.885   1.460  1.00  0.00     0.134 A 
ATOM     11  C   UNL     1       9.641   4.820  -0.784  1.00  0.00     0.123 A 
ATOM     12  C   UNL     1       9.565   5.219   0.557  1.00  0.00     0.093 A 
BRANCH   3  13
ATOM     13  C   UNL     1      15.053   2.172  -0.723  1.00  0.00     0.025 A 
ATOM     14  C   UNL     1      16.326   2.750  -0.638  1.00  0.00     0.016 A 
ATOM     15  C   UNL     1      17.405   2.172  -1.327  1.00  0.00     0.051 A 
ATOM     16  C   UNL     1      17.218   1.010  -2.091  1.00  0.00     0.157 A 
ATOM     17  C   UNL     1      14.873   0.981  -1.446  1.00  0.00     0.062 A 
ATOM     18  C   UNL     1      15.941   0.408  -2.144  1.00  0.00     0.158 A 
BRANCH  16  19
ATOM     19  O   UNL     1      18.298   0.442  -2.772  1.00  0.00    -0.504 OA
ATOM     20  H   UNL     1      19.181   0.220  -2.322  1.00  0.00     0.293 HD
ENDBRANCH  16  19
BRANCH  18  21
ATOM     21  O   UNL     1      15.737  -0.739  -2.913  1.00  0.00    -0.504 OA
ATOM     22  H   UNL     1      15.528  -1.630  -2.483  1.00  0.00     0.293 HD
ENDBRANCH  18  21
ENDBRANCH   3  13
BRANCH  10  23
ATOM     23  O   UNL     1      10.472   5.257   2.794  1.00  0.00    -0.507 OA
ATOM     24  H   UNL     1      10.999   6.051   3.180  1.00  0.00     0.293 HD
ENDBRANCH  10  23
BRANCH  11  25
ATOM     25  O   UNL     1       8.606   5.121  -1.667  1.00  0.00    -0.508 OA
ATOM     26  H   UNL     1       7.942   5.855  -1.451  1.00  0.00     0.293 HD
ENDBRANCH  11  25
ENDBRANCH   1   2
BRANCH   1  27
ATOM     27  C   UNL     1      15.216   1.418   2.625  1.00  0.00     0.339 C 
ATOM     28  C   UNL     1      14.055   0.850   3.487  1.00  0.00     0.214 C 
ATOM     29  O   UNL     1      16.513   1.357   3.224  1.00  0.00    -0.332 OA
ATOM     30  C   UNL     1      14.581  -0.410   4.187  1.00  0.00     0.180 C 
ATOM     31  C   UNL     1      16.533   1.224   4.641  1.00  0.00     0.179 C 
ATOM     32  C   UNL     1      15.701  -0.004   5.169  1.00  0.00     0.177 C 
BRANCH  28  33
ATOM     33  O   UNL     1      12.908   0.586   2.702  1.00  0.00    -0.384 OA
ATOM     34  H   UNL     1      12.153   1.190   3.003  1.00  0.00     0.211 HD
ENDBRANCH  28  33
BRANCH  30  35
ATOM     35  O   UNL     1      13.561  -1.121   4.846  1.00  0.00    -0.387 OA
ATOM     36  H   UNL     1      12.925  -0.476   5.238  1.00  0.00     0.211 HD
ENDBRANCH  30  35
BRANCH  31  37
ATOM     37  C   UNL     1      16.199   2.557   5.354  1.00  0.00     0.191 C 
BRANCH  37  38
ATOM     38  O   UNL     1      17.305   3.004   6.093  1.00  0.00    -0.394 OA
ATOM     39  H   UNL     1      17.883   3.497   5.457  1.00  0.00     0.210 HD
ENDBRANCH  37  38
ENDBRANCH  31  37
BRANCH  32  40
ATOM     40  O   UNL     1      16.517  -1.122   5.446  1.00  0.00    -0.387 OA
ATOM     41  H   UNL     1      15.939  -1.919   5.568  1.00  0.00     0.211 HD
ENDBRANCH  32  40
ENDBRANCH   1  27
TORSDOF 12
ENDMDL
MODEL 4
REMARK VINA RESULT:    -6.004      1.902      4.931
REMARK INTER + INTRA:          -9.621
REMARK INTER:                  -8.806
REMARK INTRA:                  -0.815
REMARK UNBOUND:                -0.809
REMARK SMILES O=c1c(O[C@H]2O[C@@H](CO)[C@H](O)[C@@H](O)[C@@H]2O)c(-c2ccc(O)c(O)c2)oc2cc(O)cc(O)c12
REMARK SMILES IDX 4 1 3 2 16 3 25 4 2 5 26 6 1 7 33 8 27 9 31 10 28 11 30 12
REMARK SMILES IDX 17 13 18 14 19 15 20 16 24 17 22 18 21 19 23 21 32 23 29 25
REMARK SMILES IDX 5 27 14 28 6 29 12 30 7 31 10 32 15 33 13 35 8 37 9 38 11 40
REMARK H PARENT 21 20 23 22 32 24 29 26 15 34 13 36 9 39 11 41
REMARK Flexibility Score: inf
ROOT
ATOM      1  O   UNL     1      14.317   0.254   0.429  1.00  0.00    -0.454 OA
ENDROOT
BRANCH   1   2
ATOM      2  C   UNL     1      13.564   1.318   0.971  1.00  0.00     0.214 A 
ATOM      3  C   UNL     1      13.638   1.706   2.330  1.00  0.00     0.180 A 
ATOM      4  O   UNL     1      12.952   2.767   2.757  1.00  0.00    -0.452 OA
ATOM      5  C   UNL     1      12.687   2.014   0.124  1.00  0.00     0.239 A 
ATOM      6  C   UNL     1      12.134   3.467   1.982  1.00  0.00     0.146 A 
ATOM      7  O   UNL     1      12.536   1.627  -1.067  1.00  0.00    -0.285 OA
ATOM      8  C   UNL     1      11.966   3.126   0.619  1.00  0.00     0.111 A 
ATOM      9  C   UNL     1      11.416   4.531   2.533  1.00  0.00     0.094 A 
ATOM     10  C   UNL     1      11.083   3.891  -0.180  1.00  0.00     0.134 A 
ATOM     11  C   UNL     1      10.537   5.280   1.748  1.00  0.00     0.123 A 
ATOM     12  C   UNL     1      10.360   4.950   0.397  1.00  0.00     0.093 A 
BRANCH   3  13
ATOM     13  C   UNL     1      14.421   0.950   3.319  1.00  0.00     0.025 A 
ATOM     14  C   UNL     1      14.030  -0.341   3.696  1.00  0.00     0.016 A 
ATOM     15  C   UNL     1      14.746  -1.028   4.690  1.00  0.00     0.051 A 
ATOM     16  C   UNL     1      15.861  -0.432   5.299  1.00  0.00     0.157 A 
ATOM     17  C   UNL     1      15.566   1.528   3.891  1.00  0.00     0.062 A 
ATOM     18  C   UNL     1      16.276   0.854   4.890  1.00  0.00     0.158 A 
BRANCH  16  19
ATOM     19  O   UNL     1      16.568  -1.125   6.286  1.00  0.00    -0.504 OA
ATOM     20  H   UNL     1      17.444  -0.792   6.677  1.00  0.00     0.293 HD
ENDBRANCH  16  19
BRANCH  18  21
ATOM     21  O   UNL     1      17.375   1.465   5.498  1.00  0.00    -0.504 OA
ATOM     22  H   UNL     1      17.526   2.462   5.432  1.00  0.00     0.293 HD
ENDBRANCH  18  21
ENDBRANCH   3  13
BRANCH  10  23
ATOM     23  O   UNL     1      10.918   3.610  -1.531  1.00  0.00    -0.507 OA
ATOM     24  H   UNL     1      11.175   2.696  -1.926  1.00  0.00     0.293 HD
ENDBRANCH  10  23
BRANCH  11  25
ATOM     25  O   UNL     1       9.846   6.354   2.306  1.00  0.00    -0.508 OA
ATOM     26  H   UNL     1       9.353   7.012   1.715  1.00  0.00     0.293 HD
ENDBRANCH  11  25
ENDBRANCH   1   2
BRANCH   1  27
ATOM     27  C   UNL     1      15.703   0.341   0.070  1.00  0.00     0.339 C 
ATOM     28  C   UNL     1      16.107   1.788  -0.324  1.00  0.00     0.214 C 
ATOM     29  O   UNL     1      16.010  -0.668  -0.897  1.00  0.00    -0.332 OA
ATOM     30  C   UNL     1      17.470   1.706  -1.024  1.00  0.00     0.180 C 
ATOM     31  C   UNL     1      16.213  -0.206  -2.229  1.00  0.00     0.179 C 
ATOM     32  C   UNL     1      17.306   0.920  -2.344  1.00  0.00     0.177 C 
BRANCH  28  33
ATOM     33  O   UNL     1      16.136   2.642   0.803  1.00  0.00    -0.384 OA
ATOM     34  H   UNL     1      15.498   3.414   0.651  1.00  0.00     0.211 HD
ENDBRANCH  28  33
BRANCH  30  35
ATOM     35  O   UNL     1      18.029   2.976  -1.257  1.00  0.00    -0.387 OA
ATOM     36  H   UNL     1      17.521   3.421  -1.977  1.00  0.00     0.211 HD
ENDBRANCH  30  35
BRANCH  31  37
ATOM     37  C   UNL     1      14.878   0.146  -2.929  1.00  0.00     0.191 C 
BRANCH  37  38
ATOM     38  O   UNL     1      13.804  -0.468  -2.265  1.00  0.00    -0.394 OA
ATOM     39  H   UNL     1      13.019  -0.380  -2.865  1.00  0.00     0.210 HD
ENDBRANCH  37  38
ENDBRANCH  31  37
BRANCH  32  40
ATOM     40  O   UNL     1      18.557   0.409  -2.750  1.00  0.00    -0.387 OA
ATOM     41  H   UNL     1      18.733  -0.436  -2.262  1.00  0.00     0.211 HD
ENDBRANCH  32  40
ENDBRANCH   1  27
TORSDOF 12
ENDMDL
MODEL 5
REMARK VINA RESULT:    -5.893      1.726      2.381
REMARK INTER + INTRA:          -9.458
REMARK INTER:                  -9.149
REMARK INTRA:                  -0.309
REMARK UNBOUND:                -0.809
REMARK SMILES O=c1c(O[C@H]2O[C@@H](CO)[C@H](O)[C@@H](O)[C@@H]2O)c(-c2ccc(O)c(O)c2)oc2cc(O)cc(O)c12
REMARK SMILES IDX 4 1 3 2 16 3 25 4 2 5 26 6 1 7 33 8 27 9 31 10 28 11 30 12
REMARK SMILES IDX 17 13 18 14 19 15 20 16 24 17 22 18 21 19 23 21 32 23 29 25
REMARK SMILES IDX 5 27 14 28 6 29 12 30 7 31 10 32 15 33 13 35 8 37 9 38 11 40
REMARK H PARENT 21 20 23 22 32 24 29 26 15 34 13 36 9 39 11 41
REMARK Flexibility Score: inf
ROOT
ATOM      1  O   UNL     1      11.279   3.080   1.539  1.00  0.00    -0.454 OA
ENDROOT
BRANCH   1   2
ATOM      2  C   UNL     1      10.849   3.944   0.509  1.00  0.00     0.214 A 
ATOM      3  C   UNL     1      11.082   3.692  -0.863  1.00  0.00     0.180 A 
ATOM      4  O   UNL     1      10.585   4.517  -1.785  1.00  0.00    -0.452 OA
ATOM      5  C   UNL     1      10.169   5.119   0.866  1.00  0.00     0.239 A 
ATOM      6  C   UNL     1       9.915   5.622  -1.490  1.00  0.00     0.146 A 
ATOM      7  O   UNL     1      10.030   5.411   2.085  1.00  0.00    -0.285 OA
ATOM      8  C   UNL     1       9.668   5.976  -0.142  1.00  0.00     0.111 A 
ATOM      9  C   UNL     1       9.477   6.453  -2.524  1.00  0.00     0.094 A 
ATOM     10  C   UNL     1       8.952   7.164   0.139  1.00  0.00     0.134 A 
ATOM     11  C   UNL     1       8.779   7.630  -2.247  1.00  0.00     0.123 A 
ATOM     12  C   UNL     1       8.531   7.993  -0.916  1.00  0.00     0.093 A 
BRANCH   3  13
ATOM     13  C   UNL     1      11.903   2.562  -1.323  1.00  0.00     0.025 A 
ATOM     14  C   UNL     1      11.321   1.308  -1.549  1.00  0.00     0.016 A 
ATOM     15  C   UNL     1      12.125   0.219  -1.924  1.00  0.00     0.051 A 
ATOM     16  C   UNL     1      13.509   0.383  -2.085  1.00  0.00     0.157 A 
ATOM     17  C   UNL     1      13.281   2.740  -1.533  1.00  0.00     0.062 A 
ATOM     18  C   UNL     1      14.088   1.657  -1.894  1.00  0.00     0.158 A 
BRANCH  16  19
ATOM     19  O   UNL     1      14.300  -0.707  -2.460  1.00  0.00    -0.504 OA
ATOM     20  H   UNL     1      14.841  -0.729  -3.319  1.00  0.00     0.293 HD
ENDBRANCH  16  19
BRANCH  18  21
ATOM     21  O   UNL     1      15.466   1.830  -2.037  1.00  0.00    -0.504 OA
ATOM     22  H   UNL     1      16.075   1.052  -2.251  1.00  0.00     0.293 HD
ENDBRANCH  18  21
ENDBRANCH   3  13
BRANCH  10  23
ATOM     23  O   UNL     1       8.658   7.527   1.449  1.00  0.00    -0.507 OA
ATOM     24  H   UNL     1       7.837   7.152   1.940  1.00  0.00     0.293 HD
ENDBRANCH  10  23
BRANCH  11  25
ATOM     25  O   UNL     1       8.328   8.435  -3.291  1.00  0.00    -0.508 OA
ATOM     26  H   UNL     1       8.380   9.444  -3.223  1.00  0.00     0.293 HD
ENDBRANCH  11  25
ENDBRANCH   1   2
BRANCH   1  27
ATOM     27  C   UNL     1      12.505   3.233   2.268  1.00  0.00     0.339 C 
ATOM     28  C   UNL     1      13.692   3.590   1.331  1.00  0.00     0.214 C 
ATOM     29  O   UNL     1      12.706   2.094   3.109  1.00  0.00    -0.332 OA
ATOM     30  C   UNL     1      14.984   3.374   2.130  1.00  0.00     0.180 C 
ATOM     31  C   UNL     1      13.721   1.187   2.690  1.00  0.00     0.179 C 
ATOM     32  C   UNL     1      15.120   1.871   2.462  1.00  0.00     0.177 C 
BRANCH  28  33
ATOM     33  O   UNL     1      13.584   4.910   0.838  1.00  0.00    -0.384 OA
ATOM     34  H   UNL     1      13.491   5.549   1.617  1.00  0.00     0.211 HD
ENDBRANCH  28  33
BRANCH  30  35
ATOM     35  O   UNL     1      16.120   3.847   1.449  1.00  0.00    -0.387 OA
ATOM     36  H   UNL     1      15.826   4.388   0.677  1.00  0.00     0.211 HD
ENDBRANCH  30  35
BRANCH  31  37
ATOM     37  C   UNL     1      13.256   0.307   1.504  1.00  0.00     0.191 C 
BRANCH  37  38
ATOM     38  O   UNL     1      11.889   0.012   1.623  1.00  0.00    -0.394 OA
ATOM     39  H   UNL     1      11.531  -0.028   0.700  1.00  0.00     0.210 HD
ENDBRANCH  37  38
ENDBRANCH  31  37
BRANCH  32  40
ATOM     40  O   UNL     1      15.981   1.705   3.568  1.00  0.00    -0.387 OA
ATOM     41  H   UNL     1      15.904   0.773   3.899  1.00  0.00     0.211 HD
ENDBRANCH  32  40
ENDBRANCH   1  27
TORSDOF 12
ENDMDL
MODEL 6
REMARK VINA RESULT:    -5.770      1.458      2.471
REMARK INTER + INTRA:          -9.278
REMARK INTER:                  -9.809
REMARK INTRA:                   0.531
REMARK UNBOUND:                -0.809
REMARK SMILES O=c1c(O[C@H]2O[C@@H](CO)[C@H](O)[C@@H](O)[C@@H]2O)c(-c2ccc(O)c(O)c2)oc2cc(O)cc(O)c12
REMARK SMILES IDX 4 1 3 2 16 3 25 4 2 5 26 6 1 7 33 8 27 9 31 10 28 11 30 12
REMARK SMILES IDX 17 13 18 14 19 15 20 16 24 17 22 18 21 19 23 21 32 23 29 25
REMARK SMILES IDX 5 27 14 28 6 29 12 30 7 31 10 32 15 33 13 35 8 37 9 38 11 40
REMARK H PARENT 21 20 23 22 32 24 29 26 15 34 13 36 9 39 11 41
REMARK Flexibility Score: inf
ROOT
ATOM      1  O   UNL     1      13.883  -0.137   1.186  1.00  0.00    -0.454 OA
ENDROOT
BRANCH   1   2
ATOM      2  C   UNL     1      13.177   0.972   0.673  1.00  0.00     0.214 A 
ATOM      3  C   UNL     1      13.537   1.634  -0.525  1.00  0.00     0.180 A 
ATOM      4  O   UNL     1      12.782   2.631  -0.987  1.00  0.00    -0.452 OA
ATOM      5  C   UNL     1      12.072   1.451   1.394  1.00  0.00     0.239 A 
ATOM      6  C   UNL     1      11.716   3.095  -0.349  1.00  0.00     0.146 A 
ATOM      7  O   UNL     1      11.788   0.936   2.510  1.00  0.00    -0.285 OA
ATOM      8  C   UNL     1      11.304   2.521   0.876  1.00  0.00     0.111 A 
ATOM      9  C   UNL     1      11.017   4.179  -0.886  1.00  0.00     0.094 A 
ATOM     10  C   UNL     1      10.164   3.041   1.534  1.00  0.00     0.134 A 
ATOM     11  C   UNL     1       9.898   4.700  -0.233  1.00  0.00     0.123 A 
ATOM     12  C   UNL     1       9.482   4.141   0.983  1.00  0.00     0.093 A 
BRANCH   3  13
ATOM     13  C   UNL     1      14.757   1.291  -1.272  1.00  0.00     0.025 A 
ATOM     14  C   UNL     1      14.738   0.268  -2.229  1.00  0.00     0.016 A 
ATOM     15  C   UNL     1      15.923  -0.096  -2.889  1.00  0.00     0.051 A 
ATOM     16  C   UNL     1      17.126   0.570  -2.605  1.00  0.00     0.157 A 
ATOM     17  C   UNL     1      15.948   1.992  -1.022  1.00  0.00     0.062 A 
ATOM     18  C   UNL     1      17.134   1.626  -1.667  1.00  0.00     0.158 A 
BRANCH  16  19
ATOM     19  O   UNL     1      18.299   0.201  -3.268  1.00  0.00    -0.504 OA
ATOM     20  H   UNL     1      19.120  -0.153  -2.787  1.00  0.00     0.293 HD
ENDBRANCH  16  19
BRANCH  18  21
ATOM     21  O   UNL     1      18.326   2.286  -1.364  1.00  0.00    -0.504 OA
ATOM     22  H   UNL     1      18.493   2.674  -0.445  1.00  0.00     0.293 HD
ENDBRANCH  18  21
ENDBRANCH   3  13
BRANCH  10  23
ATOM     23  O   UNL     1       9.706   2.481   2.721  1.00  0.00    -0.507 OA
ATOM     24  H   UNL     1       8.761   2.672   3.077  1.00  0.00     0.293 HD
ENDBRANCH  10  23
BRANCH  11  25
ATOM     25  O   UNL     1       9.197   5.766  -0.794  1.00  0.00    -0.508 OA
ATOM     26  H   UNL     1       8.188   5.810  -0.728  1.00  0.00     0.293 HD
ENDBRANCH  11  25
ENDBRANCH   1   2
BRANCH   1  27
ATOM     27  C   UNL     1      14.893  -0.058   2.201  1.00  0.00     0.339 C 
ATOM     28  C   UNL     1      14.276   0.080   3.620  1.00  0.00     0.214 C 
ATOM     29  O   UNL     1      15.849   0.946   1.846  1.00  0.00    -0.332 OA
ATOM     30  C   UNL     1      15.401   0.517   4.566  1.00  0.00     0.180 C 
ATOM     31  C   UNL     1      15.787   2.152   2.600  1.00  0.00     0.179 C 
ATOM     32  C   UNL     1      15.879   1.927   4.155  1.00  0.00     0.177 C 
BRANCH  28  33
ATOM     33  O   UNL     1      13.664  -1.125   4.038  1.00  0.00    -0.384 OA
ATOM     34  H   UNL     1      14.152  -1.907   3.618  1.00  0.00     0.211 HD
ENDBRANCH  28  33
BRANCH  30  35
ATOM     35  O   UNL     1      15.006   0.489   5.917  1.00  0.00    -0.387 OA
ATOM     36  H   UNL     1      15.483   1.204   6.402  1.00  0.00     0.211 HD
ENDBRANCH  30  35
BRANCH  31  37
ATOM     37  C   UNL     1      14.597   3.045   2.169  1.00  0.00     0.191 C 
BRANCH  37  38
ATOM     38  O   UNL     1      15.066   4.241   1.605  1.00  0.00    -0.394 OA
ATOM     39  H   UNL     1      15.883   4.486   2.112  1.00  0.00     0.210 HD
ENDBRANCH  37  38
ENDBRANCH  31  37
BRANCH  32  40
ATOM     40  O   UNL     1      17.183   2.149   4.649  1.00  0.00    -0.387 OA
ATOM     41  H   UNL     1      17.394   3.116   4.578  1.00  0.00     0.211 HD
ENDBRANCH  32  40
ENDBRANCH   1  27
TORSDOF 12
ENDMDL
MODEL 7
REMARK VINA RESULT:    -5.766      1.962      6.008
REMARK INTER + INTRA:          -9.272
REMARK INTER:                  -9.046
REMARK INTRA:                  -0.226
REMARK UNBOUND:                -0.809
REMARK SMILES O=c1c(O[C@H]2O[C@@H](CO)[C@H](O)[C@@H](O)[C@@H]2O)c(-c2ccc(O)c(O)c2)oc2cc(O)cc(O)c12
REMARK SMILES IDX 4 1 3 2 16 3 25 4 2 5 26 6 1 7 33 8 27 9 31 10 28 11 30 12
REMARK SMILES IDX 17 13 18 14 19 15 20 16 24 17 22 18 21 19 23 21 32 23 29 25
REMARK SMILES IDX 5 27 14 28 6 29 12 30 7 31 10 32 15 33 13 35 8 37 9 38 11 40
REMARK H PARENT 21 20 23 22 32 24 29 26 15 34 13 36 9 39 11 41
REMARK Flexibility Score: inf
ROOT
ATOM      1  O   UNL     1      12.959   3.749   0.251  1.00  0.00    -0.454 OA
ENDROOT
BRANCH   1   2
ATOM      2  C   UNL     1      11.888   3.001   0.783  1.00  0.00     0.214 A 
ATOM      3  C   UNL     1      10.529   3.290   0.513  1.00  0.00     0.180 A 
ATOM      4  O   UNL     1       9.571   2.497   0.994  1.00  0.00    -0.452 OA
ATOM      5  C   UNL     1      12.184   1.926   1.636  1.00  0.00     0.239 A 
ATOM      6  C   UNL     1       9.811   1.457   1.780  1.00  0.00     0.146 A 
ATOM      7  O   UNL     1      13.381   1.705   1.964  1.00  0.00    -0.285 OA
ATOM      8  C   UNL     1      11.138   1.115   2.136  1.00  0.00     0.111 A 
ATOM      9  C   UNL     1       8.738   0.715   2.278  1.00  0.00     0.094 A 
ATOM     10  C   UNL     1      11.360   0.001   2.980  1.00  0.00     0.134 A 
ATOM     11  C   UNL     1       8.956  -0.379   3.118  1.00  0.00     0.123 A 
ATOM     12  C   UNL     1      10.265  -0.726   3.481  1.00  0.00     0.093 A 
BRANCH   3  13
ATOM     13  C   UNL     1      10.119   4.477  -0.253  1.00  0.00     0.025 A 
ATOM     14  C   UNL     1      10.218   4.487  -1.651  1.00  0.00     0.016 A 
ATOM     15  C   UNL     1       9.886   5.648  -2.369  1.00  0.00     0.051 A 
ATOM     16  C   UNL     1       9.445   6.796  -1.694  1.00  0.00     0.157 A 
ATOM     17  C   UNL     1       9.631   5.608   0.420  1.00  0.00     0.062 A 
ATOM     18  C   UNL     1       9.311   6.771  -0.288  1.00  0.00     0.158 A 
BRANCH  16  19
ATOM     19  O   UNL     1       9.116   7.946  -2.417  1.00  0.00    -0.504 OA
ATOM     20  H   UNL     1       9.061   7.966  -3.431  1.00  0.00     0.293 HD
ENDBRANCH  16  19
BRANCH  18  21
ATOM     21  O   UNL     1       8.887   7.911   0.398  1.00  0.00    -0.504 OA
ATOM     22  H   UNL     1       9.239   8.829   0.159  1.00  0.00     0.293 HD
ENDBRANCH  18  21
ENDBRANCH   3  13
BRANCH  10  23
ATOM     23  O   UNL     1      12.650  -0.388   3.323  1.00  0.00    -0.507 OA
ATOM     24  H   UNL     1      13.377  -0.530   2.610  1.00  0.00     0.293 HD
ENDBRANCH  10  23
BRANCH  11  25
ATOM     25  O   UNL     1       7.876  -1.124   3.587  1.00  0.00    -0.508 OA
ATOM     26  H   UNL     1       7.179  -1.482   2.945  1.00  0.00     0.293 HD
ENDBRANCH  11  25
ENDBRANCH   1   2
BRANCH   1  27
ATOM     27  C   UNL     1      13.753   3.343  -0.873  1.00  0.00     0.339 C 
ATOM     28  C   UNL     1      13.575   1.832  -1.189  1.00  0.00     0.214 C 
ATOM     29  O   UNL     1      15.104   3.776  -0.685  1.00  0.00    -0.332 OA
ATOM     30  C   UNL     1      14.709   1.428  -2.140  1.00  0.00     0.180 C 
ATOM     31  C   UNL     1      16.042   2.754  -0.363  1.00  0.00     0.179 C 
ATOM     32  C   UNL     1      16.056   1.567  -1.396  1.00  0.00     0.177 C 
BRANCH  28  33
ATOM     33  O   UNL     1      12.298   1.565  -1.737  1.00  0.00    -0.384 OA
ATOM     34  H   UNL     1      12.377   1.496  -2.744  1.00  0.00     0.211 HD
ENDBRANCH  28  33
BRANCH  30  35
ATOM     35  O   UNL     1      14.543   0.127  -2.650  1.00  0.00    -0.387 OA
ATOM     36  H   UNL     1      15.254  -0.049  -3.311  1.00  0.00     0.211 HD
ENDBRANCH  30  35
BRANCH  31  37
ATOM     37  C   UNL     1      15.918   2.297   1.111  1.00  0.00     0.191 C 
BRANCH  37  38
ATOM     38  O   UNL     1      15.714   3.405   1.948  1.00  0.00    -0.394 OA
ATOM     39  H   UNL     1      14.872   3.229   2.442  1.00  0.00     0.210 HD
ENDBRANCH  37  38
ENDBRANCH  31  37
BRANCH  32  40
ATOM     40  O   UNL     1      17.105   1.687  -2.333  1.00  0.00    -0.387 OA
ATOM     41  H   UNL     1      16.779   2.205  -3.115  1.00  0.00     0.211 HD
ENDBRANCH  32  40
ENDBRANCH   1  27
TORSDOF 12
ENDMDL
MODEL 8
REMARK VINA RESULT:    -5.631      1.977      6.347
REMARK INTER + INTRA:          -9.074
REMARK INTER:                  -9.033
REMARK INTRA:                  -0.041
REMARK UNBOUND:                -0.809
REMARK SMILES O=c1c(O[C@H]2O[C@@H](CO)[C@H](O)[C@@H](O)[C@@H]2O)c(-c2ccc(O)c(O)c2)oc2cc(O)cc(O)c12
REMARK SMILES IDX 4 1 3 2 16 3 25 4 2 5 26 6 1 7 33 8 27 9 31 10 28 11 30 12
REMARK SMILES IDX 17 13 18 14 19 15 20 16 24 17 22 18 21 19 23 21 32 23 29 25
REMARK SMILES IDX 5 27 14 28 6 29 12 30 7 31 10 32 15 33 13 35 8 37 9 38 11 40
REMARK H PARENT 21 20 23 22 32 24 29 26 15 34 13 36 9 39 11 41
REMARK Flexibility Score: inf
ROOT
ATOM      1  O   UNL     1      10.524   1.307  -1.116  1.00  0.00    -0.454 OA
ENDROOT
BRANCH   1   2
ATOM      2  C   UNL     1      11.874   1.718  -1.093  1.00  0.00     0.214 A 
ATOM      3  C   UNL     1      12.286   3.003  -0.667  1.00  0.00     0.180 A 
ATOM      4  O   UNL     1      13.585   3.298  -0.604  1.00  0.00    -0.452 OA
ATOM      5  C   UNL     1      12.854   0.813  -1.530  1.00  0.00     0.239 A 
ATOM      6  C   UNL     1      14.542   2.462  -0.982  1.00  0.00     0.146 A 
ATOM      7  O   UNL     1      12.504  -0.303  -2.000  1.00  0.00    -0.285 OA
ATOM      8  C   UNL     1      14.222   1.170  -1.460  1.00  0.00     0.111 A 
ATOM      9  C   UNL     1      15.874   2.881  -0.930  1.00  0.00     0.094 A 
ATOM     10  C   UNL     1      15.267   0.302  -1.859  1.00  0.00     0.134 A 
ATOM     11  C   UNL     1      16.905   2.029  -1.331  1.00  0.00     0.123 A 
ATOM     12  C   UNL     1      16.600   0.747  -1.810  1.00  0.00     0.093 A 
BRANCH   3  13
ATOM     13  C   UNL     1      11.323   4.060  -0.325  1.00  0.00     0.025 A 
ATOM     14  C   UNL     1      11.258   4.566   0.980  1.00  0.00     0.016 A 
ATOM     15  C   UNL     1      10.291   5.528   1.312  1.00  0.00     0.051 A 
ATOM     16  C   UNL     1       9.394   5.996   0.339  1.00  0.00     0.157 A 
ATOM     17  C   UNL     1      10.460   4.564  -1.312  1.00  0.00     0.062 A 
ATOM     18  C   UNL     1       9.486   5.513  -0.985  1.00  0.00     0.158 A 
BRANCH  16  19
ATOM     19  O   UNL     1       8.436   6.955   0.679  1.00  0.00    -0.504 OA
ATOM     20  H   UNL     1       7.861   7.432  -0.009  1.00  0.00     0.293 HD
ENDBRANCH  16  19
BRANCH  18  21
ATOM     21  O   UNL     1       8.591   5.959  -1.959  1.00  0.00    -0.504 OA
ATOM     22  H   UNL     1       8.518   5.499  -2.856  1.00  0.00     0.293 HD
ENDBRANCH  18  21
ENDBRANCH   3  13
BRANCH  10  23
ATOM     23  O   UNL     1      14.995  -0.988  -2.300  1.00  0.00    -0.507 OA
ATOM     24  H   UNL     1      14.475  -1.657  -1.717  1.00  0.00     0.293 HD
ENDBRANCH  10  23
BRANCH  11  25
ATOM     25  O   UNL     1      18.230   2.453  -1.251  1.00  0.00    -0.508 OA
ATOM     26  H   UNL     1      18.977   1.783  -1.111  1.00  0.00     0.293 HD
ENDBRANCH  11  25
ENDBRANCH   1   2
BRANCH   1  27
ATOM     27  C   UNL     1       9.876   0.590  -0.056  1.00  0.00     0.339 C 
ATOM     28  C   UNL     1       9.177   1.551   0.946  1.00  0.00     0.214 C 
ATOM     29  O   UNL     1      10.794  -0.340   0.524  1.00  0.00    -0.332 OA
ATOM     30  C   UNL     1       8.841   0.735   2.201  1.00  0.00     0.180 C 
ATOM     31  C   UNL     1      11.291   0.003   1.814  1.00  0.00     0.179 C 
ATOM     32  C   UNL     1      10.158   0.283   2.869  1.00  0.00     0.177 C 
BRANCH  28  33
ATOM     33  O   UNL     1       8.030   2.149   0.375  1.00  0.00    -0.384 OA
ATOM     34  H   UNL     1       7.239   2.004   0.990  1.00  0.00     0.211 HD
ENDBRANCH  28  33
BRANCH  30  35
ATOM     35  O   UNL     1       8.033   1.450   3.104  1.00  0.00    -0.387 OA
ATOM     36  H   UNL     1       8.434   1.393   4.004  1.00  0.00     0.211 HD
ENDBRANCH  30  35
BRANCH  31  37
ATOM     37  C   UNL     1      12.366   1.116   1.743  1.00  0.00     0.191 C 
BRANCH  37  38
ATOM     38  O   UNL     1      13.644   0.569   1.939  1.00  0.00    -0.394 OA
ATOM     39  H   UNL     1      13.880   0.104   1.096  1.00  0.00     0.210 HD
ENDBRANCH  37  38
ENDBRANCH  31  37
BRANCH  32  40
ATOM     40  O   UNL     1       9.911  -0.835   3.696  1.00  0.00    -0.387 OA
ATOM     41  H   UNL     1      10.553  -0.822   4.453  1.00  0.00     0.211 HD
ENDBRANCH  32  40
ENDBRANCH   1  27
TORSDOF 12
ENDMDL
MODEL 9
REMARK VINA RESULT:    -5.392      1.876      3.346
REMARK INTER + INTRA:          -8.724
REMARK INTER:                  -8.765
REMARK INTRA:                   0.041
REMARK UNBOUND:                -0.809
REMARK SMILES O=c1c(O[C@H]2O[C@@H](CO)[C@H](O)[C@@H](O)[C@@H]2O)c(-c2ccc(O)c(O)c2)oc2cc(O)cc(O)c12
REMARK SMILES IDX 4 1 3 2 16 3 25 4 2 5 26 6 1 7 33 8 27 9 31 10 28 11 30 12
REMARK SMILES IDX 17 13 18 14 19 15 20 16 24 17 22 18 21 19 23 21 32 23 29 25
REMARK SMILES IDX 5 27 14 28 6 29 12 30 7 31 10 32 15 33 13 35 8 37 9 38 11 40
REMARK H PARENT 21 20 23 22 32 24 29 26 15 34 13 36 9 39 11 41
REMARK Flexibility Score: inf
ROOT
ATOM      1  O   UNL     1      12.315   3.622   1.613  1.00  0.00    -0.454 OA
ENDROOT
BRANCH   1   2
ATOM      2  C   UNL     1      11.637   4.226   0.532  1.00  0.00     0.214 A 
ATOM      3  C   UNL     1      11.872   3.883  -0.820  1.00  0.00     0.180 A 
ATOM      4  O   UNL     1      11.144   4.444  -1.785  1.00  0.00    -0.452 OA
ATOM      5  C   UNL     1      10.695   5.228   0.813  1.00  0.00     0.239 A 
ATOM      6  C   UNL     1      10.226   5.374  -1.560  1.00  0.00     0.146 A 
ATOM      7  O   UNL     1      10.535   5.616   2.002  1.00  0.00    -0.285 OA
ATOM      8  C   UNL     1       9.952   5.810  -0.242  1.00  0.00     0.111 A 
ATOM      9  C   UNL     1       9.549   5.943  -2.641  1.00  0.00     0.094 A 
ATOM     10  C   UNL     1       8.968   6.807  -0.035  1.00  0.00     0.134 A 
ATOM     11  C   UNL     1       8.586   6.933  -2.439  1.00  0.00     0.123 A 
ATOM     12  C   UNL     1       8.308   7.376  -1.138  1.00  0.00     0.093 A 
BRANCH   3  13
ATOM     13  C   UNL     1      12.935   2.947  -1.217  1.00  0.00     0.025 A 
ATOM     14  C   UNL     1      12.624   1.624  -1.559  1.00  0.00     0.016 A 
ATOM     15  C   UNL     1      13.653   0.721  -1.872  1.00  0.00     0.051 A 
ATOM     16  C   UNL     1      14.993   1.140  -1.856  1.00  0.00     0.157 A 
ATOM     17  C   UNL     1      14.270   3.381  -1.249  1.00  0.00     0.062 A 
ATOM     18  C   UNL     1      15.300   2.483  -1.548  1.00  0.00     0.158 A 
BRANCH  16  19
ATOM     19  O   UNL     1      16.009   0.233  -2.170  1.00  0.00    -0.504 OA
ATOM     20  H   UNL     1      16.995   0.470  -2.127  1.00  0.00     0.293 HD
ENDBRANCH  16  19
BRANCH  18  21
ATOM     21  O   UNL     1      16.630   2.909  -1.513  1.00  0.00    -0.504 OA
ATOM     22  H   UNL     1      16.913   3.782  -1.936  1.00  0.00     0.293 HD
ENDBRANCH  18  21
ENDBRANCH   3  13
BRANCH  10  23
ATOM     23  O   UNL     1       8.645   7.235   1.248  1.00  0.00    -0.507 OA
ATOM     24  H   UNL     1       7.977   6.718   1.835  1.00  0.00     0.293 HD
ENDBRANCH  10  23
BRANCH  11  25
ATOM     25  O   UNL     1       7.903   7.474  -3.527  1.00  0.00    -0.508 OA
ATOM     26  H   UNL     1       7.259   6.906  -4.064  1.00  0.00     0.293 HD
ENDBRANCH  11  25
ENDBRANCH   1   2
BRANCH   1  27
ATOM     27  C   UNL     1      11.749   2.618   2.467  1.00  0.00     0.339 C 
ATOM     28  C   UNL     1      12.295   1.203   2.134  1.00  0.00     0.214 C 
ATOM     29  O   UNL     1      10.324   2.742   2.471  1.00  0.00    -0.332 OA
ATOM     30  C   UNL     1      11.382   0.186   2.831  1.00  0.00     0.180 C 
ATOM     31  C   UNL     1       9.614   1.736   1.755  1.00  0.00     0.179 C 
ATOM     32  C   UNL     1       9.972   0.272   2.207  1.00  0.00     0.177 C 
BRANCH  28  33
ATOM     33  O   UNL     1      13.647   1.064   2.527  1.00  0.00    -0.384 OA
ATOM     34  H   UNL     1      13.745   0.228   3.089  1.00  0.00     0.211 HD
ENDBRANCH  28  33
BRANCH  30  35
ATOM     35  O   UNL     1      11.888  -1.125   2.761  1.00  0.00    -0.387 OA
ATOM     36  H   UNL     1      12.373  -1.233   1.908  1.00  0.00     0.211 HD
ENDBRANCH  30  35
BRANCH  31  37
ATOM     37  C   UNL     1       9.691   1.953   0.223  1.00  0.00     0.191 C 
BRANCH  37  38
ATOM     38  O   UNL     1       8.504   2.538  -0.245  1.00  0.00    -0.394 OA
ATOM     39  H   UNL     1       7.944   1.795  -0.588  1.00  0.00     0.210 HD
ENDBRANCH  37  38
ENDBRANCH  31  37
BRANCH  32  40
ATOM     40  O   UNL     1       9.021  -0.255   3.108  1.00  0.00    -0.387 OA
ATOM     41  H   UNL     1       9.419  -0.280   4.017  1.00  0.00     0.211 HD
ENDBRANCH  32  40
ENDBRANCH   1  27
TORSDOF 12
ENDMDL
