MODEL 1
REMARK VINA RESULT:    -6.096      0.000      0.000
REMARK INTER + INTRA:         -10.309
REMARK INTER:                  -9.126
REMARK INTRA:                  -1.183
REMARK UNBOUND:                -1.183
REMARK SMILES C=C(CC[C@@H](C(=O)[O-])[C@@H]1[C@H](O)C[C@@]2(C)C3=C(CC[C@@]12C)[C@]1(C)CC[C@@H](OC(C)=O)C(C)(C)[C@@H]1CC3)C(C)C
REMARK SMILES IDX 4 1 5 2 6 3 7 4 8 5 9 6 10 7 19 8 12 9 13 10 18 11 20 12
REMARK SMILES IDX 14 13 15 14 17 15 16 16 35 17 21 18 34 19 33 20 23 21 22 22
REMARK SMILES IDX 30 23 24 24 25 25 31 26 32 27 11 28 26 30 27 31 29 32 28 33
REMARK SMILES IDX 3 34 2 35 1 36 36 37 37 38 38 39
REMARK H PARENT 11 29
REMARK Flexibility Score: inf
ROOT
ATOM      1  C   UNL     1       8.562  -2.953  43.259  1.00  0.00     0.014 C 
ENDROOT
BRANCH   1   2
ATOM      2  C   UNL     1       9.096  -3.831  42.126  1.00  0.00     0.042 C 
BRANCH   2   3
ATOM      3  C   UNL     1       8.158  -4.988  41.879  1.00  0.00     0.045 C 
ATOM      4  O   UNL     1       6.994  -5.008  42.423  1.00  0.00    -0.550 OA
ATOM      5  O   UNL     1       8.606  -6.160  41.240  1.00  0.00    -0.550 OA
ENDBRANCH   2   3
BRANCH   2   6
ATOM      6  C   UNL     1       9.570  -2.955  40.897  1.00  0.00     0.033 C 
ATOM      7  C   UNL     1       8.814  -3.180  39.544  1.00  0.00     0.119 C 
ATOM      8  C   UNL     1      11.078  -3.023  40.480  1.00  0.00    -0.017 C 
ATOM      9  C   UNL     1       9.760  -4.002  38.681  1.00  0.00     0.043 C 
ATOM     10  C   UNL     1      11.117  -4.160  39.410  1.00  0.00    -0.003 C 
ATOM     11  C   UNL     1      11.449  -1.671  39.777  1.00  0.00     0.012 C 
ATOM     12  C   UNL     1      12.129  -3.194  41.623  1.00  0.00     0.013 C 
ATOM     13  C   UNL     1      11.226  -5.610  40.037  1.00  0.00     0.017 C 
ATOM     14  C   UNL     1      12.239  -3.992  38.357  1.00  0.00    -0.064 C 
ATOM     15  C   UNL     1      12.823  -1.703  39.163  1.00  0.00     0.032 C 
ATOM     16  C   UNL     1      13.019  -2.904  38.243  1.00  0.00    -0.064 C 
ATOM     17  C   UNL     1      12.223  -4.948  37.218  1.00  0.00     0.032 C 
ATOM     18  C   UNL     1      14.157  -2.873  37.177  1.00  0.00    -0.008 C 
ATOM     19  C   UNL     1      13.597  -5.471  37.013  1.00  0.00     0.009 C 
ATOM     20  C   UNL     1      14.723  -4.364  36.955  1.00  0.00     0.009 C 
ATOM     21  C   UNL     1      13.580  -2.257  35.851  1.00  0.00     0.015 C 
ATOM     22  C   UNL     1      15.321  -1.937  37.672  1.00  0.00     0.016 C 
ATOM     23  C   UNL     1      15.628  -4.589  35.700  1.00  0.00     0.005 C 
ATOM     24  C   UNL     1      14.363  -2.601  34.555  1.00  0.00     0.047 C 
ATOM     25  C   UNL     1      14.851  -4.067  34.440  1.00  0.00     0.182 C 
ATOM     26  C   UNL     1      16.992  -3.860  35.859  1.00  0.00     0.015 C 
ATOM     27  C   UNL     1      16.010  -6.086  35.543  1.00  0.00     0.015 C 
BRANCH   7  28
ATOM     28  O   UNL     1       7.545  -3.748  39.657  1.00  0.00    -0.393 OA
ATOM     29  H   UNL     1       7.581  -4.611  39.140  1.00  0.00     0.210 HD
ENDBRANCH   7  28
BRANCH  25  30
ATOM     30  O   UNL     1      15.585  -4.357  33.245  1.00  0.00    -0.462 OA
BRANCH  30  31
ATOM     31  C   UNL     1      15.122  -5.206  32.213  1.00  0.00     0.302 C 
ATOM     32  O   UNL     1      15.862  -6.173  31.875  1.00  0.00    -0.253 OA
ATOM     33  C   UNL     1      13.672  -5.277  31.915  1.00  0.00     0.139 C 
ENDBRANCH  30  31
ENDBRANCH  25  30
ENDBRANCH   2   6
ENDBRANCH   1   2
BRANCH   1  34
ATOM     34  C   UNL     1       8.929  -1.505  42.976  1.00  0.00     0.031 C 
BRANCH  34  35
ATOM     35  C   UNL     1       9.654  -0.741  44.051  1.00  0.00    -0.075 C 
ATOM     36  C   UNL     1      10.918  -0.420  43.734  1.00  0.00     0.008 C 
BRANCH  35  37
ATOM     37  C   UNL     1       8.993  -0.322  45.371  1.00  0.00     0.008 C 
ATOM     38  C   UNL     1       8.095   0.924  45.250  1.00  0.00     0.012 C 
ATOM     39  C   UNL     1      10.038  -0.106  46.487  1.00  0.00     0.012 C 
ENDBRANCH  35  37
ENDBRANCH  34  35
ENDBRANCH   1  34
TORSDOF 9
ENDMDL
MODEL 2
REMARK VINA RESULT:    -6.074     11.275     13.724
REMARK INTER + INTRA:         -10.274
REMARK INTER:                  -9.180
REMARK INTRA:                  -1.094
REMARK UNBOUND:                -1.183
REMARK SMILES C=C(CC[C@@H](C(=O)[O-])[C@@H]1[C@H](O)C[C@@]2(C)C3=C(CC[C@@]12C)[C@]1(C)CC[C@@H](OC(C)=O)C(C)(C)[C@@H]1CC3)C(C)C
REMARK SMILES IDX 4 1 5 2 6 3 7 4 8 5 9 6 10 7 19 8 12 9 13 10 18 11 20 12
REMARK SMILES IDX 14 13 15 14 17 15 16 16 35 17 21 18 34 19 33 20 23 21 22 22
REMARK SMILES IDX 30 23 24 24 25 25 31 26 32 27 11 28 26 30 27 31 29 32 28 33
REMARK SMILES IDX 3 34 2 35 1 36 36 37 37 38 38 39
REMARK H PARENT 11 29
REMARK Flexibility Score: inf
ROOT
ATOM      1  C   UNL     1      23.095 -13.206  46.645  1.00  0.00     0.014 C 
ENDROOT
BRANCH   1   2
ATOM      2  C   UNL     1      22.454 -13.586  45.309  1.00  0.00     0.042 C 
BRANCH   2   3
ATOM      3  C   UNL     1      22.919 -14.958  44.882  1.00  0.00     0.045 C 
ATOM      4  O   UNL     1      23.397 -15.780  45.746  1.00  0.00    -0.550 OA
ATOM      5  O   UNL     1      23.047 -15.288  43.520  1.00  0.00    -0.550 OA
ENDBRANCH   2   3
BRANCH   2   6
ATOM      6  C   UNL     1      20.905 -13.268  45.304  1.00  0.00     0.033 C 
ATOM      7  C   UNL     1      19.947 -14.457  44.956  1.00  0.00     0.119 C 
ATOM      8  C   UNL     1      20.392 -12.112  44.381  1.00  0.00    -0.017 C 
ATOM      9  C   UNL     1      19.493 -14.207  43.525  1.00  0.00     0.043 C 
ATOM     10  C   UNL     1      20.028 -12.836  43.046  1.00  0.00    -0.003 C 
ATOM     11  C   UNL     1      19.072 -11.540  45.007  1.00  0.00     0.012 C 
ATOM     12  C   UNL     1      21.328 -10.875  44.196  1.00  0.00     0.013 C 
ATOM     13  C   UNL     1      21.271 -13.048  42.088  1.00  0.00     0.017 C 
ATOM     14  C   UNL     1      18.899 -12.144  42.244  1.00  0.00    -0.064 C 
ATOM     15  C   UNL     1      18.388 -10.554  44.098  1.00  0.00     0.032 C 
ATOM     16  C   UNL     1      18.165 -11.114  42.697  1.00  0.00    -0.064 C 
ATOM     17  C   UNL     1      18.394 -12.875  41.051  1.00  0.00     0.032 C 
ATOM     18  C   UNL     1      17.092 -10.460  41.774  1.00  0.00    -0.008 C 
ATOM     19  C   UNL     1      18.305 -11.927  39.912  1.00  0.00     0.009 C 
ATOM     20  C   UNL     1      17.567 -10.569  40.240  1.00  0.00     0.009 C 
ATOM     21  C   UNL     1      15.718 -11.186  42.020  1.00  0.00     0.015 C 
ATOM     22  C   UNL     1      16.909  -8.947  42.162  1.00  0.00     0.016 C 
ATOM     23  C   UNL     1      16.486 -10.274  39.149  1.00  0.00     0.005 C 
ATOM     24  C   UNL     1      14.676 -11.052  40.876  1.00  0.00     0.047 C 
ATOM     25  C   UNL     1      15.241 -11.185  39.439  1.00  0.00     0.182 C 
ATOM     26  C   UNL     1      16.092  -8.770  39.150  1.00  0.00     0.015 C 
ATOM     27  C   UNL     1      17.043 -10.523  37.722  1.00  0.00     0.015 C 
BRANCH   7  28
ATOM     28  O   UNL     1      20.484 -15.730  45.144  1.00  0.00    -0.393 OA
ATOM     29  H   UNL     1      21.317 -15.600  45.694  1.00  0.00     0.210 HD
ENDBRANCH   7  28
BRANCH  25  30
ATOM     30  O   UNL     1      14.265 -11.042  38.402  1.00  0.00    -0.462 OA
BRANCH  30  31
ATOM     31  C   UNL     1      13.757 -12.114  37.634  1.00  0.00     0.302 C 
ATOM     32  O   UNL     1      13.880 -12.046  36.378  1.00  0.00    -0.253 OA
ATOM     33  C   UNL     1      13.572 -13.445  38.262  1.00  0.00     0.139 C 
ENDBRANCH  30  31
ENDBRANCH  25  30
ENDBRANCH   2   6
ENDBRANCH   1   2
BRANCH   1  34
ATOM     34  C   UNL     1      23.133 -11.690  46.758  1.00  0.00     0.031 C 
BRANCH  34  35
ATOM     35  C   UNL     1      24.480 -11.018  46.729  1.00  0.00    -0.075 C 
ATOM     36  C   UNL     1      25.125 -11.040  47.906  1.00  0.00     0.008 C 
BRANCH  35  37
ATOM     37  C   UNL     1      25.084 -10.407  45.458  1.00  0.00     0.008 C 
ATOM     38  C   UNL     1      24.413  -9.090  45.020  1.00  0.00     0.012 C 
ATOM     39  C   UNL     1      25.079 -11.411  44.286  1.00  0.00     0.012 C 
ENDBRANCH  35  37
ENDBRANCH  34  35
ENDBRANCH   1  34
TORSDOF 9
ENDMDL
MODEL 3
REMARK VINA RESULT:    -6.067     11.305     13.855
REMARK INTER + INTRA:         -10.265
REMARK INTER:                  -8.940
REMARK INTRA:                  -1.325
REMARK UNBOUND:                -1.183
REMARK SMILES C=C(CC[C@@H](C(=O)[O-])[C@@H]1[C@H](O)C[C@@]2(C)C3=C(CC[C@@]12C)[C@]1(C)CC[C@@H](OC(C)=O)C(C)(C)[C@@H]1CC3)C(C)C
REMARK SMILES IDX 4 1 5 2 6 3 7 4 8 5 9 6 10 7 19 8 12 9 13 10 18 11 20 12
REMARK SMILES IDX 14 13 15 14 17 15 16 16 35 17 21 18 34 19 33 20 23 21 22 22
REMARK SMILES IDX 30 23 24 24 25 25 31 26 32 27 11 28 26 30 27 31 29 32 28 33
REMARK SMILES IDX 3 34 2 35 1 36 36 37 37 38 38 39
REMARK H PARENT 11 29
REMARK Flexibility Score: inf
ROOT
ATOM      1  C   UNL     1      23.218 -14.749  45.706  1.00  0.00     0.014 C 
ENDROOT
BRANCH   1   2
ATOM      2  C   UNL     1      22.348 -14.868  44.454  1.00  0.00     0.042 C 
BRANCH   2   3
ATOM      3  C   UNL     1      22.417 -16.273  43.905  1.00  0.00     0.045 C 
ATOM      4  O   UNL     1      22.200 -16.495  42.659  1.00  0.00    -0.550 OA
ATOM      5  O   UNL     1      22.500 -17.383  44.766  1.00  0.00    -0.550 OA
ENDBRANCH   2   3
BRANCH   2   6
ATOM      6  C   UNL     1      20.931 -14.200  44.674  1.00  0.00     0.033 C 
ATOM      7  C   UNL     1      19.683 -15.124  44.469  1.00  0.00     0.119 C 
ATOM      8  C   UNL     1      20.576 -12.927  43.835  1.00  0.00    -0.017 C 
ATOM      9  C   UNL     1      19.102 -14.729  43.119  1.00  0.00     0.043 C 
ATOM     10  C   UNL     1      19.869 -13.502  42.567  1.00  0.00    -0.003 C 
ATOM     11  C   UNL     1      19.528 -12.088  44.646  1.00  0.00     0.012 C 
ATOM     12  C   UNL     1      21.739 -11.934  43.516  1.00  0.00     0.013 C 
ATOM     13  C   UNL     1      20.880 -13.963  41.439  1.00  0.00     0.017 C 
ATOM     14  C   UNL     1      18.831 -12.543  41.938  1.00  0.00    -0.064 C 
ATOM     15  C   UNL     1      18.971 -10.941  43.847  1.00  0.00     0.032 C 
ATOM     16  C   UNL     1      18.429 -11.387  42.493  1.00  0.00    -0.064 C 
ATOM     17  C   UNL     1      18.006 -13.096  40.831  1.00  0.00     0.032 C 
ATOM     18  C   UNL     1      17.418 -10.472  41.735  1.00  0.00    -0.008 C 
ATOM     19  C   UNL     1      17.980 -12.115  39.717  1.00  0.00     0.009 C 
ATOM     20  C   UNL     1      17.632 -10.636  40.148  1.00  0.00     0.009 C 
ATOM     21  C   UNL     1      15.961 -10.870  42.178  1.00  0.00     0.015 C 
ATOM     22  C   UNL     1      17.649  -8.972  42.146  1.00  0.00     0.016 C 
ATOM     23  C   UNL     1      16.507 -10.062  39.226  1.00  0.00     0.005 C 
ATOM     24  C   UNL     1      14.828 -10.461  41.198  1.00  0.00     0.047 C 
ATOM     25  C   UNL     1      15.138 -10.672  39.694  1.00  0.00     0.182 C 
ATOM     26  C   UNL     1      16.479  -8.509  39.284  1.00  0.00     0.015 C 
ATOM     27  C   UNL     1      16.783 -10.386  37.733  1.00  0.00     0.015 C 
BRANCH   7  28
ATOM     28  O   UNL     1      19.930 -16.493  44.577  1.00  0.00    -0.393 OA
ATOM     29  H   UNL     1      19.732 -16.882  43.671  1.00  0.00     0.210 HD
ENDBRANCH   7  28
BRANCH  25  30
ATOM     30  O   UNL     1      14.086 -10.272  38.809  1.00  0.00    -0.462 OA
BRANCH  30  31
ATOM     31  C   UNL     1      13.193  -9.205  39.065  1.00  0.00     0.302 C 
ATOM     32  O   UNL     1      13.340  -8.146  38.392  1.00  0.00    -0.253 OA
ATOM     33  C   UNL     1      11.875  -9.482  39.684  1.00  0.00     0.139 C 
ENDBRANCH  30  31
ENDBRANCH  25  30
ENDBRANCH   2   6
ENDBRANCH   1   2
BRANCH   1  34
ATOM     34  C   UNL     1      22.520 -13.842  46.707  1.00  0.00     0.031 C 
BRANCH  34  35
ATOM     35  C   UNL     1      23.051 -12.445  46.879  1.00  0.00    -0.075 C 
ATOM     36  C   UNL     1      22.112 -11.538  47.190  1.00  0.00     0.008 C 
BRANCH  35  37
ATOM     37  C   UNL     1      24.541 -12.094  46.760  1.00  0.00     0.008 C 
ATOM     38  C   UNL     1      25.125 -11.422  48.018  1.00  0.00     0.012 C 
ATOM     39  C   UNL     1      24.822 -11.217  45.521  1.00  0.00     0.012 C 
ENDBRANCH  35  37
ENDBRANCH  34  35
ENDBRANCH   1  34
TORSDOF 9
ENDMDL
MODEL 4
REMARK VINA RESULT:    -5.908     12.191     15.143
REMARK INTER + INTRA:         -10.027
REMARK INTER:                  -8.493
REMARK INTRA:                  -1.533
REMARK UNBOUND:                -1.183
REMARK SMILES C=C(CC[C@@H](C(=O)[O-])[C@@H]1[C@H](O)C[C@@]2(C)C3=C(CC[C@@]12C)[C@]1(C)CC[C@@H](OC(C)=O)C(C)(C)[C@@H]1CC3)C(C)C
REMARK SMILES IDX 4 1 5 2 6 3 7 4 8 5 9 6 10 7 19 8 12 9 13 10 18 11 20 12
REMARK SMILES IDX 14 13 15 14 17 15 16 16 35 17 21 18 34 19 33 20 23 21 22 22
REMARK SMILES IDX 30 23 24 24 25 25 31 26 32 27 11 28 26 30 27 31 29 32 28 33
REMARK SMILES IDX 3 34 2 35 1 36 36 37 37 38 38 39
REMARK H PARENT 11 29
REMARK Flexibility Score: inf
ROOT
ATOM      1  C   UNL     1      23.608 -14.621  46.882  1.00  0.00     0.014 C 
ENDROOT
BRANCH   1   2
ATOM      2  C   UNL     1      23.044 -13.330  46.287  1.00  0.00     0.042 C 
BRANCH   2   3
ATOM      3  C   UNL     1      23.911 -12.156  46.677  1.00  0.00     0.045 C 
ATOM      4  O   UNL     1      25.125 -12.342  47.052  1.00  0.00    -0.550 OA
ATOM      5  O   UNL     1      23.358 -10.874  46.851  1.00  0.00    -0.550 OA
ENDBRANCH   2   3
BRANCH   2   6
ATOM      6  C   UNL     1      22.654 -13.521  44.766  1.00  0.00     0.033 C 
ATOM      7  C   UNL     1      23.264 -12.494  43.753  1.00  0.00     0.119 C 
ATOM      8  C   UNL     1      21.135 -13.537  44.389  1.00  0.00    -0.017 C 
ATOM      9  C   UNL     1      22.128 -11.543  43.405  1.00  0.00     0.043 C 
ATOM     10  C   UNL     1      20.818 -12.044  44.060  1.00  0.00    -0.003 C 
ATOM     11  C   UNL     1      20.968 -14.378  43.076  1.00  0.00     0.012 C 
ATOM     12  C   UNL     1      20.150 -14.181  45.416  1.00  0.00     0.013 C 
ATOM     13  C   UNL     1      20.490 -11.174  45.341  1.00  0.00     0.017 C 
ATOM     14  C   UNL     1      19.676 -11.856  43.031  1.00  0.00    -0.064 C 
ATOM     15  C   UNL     1      19.573 -14.297  42.516  1.00  0.00     0.032 C 
ATOM     16  C   UNL     1      19.101 -12.857  42.342  1.00  0.00    -0.064 C 
ATOM     17  C   UNL     1      19.442 -10.469  42.552  1.00  0.00     0.032 C 
ATOM     18  C   UNL     1      17.918 -12.552  41.374  1.00  0.00    -0.008 C 
ATOM     19  C   UNL     1      17.984 -10.188  42.597  1.00  0.00     0.009 C 
ATOM     20  C   UNL     1      17.077 -11.298  41.933  1.00  0.00     0.009 C 
ATOM     21  C   UNL     1      18.507 -12.276  39.941  1.00  0.00     0.015 C 
ATOM     22  C   UNL     1      16.979 -13.810  41.271  1.00  0.00     0.016 C 
ATOM     23  C   UNL     1      16.064 -10.637  40.943  1.00  0.00     0.005 C 
ATOM     24  C   UNL     1      17.588 -11.472  38.983  1.00  0.00     0.047 C 
ATOM     25  C   UNL     1      16.836 -10.278  39.624  1.00  0.00     0.182 C 
ATOM     26  C   UNL     1      14.869 -11.588  40.652  1.00  0.00     0.015 C 
ATOM     27  C   UNL     1      15.407  -9.376  41.568  1.00  0.00     0.015 C 
BRANCH   7  28
ATOM     28  O   UNL     1      24.414 -11.836  44.190  1.00  0.00    -0.393 OA
ATOM     29  H   UNL     1      24.548 -12.121  45.145  1.00  0.00     0.210 HD
ENDBRANCH   7  28
BRANCH  25  30
ATOM     30  O   UNL     1      15.982  -9.562  38.725  1.00  0.00    -0.462 OA
BRANCH  30  31
ATOM     31  C   UNL     1      16.303  -8.311  38.149  1.00  0.00     0.302 C 
ATOM     32  O   UNL     1      15.477  -7.812  37.334  1.00  0.00    -0.253 OA
ATOM     33  C   UNL     1      17.264  -7.413  38.834  1.00  0.00     0.139 C 
ENDBRANCH  30  31
ENDBRANCH  25  30
ENDBRANCH   2   6
ENDBRANCH   1   2
BRANCH   1  34
ATOM     34  C   UNL     1      24.099 -15.511  45.751  1.00  0.00     0.031 C 
BRANCH  34  35
ATOM     35  C   UNL     1      24.165 -16.994  46.002  1.00  0.00    -0.075 C 
ATOM     36  C   UNL     1      24.678 -17.322  47.198  1.00  0.00     0.008 C 
BRANCH  35  37
ATOM     37  C   UNL     1      23.644 -18.036  45.004  1.00  0.00     0.008 C 
ATOM     38  C   UNL     1      24.674 -18.438  43.929  1.00  0.00     0.012 C 
ATOM     39  C   UNL     1      22.337 -17.572  44.326  1.00  0.00     0.012 C 
ENDBRANCH  35  37
ENDBRANCH  34  35
ENDBRANCH   1  34
TORSDOF 9
ENDMDL
MODEL 5
REMARK VINA RESULT:    -5.837     11.212     14.225
REMARK INTER + INTRA:          -9.920
REMARK INTER:                  -8.653
REMARK INTRA:                  -1.267
REMARK UNBOUND:                -1.183
REMARK SMILES C=C(CC[C@@H](C(=O)[O-])[C@@H]1[C@H](O)C[C@@]2(C)C3=C(CC[C@@]12C)[C@]1(C)CC[C@@H](OC(C)=O)C(C)(C)[C@@H]1CC3)C(C)C
REMARK SMILES IDX 4 1 5 2 6 3 7 4 8 5 9 6 10 7 19 8 12 9 13 10 18 11 20 12
REMARK SMILES IDX 14 13 15 14 17 15 16 16 35 17 21 18 34 19 33 20 23 21 22 22
REMARK SMILES IDX 30 23 24 24 25 25 31 26 32 27 11 28 26 30 27 31 29 32 28 33
REMARK SMILES IDX 3 34 2 35 1 36 36 37 37 38 38 39
REMARK H PARENT 11 29
REMARK Flexibility Score: inf
ROOT
ATOM      1  C   UNL     1      24.696 -13.187  45.093  1.00  0.00     0.014 C 
ENDROOT
BRANCH   1   2
ATOM      2  C   UNL     1      23.187 -12.986  45.244  1.00  0.00     0.042 C 
BRANCH   2   3
ATOM      3  C   UNL     1      22.756 -13.339  46.648  1.00  0.00     0.045 C 
ATOM      4  O   UNL     1      23.558 -13.170  47.636  1.00  0.00    -0.550 OA
ATOM      5  O   UNL     1      21.566 -14.055  46.881  1.00  0.00    -0.550 OA
ENDBRANCH   2   3
BRANCH   2   6
ATOM      6  C   UNL     1      22.726 -11.606  44.626  1.00  0.00     0.033 C 
ATOM      7  C   UNL     1      21.856 -10.683  45.544  1.00  0.00     0.119 C 
ATOM      8  C   UNL     1      21.926 -11.630  43.281  1.00  0.00    -0.017 C 
ATOM      9  C   UNL     1      20.432 -10.819  45.025  1.00  0.00     0.043 C 
ATOM     10  C   UNL     1      20.433 -11.678  43.737  1.00  0.00    -0.003 C 
ATOM     11  C   UNL     1      22.172 -10.267  42.544  1.00  0.00     0.012 C 
ATOM     12  C   UNL     1      22.306 -12.732  42.241  1.00  0.00     0.013 C 
ATOM     13  C   UNL     1      19.924 -13.141  44.066  1.00  0.00     0.017 C 
ATOM     14  C   UNL     1      19.449 -11.026  42.736  1.00  0.00    -0.064 C 
ATOM     15  C   UNL     1      21.295 -10.104  41.332  1.00  0.00     0.032 C 
ATOM     16  C   UNL     1      19.820 -10.330  41.648  1.00  0.00    -0.064 C 
ATOM     17  C   UNL     1      18.039 -10.891  43.190  1.00  0.00     0.032 C 
ATOM     18  C   UNL     1      18.735  -9.767  40.679  1.00  0.00    -0.008 C 
ATOM     19  C   UNL     1      17.141 -11.355  42.102  1.00  0.00     0.009 C 
ATOM     20  C   UNL     1      17.457 -10.746  40.680  1.00  0.00     0.009 C 
ATOM     21  C   UNL     1      18.363  -8.311  41.143  1.00  0.00     0.015 C 
ATOM     22  C   UNL     1      19.324  -9.670  39.224  1.00  0.00     0.016 C 
ATOM     23  C   UNL     1      16.147 -10.187  40.035  1.00  0.00     0.005 C 
ATOM     24  C   UNL     1      16.986  -7.785  40.656  1.00  0.00     0.047 C 
ATOM     25  C   UNL     1      15.823  -8.808  40.710  1.00  0.00     0.182 C 
ATOM     26  C   UNL     1      16.305 -10.035  38.496  1.00  0.00     0.015 C 
ATOM     27  C   UNL     1      14.968 -11.184  40.202  1.00  0.00     0.015 C 
BRANCH   7  28
ATOM     28  O   UNL     1      21.965 -10.931  46.913  1.00  0.00    -0.393 OA
ATOM     29  H   UNL     1      21.123 -10.565  47.327  1.00  0.00     0.210 HD
ENDBRANCH   7  28
BRANCH  25  30
ATOM     30  O   UNL     1      14.567  -8.305  40.241  1.00  0.00    -0.462 OA
BRANCH  30  31
ATOM     31  C   UNL     1      14.421  -7.142  39.450  1.00  0.00     0.302 C 
ATOM     32  O   UNL     1      14.829  -7.192  38.255  1.00  0.00    -0.253 OA
ATOM     33  C   UNL     1      13.404  -6.127  39.817  1.00  0.00     0.139 C 
ENDBRANCH  30  31
ENDBRANCH  25  30
ENDBRANCH   2   6
ENDBRANCH   1   2
BRANCH   1  34
ATOM     34  C   UNL     1      24.945 -14.343  44.136  1.00  0.00     0.031 C 
BRANCH  34  35
ATOM     35  C   UNL     1      24.402 -15.695  44.512  1.00  0.00    -0.075 C 
ATOM     36  C   UNL     1      24.912 -16.190  45.651  1.00  0.00     0.008 C 
BRANCH  35  37
ATOM     37  C   UNL     1      23.324 -16.421  43.697  1.00  0.00     0.008 C 
ATOM     38  C   UNL     1      21.908 -16.307  44.295  1.00  0.00     0.012 C 
ATOM     39  C   UNL     1      23.680 -17.907  43.479  1.00  0.00     0.012 C 
ENDBRANCH  35  37
ENDBRANCH  34  35
ENDBRANCH   1  34
TORSDOF 9
ENDMDL
MODEL 6
REMARK VINA RESULT:    -5.800     11.301     14.032
REMARK INTER + INTRA:          -9.864
REMARK INTER:                  -8.233
REMARK INTRA:                  -1.631
REMARK UNBOUND:                -1.183
REMARK SMILES C=C(CC[C@@H](C(=O)[O-])[C@@H]1[C@H](O)C[C@@]2(C)C3=C(CC[C@@]12C)[C@]1(C)CC[C@@H](OC(C)=O)C(C)(C)[C@@H]1CC3)C(C)C
REMARK SMILES IDX 4 1 5 2 6 3 7 4 8 5 9 6 10 7 19 8 12 9 13 10 18 11 20 12
REMARK SMILES IDX 14 13 15 14 17 15 16 16 35 17 21 18 34 19 33 20 23 21 22 22
REMARK SMILES IDX 30 23 24 24 25 25 31 26 32 27 11 28 26 30 27 31 29 32 28 33
REMARK SMILES IDX 3 34 2 35 1 36 36 37 37 38 38 39
REMARK H PARENT 11 29
REMARK Flexibility Score: inf
ROOT
ATOM      1  C   UNL     1      23.276 -12.053  46.412  1.00  0.00     0.014 C 
ENDROOT
BRANCH   1   2
ATOM      2  C   UNL     1      22.508 -12.990  45.479  1.00  0.00     0.042 C 
BRANCH   2   3
ATOM      3  C   UNL     1      22.920 -14.422  45.726  1.00  0.00     0.045 C 
ATOM      4  O   UNL     1      23.353 -14.783  46.880  1.00  0.00    -0.550 OA
ATOM      5  O   UNL     1      23.050 -15.332  44.660  1.00  0.00    -0.550 OA
ENDBRANCH   2   3
BRANCH   2   6
ATOM      6  C   UNL     1      20.967 -12.632  45.447  1.00  0.00     0.033 C 
ATOM      7  C   UNL     1      19.968 -13.823  45.635  1.00  0.00     0.119 C 
ATOM      8  C   UNL     1      20.408 -11.890  44.187  1.00  0.00    -0.017 C 
ATOM      9  C   UNL     1      19.416 -14.113  44.246  1.00  0.00     0.043 C 
ATOM     10  C   UNL     1      19.938 -13.048  43.251  1.00  0.00    -0.003 C 
ATOM     11  C   UNL     1      19.146 -11.069  44.627  1.00  0.00     0.012 C 
ATOM     12  C   UNL     1      21.348 -10.855  43.490  1.00  0.00     0.013 C 
ATOM     13  C   UNL     1      21.105 -13.658  42.372  1.00  0.00     0.017 C 
ATOM     14  C   UNL     1      18.766 -12.664  42.317  1.00  0.00    -0.064 C 
ATOM     15  C   UNL     1      18.414 -10.471  43.456  1.00  0.00     0.032 C 
ATOM     16  C   UNL     1      18.083 -11.509  42.388  1.00  0.00    -0.064 C 
ATOM     17  C   UNL     1      18.165 -13.769  41.524  1.00  0.00     0.032 C 
ATOM     18  C   UNL     1      16.956 -11.208  41.353  1.00  0.00    -0.008 C 
ATOM     19  C   UNL     1      18.009 -13.318  40.117  1.00  0.00     0.009 C 
ATOM     20  C   UNL     1      17.318 -11.908  39.949  1.00  0.00     0.009 C 
ATOM     21  C   UNL     1      15.592 -11.728  41.938  1.00  0.00     0.015 C 
ATOM     22  C   UNL     1      16.827  -9.653  41.148  1.00  0.00     0.016 C 
ATOM     23  C   UNL     1      16.167 -12.000  38.895  1.00  0.00     0.005 C 
ATOM     24  C   UNL     1      14.473 -11.993  40.894  1.00  0.00     0.047 C 
ATOM     25  C   UNL     1      14.931 -12.681  39.584  1.00  0.00     0.182 C 
ATOM     26  C   UNL     1      15.798 -10.592  38.349  1.00  0.00     0.015 C 
ATOM     27  C   UNL     1      16.616 -12.794  37.638  1.00  0.00     0.015 C 
BRANCH   7  28
ATOM     28  O   UNL     1      20.497 -14.953  46.260  1.00  0.00    -0.393 OA
ATOM     29  H   UNL     1      21.487 -14.791  46.331  1.00  0.00     0.210 HD
ENDBRANCH   7  28
BRANCH  25  30
ATOM     30  O   UNL     1      13.886 -12.900  38.630  1.00  0.00    -0.462 OA
BRANCH  30  31
ATOM     31  C   UNL     1      12.989 -13.992  38.669  1.00  0.00     0.302 C 
ATOM     32  O   UNL     1      13.482 -15.156  38.629  1.00  0.00    -0.253 OA
ATOM     33  C   UNL     1      11.632 -13.810  39.238  1.00  0.00     0.139 C 
ENDBRANCH  30  31
ENDBRANCH  25  30
ENDBRANCH   2   6
ENDBRANCH   1   2
BRANCH   1  34
ATOM     34  C   UNL     1      24.632 -11.747  45.795  1.00  0.00     0.031 C 
BRANCH  34  35
ATOM     35  C   UNL     1      24.692 -10.692  44.723  1.00  0.00    -0.075 C 
ATOM     36  C   UNL     1      24.377  -9.460  45.152  1.00  0.00     0.008 C 
BRANCH  35  37
ATOM     37  C   UNL     1      25.125 -10.987  43.280  1.00  0.00     0.008 C 
ATOM     38  C   UNL     1      24.556  -9.997  42.245  1.00  0.00     0.012 C 
ATOM     39  C   UNL     1      24.776 -12.433  42.866  1.00  0.00     0.012 C 
ENDBRANCH  35  37
ENDBRANCH  34  35
ENDBRANCH   1  34
TORSDOF 9
ENDMDL
MODEL 7
REMARK VINA RESULT:    -5.728     12.762     15.570
REMARK INTER + INTRA:          -9.757
REMARK INTER:                  -8.241
REMARK INTRA:                  -1.516
REMARK UNBOUND:                -1.183
REMARK SMILES C=C(CC[C@@H](C(=O)[O-])[C@@H]1[C@H](O)C[C@@]2(C)C3=C(CC[C@@]12C)[C@]1(C)CC[C@@H](OC(C)=O)C(C)(C)[C@@H]1CC3)C(C)C
REMARK SMILES IDX 4 1 5 2 6 3 7 4 8 5 9 6 10 7 19 8 12 9 13 10 18 11 20 12
REMARK SMILES IDX 14 13 15 14 17 15 16 16 35 17 21 18 34 19 33 20 23 21 22 22
REMARK SMILES IDX 30 23 24 24 25 25 31 26 32 27 11 28 26 30 27 31 29 32 28 33
REMARK SMILES IDX 3 34 2 35 1 36 36 37 37 38 38 39
REMARK H PARENT 11 29
REMARK Flexibility Score: inf
ROOT
ATOM      1  C   UNL     1      25.112 -14.291  44.965  1.00  0.00     0.014 C 
ENDROOT
BRANCH   1   2
ATOM      2  C   UNL     1      23.826 -15.091  44.745  1.00  0.00     0.042 C 
BRANCH   2   3
ATOM      3  C   UNL     1      23.753 -16.236  45.727  1.00  0.00     0.045 C 
ATOM      4  O   UNL     1      24.286 -16.128  46.891  1.00  0.00    -0.550 OA
ATOM      5  O   UNL     1      23.303 -17.507  45.325  1.00  0.00    -0.550 OA
ENDBRANCH   2   3
BRANCH   2   6
ATOM      6  C   UNL     1      22.575 -14.136  44.587  1.00  0.00     0.033 C 
ATOM      7  C   UNL     1      21.366 -14.404  45.545  1.00  0.00     0.119 C 
ATOM      8  C   UNL     1      21.901 -14.029  43.179  1.00  0.00    -0.017 C 
ATOM      9  C   UNL     1      20.314 -15.095  44.688  1.00  0.00     0.043 C 
ATOM     10  C   UNL     1      20.789 -15.125  43.215  1.00  0.00    -0.003 C 
ATOM     11  C   UNL     1      21.207 -12.626  43.077  1.00  0.00     0.012 C 
ATOM     12  C   UNL     1      22.835 -14.116  41.929  1.00  0.00     0.013 C 
ATOM     13  C   UNL     1      21.320 -16.571  42.850  1.00  0.00     0.017 C 
ATOM     14  C   UNL     1      19.566 -14.808  42.321  1.00  0.00    -0.064 C 
ATOM     15  C   UNL     1      20.362 -12.492  41.839  1.00  0.00     0.032 C 
ATOM     16  C   UNL     1      19.368 -13.639  41.688  1.00  0.00    -0.064 C 
ATOM     17  C   UNL     1      18.404 -15.728  42.442  1.00  0.00     0.032 C 
ATOM     18  C   UNL     1      18.124 -13.456  40.766  1.00  0.00    -0.008 C 
ATOM     19  C   UNL     1      17.940 -16.094  41.079  1.00  0.00     0.009 C 
ATOM     20  C   UNL     1      17.738 -14.870  40.101  1.00  0.00     0.009 C 
ATOM     21  C   UNL     1      16.947 -12.869  41.630  1.00  0.00     0.015 C 
ATOM     22  C   UNL     1      18.452 -12.414  39.634  1.00  0.00     0.016 C 
ATOM     23  C   UNL     1      16.336 -14.962  39.414  1.00  0.00     0.005 C 
ATOM     24  C   UNL     1      15.521 -13.091  41.058  1.00  0.00     0.047 C 
ATOM     25  C   UNL     1      15.255 -14.493  40.452  1.00  0.00     0.182 C 
ATOM     26  C   UNL     1      16.290 -14.094  38.125  1.00  0.00     0.015 C 
ATOM     27  C   UNL     1      16.046 -16.404  38.916  1.00  0.00     0.015 C 
BRANCH   7  28
ATOM     28  O   UNL     1      21.671 -15.109  46.709  1.00  0.00    -0.393 OA
ATOM     29  H   UNL     1      22.021 -16.003  46.407  1.00  0.00     0.210 HD
ENDBRANCH   7  28
BRANCH  25  30
ATOM     30  O   UNL     1      13.939 -14.668  39.916  1.00  0.00    -0.462 OA
BRANCH  30  31
ATOM     31  C   UNL     1      12.915 -15.410  40.548  1.00  0.00     0.302 C 
ATOM     32  O   UNL     1      13.223 -16.534  41.037  1.00  0.00    -0.253 OA
ATOM     33  C   UNL     1      11.713 -14.711  41.064  1.00  0.00     0.139 C 
ENDBRANCH  30  31
ENDBRANCH  25  30
ENDBRANCH   2   6
ENDBRANCH   1   2
BRANCH   1  34
ATOM     34  C   UNL     1      24.774 -12.808  44.964  1.00  0.00     0.031 C 
BRANCH  34  35
ATOM     35  C   UNL     1      24.444 -12.163  46.284  1.00  0.00    -0.075 C 
ATOM     36  C   UNL     1      25.086 -12.704  47.331  1.00  0.00     0.008 C 
BRANCH  35  37
ATOM     37  C   UNL     1      23.498 -10.962  46.415  1.00  0.00     0.008 C 
ATOM     38  C   UNL     1      22.114 -11.319  46.993  1.00  0.00     0.012 C 
ATOM     39  C   UNL     1      23.327 -10.223  45.071  1.00  0.00     0.012 C 
ENDBRANCH  35  37
ENDBRANCH  34  35
ENDBRANCH   1  34
TORSDOF 9
ENDMDL
MODEL 8
REMARK VINA RESULT:    -5.667      9.925     12.804
REMARK INTER + INTRA:          -9.665
REMARK INTER:                  -7.611
REMARK INTRA:                  -2.054
REMARK UNBOUND:                -1.183
REMARK SMILES C=C(CC[C@@H](C(=O)[O-])[C@@H]1[C@H](O)C[C@@]2(C)C3=C(CC[C@@]12C)[C@]1(C)CC[C@@H](OC(C)=O)C(C)(C)[C@@H]1CC3)C(C)C
REMARK SMILES IDX 4 1 5 2 6 3 7 4 8 5 9 6 10 7 19 8 12 9 13 10 18 11 20 12
REMARK SMILES IDX 14 13 15 14 17 15 16 16 35 17 21 18 34 19 33 20 23 21 22 22
REMARK SMILES IDX 30 23 24 24 25 25 31 26 32 27 11 28 26 30 27 31 29 32 28 33
REMARK SMILES IDX 3 34 2 35 1 36 36 37 37 38 38 39
REMARK H PARENT 11 29
REMARK Flexibility Score: inf
ROOT
ATOM      1  C   UNL     1      15.504  -7.788  39.057  1.00  0.00     0.014 C 
ENDROOT
BRANCH   1   2
ATOM      2  C   UNL     1      15.748  -8.831  40.149  1.00  0.00     0.042 C 
BRANCH   2   3
ATOM      3  C   UNL     1      14.494  -9.639  40.384  1.00  0.00     0.045 C 
ATOM      4  O   UNL     1      14.239 -10.118  41.548  1.00  0.00    -0.550 OA
ATOM      5  O   UNL     1      13.697 -10.069  39.306  1.00  0.00    -0.550 OA
ENDBRANCH   2   3
BRANCH   2   6
ATOM      6  C   UNL     1      17.116  -9.590  39.922  1.00  0.00     0.033 C 
ATOM      7  C   UNL     1      17.076 -11.152  40.026  1.00  0.00     0.119 C 
ATOM      8  C   UNL     1      18.334  -9.203  40.825  1.00  0.00    -0.017 C 
ATOM      9  C   UNL     1      17.692 -11.486  41.377  1.00  0.00     0.043 C 
ATOM     10  C   UNL     1      18.234 -10.191  42.030  1.00  0.00    -0.003 C 
ATOM     11  C   UNL     1      19.650  -9.524  40.032  1.00  0.00     0.012 C 
ATOM     12  C   UNL     1      18.466  -7.704  41.245  1.00  0.00     0.013 C 
ATOM     13  C   UNL     1      17.240  -9.703  43.162  1.00  0.00     0.017 C 
ATOM     14  C   UNL     1      19.597 -10.528  42.681  1.00  0.00    -0.064 C 
ATOM     15  C   UNL     1      20.883  -9.372  40.882  1.00  0.00     0.032 C 
ATOM     16  C   UNL     1      20.789 -10.157  42.185  1.00  0.00    -0.064 C 
ATOM     17  C   UNL     1      19.586 -11.590  43.722  1.00  0.00     0.032 C 
ATOM     18  C   UNL     1      22.095 -10.506  42.963  1.00  0.00    -0.008 C 
ATOM     19  C   UNL     1      20.367 -11.119  44.894  1.00  0.00     0.009 C 
ATOM     20  C   UNL     1      21.789 -10.526  44.543  1.00  0.00     0.009 C 
ATOM     21  C   UNL     1      22.625 -11.895  42.447  1.00  0.00     0.015 C 
ATOM     22  C   UNL     1      23.200  -9.429  42.655  1.00  0.00     0.016 C 
ATOM     23  C   UNL     1      22.878 -11.175  45.459  1.00  0.00     0.005 C 
ATOM     24  C   UNL     1      23.581 -12.647  43.410  1.00  0.00     0.047 C 
ATOM     25  C   UNL     1      23.184 -12.612  44.908  1.00  0.00     0.182 C 
ATOM     26  C   UNL     1      24.164 -10.303  45.498  1.00  0.00     0.015 C 
ATOM     27  C   UNL     1      22.408 -11.231  46.939  1.00  0.00     0.015 C 
BRANCH   7  28
ATOM     28  O   UNL     1      15.819 -11.730  39.841  1.00  0.00    -0.393 OA
ATOM     29  H   UNL     1      15.313 -11.102  39.239  1.00  0.00     0.210 HD
ENDBRANCH   7  28
BRANCH  25  30
ATOM     30  O   UNL     1      24.090 -13.298  45.779  1.00  0.00    -0.462 OA
BRANCH  30  31
ATOM     31  C   UNL     1      23.801 -14.525  46.420  1.00  0.00     0.302 C 
ATOM     32  O   UNL     1      24.692 -15.019  47.168  1.00  0.00    -0.253 OA
ATOM     33  C   UNL     1      22.391 -14.935  46.622  1.00  0.00     0.139 C 
ENDBRANCH  30  31
ENDBRANCH  25  30
ENDBRANCH   2   6
ENDBRANCH   1   2
BRANCH   1  34
ATOM     34  C   UNL     1      16.435  -8.071  37.888  1.00  0.00     0.031 C 
BRANCH  34  35
ATOM     35  C   UNL     1      17.435  -7.010  37.515  1.00  0.00    -0.075 C 
ATOM     36  C   UNL     1      17.069  -5.768  37.864  1.00  0.00     0.008 C 
BRANCH  35  37
ATOM     37  C   UNL     1      18.778  -7.325  36.841  1.00  0.00     0.008 C 
ATOM     38  C   UNL     1      18.985  -8.822  36.534  1.00  0.00     0.012 C 
ATOM     39  C   UNL     1      19.968  -6.793  37.668  1.00  0.00     0.012 C 
ENDBRANCH  35  37
ENDBRANCH  34  35
ENDBRANCH   1  34
TORSDOF 9
ENDMDL
MODEL 9
REMARK VINA RESULT:    -5.615      1.924      9.256
REMARK INTER + INTRA:          -9.589
REMARK INTER:                  -7.769
REMARK INTRA:                  -1.819
REMARK UNBOUND:                -1.183
REMARK SMILES C=C(CC[C@@H](C(=O)[O-])[C@@H]1[C@H](O)C[C@@]2(C)C3=C(CC[C@@]12C)[C@]1(C)CC[C@@H](OC(C)=O)C(C)(C)[C@@H]1CC3)C(C)C
REMARK SMILES IDX 4 1 5 2 6 3 7 4 8 5 9 6 10 7 19 8 12 9 13 10 18 11 20 12
REMARK SMILES IDX 14 13 15 14 17 15 16 16 35 17 21 18 34 19 33 20 23 21 22 22
REMARK SMILES IDX 30 23 24 24 25 25 31 26 32 27 11 28 26 30 27 31 29 32 28 33
REMARK SMILES IDX 3 34 2 35 1 36 36 37 37 38 38 39
REMARK H PARENT 11 29
REMARK Flexibility Score: inf
ROOT
ATOM      1  C   UNL     1      16.271  -3.386  33.059  1.00  0.00     0.014 C 
ENDROOT
BRANCH   1   2
ATOM      2  C   UNL     1      15.014  -4.041  33.634  1.00  0.00     0.042 C 
BRANCH   2   3
ATOM      3  C   UNL     1      14.628  -5.242  32.803  1.00  0.00     0.045 C 
ATOM      4  O   UNL     1      15.506  -5.842  32.083  1.00  0.00    -0.550 OA
ATOM      5  O   UNL     1      13.278  -5.595  32.624  1.00  0.00    -0.550 OA
ENDBRANCH   2   3
BRANCH   2   6
ATOM      6  C   UNL     1      15.114  -4.197  35.205  1.00  0.00     0.033 C 
ATOM      7  C   UNL     1      14.808  -5.618  35.787  1.00  0.00     0.119 C 
ATOM      8  C   UNL     1      14.247  -3.249  36.098  1.00  0.00    -0.017 C 
ATOM      9  C   UNL     1      13.414  -5.519  36.389  1.00  0.00     0.043 C 
ATOM     10  C   UNL     1      12.925  -4.051  36.318  1.00  0.00    -0.003 C 
ATOM     11  C   UNL     1      14.966  -3.093  37.483  1.00  0.00     0.012 C 
ATOM     12  C   UNL     1      14.023  -1.790  35.586  1.00  0.00     0.013 C 
ATOM     13  C   UNL     1      11.886  -3.887  35.135  1.00  0.00     0.017 C 
ATOM     14  C   UNL     1      12.210  -3.729  37.653  1.00  0.00    -0.064 C 
ATOM     15  C   UNL     1      14.121  -2.358  38.488  1.00  0.00     0.032 C 
ATOM     16  C   UNL     1      12.728  -2.962  38.627  1.00  0.00    -0.064 C 
ATOM     17  C   UNL     1      11.040  -4.580  37.996  1.00  0.00     0.032 C 
ATOM     18  C   UNL     1      11.887  -2.660  39.906  1.00  0.00    -0.008 C 
ATOM     19  C   UNL     1       9.925  -3.704  38.439  1.00  0.00     0.009 C 
ATOM     20  C   UNL     1      10.323  -2.627  39.523  1.00  0.00     0.009 C 
ATOM     21  C   UNL     1      12.208  -3.761  40.983  1.00  0.00     0.015 C 
ATOM     22  C   UNL     1      12.312  -1.268  40.503  1.00  0.00     0.016 C 
ATOM     23  C   UNL     1       9.310  -2.669  40.714  1.00  0.00     0.005 C 
ATOM     24  C   UNL     1      11.136  -3.946  42.091  1.00  0.00     0.047 C 
ATOM     25  C   UNL     1       9.664  -3.908  41.610  1.00  0.00     0.182 C 
ATOM     26  C   UNL     1       9.362  -1.350  41.535  1.00  0.00     0.015 C 
ATOM     27  C   UNL     1       7.845  -2.745  40.204  1.00  0.00     0.015 C 
BRANCH   7  28
ATOM     28  O   UNL     1      14.939  -6.674  34.885  1.00  0.00    -0.393 OA
ATOM     29  H   UNL     1      15.174  -7.482  35.438  1.00  0.00     0.210 HD
ENDBRANCH   7  28
BRANCH  25  30
ATOM     30  O   UNL     1       8.694  -4.064  42.651  1.00  0.00    -0.462 OA
BRANCH  30  31
ATOM     31  C   UNL     1       7.790  -5.148  42.741  1.00  0.00     0.302 C 
ATOM     32  O   UNL     1       6.751  -4.987  43.442  1.00  0.00    -0.253 OA
ATOM     33  C   UNL     1       7.788  -6.192  41.687  1.00  0.00     0.139 C 
ENDBRANCH  30  31
ENDBRANCH  25  30
ENDBRANCH   2   6
ENDBRANCH   1   2
BRANCH   1  34
ATOM     34  C   UNL     1      17.331  -3.316  34.148  1.00  0.00     0.031 C 
BRANCH  34  35
ATOM     35  C   UNL     1      17.606  -1.976  34.775  1.00  0.00    -0.075 C 
ATOM     36  C   UNL     1      18.202  -2.048  35.975  1.00  0.00     0.008 C 
BRANCH  35  37
ATOM     37  C   UNL     1      17.280  -0.645  34.085  1.00  0.00     0.008 C 
ATOM     38  C   UNL     1      18.314  -0.226  33.021  1.00  0.00     0.012 C 
ATOM     39  C   UNL     1      17.092   0.496  35.107  1.00  0.00     0.012 C 
ENDBRANCH  35  37
ENDBRANCH  34  35
ENDBRANCH   1  34
TORSDOF 9
ENDMDL
