MODEL 1
REMARK VINA RESULT:    -3.903      0.000      0.000
REMARK INTER + INTRA:          -4.685
REMARK INTER:                  -4.588
REMARK INTRA:                  -0.097
REMARK UNBOUND:                -0.097
REMARK SMILES CCCCC(=O)[O-]
REMARK SMILES IDX 4 1 5 2 6 3 7 4 3 5 2 6 1 7
REMARK H PARENT
REMARK Flexibility Score: inf
ROOT
ATOM      1  C   UNL     1      10.381 -25.748  11.330  1.00  0.00     0.053 C 
ENDROOT
BRANCH   1   2
ATOM      2  C   UNL     1      10.304 -27.141  11.871  1.00  0.00     0.041 C 
ATOM      3  O   UNL     1       9.939 -27.339  13.060  1.00  0.00    -0.550 OA
ATOM      4  O   UNL     1      10.682 -28.217  11.079  1.00  0.00    -0.550 OA
ENDBRANCH   1   2
BRANCH   1   5
ATOM      5  C   UNL     1       9.191 -25.467  10.403  1.00  0.00     0.006 C 
BRANCH   5   6
ATOM      6  C   UNL     1       9.582 -25.490   8.918  1.00  0.00    -0.003 C 
ATOM      7  C   UNL     1       8.831 -26.560   8.124  1.00  0.00     0.004 C 
ENDBRANCH   5   6
ENDBRANCH   1   5
TORSDOF 3
ENDMDL
MODEL 2
REMARK VINA RESULT:    -3.825      2.000      3.501
REMARK INTER + INTRA:          -4.593
REMARK INTER:                  -4.489
REMARK INTRA:                  -0.104
REMARK UNBOUND:                -0.097
REMARK SMILES CCCCC(=O)[O-]
REMARK SMILES IDX 4 1 5 2 6 3 7 4 3 5 2 6 1 7
REMARK H PARENT
REMARK Flexibility Score: inf
ROOT
ATOM      1  C   UNL     1       9.241 -25.625  10.273  1.00  0.00     0.053 C 
ENDROOT
BRANCH   1   2
ATOM      2  C   UNL     1       9.515 -26.468   9.067  1.00  0.00     0.041 C 
ATOM      3  O   UNL     1      10.661 -26.955   8.881  1.00  0.00    -0.550 OA
ATOM      4  O   UNL     1       8.518 -26.674   8.122  1.00  0.00    -0.550 OA
ENDBRANCH   1   2
BRANCH   1   5
ATOM      5  C   UNL     1      10.406 -25.718  11.266  1.00  0.00     0.006 C 
BRANCH   5   6
ATOM      6  C   UNL     1      10.018 -26.441  12.565  1.00  0.00    -0.003 C 
ATOM      7  C   UNL     1      10.381 -27.927  12.546  1.00  0.00     0.004 C 
ENDBRANCH   5   6
ENDBRANCH   1   5
TORSDOF 3
ENDMDL
MODEL 3
REMARK VINA RESULT:    -3.785     15.382     15.803
REMARK INTER + INTRA:          -4.546
REMARK INTER:                  -4.481
REMARK INTRA:                  -0.065
REMARK UNBOUND:                -0.097
REMARK SMILES CCCCC(=O)[O-]
REMARK SMILES IDX 4 1 5 2 6 3 7 4 3 5 2 6 1 7
REMARK H PARENT
REMARK Flexibility Score: inf
ROOT
ATOM      1  C   UNL     1       2.985 -29.436  23.875  1.00  0.00     0.053 C 
ENDROOT
BRANCH   1   2
ATOM      2  C   UNL     1       3.612 -29.128  25.198  1.00  0.00     0.041 C 
ATOM      3  O   UNL     1       2.922 -28.627  26.125  1.00  0.00    -0.550 OA
ATOM      4  O   UNL     1       4.969 -29.347  25.392  1.00  0.00    -0.550 OA
ENDBRANCH   1   2
BRANCH   1   5
ATOM      5  C   UNL     1       1.857 -28.441  23.572  1.00  0.00     0.006 C 
BRANCH   5   6
ATOM      6  C   UNL     1       0.675 -29.095  22.841  1.00  0.00    -0.003 C 
ATOM      7  C   UNL     1       0.486 -30.565  23.217  1.00  0.00     0.004 C 
ENDBRANCH   5   6
ENDBRANCH   1   5
TORSDOF 3
ENDMDL
MODEL 4
REMARK VINA RESULT:    -3.770      1.018      1.409
REMARK INTER + INTRA:          -4.528
REMARK INTER:                  -4.435
REMARK INTRA:                  -0.094
REMARK UNBOUND:                -0.097
REMARK SMILES CCCCC(=O)[O-]
REMARK SMILES IDX 4 1 5 2 6 3 7 4 3 5 2 6 1 7
REMARK H PARENT
REMARK Flexibility Score: inf
ROOT
ATOM      1  C   UNL     1      10.014 -25.527  11.391  1.00  0.00     0.053 C 
ENDROOT
BRANCH   1   2
ATOM      2  C   UNL     1      10.107 -26.810  12.156  1.00  0.00     0.041 C 
ATOM      3  O   UNL     1       9.829 -26.837  13.384  1.00  0.00    -0.550 OA
ATOM      4  O   UNL     1      10.548 -27.965  11.525  1.00  0.00    -0.550 OA
ENDBRANCH   1   2
BRANCH   1   5
ATOM      5  C   UNL     1       9.431 -25.777   9.995  1.00  0.00     0.006 C 
BRANCH   5   6
ATOM      6  C   UNL     1      10.359 -25.288   8.872  1.00  0.00    -0.003 C 
ATOM      7  C   UNL     1      11.836 -25.325   9.267  1.00  0.00     0.004 C 
ENDBRANCH   5   6
ENDBRANCH   1   5
TORSDOF 3
ENDMDL
MODEL 5
REMARK VINA RESULT:    -3.765      2.624      3.697
REMARK INTER + INTRA:          -4.523
REMARK INTER:                  -4.443
REMARK INTRA:                  -0.080
REMARK UNBOUND:                -0.097
REMARK SMILES CCCCC(=O)[O-]
REMARK SMILES IDX 4 1 5 2 6 3 7 4 3 5 2 6 1 7
REMARK H PARENT
REMARK Flexibility Score: inf
ROOT
ATOM      1  C   UNL     1       9.663 -25.244   8.970  1.00  0.00     0.053 C 
ENDROOT
BRANCH   1   2
ATOM      2  C   UNL     1       9.441 -26.366   8.005  1.00  0.00     0.041 C 
ATOM      3  O   UNL     1       8.275 -26.781   7.773  1.00  0.00    -0.550 OA
ATOM      4  O   UNL     1      10.526 -26.987   7.400  1.00  0.00    -0.550 OA
ENDBRANCH   1   2
BRANCH   1   5
ATOM      5  C   UNL     1       9.279 -25.675  10.391  1.00  0.00     0.006 C 
BRANCH   5   6
ATOM      6  C   UNL     1      10.249 -26.714  10.974  1.00  0.00    -0.003 C 
ATOM      7  C   UNL     1      10.099 -26.880  12.486  1.00  0.00     0.004 C 
ENDBRANCH   5   6
ENDBRANCH   1   5
TORSDOF 3
ENDMDL
MODEL 6
REMARK VINA RESULT:    -3.674      1.501      2.106
REMARK INTER + INTRA:          -4.416
REMARK INTER:                  -4.321
REMARK INTRA:                  -0.094
REMARK UNBOUND:                -0.097
REMARK SMILES CCCCC(=O)[O-]
REMARK SMILES IDX 4 1 5 2 6 3 7 4 3 5 2 6 1 7
REMARK H PARENT
REMARK Flexibility Score: inf
ROOT
ATOM      1  C   UNL     1       9.485 -25.424   9.378  1.00  0.00     0.053 C 
ENDROOT
BRANCH   1   2
ATOM      2  C   UNL     1       9.670 -25.978  10.756  1.00  0.00     0.041 C 
ATOM      3  O   UNL     1       9.427 -25.263  11.764  1.00  0.00    -0.550 OA
ATOM      4  O   UNL     1      10.160 -27.266  10.928  1.00  0.00    -0.550 OA
ENDBRANCH   1   2
BRANCH   1   5
ATOM      5  C   UNL     1       8.916 -26.498   8.442  1.00  0.00     0.006 C 
BRANCH   5   6
ATOM      6  C   UNL     1       9.799 -26.730   7.206  1.00  0.00    -0.003 C 
ATOM      7  C   UNL     1      11.230 -26.226   7.398  1.00  0.00     0.004 C 
ENDBRANCH   5   6
ENDBRANCH   1   5
TORSDOF 3
ENDMDL
MODEL 7
REMARK VINA RESULT:    -3.669      2.644      3.965
REMARK INTER + INTRA:          -4.409
REMARK INTER:                  -4.343
REMARK INTRA:                  -0.066
REMARK UNBOUND:                -0.097
REMARK SMILES CCCCC(=O)[O-]
REMARK SMILES IDX 4 1 5 2 6 3 7 4 3 5 2 6 1 7
REMARK H PARENT
REMARK Flexibility Score: inf
ROOT
ATOM      1  C   UNL     1       9.151 -26.396   8.440  1.00  0.00     0.053 C 
ENDROOT
BRANCH   1   2
ATOM      2  C   UNL     1      10.289 -26.554   7.482  1.00  0.00     0.041 C 
ATOM      3  O   UNL     1      11.476 -26.411   7.878  1.00  0.00    -0.550 OA
ATOM      4  O   UNL     1      10.038 -26.811   6.140  1.00  0.00    -0.550 OA
ENDBRANCH   1   2
BRANCH   1   5
ATOM      5  C   UNL     1       9.474 -25.317   9.481  1.00  0.00     0.006 C 
BRANCH   5   6
ATOM      6  C   UNL     1       9.666 -25.897  10.891  1.00  0.00    -0.003 C 
ATOM      7  C   UNL     1      10.771 -25.189  11.677  1.00  0.00     0.004 C 
ENDBRANCH   5   6
ENDBRANCH   1   5
TORSDOF 3
ENDMDL
MODEL 8
REMARK VINA RESULT:    -3.531     10.622     11.423
REMARK INTER + INTRA:          -4.247
REMARK INTER:                  -4.218
REMARK INTRA:                  -0.029
REMARK UNBOUND:                -0.097
REMARK SMILES CCCCC(=O)[O-]
REMARK SMILES IDX 4 1 5 2 6 3 7 4 3 5 2 6 1 7
REMARK H PARENT
REMARK Flexibility Score: inf
ROOT
ATOM      1  C   UNL     1       0.657 -20.917  14.129  1.00  0.00     0.053 C 
ENDROOT
BRANCH   1   2
ATOM      2  C   UNL     1       1.065 -19.564  14.620  1.00  0.00     0.041 C 
ATOM      3  O   UNL     1       0.330 -18.934  15.426  1.00  0.00    -0.550 OA
ATOM      4  O   UNL     1       2.233 -18.977  14.152  1.00  0.00    -0.550 OA
ENDBRANCH   1   2
BRANCH   1   5
ATOM      5  C   UNL     1       1.739 -21.954  14.455  1.00  0.00     0.006 C 
BRANCH   5   6
ATOM      6  C   UNL     1       1.268 -23.396  14.207  1.00  0.00    -0.003 C 
ATOM      7  C   UNL     1      -0.055 -23.463  13.444  1.00  0.00     0.004 C 
ENDBRANCH   5   6
ENDBRANCH   1   5
TORSDOF 3
ENDMDL
