MODEL 1
REMARK VINA RESULT:    -3.466      0.000      0.000
REMARK INTER + INTRA:         -12.216
REMARK INTER:                  -8.734
REMARK INTRA:                  -3.482
REMARK UNBOUND:                -3.482
REMARK SMILES CCCCCCCCCCCCCCCCCCCCCCCCCCCC(=O)[O-]
REMARK SMILES IDX 15 1 16 2 17 3 18 4 19 5 20 6 21 7 22 8 23 9 24 10 25 11
REMARK SMILES IDX 26 12 27 13 28 14 29 15 30 16 14 17 13 18 12 19 11 20 10 21
REMARK SMILES IDX 9 22 8 23 7 24 6 25 5 26 4 27 3 28 2 29 1 30
REMARK H PARENT
REMARK Flexibility Score: inf
ROOT
ATOM      1  C   UNL     1     -22.214   1.657  10.136  1.00  0.00     0.000 C 
ENDROOT
BRANCH   1   2
ATOM      2  C   UNL     1     -21.123   1.499   9.059  1.00  0.00     0.000 C 
BRANCH   2   3
ATOM      3  C   UNL     1     -20.681   2.854   8.468  1.00  0.00     0.000 C 
BRANCH   3   4
ATOM      4  C   UNL     1     -19.188   2.916   8.102  1.00  0.00     0.000 C 
BRANCH   4   5
ATOM      5  C   UNL     1     -18.781   4.270   7.494  1.00  0.00     0.000 C 
BRANCH   5   6
ATOM      6  C   UNL     1     -19.080   4.356   5.988  1.00  0.00     0.000 C 
BRANCH   6   7
ATOM      7  C   UNL     1     -19.411   5.783   5.525  1.00  0.00     0.000 C 
BRANCH   7   8
ATOM      8  C   UNL     1     -19.773   5.798   4.036  1.00  0.00     0.000 C 
BRANCH   8   9
ATOM      9  C   UNL     1     -20.544   7.073   3.660  1.00  0.00     0.000 C 
BRANCH   9  10
ATOM     10  C   UNL     1     -20.496   7.355   2.143  1.00  0.00     0.000 C 
BRANCH  10  11
ATOM     11  C   UNL     1     -21.249   6.317   1.289  1.00  0.00     0.000 C 
BRANCH  11  12
ATOM     12  C   UNL     1     -21.657   6.854  -0.092  1.00  0.00     0.006 C 
BRANCH  12  13
ATOM     13  C   UNL     1     -22.461   5.825  -0.904  1.00  0.00     0.053 C 
BRANCH  13  14
ATOM     14  C   UNL     1     -21.636   5.197  -1.985  1.00  0.00     0.041 C 
ATOM     15  O   UNL     1     -22.182   4.808  -3.053  1.00  0.00    -0.550 OA
ATOM     16  O   UNL     1     -20.265   5.035  -1.815  1.00  0.00    -0.550 OA
ENDBRANCH  13  14
ENDBRANCH  12  13
ENDBRANCH  11  12
ENDBRANCH  10  11
ENDBRANCH   9  10
ENDBRANCH   8   9
ENDBRANCH   7   8
ENDBRANCH   6   7
ENDBRANCH   5   6
ENDBRANCH   4   5
ENDBRANCH   3   4
ENDBRANCH   2   3
ENDBRANCH   1   2
BRANCH   1  17
ATOM     17  C   UNL     1     -22.307   3.091  10.687  1.00  0.00     0.000 C 
BRANCH  17  18
ATOM     18  C   UNL     1     -22.319   3.138  12.227  1.00  0.00     0.000 C 
BRANCH  18  19
ATOM     19  C   UNL     1     -20.978   3.599  12.831  1.00  0.00     0.000 C 
BRANCH  19  20
ATOM     20  C   UNL     1     -19.710   3.024  12.161  1.00  0.00     0.000 C 
BRANCH  20  21
ATOM     21  C   UNL     1     -18.791   4.077  11.514  1.00  0.00     0.000 C 
BRANCH  21  22
ATOM     22  C   UNL     1     -19.213   5.520  11.845  1.00  0.00    -0.000 C 
BRANCH  22  23
ATOM     23  C   UNL     1     -19.463   6.352  10.574  1.00  0.00    -0.000 C 
BRANCH  23  24
ATOM     24  C   UNL     1     -20.917   6.211  10.082  1.00  0.00    -0.000 C 
BRANCH  24  25
ATOM     25  C   UNL     1     -21.769   7.470  10.341  1.00  0.00    -0.000 C 
BRANCH  25  26
ATOM     26  C   UNL     1     -21.928   7.825  11.830  1.00  0.00    -0.000 C 
BRANCH  26  27
ATOM     27  C   UNL     1     -22.808   6.823  12.600  1.00  0.00    -0.000 C 
BRANCH  27  28
ATOM     28  C   UNL     1     -24.303   6.969  12.272  1.00  0.00    -0.000 C 
BRANCH  28  29
ATOM     29  C   UNL     1     -25.039   5.622  12.275  1.00  0.00    -0.003 C 
ATOM     30  C   UNL     1     -26.513   5.800  11.914  1.00  0.00     0.004 C 
ENDBRANCH  28  29
ENDBRANCH  27  28
ENDBRANCH  26  27
ENDBRANCH  25  26
ENDBRANCH  24  25
ENDBRANCH  23  24
ENDBRANCH  22  23
ENDBRANCH  21  22
ENDBRANCH  20  21
ENDBRANCH  19  20
ENDBRANCH  18  19
ENDBRANCH  17  18
ENDBRANCH   1  17
TORSDOF 26
ENDMDL
MODEL 2
REMARK VINA RESULT:    -3.027      3.292      9.911
REMARK INTER + INTRA:         -11.111
REMARK INTER:                  -7.946
REMARK INTRA:                  -3.165
REMARK UNBOUND:                -3.482
REMARK SMILES CCCCCCCCCCCCCCCCCCCCCCCCCCCC(=O)[O-]
REMARK SMILES IDX 15 1 16 2 17 3 18 4 19 5 20 6 21 7 22 8 23 9 24 10 25 11
REMARK SMILES IDX 26 12 27 13 28 14 29 15 30 16 14 17 13 18 12 19 11 20 10 21
REMARK SMILES IDX 9 22 8 23 7 24 6 25 5 26 4 27 3 28 2 29 1 30
REMARK H PARENT
REMARK Flexibility Score: inf
ROOT
ATOM      1  C   UNL     1     -20.764   6.275   9.392  1.00  0.00     0.000 C 
ENDROOT
BRANCH   1   2
ATOM      2  C   UNL     1     -20.953   7.714   9.908  1.00  0.00     0.000 C 
BRANCH   2   3
ATOM      3  C   UNL     1     -22.370   7.955  10.471  1.00  0.00     0.000 C 
BRANCH   3   4
ATOM      4  C   UNL     1     -22.560   7.456  11.913  1.00  0.00     0.000 C 
BRANCH   4   5
ATOM      5  C   UNL     1     -23.874   6.679  12.104  1.00  0.00     0.000 C 
BRANCH   5   6
ATOM      6  C   UNL     1     -23.653   5.280  12.702  1.00  0.00     0.000 C 
BRANCH   6   7
ATOM      7  C   UNL     1     -22.765   4.387  11.823  1.00  0.00     0.000 C 
BRANCH   7   8
ATOM      8  C   UNL     1     -21.654   3.741  12.657  1.00  0.00     0.000 C 
BRANCH   8   9
ATOM      9  C   UNL     1     -20.363   4.574  12.612  1.00  0.00     0.000 C 
BRANCH   9  10
ATOM     10  C   UNL     1     -19.263   3.896  11.766  1.00  0.00     0.000 C 
BRANCH  10  11
ATOM     11  C   UNL     1     -19.369   2.360  11.717  1.00  0.00     0.000 C 
BRANCH  11  12
ATOM     12  C   UNL     1     -19.326   1.798  10.288  1.00  0.00     0.006 C 
BRANCH  12  13
ATOM     13  C   UNL     1     -20.246   2.570   9.329  1.00  0.00     0.053 C 
BRANCH  13  14
ATOM     14  C   UNL     1     -21.503   1.813   9.028  1.00  0.00     0.041 C 
ATOM     15  O   UNL     1     -21.868   1.640   7.834  1.00  0.00    -0.550 OA
ATOM     16  O   UNL     1     -22.277   1.300  10.064  1.00  0.00    -0.550 OA
ENDBRANCH  13  14
ENDBRANCH  12  13
ENDBRANCH  11  12
ENDBRANCH  10  11
ENDBRANCH   9  10
ENDBRANCH   8   9
ENDBRANCH   7   8
ENDBRANCH   6   7
ENDBRANCH   5   6
ENDBRANCH   4   5
ENDBRANCH   3   4
ENDBRANCH   2   3
ENDBRANCH   1   2
BRANCH   1  17
ATOM     17  C   UNL     1     -19.379   6.042   8.761  1.00  0.00     0.000 C 
BRANCH  17  18
ATOM     18  C   UNL     1     -19.308   6.507   7.295  1.00  0.00     0.000 C 
BRANCH  18  19
ATOM     19  C   UNL     1     -19.378   5.344   6.285  1.00  0.00     0.000 C 
BRANCH  19  20
ATOM     20  C   UNL     1     -18.868   5.662   4.862  1.00  0.00     0.000 C 
BRANCH  20  21
ATOM     21  C   UNL     1     -19.975   5.824   3.804  1.00  0.00     0.000 C 
BRANCH  21  22
ATOM     22  C   UNL     1     -19.582   6.793   2.673  1.00  0.00    -0.000 C 
BRANCH  22  23
ATOM     23  C   UNL     1     -18.166   6.509   2.138  1.00  0.00    -0.000 C 
BRANCH  23  24
ATOM     24  C   UNL     1     -18.161   6.348   0.606  1.00  0.00    -0.000 C 
BRANCH  24  25
ATOM     25  C   UNL     1     -18.703   7.588  -0.134  1.00  0.00    -0.000 C 
BRANCH  25  26
ATOM     26  C   UNL     1     -19.993   7.328  -0.934  1.00  0.00    -0.000 C 
BRANCH  26  27
ATOM     27  C   UNL     1     -20.428   5.852  -0.918  1.00  0.00    -0.000 C 
BRANCH  27  28
ATOM     28  C   UNL     1     -21.788   5.640  -0.233  1.00  0.00    -0.000 C 
BRANCH  28  29
ATOM     29  C   UNL     1     -22.924   5.412  -1.241  1.00  0.00    -0.003 C 
ATOM     30  C   UNL     1     -22.388   4.847  -2.555  1.00  0.00     0.004 C 
ENDBRANCH  28  29
ENDBRANCH  27  28
ENDBRANCH  26  27
ENDBRANCH  25  26
ENDBRANCH  24  25
ENDBRANCH  23  24
ENDBRANCH  22  23
ENDBRANCH  21  22
ENDBRANCH  20  21
ENDBRANCH  19  20
ENDBRANCH  18  19
ENDBRANCH  17  18
ENDBRANCH   1  17
TORSDOF 26
ENDMDL
MODEL 3
REMARK VINA RESULT:    -2.945      3.648     11.594
REMARK INTER + INTRA:         -10.903
REMARK INTER:                  -8.870
REMARK INTRA:                  -2.033
REMARK UNBOUND:                -3.482
REMARK SMILES CCCCCCCCCCCCCCCCCCCCCCCCCCCC(=O)[O-]
REMARK SMILES IDX 15 1 16 2 17 3 18 4 19 5 20 6 21 7 22 8 23 9 24 10 25 11
REMARK SMILES IDX 26 12 27 13 28 14 29 15 30 16 14 17 13 18 12 19 11 20 10 21
REMARK SMILES IDX 9 22 8 23 7 24 6 25 5 26 4 27 3 28 2 29 1 30
REMARK H PARENT
REMARK Flexibility Score: inf
ROOT
ATOM      1  C   UNL     1     -19.389   5.128   5.604  1.00  0.00     0.000 C 
ENDROOT
BRANCH   1   2
ATOM      2  C   UNL     1     -18.821   5.767   6.885  1.00  0.00     0.000 C 
BRANCH   2   3
ATOM      3  C   UNL     1     -19.726   5.526   8.112  1.00  0.00     0.000 C 
BRANCH   3   4
ATOM      4  C   UNL     1     -20.313   6.813   8.715  1.00  0.00     0.000 C 
BRANCH   4   5
ATOM      5  C   UNL     1     -20.952   6.586  10.095  1.00  0.00     0.000 C 
BRANCH   5   6
ATOM      6  C   UNL     1     -19.916   6.565  11.231  1.00  0.00     0.000 C 
BRANCH   6   7
ATOM      7  C   UNL     1     -20.496   6.060  12.561  1.00  0.00     0.000 C 
BRANCH   7   8
ATOM      8  C   UNL     1     -22.017   5.905  12.464  1.00  0.00     0.000 C 
BRANCH   8   9
ATOM      9  C   UNL     1     -22.452   4.457  12.740  1.00  0.00     0.000 C 
BRANCH   9  10
ATOM     10  C   UNL     1     -23.044   3.779  11.486  1.00  0.00     0.000 C 
BRANCH  10  11
ATOM     11  C   UNL     1     -22.240   2.561  10.995  1.00  0.00     0.000 C 
BRANCH  11  12
ATOM     12  C   UNL     1     -20.726   2.820  10.939  1.00  0.00     0.006 C 
BRANCH  12  13
ATOM     13  C   UNL     1     -19.993   1.809  10.043  1.00  0.00     0.053 C 
BRANCH  13  14
ATOM     14  C   UNL     1     -20.796   1.450   8.830  1.00  0.00     0.041 C 
ATOM     15  O   UNL     1     -20.982   2.301   7.919  1.00  0.00    -0.550 OA
ATOM     16  O   UNL     1     -21.344   0.178   8.704  1.00  0.00    -0.550 OA
ENDBRANCH  13  14
ENDBRANCH  12  13
ENDBRANCH  11  12
ENDBRANCH  10  11
ENDBRANCH   9  10
ENDBRANCH   8   9
ENDBRANCH   7   8
ENDBRANCH   6   7
ENDBRANCH   5   6
ENDBRANCH   4   5
ENDBRANCH   3   4
ENDBRANCH   2   3
ENDBRANCH   1   2
BRANCH   1  17
ATOM     17  C   UNL     1     -19.205   6.017   4.360  1.00  0.00     0.000 C 
BRANCH  17  18
ATOM     18  C   UNL     1     -20.292   7.101   4.238  1.00  0.00     0.000 C 
BRANCH  18  19
ATOM     19  C   UNL     1     -21.212   6.904   3.017  1.00  0.00     0.000 C 
BRANCH  19  20
ATOM     20  C   UNL     1     -20.498   6.559   1.691  1.00  0.00     0.000 C 
BRANCH  20  21
ATOM     21  C   UNL     1     -21.062   7.278   0.452  1.00  0.00     0.000 C 
BRANCH  21  22
ATOM     22  C   UNL     1     -20.326   6.896  -0.846  1.00  0.00    -0.000 C 
BRANCH  22  23
ATOM     23  C   UNL     1     -21.278   6.278  -1.886  1.00  0.00    -0.000 C 
BRANCH  23  24
ATOM     24  C   UNL     1     -20.950   4.794  -2.142  1.00  0.00    -0.000 C 
BRANCH  24  25
ATOM     25  C   UNL     1     -20.460   4.521  -3.579  1.00  0.00    -0.000 C 
BRANCH  25  26
ATOM     26  C   UNL     1     -18.980   4.875  -3.816  1.00  0.00    -0.000 C 
BRANCH  26  27
ATOM     27  C   UNL     1     -18.109   3.647  -4.136  1.00  0.00    -0.000 C 
BRANCH  27  28
ATOM     28  C   UNL     1     -18.862   2.319  -3.953  1.00  0.00    -0.000 C 
BRANCH  28  29
ATOM     29  C   UNL     1     -18.038   1.108  -4.414  1.00  0.00    -0.003 C 
ATOM     30  C   UNL     1     -18.758  -0.201  -4.093  1.00  0.00     0.004 C 
ENDBRANCH  28  29
ENDBRANCH  27  28
ENDBRANCH  26  27
ENDBRANCH  25  26
ENDBRANCH  24  25
ENDBRANCH  23  24
ENDBRANCH  22  23
ENDBRANCH  21  22
ENDBRANCH  20  21
ENDBRANCH  19  20
ENDBRANCH  18  19
ENDBRANCH  17  18
ENDBRANCH   1  17
TORSDOF 26
ENDMDL
MODEL 4
REMARK VINA RESULT:    -2.916      3.420     11.027
REMARK INTER + INTRA:         -10.831
REMARK INTER:                  -7.908
REMARK INTRA:                  -2.923
REMARK UNBOUND:                -3.482
REMARK SMILES CCCCCCCCCCCCCCCCCCCCCCCCCCCC(=O)[O-]
REMARK SMILES IDX 15 1 16 2 17 3 18 4 19 5 20 6 21 7 22 8 23 9 24 10 25 11
REMARK SMILES IDX 26 12 27 13 28 14 29 15 30 16 14 17 13 18 12 19 11 20 10 21
REMARK SMILES IDX 9 22 8 23 7 24 6 25 5 26 4 27 3 28 2 29 1 30
REMARK H PARENT
REMARK Flexibility Score: inf
ROOT
ATOM      1  C   UNL     1     -19.290   5.234   6.225  1.00  0.00     0.000 C 
ENDROOT
BRANCH   1   2
ATOM      2  C   UNL     1     -19.418   6.111   7.486  1.00  0.00     0.000 C 
BRANCH   2   3
ATOM      3  C   UNL     1     -19.467   5.274   8.781  1.00  0.00     0.000 C 
BRANCH   3   4
ATOM      4  C   UNL     1     -19.691   6.109  10.053  1.00  0.00     0.000 C 
BRANCH   4   5
ATOM      5  C   UNL     1     -21.146   6.585  10.203  1.00  0.00     0.000 C 
BRANCH   5   6
ATOM      6  C   UNL     1     -21.541   6.832  11.668  1.00  0.00     0.000 C 
BRANCH   6   7
ATOM      7  C   UNL     1     -23.053   6.714  11.909  1.00  0.00     0.000 C 
BRANCH   7   8
ATOM      8  C   UNL     1     -23.393   5.371  12.564  1.00  0.00     0.000 C 
BRANCH   8   9
ATOM      9  C   UNL     1     -22.124   4.628  13.012  1.00  0.00     0.000 C 
BRANCH   9  10
ATOM     10  C   UNL     1     -22.007   3.234  12.361  1.00  0.00     0.000 C 
BRANCH  10  11
ATOM     11  C   UNL     1     -22.798   3.087  11.048  1.00  0.00     0.000 C 
BRANCH  11  12
ATOM     12  C   UNL     1     -21.908   2.750   9.841  1.00  0.00     0.006 C 
BRANCH  12  13
ATOM     13  C   UNL     1     -20.556   2.152  10.262  1.00  0.00     0.053 C 
BRANCH  13  14
ATOM     14  C   UNL     1     -20.165   0.989   9.403  1.00  0.00     0.041 C 
ATOM     15  O   UNL     1     -18.969   0.595   9.376  1.00  0.00    -0.550 OA
ATOM     16  O   UNL     1     -21.120   0.342   8.626  1.00  0.00    -0.550 OA
ENDBRANCH  13  14
ENDBRANCH  12  13
ENDBRANCH  11  12
ENDBRANCH  10  11
ENDBRANCH   9  10
ENDBRANCH   8   9
ENDBRANCH   7   8
ENDBRANCH   6   7
ENDBRANCH   5   6
ENDBRANCH   4   5
ENDBRANCH   3   4
ENDBRANCH   2   3
ENDBRANCH   1   2
BRANCH   1  17
ATOM     17  C   UNL     1     -18.978   6.051   4.958  1.00  0.00     0.000 C 
BRANCH  17  18
ATOM     18  C   UNL     1     -20.148   6.066   3.957  1.00  0.00     0.000 C 
BRANCH  18  19
ATOM     19  C   UNL     1     -20.158   7.315   3.053  1.00  0.00     0.000 C 
BRANCH  19  20
ATOM     20  C   UNL     1     -20.827   7.135   1.672  1.00  0.00     0.000 C 
BRANCH  20  21
ATOM     21  C   UNL     1     -20.007   6.309   0.664  1.00  0.00     0.000 C 
BRANCH  21  22
ATOM     22  C   UNL     1     -19.166   7.185  -0.283  1.00  0.00    -0.000 C 
BRANCH  22  23
ATOM     23  C   UNL     1     -20.049   8.027  -1.223  1.00  0.00    -0.000 C 
BRANCH  23  24
ATOM     24  C   UNL     1     -19.461   8.092  -2.645  1.00  0.00    -0.000 C 
BRANCH  24  25
ATOM     25  C   UNL     1     -20.261   7.264  -3.670  1.00  0.00    -0.000 C 
BRANCH  25  26
ATOM     26  C   UNL     1     -19.674   5.867  -3.944  1.00  0.00    -0.000 C 
BRANCH  26  27
ATOM     27  C   UNL     1     -20.711   4.738  -3.804  1.00  0.00    -0.000 C 
BRANCH  27  28
ATOM     28  C   UNL     1     -21.234   4.585  -2.365  1.00  0.00    -0.000 C 
BRANCH  28  29
ATOM     29  C   UNL     1     -22.734   4.888  -2.250  1.00  0.00    -0.003 C 
ATOM     30  C   UNL     1     -23.127   5.178  -0.802  1.00  0.00     0.004 C 
ENDBRANCH  28  29
ENDBRANCH  27  28
ENDBRANCH  26  27
ENDBRANCH  25  26
ENDBRANCH  24  25
ENDBRANCH  23  24
ENDBRANCH  22  23
ENDBRANCH  21  22
ENDBRANCH  20  21
ENDBRANCH  19  20
ENDBRANCH  18  19
ENDBRANCH  17  18
ENDBRANCH   1  17
TORSDOF 26
ENDMDL
MODEL 5
REMARK VINA RESULT:    -2.887      1.302      2.708
REMARK INTER + INTRA:         -10.759
REMARK INTER:                  -7.419
REMARK INTRA:                  -3.340
REMARK UNBOUND:                -3.482
REMARK SMILES CCCCCCCCCCCCCCCCCCCCCCCCCCCC(=O)[O-]
REMARK SMILES IDX 15 1 16 2 17 3 18 4 19 5 20 6 21 7 22 8 23 9 24 10 25 11
REMARK SMILES IDX 26 12 27 13 28 14 29 15 30 16 14 17 13 18 12 19 11 20 10 21
REMARK SMILES IDX 9 22 8 23 7 24 6 25 5 26 4 27 3 28 2 29 1 30
REMARK H PARENT
REMARK Flexibility Score: inf
ROOT
ATOM      1  C   UNL     1     -19.363   3.452   6.500  1.00  0.00     0.000 C 
ENDROOT
BRANCH   1   2
ATOM      2  C   UNL     1     -18.709   4.797   6.129  1.00  0.00     0.000 C 
BRANCH   2   3
ATOM      3  C   UNL     1     -18.853   5.848   7.250  1.00  0.00     0.000 C 
BRANCH   3   4
ATOM      4  C   UNL     1     -19.395   7.204   6.766  1.00  0.00     0.000 C 
BRANCH   4   5
ATOM      5  C   UNL     1     -18.447   7.904   5.777  1.00  0.00     0.000 C 
BRANCH   5   6
ATOM      6  C   UNL     1     -19.060   8.054   4.374  1.00  0.00     0.000 C 
BRANCH   6   7
ATOM      7  C   UNL     1     -20.577   7.813   4.355  1.00  0.00     0.000 C 
BRANCH   7   8
ATOM      8  C   UNL     1     -20.970   6.928   3.167  1.00  0.00     0.000 C 
BRANCH   8   9
ATOM      9  C   UNL     1     -19.730   6.389   2.436  1.00  0.00     0.000 C 
BRANCH   9  10
ATOM     10  C   UNL     1     -19.638   6.912   0.986  1.00  0.00     0.000 C 
BRANCH  10  11
ATOM     11  C   UNL     1     -20.248   5.963  -0.062  1.00  0.00     0.000 C 
BRANCH  11  12
ATOM     12  C   UNL     1     -20.241   6.549  -1.483  1.00  0.00     0.006 C 
BRANCH  12  13
ATOM     13  C   UNL     1     -21.659   6.823  -2.009  1.00  0.00     0.053 C 
BRANCH  13  14
ATOM     14  C   UNL     1     -22.543   5.619  -1.890  1.00  0.00     0.041 C 
ATOM     15  O   UNL     1     -22.240   4.549  -2.483  1.00  0.00    -0.550 OA
ATOM     16  O   UNL     1     -23.706   5.677  -1.128  1.00  0.00    -0.550 OA
ENDBRANCH  13  14
ENDBRANCH  12  13
ENDBRANCH  11  12
ENDBRANCH  10  11
ENDBRANCH   9  10
ENDBRANCH   8   9
ENDBRANCH   7   8
ENDBRANCH   6   7
ENDBRANCH   5   6
ENDBRANCH   4   5
ENDBRANCH   3   4
ENDBRANCH   2   3
ENDBRANCH   1   2
BRANCH   1  17
ATOM     17  C   UNL     1     -19.614   3.306   8.012  1.00  0.00     0.000 C 
BRANCH  17  18
ATOM     18  C   UNL     1     -20.887   2.498   8.328  1.00  0.00     0.000 C 
BRANCH  18  19
ATOM     19  C   UNL     1     -20.818   1.760   9.680  1.00  0.00     0.000 C 
BRANCH  19  20
ATOM     20  C   UNL     1     -19.923   2.417  10.755  1.00  0.00     0.000 C 
BRANCH  20  21
ATOM     21  C   UNL     1     -20.683   3.255  11.800  1.00  0.00     0.000 C 
BRANCH  21  22
ATOM     22  C   UNL     1     -19.970   4.578  12.137  1.00  0.00    -0.000 C 
BRANCH  22  23
ATOM     23  C   UNL     1     -19.781   5.463  10.892  1.00  0.00    -0.000 C 
BRANCH  23  24
ATOM     24  C   UNL     1     -21.133   5.832  10.250  1.00  0.00    -0.000 C 
BRANCH  24  25
ATOM     25  C   UNL     1     -21.438   7.342  10.306  1.00  0.00    -0.000 C 
BRANCH  25  26
ATOM     26  C   UNL     1     -21.366   7.945  11.720  1.00  0.00    -0.000 C 
BRANCH  26  27
ATOM     27  C   UNL     1     -22.513   7.480  12.635  1.00  0.00    -0.000 C 
BRANCH  27  28
ATOM     28  C   UNL     1     -23.882   7.512  11.935  1.00  0.00    -0.000 C 
BRANCH  28  29
ATOM     29  C   UNL     1     -24.761   6.309  12.309  1.00  0.00    -0.003 C 
ATOM     30  C   UNL     1     -23.944   5.019  12.335  1.00  0.00     0.004 C 
ENDBRANCH  28  29
ENDBRANCH  27  28
ENDBRANCH  26  27
ENDBRANCH  25  26
ENDBRANCH  24  25
ENDBRANCH  23  24
ENDBRANCH  22  23
ENDBRANCH  21  22
ENDBRANCH  20  21
ENDBRANCH  19  20
ENDBRANCH  18  19
ENDBRANCH  17  18
ENDBRANCH   1  17
TORSDOF 26
ENDMDL
MODEL 6
REMARK VINA RESULT:    -2.816      3.572     11.468
REMARK INTER + INTRA:         -10.579
REMARK INTER:                  -7.675
REMARK INTRA:                  -2.904
REMARK UNBOUND:                -3.482
REMARK SMILES CCCCCCCCCCCCCCCCCCCCCCCCCCCC(=O)[O-]
REMARK SMILES IDX 15 1 16 2 17 3 18 4 19 5 20 6 21 7 22 8 23 9 24 10 25 11
REMARK SMILES IDX 26 12 27 13 28 14 29 15 30 16 14 17 13 18 12 19 11 20 10 21
REMARK SMILES IDX 9 22 8 23 7 24 6 25 5 26 4 27 3 28 2 29 1 30
REMARK H PARENT
REMARK Flexibility Score: inf
ROOT
ATOM      1  C   UNL     1     -20.608   6.285   3.494  1.00  0.00     0.000 C 
ENDROOT
BRANCH   1   2
ATOM      2  C   UNL     1     -19.577   6.668   4.572  1.00  0.00     0.000 C 
BRANCH   2   3
ATOM      3  C   UNL     1     -19.416   5.572   5.647  1.00  0.00     0.000 C 
BRANCH   3   4
ATOM      4  C   UNL     1     -19.119   6.119   7.054  1.00  0.00     0.000 C 
BRANCH   4   5
ATOM      5  C   UNL     1     -19.711   5.240   8.169  1.00  0.00     0.000 C 
BRANCH   5   6
ATOM      6  C   UNL     1     -20.527   6.050   9.190  1.00  0.00     0.000 C 
BRANCH   6   7
ATOM      7  C   UNL     1     -19.680   6.561  10.365  1.00  0.00     0.000 C 
BRANCH   7   8
ATOM      8  C   UNL     1     -20.474   6.496  11.674  1.00  0.00     0.000 C 
BRANCH   8   9
ATOM      9  C   UNL     1     -21.928   6.064  11.427  1.00  0.00     0.000 C 
BRANCH   9  10
ATOM     10  C   UNL     1     -22.489   5.222  12.593  1.00  0.00     0.000 C 
BRANCH  10  11
ATOM     11  C   UNL     1     -22.478   3.704  12.332  1.00  0.00     0.000 C 
BRANCH  11  12
ATOM     12  C   UNL     1     -22.316   3.349  10.845  1.00  0.00     0.006 C 
BRANCH  12  13
ATOM     13  C   UNL     1     -21.091   2.457  10.588  1.00  0.00     0.053 C 
BRANCH  13  14
ATOM     14  C   UNL     1     -21.306   1.529   9.432  1.00  0.00     0.041 C 
ATOM     15  O   UNL     1     -20.350   0.839   8.988  1.00  0.00    -0.550 OA
ATOM     16  O   UNL     1     -22.561   1.427   8.841  1.00  0.00    -0.550 OA
ENDBRANCH  13  14
ENDBRANCH  12  13
ENDBRANCH  11  12
ENDBRANCH  10  11
ENDBRANCH   9  10
ENDBRANCH   8   9
ENDBRANCH   7   8
ENDBRANCH   6   7
ENDBRANCH   5   6
ENDBRANCH   4   5
ENDBRANCH   3   4
ENDBRANCH   2   3
ENDBRANCH   1   2
BRANCH   1  17
ATOM     17  C   UNL     1     -20.449   7.101   2.198  1.00  0.00     0.000 C 
BRANCH  17  18
ATOM     18  C   UNL     1     -19.808   6.288   1.058  1.00  0.00     0.000 C 
BRANCH  18  19
ATOM     19  C   UNL     1     -18.400   6.784   0.675  1.00  0.00     0.000 C 
BRANCH  19  20
ATOM     20  C   UNL     1     -18.102   6.848  -0.840  1.00  0.00     0.000 C 
BRANCH  20  21
ATOM     21  C   UNL     1     -18.866   7.949  -1.598  1.00  0.00     0.000 C 
BRANCH  21  22
ATOM     22  C   UNL     1     -18.784   7.787  -3.128  1.00  0.00    -0.000 C 
BRANCH  22  23
ATOM     23  C   UNL     1     -18.070   6.483  -3.530  1.00  0.00    -0.000 C 
BRANCH  23  24
ATOM     24  C   UNL     1     -18.947   5.621  -4.458  1.00  0.00    -0.000 C 
BRANCH  24  25
ATOM     25  C   UNL     1     -19.251   4.224  -3.880  1.00  0.00    -0.000 C 
BRANCH  25  26
ATOM     26  C   UNL     1     -20.680   4.069  -3.330  1.00  0.00    -0.000 C 
BRANCH  26  27
ATOM     27  C   UNL     1     -20.914   4.848  -2.023  1.00  0.00    -0.000 C 
BRANCH  27  28
ATOM     28  C   UNL     1     -21.977   5.949  -2.168  1.00  0.00    -0.000 C 
BRANCH  28  29
ATOM     29  C   UNL     1     -23.114   5.808  -1.145  1.00  0.00    -0.003 C 
ATOM     30  C   UNL     1     -23.155   4.397  -0.562  1.00  0.00     0.004 C 
ENDBRANCH  28  29
ENDBRANCH  27  28
ENDBRANCH  26  27
ENDBRANCH  25  26
ENDBRANCH  24  25
ENDBRANCH  23  24
ENDBRANCH  22  23
ENDBRANCH  21  22
ENDBRANCH  20  21
ENDBRANCH  19  20
ENDBRANCH  18  19
ENDBRANCH  17  18
ENDBRANCH   1  17
TORSDOF 26
ENDMDL
MODEL 7
REMARK VINA RESULT:    -2.807      2.256      6.187
REMARK INTER + INTRA:         -10.556
REMARK INTER:                  -8.102
REMARK INTRA:                  -2.454
REMARK UNBOUND:                -3.482
REMARK SMILES CCCCCCCCCCCCCCCCCCCCCCCCCCCC(=O)[O-]
REMARK SMILES IDX 15 1 16 2 17 3 18 4 19 5 20 6 21 7 22 8 23 9 24 10 25 11
REMARK SMILES IDX 26 12 27 13 28 14 29 15 30 16 14 17 13 18 12 19 11 20 10 21
REMARK SMILES IDX 9 22 8 23 7 24 6 25 5 26 4 27 3 28 2 29 1 30
REMARK H PARENT
REMARK Flexibility Score: inf
ROOT
ATOM      1  C   UNL     1     -20.827   6.589   2.695  1.00  0.00     0.000 C 
ENDROOT
BRANCH   1   2
ATOM      2  C   UNL     1     -20.044   7.703   1.974  1.00  0.00     0.000 C 
BRANCH   2   3
ATOM      3  C   UNL     1     -18.755   7.178   1.308  1.00  0.00     0.000 C 
BRANCH   3   4
ATOM      4  C   UNL     1     -18.961   5.907   0.467  1.00  0.00     0.000 C 
BRANCH   4   5
ATOM      5  C   UNL     1     -18.389   6.036  -0.955  1.00  0.00     0.000 C 
BRANCH   5   6
ATOM      6  C   UNL     1     -18.157   7.498  -1.370  1.00  0.00     0.000 C 
BRANCH   6   7
ATOM      7  C   UNL     1     -19.074   7.948  -2.517  1.00  0.00     0.000 C 
BRANCH   7   8
ATOM      8  C   UNL     1     -18.353   7.827  -3.864  1.00  0.00     0.000 C 
BRANCH   8   9
ATOM      9  C   UNL     1     -18.511   6.420  -4.461  1.00  0.00     0.000 C 
BRANCH   9  10
ATOM     10  C   UNL     1     -19.990   5.988  -4.549  1.00  0.00     0.000 C 
BRANCH  10  11
ATOM     11  C   UNL     1     -20.305   4.675  -3.808  1.00  0.00     0.000 C 
BRANCH  11  12
ATOM     12  C   UNL     1     -21.732   4.630  -3.240  1.00  0.00     0.006 C 
BRANCH  12  13
ATOM     13  C   UNL     1     -21.914   5.577  -2.043  1.00  0.00     0.053 C 
BRANCH  13  14
ATOM     14  C   UNL     1     -23.075   5.180  -1.185  1.00  0.00     0.041 C 
ATOM     15  O   UNL     1     -23.019   4.130  -0.490  1.00  0.00    -0.550 OA
ATOM     16  O   UNL     1     -24.223   5.965  -1.153  1.00  0.00    -0.550 OA
ENDBRANCH  13  14
ENDBRANCH  12  13
ENDBRANCH  11  12
ENDBRANCH  10  11
ENDBRANCH   9  10
ENDBRANCH   8   9
ENDBRANCH   7   8
ENDBRANCH   6   7
ENDBRANCH   5   6
ENDBRANCH   4   5
ENDBRANCH   3   4
ENDBRANCH   2   3
ENDBRANCH   1   2
BRANCH   1  17
ATOM     17  C   UNL     1     -20.115   6.081   3.963  1.00  0.00     0.000 C 
BRANCH  17  18
ATOM     18  C   UNL     1     -19.727   7.220   4.924  1.00  0.00     0.000 C 
BRANCH  18  19
ATOM     19  C   UNL     1     -18.623   6.822   5.923  1.00  0.00     0.000 C 
BRANCH  19  20
ATOM     20  C   UNL     1     -18.780   7.387   7.353  1.00  0.00     0.000 C 
BRANCH  20  21
ATOM     21  C   UNL     1     -18.920   6.320   8.454  1.00  0.00     0.000 C 
BRANCH  21  22
ATOM     22  C   UNL     1     -19.859   5.167   8.052  1.00  0.00    -0.000 C 
BRANCH  22  23
ATOM     23  C   UNL     1     -20.502   4.495   9.278  1.00  0.00    -0.000 C 
BRANCH  23  24
ATOM     24  C   UNL     1     -20.490   2.959   9.153  1.00  0.00    -0.000 C 
BRANCH  24  25
ATOM     25  C   UNL     1     -21.529   2.269  10.060  1.00  0.00    -0.000 C 
BRANCH  25  26
ATOM     26  C   UNL     1     -22.447   3.245  10.819  1.00  0.00    -0.000 C 
BRANCH  26  27
ATOM     27  C   UNL     1     -22.181   3.271  12.335  1.00  0.00    -0.000 C 
BRANCH  27  28
ATOM     28  C   UNL     1     -22.579   4.607  12.986  1.00  0.00    -0.000 C 
BRANCH  28  29
ATOM     29  C   UNL     1     -23.287   5.551  12.004  1.00  0.00    -0.003 C 
ATOM     30  C   UNL     1     -24.782   5.635  12.305  1.00  0.00     0.004 C 
ENDBRANCH  28  29
ENDBRANCH  27  28
ENDBRANCH  26  27
ENDBRANCH  25  26
ENDBRANCH  24  25
ENDBRANCH  23  24
ENDBRANCH  22  23
ENDBRANCH  21  22
ENDBRANCH  20  21
ENDBRANCH  19  20
ENDBRANCH  18  19
ENDBRANCH  17  18
ENDBRANCH   1  17
TORSDOF 26
ENDMDL
MODEL 8
REMARK VINA RESULT:    -2.754      4.241     11.520
REMARK INTER + INTRA:         -10.422
REMARK INTER:                  -7.639
REMARK INTRA:                  -2.783
REMARK UNBOUND:                -3.482
REMARK SMILES CCCCCCCCCCCCCCCCCCCCCCCCCCCC(=O)[O-]
REMARK SMILES IDX 15 1 16 2 17 3 18 4 19 5 20 6 21 7 22 8 23 9 24 10 25 11
REMARK SMILES IDX 26 12 27 13 28 14 29 15 30 16 14 17 13 18 12 19 11 20 10 21
REMARK SMILES IDX 9 22 8 23 7 24 6 25 5 26 4 27 3 28 2 29 1 30
REMARK H PARENT
REMARK Flexibility Score: inf
ROOT
ATOM      1  C   UNL     1     -19.503   5.714   4.962  1.00  0.00     0.000 C 
ENDROOT
BRANCH   1   2
ATOM      2  C   UNL     1     -18.865   6.568   6.075  1.00  0.00     0.000 C 
BRANCH   2   3
ATOM      3  C   UNL     1     -18.782   5.814   7.419  1.00  0.00     0.000 C 
BRANCH   3   4
ATOM      4  C   UNL     1     -19.544   4.478   7.431  1.00  0.00     0.000 C 
BRANCH   4   5
ATOM      5  C   UNL     1     -18.606   3.260   7.473  1.00  0.00     0.000 C 
BRANCH   5   6
ATOM      6  C   UNL     1     -17.908   3.097   8.834  1.00  0.00     0.000 C 
BRANCH   6   7
ATOM      7  C   UNL     1     -18.619   2.094   9.755  1.00  0.00     0.000 C 
BRANCH   7   8
ATOM      8  C   UNL     1     -19.359   2.823  10.881  1.00  0.00     0.000 C 
BRANCH   8   9
ATOM      9  C   UNL     1     -20.880   2.645  10.760  1.00  0.00     0.000 C 
BRANCH   9  10
ATOM     10  C   UNL     1     -21.617   3.998  10.654  1.00  0.00     0.000 C 
BRANCH  10  11
ATOM     11  C   UNL     1     -21.200   5.023  11.725  1.00  0.00     0.000 C 
BRANCH  11  12
ATOM     12  C   UNL     1     -22.304   5.299  12.759  1.00  0.00     0.006 C 
BRANCH  12  13
ATOM     13  C   UNL     1     -23.691   4.868  12.259  1.00  0.00     0.053 C 
BRANCH  13  14
ATOM     14  C   UNL     1     -24.627   6.031  12.129  1.00  0.00     0.041 C 
ATOM     15  O   UNL     1     -25.873   5.850  12.178  1.00  0.00    -0.550 OA
ATOM     16  O   UNL     1     -24.124   7.315  11.948  1.00  0.00    -0.550 OA
ENDBRANCH  13  14
ENDBRANCH  12  13
ENDBRANCH  11  12
ENDBRANCH  10  11
ENDBRANCH   9  10
ENDBRANCH   8   9
ENDBRANCH   7   8
ENDBRANCH   6   7
ENDBRANCH   5   6
ENDBRANCH   4   5
ENDBRANCH   3   4
ENDBRANCH   2   3
ENDBRANCH   1   2
BRANCH   1  17
ATOM     17  C   UNL     1     -19.424   6.382   3.577  1.00  0.00     0.000 C 
BRANCH  17  18
ATOM     18  C   UNL     1     -18.175   5.957   2.782  1.00  0.00     0.000 C 
BRANCH  18  19
ATOM     19  C   UNL     1     -18.151   6.515   1.345  1.00  0.00     0.000 C 
BRANCH  19  20
ATOM     20  C   UNL     1     -19.375   6.161   0.470  1.00  0.00     0.000 C 
BRANCH  20  21
ATOM     21  C   UNL     1     -20.264   7.360   0.094  1.00  0.00     0.000 C 
BRANCH  21  22
ATOM     22  C   UNL     1     -20.255   7.659  -1.417  1.00  0.00    -0.000 C 
BRANCH  22  23
ATOM     23  C   UNL     1     -18.845   7.523  -2.021  1.00  0.00    -0.000 C 
BRANCH  23  24
ATOM     24  C   UNL     1     -18.886   6.855  -3.409  1.00  0.00    -0.000 C 
BRANCH  24  25
ATOM     25  C   UNL     1     -18.334   5.415  -3.405  1.00  0.00    -0.000 C 
BRANCH  25  26
ATOM     26  C   UNL     1     -19.344   4.355  -3.881  1.00  0.00    -0.000 C 
BRANCH  26  27
ATOM     27  C   UNL     1     -20.809   4.773  -3.663  1.00  0.00    -0.000 C 
BRANCH  27  28
ATOM     28  C   UNL     1     -21.389   4.239  -2.342  1.00  0.00    -0.000 C 
BRANCH  28  29
ATOM     29  C   UNL     1     -22.740   4.880  -1.993  1.00  0.00    -0.003 C 
ATOM     30  C   UNL     1     -22.989   4.850  -0.486  1.00  0.00     0.004 C 
ENDBRANCH  28  29
ENDBRANCH  27  28
ENDBRANCH  26  27
ENDBRANCH  25  26
ENDBRANCH  24  25
ENDBRANCH  23  24
ENDBRANCH  22  23
ENDBRANCH  21  22
ENDBRANCH  20  21
ENDBRANCH  19  20
ENDBRANCH  18  19
ENDBRANCH  17  18
ENDBRANCH   1  17
TORSDOF 26
ENDMDL
MODEL 9
REMARK VINA RESULT:    -2.746      1.377      3.622
REMARK INTER + INTRA:         -10.403
REMARK INTER:                  -7.293
REMARK INTRA:                  -3.110
REMARK UNBOUND:                -3.482
REMARK SMILES CCCCCCCCCCCCCCCCCCCCCCCCCCCC(=O)[O-]
REMARK SMILES IDX 15 1 16 2 17 3 18 4 19 5 20 6 21 7 22 8 23 9 24 10 25 11
REMARK SMILES IDX 26 12 27 13 28 14 29 15 30 16 14 17 13 18 12 19 11 20 10 21
REMARK SMILES IDX 9 22 8 23 7 24 6 25 5 26 4 27 3 28 2 29 1 30
REMARK H PARENT
REMARK Flexibility Score: inf
ROOT
ATOM      1  C   UNL     1     -19.643   3.243   7.053  1.00  0.00     0.000 C 
ENDROOT
BRANCH   1   2
ATOM      2  C   UNL     1     -18.322   4.031   7.144  1.00  0.00     0.000 C 
BRANCH   2   3
ATOM      3  C   UNL     1     -18.197   5.099   6.038  1.00  0.00     0.000 C 
BRANCH   3   4
ATOM      4  C   UNL     1     -19.333   5.057   5.001  1.00  0.00     0.000 C 
BRANCH   4   5
ATOM      5  C   UNL     1     -19.725   6.455   4.492  1.00  0.00     0.000 C 
BRANCH   5   6
ATOM      6  C   UNL     1     -18.526   7.413   4.412  1.00  0.00     0.000 C 
BRANCH   6   7
ATOM      7  C   UNL     1     -18.396   8.096   3.042  1.00  0.00     0.000 C 
BRANCH   7   8
ATOM      8  C   UNL     1     -18.782   7.131   1.917  1.00  0.00     0.000 C 
BRANCH   8   9
ATOM      9  C   UNL     1     -19.888   7.720   1.027  1.00  0.00     0.000 C 
BRANCH   9  10
ATOM     10  C   UNL     1     -20.975   6.679   0.684  1.00  0.00     0.000 C 
BRANCH  10  11
ATOM     11  C   UNL     1     -20.592   5.731  -0.469  1.00  0.00     0.000 C 
BRANCH  11  12
ATOM     12  C   UNL     1     -20.437   6.452  -1.817  1.00  0.00     0.006 C 
BRANCH  12  13
ATOM     13  C   UNL     1     -19.560   5.664  -2.803  1.00  0.00     0.053 C 
BRANCH  13  14
ATOM     14  C   UNL     1     -20.273   4.469  -3.356  1.00  0.00     0.041 C 
ATOM     15  O   UNL     1     -19.618   3.473  -3.766  1.00  0.00    -0.550 OA
ATOM     16  O   UNL     1     -21.663   4.454  -3.426  1.00  0.00    -0.550 OA
ENDBRANCH  13  14
ENDBRANCH  12  13
ENDBRANCH  11  12
ENDBRANCH  10  11
ENDBRANCH   9  10
ENDBRANCH   8   9
ENDBRANCH   7   8
ENDBRANCH   6   7
ENDBRANCH   5   6
ENDBRANCH   4   5
ENDBRANCH   3   4
ENDBRANCH   2   3
ENDBRANCH   1   2
BRANCH   1  17
ATOM     17  C   UNL     1     -20.479   3.325   8.343  1.00  0.00     0.000 C 
BRANCH  17  18
ATOM     18  C   UNL     1     -21.368   2.085   8.556  1.00  0.00     0.000 C 
BRANCH  18  19
ATOM     19  C   UNL     1     -21.699   1.823  10.039  1.00  0.00     0.000 C 
BRANCH  19  20
ATOM     20  C   UNL     1     -20.788   2.536  11.063  1.00  0.00     0.000 C 
BRANCH  20  21
ATOM     21  C   UNL     1     -21.538   3.324  12.152  1.00  0.00     0.000 C 
BRANCH  21  22
ATOM     22  C   UNL     1     -22.759   4.086  11.603  1.00  0.00    -0.000 C 
BRANCH  22  23
ATOM     23  C   UNL     1     -23.522   4.828  12.715  1.00  0.00    -0.000 C 
BRANCH  23  24
ATOM     24  C   UNL     1     -23.019   6.276  12.878  1.00  0.00    -0.000 C 
BRANCH  24  25
ATOM     25  C   UNL     1     -23.660   7.256  11.876  1.00  0.00    -0.000 C 
BRANCH  25  26
ATOM     26  C   UNL     1     -22.645   8.107  11.092  1.00  0.00    -0.000 C 
BRANCH  26  27
ATOM     27  C   UNL     1     -21.221   7.523  11.114  1.00  0.00    -0.000 C 
BRANCH  27  28
ATOM     28  C   UNL     1     -20.876   6.745   9.833  1.00  0.00    -0.000 C 
BRANCH  28  29
ATOM     29  C   UNL     1     -19.362   6.622   9.609  1.00  0.00    -0.003 C 
ATOM     30  C   UNL     1     -18.737   5.645  10.603  1.00  0.00     0.004 C 
ENDBRANCH  28  29
ENDBRANCH  27  28
ENDBRANCH  26  27
ENDBRANCH  25  26
ENDBRANCH  24  25
ENDBRANCH  23  24
ENDBRANCH  22  23
ENDBRANCH  21  22
ENDBRANCH  20  21
ENDBRANCH  19  20
ENDBRANCH  18  19
ENDBRANCH  17  18
ENDBRANCH   1  17
TORSDOF 26
ENDMDL
