MODEL 1
REMARK VINA RESULT:    -4.350      0.000      0.000
REMARK INTER + INTRA:          -4.350
REMARK INTER:                  -4.350
REMARK INTRA:                   0.000
REMARK UNBOUND:                 0.000
REMARK SMILES CC1=CC(=O)[C@@H]2C[C@H]1C2(C)C
REMARK SMILES IDX 1 1 2 2 3 3 4 4 5 5 6 6 7 7 8 8 9 9 10 10 11 11
REMARK H PARENT
REMARK Flexibility Score: inf
ROOT
ATOM      1  C   UNL     1      -5.151  13.751  -2.470  1.00  0.00     0.040 C 
ATOM      2  C   UNL     1      -5.164  13.166  -3.846  1.00  0.00    -0.066 C 
ATOM      3  C   UNL     1      -4.122  12.421  -4.310  1.00  0.00     0.047 C 
ATOM      4  C   UNL     1      -4.268  11.865  -5.693  1.00  0.00     0.159 C 
ATOM      5  O   UNL     1      -3.392  11.130  -6.218  1.00  0.00    -0.295 OA
ATOM      6  C   UNL     1      -5.555  12.252  -6.421  1.00  0.00     0.067 C 
ATOM      7  C   UNL     1      -5.695  13.768  -6.164  1.00  0.00     0.021 C 
ATOM      8  C   UNL     1      -6.345  13.391  -4.813  1.00  0.00     0.022 C 
ATOM      9  C   UNL     1      -6.755  12.033  -5.455  1.00  0.00    -0.019 C 
ATOM     10  C   UNL     1      -8.120  12.112  -6.183  1.00  0.00     0.012 C 
ATOM     11  C   UNL     1      -6.757  10.766  -4.554  1.00  0.00     0.012 C 
ENDROOT
TORSDOF 0
ENDMDL
MODEL 2
REMARK VINA RESULT:    -4.261     14.608     16.185
REMARK INTER + INTRA:          -4.261
REMARK INTER:                  -4.261
REMARK INTRA:                   0.000
REMARK UNBOUND:                 0.000
REMARK SMILES CC1=CC(=O)[C@@H]2C[C@H]1C2(C)C
REMARK SMILES IDX 1 1 2 2 3 3 4 4 5 5 6 6 7 7 8 8 9 9 10 10 11 11
REMARK H PARENT
REMARK Flexibility Score: inf
ROOT
ATOM      1  C   UNL     1       6.604   5.527  -5.703  1.00  0.00     0.040 C 
ATOM      2  C   UNL     1       6.978   4.167  -6.198  1.00  0.00    -0.066 C 
ATOM      3  C   UNL     1       6.603   3.041  -5.529  1.00  0.00     0.047 C 
ATOM      4  C   UNL     1       7.012   1.737  -6.143  1.00  0.00     0.159 C 
ATOM      5  O   UNL     1       6.692   0.628  -5.641  1.00  0.00    -0.295 OA
ATOM      6  C   UNL     1       7.844   1.848  -7.420  1.00  0.00     0.067 C 
ATOM      7  C   UNL     1       8.897   2.929  -7.095  1.00  0.00     0.021 C 
ATOM      8  C   UNL     1       7.820   3.970  -7.477  1.00  0.00     0.022 C 
ATOM      9  C   UNL     1       7.161   2.877  -8.368  1.00  0.00    -0.019 C 
ATOM     10  C   UNL     1       7.755   2.845  -9.798  1.00  0.00     0.012 C 
ATOM     11  C   UNL     1       5.611   2.859  -8.483  1.00  0.00     0.012 C 
ENDROOT
TORSDOF 0
ENDMDL
MODEL 3
REMARK VINA RESULT:    -4.157      2.252      3.185
REMARK INTER + INTRA:          -4.157
REMARK INTER:                  -4.157
REMARK INTRA:                   0.000
REMARK UNBOUND:                 0.000
REMARK SMILES CC1=CC(=O)[C@@H]2C[C@H]1C2(C)C
REMARK SMILES IDX 1 1 2 2 3 3 4 4 5 5 6 6 7 7 8 8 9 9 10 10 11 11
REMARK H PARENT
REMARK Flexibility Score: inf
ROOT
ATOM      1  C   UNL     1      -3.791  12.647  -4.185  1.00  0.00     0.040 C 
ATOM      2  C   UNL     1      -5.277  12.483  -4.239  1.00  0.00    -0.066 C 
ATOM      3  C   UNL     1      -6.094  13.135  -3.366  1.00  0.00     0.047 C 
ATOM      4  C   UNL     1      -7.565  12.912  -3.543  1.00  0.00     0.159 C 
ATOM      5  O   UNL     1      -8.423  13.488  -2.825  1.00  0.00    -0.295 OA
ATOM      6  C   UNL     1      -7.950  11.938  -4.656  1.00  0.00     0.067 C 
ATOM      7  C   UNL     1      -6.991  10.743  -4.463  1.00  0.00     0.021 C 
ATOM      8  C   UNL     1      -5.954  11.557  -5.271  1.00  0.00     0.022 C 
ATOM      9  C   UNL     1      -7.145  12.306  -5.936  1.00  0.00    -0.019 C 
ATOM     10  C   UNL     1      -7.674  11.574  -7.195  1.00  0.00     0.012 C 
ATOM     11  C   UNL     1      -6.964  13.809  -6.287  1.00  0.00     0.012 C 
ENDROOT
TORSDOF 0
ENDMDL
MODEL 4
REMARK VINA RESULT:    -4.107      2.048      3.651
REMARK INTER + INTRA:          -4.107
REMARK INTER:                  -4.107
REMARK INTRA:                   0.000
REMARK UNBOUND:                 0.000
REMARK SMILES CC1=CC(=O)[C@@H]2C[C@H]1C2(C)C
REMARK SMILES IDX 1 1 2 2 3 3 4 4 5 5 6 6 7 7 8 8 9 9 10 10 11 11
REMARK H PARENT
REMARK Flexibility Score: inf
ROOT
ATOM      1  C   UNL     1      -6.381  12.580  -7.857  1.00  0.00     0.040 C 
ATOM      2  C   UNL     1      -6.943  12.260  -6.509  1.00  0.00    -0.066 C 
ATOM      3  C   UNL     1      -7.225  10.978  -6.144  1.00  0.00     0.047 C 
ATOM      4  C   UNL     1      -7.754  10.785  -4.756  1.00  0.00     0.159 C 
ATOM      5  O   UNL     1      -8.015   9.646  -4.288  1.00  0.00    -0.295 OA
ATOM      6  C   UNL     1      -7.953  12.067  -3.947  1.00  0.00     0.067 C 
ATOM      7  C   UNL     1      -8.655  13.029  -4.930  1.00  0.00     0.021 C 
ATOM      8  C   UNL     1      -7.246  13.363  -5.473  1.00  0.00     0.022 C 
ATOM      9  C   UNL     1      -6.675  12.944  -4.087  1.00  0.00    -0.019 C 
ATOM     10  C   UNL     1      -6.654  14.119  -3.078  1.00  0.00     0.012 C 
ATOM     11  C   UNL     1      -5.289  12.241  -4.046  1.00  0.00     0.012 C 
ENDROOT
TORSDOF 0
ENDMDL
MODEL 5
REMARK VINA RESULT:    -4.089     14.793     16.320
REMARK INTER + INTRA:          -4.089
REMARK INTER:                  -4.089
REMARK INTRA:                   0.000
REMARK UNBOUND:                 0.000
REMARK SMILES CC1=CC(=O)[C@@H]2C[C@H]1C2(C)C
REMARK SMILES IDX 1 1 2 2 3 3 4 4 5 5 6 6 7 7 8 8 9 9 10 10 11 11
REMARK H PARENT
REMARK Flexibility Score: inf
ROOT
ATOM      1  C   UNL     1       8.187   5.331  -8.549  1.00  0.00     0.040 C 
ATOM      2  C   UNL     1       7.628   4.198  -7.749  1.00  0.00    -0.066 C 
ATOM      3  C   UNL     1       7.337   2.999  -8.326  1.00  0.00     0.047 C 
ATOM      4  C   UNL     1       6.810   1.934  -7.413  1.00  0.00     0.159 C 
ATOM      5  O   UNL     1       6.542   0.773  -7.819  1.00  0.00    -0.295 OA
ATOM      6  C   UNL     1       6.623   2.355  -5.956  1.00  0.00     0.067 C 
ATOM      7  C   UNL     1       5.926   3.730  -6.045  1.00  0.00     0.021 C 
ATOM      8  C   UNL     1       7.335   4.335  -6.240  1.00  0.00     0.022 C 
ATOM      9  C   UNL     1       7.908   3.099  -5.487  1.00  0.00    -0.019 C 
ATOM     10  C   UNL     1       7.941   3.306  -3.952  1.00  0.00     0.012 C 
ATOM     11  C   UNL     1       9.288   2.541  -5.934  1.00  0.00     0.012 C 
ENDROOT
TORSDOF 0
ENDMDL
MODEL 6
REMARK VINA RESULT:    -4.042     14.334     16.061
REMARK INTER + INTRA:          -4.042
REMARK INTER:                  -4.042
REMARK INTRA:                   0.000
REMARK UNBOUND:                 0.000
REMARK SMILES CC1=CC(=O)[C@@H]2C[C@H]1C2(C)C
REMARK SMILES IDX 1 1 2 2 3 3 4 4 5 5 6 6 7 7 8 8 9 9 10 10 11 11
REMARK H PARENT
REMARK Flexibility Score: inf
ROOT
ATOM      1  C   UNL     1       5.754   2.114  -9.217  1.00  0.00     0.040 C 
ATOM      2  C   UNL     1       6.556   2.585  -8.046  1.00  0.00    -0.066 C 
ATOM      3  C   UNL     1       7.829   2.149  -7.837  1.00  0.00     0.047 C 
ATOM      4  C   UNL     1       8.538   2.718  -6.646  1.00  0.00     0.159 C 
ATOM      5  O   UNL     1       9.731   2.424  -6.370  1.00  0.00    -0.295 OA
ATOM      6  C   UNL     1       7.714   3.681  -5.792  1.00  0.00     0.067 C 
ATOM      7  C   UNL     1       6.351   2.973  -5.632  1.00  0.00     0.021 C 
ATOM      8  C   UNL     1       5.977   3.570  -7.008  1.00  0.00     0.022 C 
ATOM      9  C   UNL     1       7.011   4.701  -6.735  1.00  0.00    -0.019 C 
ATOM     10  C   UNL     1       6.393   5.891  -5.959  1.00  0.00     0.012 C 
ATOM     11  C   UNL     1       7.814   5.269  -7.938  1.00  0.00     0.012 C 
ENDROOT
TORSDOF 0
ENDMDL
MODEL 7
REMARK VINA RESULT:    -4.024     14.239     15.642
REMARK INTER + INTRA:          -4.024
REMARK INTER:                  -4.024
REMARK INTRA:                   0.000
REMARK UNBOUND:                 0.000
REMARK SMILES CC1=CC(=O)[C@@H]2C[C@H]1C2(C)C
REMARK SMILES IDX 1 1 2 2 3 3 4 4 5 5 6 6 7 7 8 8 9 9 10 10 11 11
REMARK H PARENT
REMARK Flexibility Score: inf
ROOT
ATOM      1  C   UNL     1       4.300   3.451  -9.468  1.00  0.00     0.040 C 
ATOM      2  C   UNL     1       5.583   3.643  -8.724  1.00  0.00    -0.066 C 
ATOM      3  C   UNL     1       6.121   4.881  -8.548  1.00  0.00     0.047 C 
ATOM      4  C   UNL     1       7.393   4.946  -7.759  1.00  0.00     0.159 C 
ATOM      5  O   UNL     1       7.966   6.035  -7.495  1.00  0.00    -0.295 OA
ATOM      6  C   UNL     1       7.945   3.598  -7.296  1.00  0.00     0.067 C 
ATOM      7  C   UNL     1       7.839   2.696  -8.545  1.00  0.00     0.021 C 
ATOM      8  C   UNL     1       6.368   2.451  -8.137  1.00  0.00     0.022 C 
ATOM      9  C   UNL     1       6.781   2.775  -6.671  1.00  0.00    -0.019 C 
ATOM     10  C   UNL     1       7.287   1.523  -5.911  1.00  0.00     0.012 C 
ATOM     11  C   UNL     1       5.757   3.514  -5.765  1.00  0.00     0.012 C 
ENDROOT
TORSDOF 0
ENDMDL
MODEL 8
REMARK VINA RESULT:    -3.954      1.973      3.611
REMARK INTER + INTRA:          -3.954
REMARK INTER:                  -3.954
REMARK INTRA:                   0.000
REMARK UNBOUND:                 0.000
REMARK SMILES CC1=CC(=O)[C@@H]2C[C@H]1C2(C)C
REMARK SMILES IDX 1 1 2 2 3 3 4 4 5 5 6 6 7 7 8 8 9 9 10 10 11 11
REMARK H PARENT
REMARK Flexibility Score: inf
ROOT
ATOM      1  C   UNL     1      -8.293   9.968  -4.189  1.00  0.00     0.040 C 
ATOM      2  C   UNL     1      -7.589  11.171  -4.730  1.00  0.00    -0.066 C 
ATOM      3  C   UNL     1      -8.218  12.044  -5.566  1.00  0.00     0.047 C 
ATOM      4  C   UNL     1      -7.417  13.227  -6.015  1.00  0.00     0.159 C 
ATOM      5  O   UNL     1      -7.898  14.123  -6.756  1.00  0.00    -0.295 OA
ATOM      6  C   UNL     1      -5.975  13.270  -5.510  1.00  0.00     0.067 C 
ATOM      7  C   UNL     1      -5.452  11.835  -5.734  1.00  0.00     0.021 C 
ATOM      8  C   UNL     1      -6.116  11.475  -4.385  1.00  0.00     0.022 C 
ATOM      9  C   UNL     1      -5.976  12.972  -3.983  1.00  0.00    -0.019 C 
ATOM     10  C   UNL     1      -4.610  13.280  -3.321  1.00  0.00     0.012 C 
ATOM     11  C   UNL     1      -7.095  13.605  -3.108  1.00  0.00     0.012 C 
ENDROOT
TORSDOF 0
ENDMDL
MODEL 9
REMARK VINA RESULT:    -3.929      2.221      3.209
REMARK INTER + INTRA:          -3.929
REMARK INTER:                  -3.929
REMARK INTRA:                   0.000
REMARK UNBOUND:                 0.000
REMARK SMILES CC1=CC(=O)[C@@H]2C[C@H]1C2(C)C
REMARK SMILES IDX 1 1 2 2 3 3 4 4 5 5 6 6 7 7 8 8 9 9 10 10 11 11
REMARK H PARENT
REMARK Flexibility Score: inf
ROOT
ATOM      1  C   UNL     1      -4.167  11.769  -5.770  1.00  0.00     0.040 C 
ATOM      2  C   UNL     1      -5.594  12.169  -5.574  1.00  0.00    -0.066 C 
ATOM      3  C   UNL     1      -6.212  13.032  -6.428  1.00  0.00     0.047 C 
ATOM      4  C   UNL     1      -7.653  13.330  -6.142  1.00  0.00     0.159 C 
ATOM      5  O   UNL     1      -8.343  14.081  -6.880  1.00  0.00    -0.295 OA
ATOM      6  C   UNL     1      -8.224  12.658  -4.894  1.00  0.00     0.067 C 
ATOM      7  C   UNL     1      -7.145  12.884  -3.813  1.00  0.00     0.021 C 
ATOM      8  C   UNL     1      -6.431  11.640  -4.390  1.00  0.00     0.022 C 
ATOM      9  C   UNL     1      -7.816  11.157  -4.909  1.00  0.00    -0.019 C 
ATOM     10  C   UNL     1      -8.586  10.326  -3.852  1.00  0.00     0.012 C 
ATOM     11  C   UNL     1      -7.867  10.391  -6.261  1.00  0.00     0.012 C 
ENDROOT
TORSDOF 0
ENDMDL
