MODEL 1
REMARK VINA RESULT:    -2.294      0.000      0.000
REMARK INTER + INTRA:          -3.484
REMARK INTER:                  -3.233
REMARK INTRA:                  -0.251
REMARK UNBOUND:                -0.251
REMARK SMILES CCCCCCCCC(=O)[O-]
REMARK SMILES IDX 6 1 7 2 8 3 9 4 10 5 11 6 5 7 4 8 3 9 2 10 1 11
REMARK H PARENT
REMARK Flexibility Score: inf
ROOT
ATOM      1  C   UNL     1     -13.566  58.608  -9.156  1.00  0.00     0.000 C 
ENDROOT
BRANCH   1   2
ATOM      2  C   UNL     1     -13.368  57.331  -9.989  1.00  0.00     0.006 C 
BRANCH   2   3
ATOM      3  C   UNL     1     -11.932  56.795  -9.920  1.00  0.00     0.053 C 
BRANCH   3   4
ATOM      4  C   UNL     1     -11.876  55.563  -9.075  1.00  0.00     0.041 C 
ATOM      5  O   UNL     1     -11.875  55.655  -7.819  1.00  0.00    -0.550 OA
ATOM      6  O   UNL     1     -11.876  54.308  -9.671  1.00  0.00    -0.550 OA
ENDBRANCH   3   4
ENDBRANCH   2   3
ENDBRANCH   1   2
BRANCH   1   7
ATOM      7  C   UNL     1     -13.658  59.873 -10.028  1.00  0.00     0.000 C 
BRANCH   7   8
ATOM      8  C   UNL     1     -12.717  60.996  -9.554  1.00  0.00    -0.000 C 
BRANCH   8   9
ATOM      9  C   UNL     1     -13.115  62.414 -10.001  1.00  0.00    -0.000 C 
BRANCH   9  10
ATOM     10  C   UNL     1     -13.965  63.154  -8.956  1.00  0.00    -0.003 C 
ATOM     11  C   UNL     1     -15.248  63.698  -9.578  1.00  0.00     0.004 C 
ENDBRANCH   9  10
ENDBRANCH   8   9
ENDBRANCH   7   8
ENDBRANCH   1   7
TORSDOF 7
ENDMDL
MODEL 2
REMARK VINA RESULT:    -1.836      3.623      6.259
REMARK INTER + INTRA:          -2.838
REMARK INTER:                  -2.883
REMARK INTRA:                   0.045
REMARK UNBOUND:                -0.251
REMARK SMILES CCCCCCCCC(=O)[O-]
REMARK SMILES IDX 6 1 7 2 8 3 9 4 10 5 11 6 5 7 4 8 3 9 2 10 1 11
REMARK H PARENT
REMARK Flexibility Score: inf
ROOT
ATOM      1  C   UNL     1     -15.342  62.148  -9.234  1.00  0.00     0.000 C 
ENDROOT
BRANCH   1   2
ATOM      2  C   UNL     1     -15.256  63.461 -10.030  1.00  0.00     0.006 C 
BRANCH   2   3
ATOM      3  C   UNL     1     -13.903  64.166  -9.867  1.00  0.00     0.053 C 
BRANCH   3   4
ATOM      4  C   UNL     1     -13.176  63.628  -8.676  1.00  0.00     0.041 C 
ATOM      5  O   UNL     1     -12.140  62.928  -8.828  1.00  0.00    -0.550 OA
ATOM      6  O   UNL     1     -13.613  63.940  -7.394  1.00  0.00    -0.550 OA
ENDBRANCH   3   4
ENDBRANCH   2   3
ENDBRANCH   1   2
BRANCH   1   7
ATOM      7  C   UNL     1     -15.166  60.905 -10.124  1.00  0.00     0.000 C 
BRANCH   7   8
ATOM      8  C   UNL     1     -13.724  60.365 -10.120  1.00  0.00    -0.000 C 
BRANCH   8   9
ATOM      9  C   UNL     1     -13.505  59.093  -9.282  1.00  0.00    -0.000 C 
BRANCH   9  10
ATOM     10  C   UNL     1     -12.025  58.695  -9.173  1.00  0.00    -0.003 C 
ATOM     11  C   UNL     1     -11.875  57.280  -8.622  1.00  0.00     0.004 C 
ENDBRANCH   9  10
ENDBRANCH   8   9
ENDBRANCH   7   8
ENDBRANCH   1   7
TORSDOF 7
ENDMDL
MODEL 3
REMARK VINA RESULT:    -1.799      1.616      2.342
REMARK INTER + INTRA:          -2.786
REMARK INTER:                  -2.389
REMARK INTRA:                  -0.397
REMARK UNBOUND:                -0.251
REMARK SMILES CCCCCCCCC(=O)[O-]
REMARK SMILES IDX 6 1 7 2 8 3 9 4 10 5 11 6 5 7 4 8 3 9 2 10 1 11
REMARK H PARENT
REMARK Flexibility Score: inf
ROOT
ATOM      1  C   UNL     1     -12.580  60.949  -8.720  1.00  0.00     0.000 C 
ENDROOT
BRANCH   1   2
ATOM      2  C   UNL     1     -11.918  59.820  -9.528  1.00  0.00     0.006 C 
BRANCH   2   3
ATOM      3  C   UNL     1     -11.875  58.491  -8.763  1.00  0.00     0.053 C 
BRANCH   3   4
ATOM      4  C   UNL     1     -12.700  57.460  -9.464  1.00  0.00     0.041 C 
ATOM      5  O   UNL     1     -13.955  57.567  -9.498  1.00  0.00    -0.550 OA
ATOM      6  O   UNL     1     -12.083  56.404 -10.124  1.00  0.00    -0.550 OA
ENDBRANCH   3   4
ENDBRANCH   2   3
ENDBRANCH   1   2
BRANCH   1   7
ATOM      7  C   UNL     1     -12.055  62.341  -9.114  1.00  0.00     0.000 C 
BRANCH   7   8
ATOM      8  C   UNL     1     -12.966  63.061 -10.125  1.00  0.00    -0.000 C 
BRANCH   8   9
ATOM      9  C   UNL     1     -14.439  62.614 -10.112  1.00  0.00    -0.000 C 
BRANCH   9  10
ATOM     10  C   UNL     1     -15.376  63.660  -9.491  1.00  0.00    -0.003 C 
ATOM     11  C   UNL     1     -15.236  63.690  -7.971  1.00  0.00     0.004 C 
ENDBRANCH   9  10
ENDBRANCH   8   9
ENDBRANCH   7   8
ENDBRANCH   1   7
TORSDOF 7
ENDMDL
