MODEL 1
REMARK VINA RESULT:    -3.349      0.000      0.000
REMARK INTER + INTRA:         -13.478
REMARK INTER:                  -8.438
REMARK INTRA:                  -5.040
REMARK UNBOUND:                -5.040
REMARK SMILES CCCCCCCCCCCCCCCCCCCCCCCCCCCC(=O)[O-]
REMARK SMILES IDX 15 1 16 2 17 3 18 4 19 5 20 6 21 7 22 8 23 9 24 10 25 11
REMARK SMILES IDX 26 12 27 13 28 14 29 15 30 16 14 17 13 18 12 19 11 20 10 21
REMARK SMILES IDX 9 22 8 23 7 24 6 25 5 26 4 27 3 28 2 29 1 30
REMARK H PARENT
REMARK Flexibility Score: inf
ROOT
ATOM      1  C   UNL     1       2.285   9.558  37.109  1.00  0.00     0.000 C 
ENDROOT
BRANCH   1   2
ATOM      2  C   UNL     1       0.880  10.048  36.696  1.00  0.00     0.000 C 
BRANCH   2   3
ATOM      3  C   UNL     1       0.252   9.174  35.604  1.00  0.00     0.000 C 
BRANCH   3   4
ATOM      4  C   UNL     1       1.306   8.684  34.597  1.00  0.00     0.000 C 
BRANCH   4   5
ATOM      5  C   UNL     1       1.488   7.157  34.652  1.00  0.00     0.000 C 
BRANCH   5   6
ATOM      6  C   UNL     1       1.561   6.507  33.253  1.00  0.00     0.000 C 
BRANCH   6   7
ATOM      7  C   UNL     1       2.576   5.341  33.177  1.00  0.00     0.000 C 
BRANCH   7   8
ATOM      8  C   UNL     1       3.287   5.094  34.520  1.00  0.00     0.000 C 
BRANCH   8   9
ATOM      9  C   UNL     1       3.598   3.604  34.756  1.00  0.00     0.000 C 
BRANCH   9  10
ATOM     10  C   UNL     1       3.067   3.101  36.109  1.00  0.00     0.000 C 
BRANCH  10  11
ATOM     11  C   UNL     1       1.820   3.867  36.584  1.00  0.00     0.000 C 
BRANCH  11  12
ATOM     12  C   UNL     1       0.472   3.197  36.271  1.00  0.00     0.006 C 
BRANCH  12  13
ATOM     13  C   UNL     1      -0.289   3.889  35.132  1.00  0.00     0.053 C 
BRANCH  13  14
ATOM     14  C   UNL     1      -0.280   3.047  33.895  1.00  0.00     0.041 C 
ATOM     15  O   UNL     1      -0.475   3.570  32.769  1.00  0.00    -0.550 OA
ATOM     16  O   UNL     1      -0.057   1.677  33.989  1.00  0.00    -0.550 OA
ENDBRANCH  13  14
ENDBRANCH  12  13
ENDBRANCH  11  12
ENDBRANCH  10  11
ENDBRANCH   9  10
ENDBRANCH   8   9
ENDBRANCH   7   8
ENDBRANCH   6   7
ENDBRANCH   5   6
ENDBRANCH   4   5
ENDBRANCH   3   4
ENDBRANCH   2   3
ENDBRANCH   1   2
BRANCH   1  17
ATOM     17  C   UNL     1       2.608   9.772  38.605  1.00  0.00     0.000 C 
BRANCH  17  18
ATOM     18  C   UNL     1       1.392   9.730  39.549  1.00  0.00     0.000 C 
BRANCH  18  19
ATOM     19  C   UNL     1       1.439   8.608  40.600  1.00  0.00     0.000 C 
BRANCH  19  20
ATOM     20  C   UNL     1       0.819   9.018  41.945  1.00  0.00     0.000 C 
BRANCH  20  21
ATOM     21  C   UNL     1       0.274   7.814  42.735  1.00  0.00     0.000 C 
BRANCH  21  22
ATOM     22  C   UNL     1      -1.239   7.867  43.029  1.00  0.00    -0.000 C 
BRANCH  22  23
ATOM     23  C   UNL     1      -2.128   7.048  42.070  1.00  0.00    -0.000 C 
BRANCH  23  24
ATOM     24  C   UNL     1      -2.566   7.788  40.792  1.00  0.00    -0.000 C 
BRANCH  24  25
ATOM     25  C   UNL     1      -2.443   6.922  39.528  1.00  0.00    -0.000 C 
BRANCH  25  26
ATOM     26  C   UNL     1      -1.408   7.478  38.541  1.00  0.00    -0.000 C 
BRANCH  26  27
ATOM     27  C   UNL     1      -0.302   6.460  38.219  1.00  0.00    -0.000 C 
BRANCH  27  28
ATOM     28  C   UNL     1      -0.416   5.234  39.133  1.00  0.00    -0.000 C 
BRANCH  28  29
ATOM     29  C   UNL     1       0.772   5.111  40.101  1.00  0.00    -0.003 C 
ATOM     30  C   UNL     1       1.220   3.665  40.314  1.00  0.00     0.004 C 
ENDBRANCH  28  29
ENDBRANCH  27  28
ENDBRANCH  26  27
ENDBRANCH  25  26
ENDBRANCH  24  25
ENDBRANCH  23  24
ENDBRANCH  22  23
ENDBRANCH  21  22
ENDBRANCH  20  21
ENDBRANCH  19  20
ENDBRANCH  18  19
ENDBRANCH  17  18
ENDBRANCH   1  17
TORSDOF 26
ENDMDL
MODEL 2
REMARK VINA RESULT:    -3.254      4.191      9.383
REMARK INTER + INTRA:         -13.240
REMARK INTER:                  -9.411
REMARK INTRA:                  -3.828
REMARK UNBOUND:                -5.040
REMARK SMILES CCCCCCCCCCCCCCCCCCCCCCCCCCCC(=O)[O-]
REMARK SMILES IDX 15 1 16 2 17 3 18 4 19 5 20 6 21 7 22 8 23 9 24 10 25 11
REMARK SMILES IDX 26 12 27 13 28 14 29 15 30 16 14 17 13 18 12 19 11 20 10 21
REMARK SMILES IDX 9 22 8 23 7 24 6 25 5 26 4 27 3 28 2 29 1 30
REMARK H PARENT
REMARK Flexibility Score: inf
ROOT
ATOM      1  C   UNL     1       3.530   4.237  33.565  1.00  0.00     0.000 C 
ENDROOT
BRANCH   1   2
ATOM      2  C   UNL     1       3.730   3.406  34.851  1.00  0.00     0.000 C 
BRANCH   2   3
ATOM      3  C   UNL     1       2.886   3.924  36.021  1.00  0.00     0.000 C 
BRANCH   3   4
ATOM      4  C   UNL     1       3.453   5.236  36.590  1.00  0.00     0.000 C 
BRANCH   4   5
ATOM      5  C   UNL     1       2.393   6.027  37.376  1.00  0.00     0.000 C 
BRANCH   5   6
ATOM      6  C   UNL     1       2.066   7.395  36.737  1.00  0.00     0.000 C 
BRANCH   6   7
ATOM      7  C   UNL     1       0.560   7.578  36.432  1.00  0.00     0.000 C 
BRANCH   7   8
ATOM      8  C   UNL     1       0.181   9.056  36.216  1.00  0.00     0.000 C 
BRANCH   8   9
ATOM      9  C   UNL     1      -1.278   9.353  36.610  1.00  0.00     0.000 C 
BRANCH   9  10
ATOM     10  C   UNL     1      -1.424   9.699  38.102  1.00  0.00     0.000 C 
BRANCH  10  11
ATOM     11  C   UNL     1      -2.033   8.550  38.925  1.00  0.00     0.000 C 
BRANCH  11  12
ATOM     12  C   UNL     1      -1.300   8.214  40.234  1.00  0.00     0.006 C 
BRANCH  12  13
ATOM     13  C   UNL     1       0.215   8.055  40.047  1.00  0.00     0.053 C 
BRANCH  13  14
ATOM     14  C   UNL     1       0.957   9.138  40.764  1.00  0.00     0.041 C 
ATOM     15  O   UNL     1       1.455  10.099  40.122  1.00  0.00    -0.550 OA
ATOM     16  O   UNL     1       1.103   9.084  42.146  1.00  0.00    -0.550 OA
ENDBRANCH  13  14
ENDBRANCH  12  13
ENDBRANCH  11  12
ENDBRANCH  10  11
ENDBRANCH   9  10
ENDBRANCH   8   9
ENDBRANCH   7   8
ENDBRANCH   6   7
ENDBRANCH   5   6
ENDBRANCH   4   5
ENDBRANCH   3   4
ENDBRANCH   2   3
ENDBRANCH   1   2
BRANCH   1  17
ATOM     17  C   UNL     1       2.100   4.161  32.986  1.00  0.00     0.000 C 
BRANCH  17  18
ATOM     18  C   UNL     1       1.350   5.504  32.918  1.00  0.00     0.000 C 
BRANCH  18  19
ATOM     19  C   UNL     1       2.214   6.734  33.245  1.00  0.00     0.000 C 
BRANCH  19  20
ATOM     20  C   UNL     1       1.817   7.979  32.437  1.00  0.00     0.000 C 
BRANCH  20  21
ATOM     21  C   UNL     1       1.661   7.683  30.934  1.00  0.00     0.000 C 
BRANCH  21  22
ATOM     22  C   UNL     1       2.660   8.425  30.024  1.00  0.00    -0.000 C 
BRANCH  22  23
ATOM     23  C   UNL     1       2.032   9.190  28.839  1.00  0.00    -0.000 C 
BRANCH  23  24
ATOM     24  C   UNL     1       2.354   8.618  27.447  1.00  0.00    -0.000 C 
BRANCH  24  25
ATOM     25  C   UNL     1       3.642   7.780  27.428  1.00  0.00    -0.000 C 
BRANCH  25  26
ATOM     26  C   UNL     1       3.417   6.380  26.839  1.00  0.00    -0.000 C 
BRANCH  26  27
ATOM     27  C   UNL     1       4.001   5.272  27.731  1.00  0.00    -0.000 C 
BRANCH  27  28
ATOM     28  C   UNL     1       3.017   4.905  28.848  1.00  0.00    -0.000 C 
BRANCH  28  29
ATOM     29  C   UNL     1       1.561   4.859  28.357  1.00  0.00    -0.003 C 
ATOM     30  C   UNL     1       0.574   4.462  29.455  1.00  0.00     0.004 C 
ENDBRANCH  28  29
ENDBRANCH  27  28
ENDBRANCH  26  27
ENDBRANCH  25  26
ENDBRANCH  24  25
ENDBRANCH  23  24
ENDBRANCH  22  23
ENDBRANCH  21  22
ENDBRANCH  20  21
ENDBRANCH  19  20
ENDBRANCH  18  19
ENDBRANCH  17  18
ENDBRANCH   1  17
TORSDOF 26
ENDMDL
MODEL 3
REMARK VINA RESULT:    -3.226      2.578      5.154
REMARK INTER + INTRA:         -13.169
REMARK INTER:                  -9.263
REMARK INTRA:                  -3.907
REMARK UNBOUND:                -5.040
REMARK SMILES CCCCCCCCCCCCCCCCCCCCCCCCCCCC(=O)[O-]
REMARK SMILES IDX 15 1 16 2 17 3 18 4 19 5 20 6 21 7 22 8 23 9 24 10 25 11
REMARK SMILES IDX 26 12 27 13 28 14 29 15 30 16 14 17 13 18 12 19 11 20 10 21
REMARK SMILES IDX 9 22 8 23 7 24 6 25 5 26 4 27 3 28 2 29 1 30
REMARK H PARENT
REMARK Flexibility Score: inf
ROOT
ATOM      1  C   UNL     1      -0.223   4.659  40.197  1.00  0.00     0.000 C 
ENDROOT
BRANCH   1   2
ATOM      2  C   UNL     1       1.237   4.359  39.793  1.00  0.00     0.000 C 
BRANCH   2   3
ATOM      3  C   UNL     1       1.478   4.539  38.289  1.00  0.00     0.000 C 
BRANCH   3   4
ATOM      4  C   UNL     1       2.979   4.545  37.954  1.00  0.00     0.000 C 
BRANCH   4   5
ATOM      5  C   UNL     1       3.300   5.477  36.773  1.00  0.00     0.000 C 
BRANCH   5   6
ATOM      6  C   UNL     1       4.008   4.752  35.608  1.00  0.00     0.000 C 
BRANCH   6   7
ATOM      7  C   UNL     1       3.229   3.516  35.097  1.00  0.00     0.000 C 
BRANCH   7   8
ATOM      8  C   UNL     1       2.043   3.903  34.193  1.00  0.00     0.000 C 
BRANCH   8   9
ATOM      9  C   UNL     1       2.498   4.486  32.842  1.00  0.00     0.000 C 
BRANCH   9  10
ATOM     10  C   UNL     1       1.443   5.415  32.218  1.00  0.00     0.000 C 
BRANCH  10  11
ATOM     11  C   UNL     1       1.488   6.841  32.793  1.00  0.00     0.000 C 
BRANCH  11  12
ATOM     12  C   UNL     1       2.122   7.903  31.878  1.00  0.00     0.006 C 
BRANCH  12  13
ATOM     13  C   UNL     1       1.862   7.641  30.389  1.00  0.00     0.053 C 
BRANCH  13  14
ATOM     14  C   UNL     1       2.486   8.707  29.544  1.00  0.00     0.041 C 
ATOM     15  O   UNL     1       3.737   8.828  29.494  1.00  0.00    -0.550 OA
ATOM     16  O   UNL     1       1.681   9.572  28.811  1.00  0.00    -0.550 OA
ENDBRANCH  13  14
ENDBRANCH  12  13
ENDBRANCH  11  12
ENDBRANCH  10  11
ENDBRANCH   9  10
ENDBRANCH   8   9
ENDBRANCH   7   8
ENDBRANCH   6   7
ENDBRANCH   5   6
ENDBRANCH   4   5
ENDBRANCH   3   4
ENDBRANCH   2   3
ENDBRANCH   1   2
BRANCH   1  17
ATOM     17  C   UNL     1      -1.201   4.734  39.002  1.00  0.00     0.000 C 
BRANCH  17  18
ATOM     18  C   UNL     1      -1.816   6.122  38.748  1.00  0.00     0.000 C 
BRANCH  18  19
ATOM     19  C   UNL     1      -2.936   6.513  39.728  1.00  0.00     0.000 C 
BRANCH  19  20
ATOM     20  C   UNL     1      -2.534   7.656  40.674  1.00  0.00     0.000 C 
BRANCH  20  21
ATOM     21  C   UNL     1      -2.233   7.163  42.101  1.00  0.00     0.000 C 
BRANCH  21  22
ATOM     22  C   UNL     1      -1.083   7.905  42.811  1.00  0.00    -0.000 C 
BRANCH  22  23
ATOM     23  C   UNL     1       0.324   7.656  42.227  1.00  0.00    -0.000 C 
BRANCH  23  24
ATOM     24  C   UNL     1       1.082   8.921  41.785  1.00  0.00    -0.000 C 
BRANCH  24  25
ATOM     25  C   UNL     1       0.842   9.277  40.309  1.00  0.00    -0.000 C 
BRANCH  25  26
ATOM     26  C   UNL     1       1.085   8.083  39.376  1.00  0.00    -0.000 C 
BRANCH  26  27
ATOM     27  C   UNL     1       1.429   8.523  37.944  1.00  0.00    -0.000 C 
BRANCH  27  28
ATOM     28  C   UNL     1       0.643   9.784  37.563  1.00  0.00    -0.000 C 
BRANCH  28  29
ATOM     29  C   UNL     1      -0.732   9.459  36.960  1.00  0.00    -0.003 C 
ATOM     30  C   UNL     1      -1.893   9.885  37.859  1.00  0.00     0.004 C 
ENDBRANCH  28  29
ENDBRANCH  27  28
ENDBRANCH  26  27
ENDBRANCH  25  26
ENDBRANCH  24  25
ENDBRANCH  23  24
ENDBRANCH  22  23
ENDBRANCH  21  22
ENDBRANCH  20  21
ENDBRANCH  19  20
ENDBRANCH  18  19
ENDBRANCH  17  18
ENDBRANCH   1  17
TORSDOF 26
ENDMDL
MODEL 4
REMARK VINA RESULT:    -3.196      2.015      3.232
REMARK INTER + INTRA:         -13.093
REMARK INTER:                  -8.460
REMARK INTRA:                  -4.633
REMARK UNBOUND:                -5.040
REMARK SMILES CCCCCCCCCCCCCCCCCCCCCCCCCCCC(=O)[O-]
REMARK SMILES IDX 15 1 16 2 17 3 18 4 19 5 20 6 21 7 22 8 23 9 24 10 25 11
REMARK SMILES IDX 26 12 27 13 28 14 29 15 30 16 14 17 13 18 12 19 11 20 10 21
REMARK SMILES IDX 9 22 8 23 7 24 6 25 5 26 4 27 3 28 2 29 1 30
REMARK H PARENT
REMARK Flexibility Score: inf
ROOT
ATOM      1  C   UNL     1       2.054   9.083  37.311  1.00  0.00     0.000 C 
ENDROOT
BRANCH   1   2
ATOM      2  C   UNL     1       1.016  10.000  36.625  1.00  0.00     0.000 C 
BRANCH   2   3
ATOM      3  C   UNL     1       0.889   9.719  35.123  1.00  0.00     0.000 C 
BRANCH   3   4
ATOM      4  C   UNL     1       1.400   8.313  34.766  1.00  0.00     0.000 C 
BRANCH   4   5
ATOM      5  C   UNL     1       1.539   8.121  33.246  1.00  0.00     0.000 C 
BRANCH   5   6
ATOM      6  C   UNL     1       1.519   6.636  32.821  1.00  0.00     0.000 C 
BRANCH   6   7
ATOM      7  C   UNL     1       1.891   5.670  33.971  1.00  0.00     0.000 C 
BRANCH   7   8
ATOM      8  C   UNL     1       0.899   4.498  34.095  1.00  0.00     0.000 C 
BRANCH   8   9
ATOM      9  C   UNL     1       1.569   3.132  33.856  1.00  0.00     0.000 C 
BRANCH   9  10
ATOM     10  C   UNL     1       0.752   2.236  32.910  1.00  0.00     0.000 C 
BRANCH  10  11
ATOM     11  C   UNL     1      -0.611   2.844  32.539  1.00  0.00     0.000 C 
BRANCH  11  12
ATOM     12  C   UNL     1      -0.856   3.049  31.035  1.00  0.00     0.006 C 
BRANCH  12  13
ATOM     13  C   UNL     1      -0.296   4.379  30.514  1.00  0.00     0.053 C 
BRANCH  13  14
ATOM     14  C   UNL     1       0.952   4.157  29.718  1.00  0.00     0.041 C 
ATOM     15  O   UNL     1       0.883   3.902  28.488  1.00  0.00    -0.550 OA
ATOM     16  O   UNL     1       2.194   4.229  30.338  1.00  0.00    -0.550 OA
ENDBRANCH  13  14
ENDBRANCH  12  13
ENDBRANCH  11  12
ENDBRANCH  10  11
ENDBRANCH   9  10
ENDBRANCH   8   9
ENDBRANCH   7   8
ENDBRANCH   6   7
ENDBRANCH   5   6
ENDBRANCH   4   5
ENDBRANCH   3   4
ENDBRANCH   2   3
ENDBRANCH   1   2
BRANCH   1  17
ATOM     17  C   UNL     1       2.559   9.617  38.670  1.00  0.00     0.000 C 
BRANCH  17  18
ATOM     18  C   UNL     1       1.458  10.102  39.632  1.00  0.00     0.000 C 
BRANCH  18  19
ATOM     19  C   UNL     1       0.680   8.974  40.331  1.00  0.00     0.000 C 
BRANCH  19  20
ATOM     20  C   UNL     1      -0.733   8.775  39.760  1.00  0.00     0.000 C 
BRANCH  20  21
ATOM     21  C   UNL     1      -1.500   7.640  40.465  1.00  0.00     0.000 C 
BRANCH  21  22
ATOM     22  C   UNL     1      -2.534   6.915  39.581  1.00  0.00    -0.000 C 
BRANCH  22  23
ATOM     23  C   UNL     1      -2.046   5.598  38.939  1.00  0.00    -0.000 C 
BRANCH  23  24
ATOM     24  C   UNL     1      -1.667   5.699  37.450  1.00  0.00    -0.000 C 
BRANCH  24  25
ATOM     25  C   UNL     1      -0.206   6.123  37.232  1.00  0.00    -0.000 C 
BRANCH  25  26
ATOM     26  C   UNL     1       0.787   5.128  37.849  1.00  0.00    -0.000 C 
BRANCH  26  27
ATOM     27  C   UNL     1       1.762   5.806  38.825  1.00  0.00    -0.000 C 
BRANCH  27  28
ATOM     28  C   UNL     1       3.205   5.683  38.318  1.00  0.00    -0.000 C 
BRANCH  28  29
ATOM     29  C   UNL     1       3.454   4.362  37.574  1.00  0.00    -0.003 C 
ATOM     30  C   UNL     1       4.333   4.533  36.334  1.00  0.00     0.004 C 
ENDBRANCH  28  29
ENDBRANCH  27  28
ENDBRANCH  26  27
ENDBRANCH  25  26
ENDBRANCH  24  25
ENDBRANCH  23  24
ENDBRANCH  22  23
ENDBRANCH  21  22
ENDBRANCH  20  21
ENDBRANCH  19  20
ENDBRANCH  18  19
ENDBRANCH  17  18
ENDBRANCH   1  17
TORSDOF 26
ENDMDL
MODEL 5
REMARK VINA RESULT:    -3.176      1.546      2.954
REMARK INTER + INTRA:         -13.043
REMARK INTER:                  -8.518
REMARK INTRA:                  -4.525
REMARK UNBOUND:                -5.040
REMARK SMILES CCCCCCCCCCCCCCCCCCCCCCCCCCCC(=O)[O-]
REMARK SMILES IDX 15 1 16 2 17 3 18 4 19 5 20 6 21 7 22 8 23 9 24 10 25 11
REMARK SMILES IDX 26 12 27 13 28 14 29 15 30 16 14 17 13 18 12 19 11 20 10 21
REMARK SMILES IDX 9 22 8 23 7 24 6 25 5 26 4 27 3 28 2 29 1 30
REMARK H PARENT
REMARK Flexibility Score: inf
ROOT
ATOM      1  C   UNL     1       1.794  10.005  39.326  1.00  0.00     0.000 C 
ENDROOT
BRANCH   1   2
ATOM      2  C   UNL     1       2.348   9.131  38.179  1.00  0.00     0.000 C 
BRANCH   2   3
ATOM      3  C   UNL     1       2.451   9.898  36.856  1.00  0.00     0.000 C 
BRANCH   3   4
ATOM      4  C   UNL     1       1.453   9.364  35.814  1.00  0.00     0.000 C 
BRANCH   4   5
ATOM      5  C   UNL     1       0.998   7.929  36.137  1.00  0.00     0.000 C 
BRANCH   5   6
ATOM      6  C   UNL     1       1.405   6.909  35.052  1.00  0.00     0.000 C 
BRANCH   6   7
ATOM      7  C   UNL     1       2.417   5.853  35.559  1.00  0.00     0.000 C 
BRANCH   7   8
ATOM      8  C   UNL     1       2.981   4.986  34.417  1.00  0.00     0.000 C 
BRANCH   8   9
ATOM      9  C   UNL     1       2.307   5.281  33.065  1.00  0.00     0.000 C 
BRANCH   9  10
ATOM     10  C   UNL     1       1.757   4.012  32.393  1.00  0.00     0.000 C 
BRANCH  10  11
ATOM     11  C   UNL     1       1.718   2.802  33.344  1.00  0.00     0.000 C 
BRANCH  11  12
ATOM     12  C   UNL     1       0.397   2.015  33.358  1.00  0.00     0.006 C 
BRANCH  12  13
ATOM     13  C   UNL     1      -0.727   2.720  32.588  1.00  0.00     0.053 C 
BRANCH  13  14
ATOM     14  C   UNL     1      -1.947   1.856  32.515  1.00  0.00     0.041 C 
ATOM     15  O   UNL     1      -2.478   1.600  31.404  1.00  0.00    -0.550 OA
ATOM     16  O   UNL     1      -2.500   1.334  33.679  1.00  0.00    -0.550 OA
ENDBRANCH  13  14
ENDBRANCH  12  13
ENDBRANCH  11  12
ENDBRANCH  10  11
ENDBRANCH   9  10
ENDBRANCH   8   9
ENDBRANCH   7   8
ENDBRANCH   6   7
ENDBRANCH   5   6
ENDBRANCH   4   5
ENDBRANCH   3   4
ENDBRANCH   2   3
ENDBRANCH   1   2
BRANCH   1  17
ATOM     17  C   UNL     1       0.344   9.659  39.733  1.00  0.00     0.000 C 
BRANCH  17  18
ATOM     18  C   UNL     1      -0.737  10.080  38.721  1.00  0.00     0.000 C 
BRANCH  18  19
ATOM     19  C   UNL     1      -1.978   9.170  38.697  1.00  0.00     0.000 C 
BRANCH  19  20
ATOM     20  C   UNL     1      -1.670   7.724  39.116  1.00  0.00     0.000 C 
BRANCH  20  21
ATOM     21  C   UNL     1      -2.692   7.173  40.128  1.00  0.00     0.000 C 
BRANCH  21  22
ATOM     22  C   UNL     1      -2.094   6.253  41.212  1.00  0.00    -0.000 C 
BRANCH  22  23
ATOM     23  C   UNL     1      -1.000   6.894  42.092  1.00  0.00    -0.000 C 
BRANCH  23  24
ATOM     24  C   UNL     1       0.434   6.410  41.807  1.00  0.00    -0.000 C 
BRANCH  24  25
ATOM     25  C   UNL     1       0.478   5.009  41.176  1.00  0.00    -0.000 C 
BRANCH  25  26
ATOM     26  C   UNL     1       1.392   4.954  39.944  1.00  0.00    -0.000 C 
BRANCH  26  27
ATOM     27  C   UNL     1       0.630   5.239  38.640  1.00  0.00    -0.000 C 
BRANCH  27  28
ATOM     28  C   UNL     1       0.077   3.939  38.043  1.00  0.00    -0.000 C 
BRANCH  28  29
ATOM     29  C   UNL     1      -0.558   4.152  36.660  1.00  0.00    -0.003 C 
ATOM     30  C   UNL     1      -1.943   4.797  36.733  1.00  0.00     0.004 C 
ENDBRANCH  28  29
ENDBRANCH  27  28
ENDBRANCH  26  27
ENDBRANCH  25  26
ENDBRANCH  24  25
ENDBRANCH  23  24
ENDBRANCH  22  23
ENDBRANCH  21  22
ENDBRANCH  20  21
ENDBRANCH  19  20
ENDBRANCH  18  19
ENDBRANCH  17  18
ENDBRANCH   1  17
TORSDOF 26
ENDMDL
MODEL 6
REMARK VINA RESULT:    -3.127      3.745      6.192
REMARK INTER + INTRA:         -12.919
REMARK INTER:                  -9.371
REMARK INTRA:                  -3.548
REMARK UNBOUND:                -5.040
REMARK SMILES CCCCCCCCCCCCCCCCCCCCCCCCCCCC(=O)[O-]
REMARK SMILES IDX 15 1 16 2 17 3 18 4 19 5 20 6 21 7 22 8 23 9 24 10 25 11
REMARK SMILES IDX 26 12 27 13 28 14 29 15 30 16 14 17 13 18 12 19 11 20 10 21
REMARK SMILES IDX 9 22 8 23 7 24 6 25 5 26 4 27 3 28 2 29 1 30
REMARK H PARENT
REMARK Flexibility Score: inf
ROOT
ATOM      1  C   UNL     1       2.350   3.673  33.207  1.00  0.00     0.000 C 
ENDROOT
BRANCH   1   2
ATOM      2  C   UNL     1       0.898   3.755  32.687  1.00  0.00     0.000 C 
BRANCH   2   3
ATOM      3  C   UNL     1       0.703   4.885  31.669  1.00  0.00     0.000 C 
BRANCH   3   4
ATOM      4  C   UNL     1       1.962   5.759  31.546  1.00  0.00     0.000 C 
BRANCH   4   5
ATOM      5  C   UNL     1       1.706   7.021  30.704  1.00  0.00     0.000 C 
BRANCH   5   6
ATOM      6  C   UNL     1       1.919   8.328  31.498  1.00  0.00     0.000 C 
BRANCH   6   7
ATOM      7  C   UNL     1       2.287   9.533  30.598  1.00  0.00     0.000 C 
BRANCH   7   8
ATOM      8  C   UNL     1       2.602   9.110  29.151  1.00  0.00     0.000 C 
BRANCH   8   9
ATOM      9  C   UNL     1       4.096   9.250  28.809  1.00  0.00     0.000 C 
BRANCH   9  10
ATOM     10  C   UNL     1       4.542   8.269  27.712  1.00  0.00     0.000 C 
BRANCH  10  11
ATOM     11  C   UNL     1       3.470   7.217  27.379  1.00  0.00     0.000 C 
BRANCH  11  12
ATOM     12  C   UNL     1       3.824   5.769  27.758  1.00  0.00     0.006 C 
BRANCH  12  13
ATOM     13  C   UNL     1       2.591   4.867  27.893  1.00  0.00     0.053 C 
BRANCH  13  14
ATOM     14  C   UNL     1       1.742   4.937  26.662  1.00  0.00     0.041 C 
ATOM     15  O   UNL     1       2.179   4.506  25.564  1.00  0.00    -0.550 OA
ATOM     16  O   UNL     1       0.466   5.484  26.728  1.00  0.00    -0.550 OA
ENDBRANCH  13  14
ENDBRANCH  12  13
ENDBRANCH  11  12
ENDBRANCH  10  11
ENDBRANCH   9  10
ENDBRANCH   8   9
ENDBRANCH   7   8
ENDBRANCH   6   7
ENDBRANCH   5   6
ENDBRANCH   4   5
ENDBRANCH   3   4
ENDBRANCH   2   3
ENDBRANCH   1   2
BRANCH   1  17
ATOM     17  C   UNL     1       2.480   3.868  34.734  1.00  0.00     0.000 C 
BRANCH  17  18
ATOM     18  C   UNL     1       2.779   5.309  35.186  1.00  0.00     0.000 C 
BRANCH  18  19
ATOM     19  C   UNL     1       1.534   6.132  35.560  1.00  0.00     0.000 C 
BRANCH  19  20
ATOM     20  C   UNL     1       1.869   7.399  36.362  1.00  0.00     0.000 C 
BRANCH  20  21
ATOM     21  C   UNL     1       2.145   7.102  37.847  1.00  0.00     0.000 C 
BRANCH  21  22
ATOM     22  C   UNL     1       1.545   8.125  38.832  1.00  0.00    -0.000 C 
BRANCH  22  23
ATOM     23  C   UNL     1       0.749   9.279  38.183  1.00  0.00    -0.000 C 
BRANCH  23  24
ATOM     24  C   UNL     1      -0.513   9.715  38.950  1.00  0.00    -0.000 C 
BRANCH  24  25
ATOM     25  C   UNL     1      -1.737   8.843  38.630  1.00  0.00    -0.000 C 
BRANCH  25  26
ATOM     26  C   UNL     1      -2.128   7.935  39.805  1.00  0.00    -0.000 C 
BRANCH  26  27
ATOM     27  C   UNL     1      -2.279   6.466  39.381  1.00  0.00    -0.000 C 
BRANCH  27  28
ATOM     28  C   UNL     1      -1.492   6.192  38.093  1.00  0.00    -0.000 C 
BRANCH  28  29
ATOM     29  C   UNL     1      -1.145   4.705  37.922  1.00  0.00    -0.003 C 
ATOM     30  C   UNL     1      -1.323   4.213  36.485  1.00  0.00     0.004 C 
ENDBRANCH  28  29
ENDBRANCH  27  28
ENDBRANCH  26  27
ENDBRANCH  25  26
ENDBRANCH  24  25
ENDBRANCH  23  24
ENDBRANCH  22  23
ENDBRANCH  21  22
ENDBRANCH  20  21
ENDBRANCH  19  20
ENDBRANCH  18  19
ENDBRANCH  17  18
ENDBRANCH   1  17
TORSDOF 26
ENDMDL
MODEL 7
REMARK VINA RESULT:    -3.102      4.521      9.989
REMARK INTER + INTRA:         -12.856
REMARK INTER:                  -9.683
REMARK INTRA:                  -3.174
REMARK UNBOUND:                -5.040
REMARK SMILES CCCCCCCCCCCCCCCCCCCCCCCCCCCC(=O)[O-]
REMARK SMILES IDX 15 1 16 2 17 3 18 4 19 5 20 6 21 7 22 8 23 9 24 10 25 11
REMARK SMILES IDX 26 12 27 13 28 14 29 15 30 16 14 17 13 18 12 19 11 20 10 21
REMARK SMILES IDX 9 22 8 23 7 24 6 25 5 26 4 27 3 28 2 29 1 30
REMARK H PARENT
REMARK Flexibility Score: inf
ROOT
ATOM      1  C   UNL     1       1.510   6.569  32.001  1.00  0.00     0.000 C 
ENDROOT
BRANCH   1   2
ATOM      2  C   UNL     1       1.632   7.415  33.288  1.00  0.00     0.000 C 
BRANCH   2   3
ATOM      3  C   UNL     1       1.525   6.566  34.560  1.00  0.00     0.000 C 
BRANCH   3   4
ATOM      4  C   UNL     1       1.848   7.390  35.818  1.00  0.00     0.000 C 
BRANCH   4   5
ATOM      5  C   UNL     1       1.087   6.876  37.052  1.00  0.00     0.000 C 
BRANCH   5   6
ATOM      6  C   UNL     1       1.640   7.440  38.380  1.00  0.00     0.000 C 
BRANCH   6   7
ATOM      7  C   UNL     1       2.272   8.844  38.227  1.00  0.00     0.000 C 
BRANCH   7   8
ATOM      8  C   UNL     1       1.806   9.820  39.325  1.00  0.00     0.000 C 
BRANCH   8   9
ATOM      9  C   UNL     1       0.335   9.599  39.722  1.00  0.00     0.000 C 
BRANCH   9  10
ATOM     10  C   UNL     1      -0.646  10.125  38.660  1.00  0.00     0.000 C 
BRANCH  10  11
ATOM     11  C   UNL     1      -1.870   9.212  38.473  1.00  0.00     0.000 C 
BRANCH  11  12
ATOM     12  C   UNL     1      -2.092   8.169  39.580  1.00  0.00     0.006 C 
BRANCH  12  13
ATOM     13  C   UNL     1      -2.038   6.726  39.062  1.00  0.00     0.053 C 
BRANCH  13  14
ATOM     14  C   UNL     1      -1.673   5.778  40.161  1.00  0.00     0.041 C 
ATOM     15  O   UNL     1      -0.862   4.841  39.948  1.00  0.00    -0.550 OA
ATOM     16  O   UNL     1      -2.234   5.929  41.424  1.00  0.00    -0.550 OA
ENDBRANCH  13  14
ENDBRANCH  12  13
ENDBRANCH  11  12
ENDBRANCH  10  11
ENDBRANCH   9  10
ENDBRANCH   8   9
ENDBRANCH   7   8
ENDBRANCH   6   7
ENDBRANCH   5   6
ENDBRANCH   4   5
ENDBRANCH   3   4
ENDBRANCH   2   3
ENDBRANCH   1   2
BRANCH   1  17
ATOM     17  C   UNL     1       1.879   7.334  30.711  1.00  0.00     0.000 C 
BRANCH  17  18
ATOM     18  C   UNL     1       1.919   8.867  30.849  1.00  0.00     0.000 C 
BRANCH  18  19
ATOM     19  C   UNL     1       2.329   9.613  29.567  1.00  0.00     0.000 C 
BRANCH  19  20
ATOM     20  C   UNL     1       3.442   8.897  28.786  1.00  0.00     0.000 C 
BRANCH  20  21
ATOM     21  C   UNL     1       3.090   8.702  27.300  1.00  0.00     0.000 C 
BRANCH  21  22
ATOM     22  C   UNL     1       1.579   8.629  26.999  1.00  0.00    -0.000 C 
BRANCH  22  23
ATOM     23  C   UNL     1       1.067   7.255  26.517  1.00  0.00    -0.000 C 
BRANCH  23  24
ATOM     24  C   UNL     1       1.935   6.573  25.444  1.00  0.00    -0.000 C 
BRANCH  24  25
ATOM     25  C   UNL     1       2.584   5.271  25.939  1.00  0.00    -0.000 C 
BRANCH  25  26
ATOM     26  C   UNL     1       4.099   5.415  26.139  1.00  0.00    -0.000 C 
BRANCH  26  27
ATOM     27  C   UNL     1       4.558   4.893  27.510  1.00  0.00    -0.000 C 
BRANCH  27  28
ATOM     28  C   UNL     1       3.383   4.858  28.495  1.00  0.00    -0.000 C 
BRANCH  28  29
ATOM     29  C   UNL     1       3.078   3.437  28.995  1.00  0.00    -0.003 C 
ATOM     30  C   UNL     1       2.545   3.411  30.428  1.00  0.00     0.004 C 
ENDBRANCH  28  29
ENDBRANCH  27  28
ENDBRANCH  26  27
ENDBRANCH  25  26
ENDBRANCH  24  25
ENDBRANCH  23  24
ENDBRANCH  22  23
ENDBRANCH  21  22
ENDBRANCH  20  21
ENDBRANCH  19  20
ENDBRANCH  18  19
ENDBRANCH  17  18
ENDBRANCH   1  17
TORSDOF 26
ENDMDL
MODEL 8
REMARK VINA RESULT:    -3.077      4.864      9.962
REMARK INTER + INTRA:         -12.795
REMARK INTER:                  -9.660
REMARK INTRA:                  -3.134
REMARK UNBOUND:                -5.040
REMARK SMILES CCCCCCCCCCCCCCCCCCCCCCCCCCCC(=O)[O-]
REMARK SMILES IDX 15 1 16 2 17 3 18 4 19 5 20 6 21 7 22 8 23 9 24 10 25 11
REMARK SMILES IDX 26 12 27 13 28 14 29 15 30 16 14 17 13 18 12 19 11 20 10 21
REMARK SMILES IDX 9 22 8 23 7 24 6 25 5 26 4 27 3 28 2 29 1 30
REMARK H PARENT
REMARK Flexibility Score: inf
ROOT
ATOM      1  C   UNL     1       1.162   8.373  34.905  1.00  0.00     0.000 C 
ENDROOT
BRANCH   1   2
ATOM      2  C   UNL     1       0.625   9.239  36.067  1.00  0.00     0.000 C 
BRANCH   2   3
ATOM      3  C   UNL     1      -0.902   9.370  36.041  1.00  0.00     0.000 C 
BRANCH   3   4
ATOM      4  C   UNL     1      -1.461   9.750  37.423  1.00  0.00     0.000 C 
BRANCH   4   5
ATOM      5  C   UNL     1      -0.379   9.689  38.516  1.00  0.00     0.000 C 
BRANCH   5   6
ATOM      6  C   UNL     1      -0.794   8.827  39.728  1.00  0.00     0.000 C 
BRANCH   6   7
ATOM      7  C   UNL     1      -2.269   8.361  39.666  1.00  0.00     0.000 C 
BRANCH   7   8
ATOM      8  C   UNL     1      -2.570   7.232  40.669  1.00  0.00     0.000 C 
BRANCH   8   9
ATOM      9  C   UNL     1      -2.131   5.850  40.150  1.00  0.00     0.000 C 
BRANCH   9  10
ATOM     10  C   UNL     1      -2.463   5.650  38.662  1.00  0.00     0.000 C 
BRANCH  10  11
ATOM     11  C   UNL     1      -1.350   4.916  37.894  1.00  0.00     0.000 C 
BRANCH  11  12
ATOM     12  C   UNL     1      -0.300   5.820  37.227  1.00  0.00     0.006 C 
BRANCH  12  13
ATOM     13  C   UNL     1       1.139   5.444  37.605  1.00  0.00     0.053 C 
BRANCH  13  14
ATOM     14  C   UNL     1       1.623   6.275  38.752  1.00  0.00     0.041 C 
ATOM     15  O   UNL     1       2.289   7.321  38.542  1.00  0.00    -0.550 OA
ATOM     16  O   UNL     1       1.339   5.890  40.058  1.00  0.00    -0.550 OA
ENDBRANCH  13  14
ENDBRANCH  12  13
ENDBRANCH  11  12
ENDBRANCH  10  11
ENDBRANCH   9  10
ENDBRANCH   8   9
ENDBRANCH   7   8
ENDBRANCH   6   7
ENDBRANCH   5   6
ENDBRANCH   4   5
ENDBRANCH   3   4
ENDBRANCH   2   3
ENDBRANCH   1   2
BRANCH   1  17
ATOM     17  C   UNL     1       1.476   9.174  33.622  1.00  0.00     0.000 C 
BRANCH  17  18
ATOM     18  C   UNL     1       1.841   8.321  32.392  1.00  0.00     0.000 C 
BRANCH  18  19
ATOM     19  C   UNL     1       2.018   9.121  31.090  1.00  0.00     0.000 C 
BRANCH  19  20
ATOM     20  C   UNL     1       2.541   8.266  29.926  1.00  0.00     0.000 C 
BRANCH  20  21
ATOM     21  C   UNL     1       3.722   8.928  29.192  1.00  0.00     0.000 C 
BRANCH  21  22
ATOM     22  C   UNL     1       3.331   9.743  27.943  1.00  0.00    -0.000 C 
BRANCH  22  23
ATOM     23  C   UNL     1       1.909   9.480  27.401  1.00  0.00    -0.000 C 
BRANCH  23  24
ATOM     24  C   UNL     1       1.826   9.214  25.887  1.00  0.00    -0.000 C 
BRANCH  24  25
ATOM     25  C   UNL     1       1.149   7.876  25.552  1.00  0.00    -0.000 C 
BRANCH  25  26
ATOM     26  C   UNL     1       1.241   6.871  26.709  1.00  0.00    -0.000 C 
BRANCH  26  27
ATOM     27  C   UNL     1       2.281   5.771  26.445  1.00  0.00    -0.000 C 
BRANCH  27  28
ATOM     28  C   UNL     1       2.494   5.579  24.938  1.00  0.00    -0.000 C 
BRANCH  28  29
ATOM     29  C   UNL     1       2.238   4.133  24.488  1.00  0.00    -0.003 C 
ATOM     30  C   UNL     1       2.739   3.097  25.496  1.00  0.00     0.004 C 
ENDBRANCH  28  29
ENDBRANCH  27  28
ENDBRANCH  26  27
ENDBRANCH  25  26
ENDBRANCH  24  25
ENDBRANCH  23  24
ENDBRANCH  22  23
ENDBRANCH  21  22
ENDBRANCH  20  21
ENDBRANCH  19  20
ENDBRANCH  18  19
ENDBRANCH  17  18
ENDBRANCH   1  17
TORSDOF 26
ENDMDL
MODEL 9
REMARK VINA RESULT:    -3.064      2.691      7.468
REMARK INTER + INTRA:         -12.762
REMARK INTER:                  -7.706
REMARK INTRA:                  -5.056
REMARK UNBOUND:                -5.040
REMARK SMILES CCCCCCCCCCCCCCCCCCCCCCCCCCCC(=O)[O-]
REMARK SMILES IDX 15 1 16 2 17 3 18 4 19 5 20 6 21 7 22 8 23 9 24 10 25 11
REMARK SMILES IDX 26 12 27 13 28 14 29 15 30 16 14 17 13 18 12 19 11 20 10 21
REMARK SMILES IDX 9 22 8 23 7 24 6 25 5 26 4 27 3 28 2 29 1 30
REMARK H PARENT
REMARK Flexibility Score: inf
ROOT
ATOM      1  C   UNL     1       2.743   3.896  38.636  1.00  0.00     0.000 C 
ENDROOT
BRANCH   1   2
ATOM      2  C   UNL     1       1.475   4.121  37.784  1.00  0.00     0.000 C 
BRANCH   2   3
ATOM      3  C   UNL     1       0.998   5.578  37.816  1.00  0.00     0.000 C 
BRANCH   3   4
ATOM      4  C   UNL     1       1.561   6.329  39.034  1.00  0.00     0.000 C 
BRANCH   4   5
ATOM      5  C   UNL     1       2.417   7.538  38.618  1.00  0.00     0.000 C 
BRANCH   5   6
ATOM      6  C   UNL     1       2.139   8.004  37.172  1.00  0.00     0.000 C 
BRANCH   6   7
ATOM      7  C   UNL     1       2.105   9.544  37.025  1.00  0.00     0.000 C 
BRANCH   7   8
ATOM      8  C   UNL     1       0.706  10.067  36.651  1.00  0.00     0.000 C 
BRANCH   8   9
ATOM      9  C   UNL     1      -0.372   8.970  36.725  1.00  0.00     0.000 C 
BRANCH   9  10
ATOM     10  C   UNL     1      -1.419   9.248  37.816  1.00  0.00     0.000 C 
BRANCH  10  11
ATOM     11  C   UNL     1      -0.805   9.341  39.224  1.00  0.00     0.000 C 
BRANCH  11  12
ATOM     12  C   UNL     1      -1.207   8.219  40.196  1.00  0.00     0.006 C 
BRANCH  12  13
ATOM     13  C   UNL     1      -2.585   7.621  39.882  1.00  0.00     0.053 C 
BRANCH  13  14
ATOM     14  C   UNL     1      -2.508   6.130  39.778  1.00  0.00     0.041 C 
ATOM     15  O   UNL     1      -2.545   5.418  40.814  1.00  0.00    -0.550 OA
ATOM     16  O   UNL     1      -2.393   5.526  38.531  1.00  0.00    -0.550 OA
ENDBRANCH  13  14
ENDBRANCH  12  13
ENDBRANCH  11  12
ENDBRANCH  10  11
ENDBRANCH   9  10
ENDBRANCH   8   9
ENDBRANCH   7   8
ENDBRANCH   6   7
ENDBRANCH   5   6
ENDBRANCH   4   5
ENDBRANCH   3   4
ENDBRANCH   2   3
ENDBRANCH   1   2
BRANCH   1  17
ATOM     17  C   UNL     1       4.049   3.838  37.812  1.00  0.00     0.000 C 
BRANCH  17  18
ATOM     18  C   UNL     1       3.879   3.388  36.349  1.00  0.00     0.000 C 
BRANCH  18  19
ATOM     19  C   UNL     1       4.631   4.255  35.324  1.00  0.00     0.000 C 
BRANCH  19  20
ATOM     20  C   UNL     1       3.755   4.669  34.131  1.00  0.00     0.000 C 
BRANCH  20  21
ATOM     21  C   UNL     1       2.649   5.664  34.528  1.00  0.00     0.000 C 
BRANCH  21  22
ATOM     22  C   UNL     1       1.288   5.424  33.844  1.00  0.00    -0.000 C 
BRANCH  22  23
ATOM     23  C   UNL     1       0.606   4.081  34.183  1.00  0.00    -0.000 C 
BRANCH  23  24
ATOM     24  C   UNL     1      -0.077   3.376  32.997  1.00  0.00    -0.000 C 
BRANCH  24  25
ATOM     25  C   UNL     1       0.119   4.120  31.667  1.00  0.00    -0.000 C 
BRANCH  25  26
ATOM     26  C   UNL     1       0.911   3.290  30.647  1.00  0.00    -0.000 C 
BRANCH  26  27
ATOM     27  C   UNL     1       2.325   3.845  30.415  1.00  0.00    -0.000 C 
BRANCH  27  28
ATOM     28  C   UNL     1       3.372   2.956  31.097  1.00  0.00    -0.000 C 
BRANCH  28  29
ATOM     29  C   UNL     1       2.815   1.573  31.470  1.00  0.00    -0.003 C 
ATOM     30  C   UNL     1       3.036   1.217  32.940  1.00  0.00     0.004 C 
ENDBRANCH  28  29
ENDBRANCH  27  28
ENDBRANCH  26  27
ENDBRANCH  25  26
ENDBRANCH  24  25
ENDBRANCH  23  24
ENDBRANCH  22  23
ENDBRANCH  21  22
ENDBRANCH  20  21
ENDBRANCH  19  20
ENDBRANCH  18  19
ENDBRANCH  17  18
ENDBRANCH   1  17
TORSDOF 26
ENDMDL
