MODEL 1
REMARK VINA RESULT:    -4.633      0.000      0.000
REMARK INTER + INTRA:         -14.720
REMARK INTER:                 -11.676
REMARK INTRA:                  -3.044
REMARK UNBOUND:                -3.044
REMARK SMILES CCCCCCCCCCCCCCCCCCCCCCCCCCCC(=O)[O-]
REMARK SMILES IDX 15 1 16 2 17 3 18 4 19 5 20 6 21 7 22 8 23 9 24 10 25 11
REMARK SMILES IDX 26 12 27 13 28 14 29 15 30 16 14 17 13 18 12 19 11 20 10 21
REMARK SMILES IDX 9 22 8 23 7 24 6 25 5 26 4 27 3 28 2 29 1 30
REMARK H PARENT
REMARK Flexibility Score: inf
ROOT
ATOM      1  C   UNL     1     -11.763 -10.734   6.182  1.00  0.00     0.000 C 
ENDROOT
BRANCH   1   2
ATOM      2  C   UNL     1     -10.556  -9.783   6.288  1.00  0.00     0.000 C 
BRANCH   2   3
ATOM      3  C   UNL     1      -9.245 -10.486   6.699  1.00  0.00     0.000 C 
BRANCH   3   4
ATOM      4  C   UNL     1      -9.491 -11.710   7.595  1.00  0.00     0.000 C 
BRANCH   4   5
ATOM      5  C   UNL     1      -8.820 -12.967   7.017  1.00  0.00     0.000 C 
BRANCH   5   6
ATOM      6  C   UNL     1      -9.210 -13.235   5.554  1.00  0.00     0.000 C 
BRANCH   6   7
ATOM      7  C   UNL     1      -8.130 -14.013   4.780  1.00  0.00     0.000 C 
BRANCH   7   8
ATOM      8  C   UNL     1      -6.992 -14.498   5.706  1.00  0.00     0.000 C 
BRANCH   8   9
ATOM      9  C   UNL     1      -6.133 -15.616   5.093  1.00  0.00     0.000 C 
BRANCH   9  10
ATOM     10  C   UNL     1      -6.824 -16.985   5.130  1.00  0.00     0.000 C 
BRANCH  10  11
ATOM     11  C   UNL     1      -5.793 -18.123   5.044  1.00  0.00     0.000 C 
BRANCH  11  12
ATOM     12  C   UNL     1      -6.415 -19.457   4.602  1.00  0.00     0.006 C 
BRANCH  12  13
ATOM     13  C   UNL     1      -7.899 -19.575   4.974  1.00  0.00     0.053 C 
BRANCH  13  14
ATOM     14  C   UNL     1      -8.676 -20.207   3.862  1.00  0.00     0.041 C 
ATOM     15  O   UNL     1      -8.856 -21.453   3.843  1.00  0.00    -0.550 OA
ATOM     16  O   UNL     1      -9.197 -19.421   2.841  1.00  0.00    -0.550 OA
ENDBRANCH  13  14
ENDBRANCH  12  13
ENDBRANCH  11  12
ENDBRANCH  10  11
ENDBRANCH   9  10
ENDBRANCH   8   9
ENDBRANCH   7   8
ENDBRANCH   6   7
ENDBRANCH   5   6
ENDBRANCH   4   5
ENDBRANCH   3   4
ENDBRANCH   2   3
ENDBRANCH   1   2
BRANCH   1  17
ATOM     17  C   UNL     1     -13.111  -9.997   6.222  1.00  0.00     0.000 C 
BRANCH  17  18
ATOM     18  C   UNL     1     -14.211 -10.809   6.922  1.00  0.00     0.000 C 
BRANCH  18  19
ATOM     19  C   UNL     1     -15.490  -9.987   7.163  1.00  0.00     0.000 C 
BRANCH  19  20
ATOM     20  C   UNL     1     -15.522  -9.335   8.556  1.00  0.00     0.000 C 
BRANCH  20  21
ATOM     21  C   UNL     1     -14.619 -10.006   9.609  1.00  0.00     0.000 C 
BRANCH  21  22
ATOM     22  C   UNL     1     -13.322  -9.226   9.912  1.00  0.00    -0.000 C 
BRANCH  22  23
ATOM     23  C   UNL     1     -12.052 -10.065   9.672  1.00  0.00    -0.000 C 
BRANCH  23  24
ATOM     24  C   UNL     1     -10.786  -9.387  10.221  1.00  0.00    -0.000 C 
BRANCH  24  25
ATOM     25  C   UNL     1     -10.009 -10.288  11.198  1.00  0.00    -0.000 C 
BRANCH  25  26
ATOM     26  C   UNL     1     -10.449 -11.759  11.121  1.00  0.00    -0.000 C 
BRANCH  26  27
ATOM     27  C   UNL     1      -9.385 -12.723  11.670  1.00  0.00    -0.000 C 
BRANCH  27  28
ATOM     28  C   UNL     1      -8.260 -12.002  12.432  1.00  0.00    -0.000 C 
BRANCH  28  29
ATOM     29  C   UNL     1      -6.872 -12.158  11.778  1.00  0.00    -0.003 C 
ATOM     30  C   UNL     1      -6.963 -12.650  10.333  1.00  0.00     0.004 C 
ENDBRANCH  28  29
ENDBRANCH  27  28
ENDBRANCH  26  27
ENDBRANCH  25  26
ENDBRANCH  24  25
ENDBRANCH  23  24
ENDBRANCH  22  23
ENDBRANCH  21  22
ENDBRANCH  20  21
ENDBRANCH  19  20
ENDBRANCH  18  19
ENDBRANCH  17  18
ENDBRANCH   1  17
TORSDOF 26
ENDMDL
MODEL 2
REMARK VINA RESULT:    -4.564      3.712     10.497
REMARK INTER + INTRA:         -14.545
REMARK INTER:                 -11.674
REMARK INTRA:                  -2.870
REMARK UNBOUND:                -3.044
REMARK SMILES CCCCCCCCCCCCCCCCCCCCCCCCCCCC(=O)[O-]
REMARK SMILES IDX 15 1 16 2 17 3 18 4 19 5 20 6 21 7 22 8 23 9 24 10 25 11
REMARK SMILES IDX 26 12 27 13 28 14 29 15 30 16 14 17 13 18 12 19 11 20 10 21
REMARK SMILES IDX 9 22 8 23 7 24 6 25 5 26 4 27 3 28 2 29 1 30
REMARK H PARENT
REMARK Flexibility Score: inf
ROOT
ATOM      1  C   UNL     1      -8.234 -13.692   4.893  1.00  0.00     0.000 C 
ENDROOT
BRANCH   1   2
ATOM      2  C   UNL     1      -8.956 -13.175   6.151  1.00  0.00     0.000 C 
BRANCH   2   3
ATOM      3  C   UNL     1     -10.325 -12.523   5.857  1.00  0.00     0.000 C 
BRANCH   3   4
ATOM      4  C   UNL     1     -10.714 -11.473   6.909  1.00  0.00     0.000 C 
BRANCH   4   5
ATOM      5  C   UNL     1     -11.133 -10.151   6.247  1.00  0.00     0.000 C 
BRANCH   5   6
ATOM      6  C   UNL     1     -12.634 -10.094   5.919  1.00  0.00     0.000 C 
BRANCH   6   7
ATOM      7  C   UNL     1     -13.497 -10.874   6.928  1.00  0.00     0.000 C 
BRANCH   7   8
ATOM      8  C   UNL     1     -14.676 -10.026   7.456  1.00  0.00     0.000 C 
BRANCH   8   9
ATOM      9  C   UNL     1     -14.522  -9.604   8.926  1.00  0.00     0.000 C 
BRANCH   9  10
ATOM     10  C   UNL     1     -13.230 -10.132   9.565  1.00  0.00     0.000 C 
BRANCH  10  11
ATOM     11  C   UNL     1     -12.211  -8.998   9.758  1.00  0.00     0.000 C 
BRANCH  11  12
ATOM     12  C   UNL     1     -10.907  -9.475  10.416  1.00  0.00     0.006 C 
BRANCH  12  13
ATOM     13  C   UNL     1     -10.690 -10.988  10.278  1.00  0.00     0.053 C 
BRANCH  13  14
ATOM     14  C   UNL     1     -10.058 -11.548  11.514  1.00  0.00     0.041 C 
ATOM     15  O   UNL     1      -9.315 -10.826  12.229  1.00  0.00    -0.550 OA
ATOM     16  O   UNL     1     -10.285 -12.872  11.873  1.00  0.00    -0.550 OA
ENDBRANCH  13  14
ENDBRANCH  12  13
ENDBRANCH  11  12
ENDBRANCH  10  11
ENDBRANCH   9  10
ENDBRANCH   8   9
ENDBRANCH   7   8
ENDBRANCH   6   7
ENDBRANCH   5   6
ENDBRANCH   4   5
ENDBRANCH   3   4
ENDBRANCH   2   3
ENDBRANCH   1   2
BRANCH   1  17
ATOM     17  C   UNL     1      -6.844 -14.273   5.198  1.00  0.00     0.000 C 
BRANCH  17  18
ATOM     18  C   UNL     1      -6.884 -15.776   5.514  1.00  0.00     0.000 C 
BRANCH  18  19
ATOM     19  C   UNL     1      -5.553 -16.296   6.086  1.00  0.00     0.000 C 
BRANCH  19  20
ATOM     20  C   UNL     1      -4.437 -16.356   5.029  1.00  0.00     0.000 C 
BRANCH  20  21
ATOM     21  C   UNL     1      -3.030 -16.002   5.549  1.00  0.00     0.000 C 
BRANCH  21  22
ATOM     22  C   UNL     1      -1.884 -16.660   4.752  1.00  0.00    -0.000 C 
BRANCH  22  23
ATOM     23  C   UNL     1      -2.327 -17.143   3.358  1.00  0.00    -0.000 C 
BRANCH  23  24
ATOM     24  C   UNL     1      -2.273 -18.674   3.220  1.00  0.00    -0.000 C 
BRANCH  24  25
ATOM     25  C   UNL     1      -1.847 -19.371   4.525  1.00  0.00    -0.000 C 
BRANCH  25  26
ATOM     26  C   UNL     1      -2.886 -20.394   5.012  1.00  0.00    -0.000 C 
BRANCH  26  27
ATOM     27  C   UNL     1      -3.906 -19.782   5.986  1.00  0.00    -0.000 C 
BRANCH  27  28
ATOM     28  C   UNL     1      -5.363 -20.022   5.555  1.00  0.00    -0.000 C 
BRANCH  28  29
ATOM     29  C   UNL     1      -6.381 -19.872   6.704  1.00  0.00    -0.003 C 
ATOM     30  C   UNL     1      -7.591 -20.792   6.533  1.00  0.00     0.004 C 
ENDBRANCH  28  29
ENDBRANCH  27  28
ENDBRANCH  26  27
ENDBRANCH  25  26
ENDBRANCH  24  25
ENDBRANCH  23  24
ENDBRANCH  22  23
ENDBRANCH  21  22
ENDBRANCH  20  21
ENDBRANCH  19  20
ENDBRANCH  18  19
ENDBRANCH  17  18
ENDBRANCH   1  17
TORSDOF 26
ENDMDL
MODEL 3
REMARK VINA RESULT:    -4.551      3.293      8.652
REMARK INTER + INTRA:         -14.512
REMARK INTER:                 -10.742
REMARK INTRA:                  -3.770
REMARK UNBOUND:                -3.044
REMARK SMILES CCCCCCCCCCCCCCCCCCCCCCCCCCCC(=O)[O-]
REMARK SMILES IDX 15 1 16 2 17 3 18 4 19 5 20 6 21 7 22 8 23 9 24 10 25 11
REMARK SMILES IDX 26 12 27 13 28 14 29 15 30 16 14 17 13 18 12 19 11 20 10 21
REMARK SMILES IDX 9 22 8 23 7 24 6 25 5 26 4 27 3 28 2 29 1 30
REMARK H PARENT
REMARK Flexibility Score: inf
ROOT
ATOM      1  C   UNL     1      -9.140 -11.824   6.502  1.00  0.00     0.000 C 
ENDROOT
BRANCH   1   2
ATOM      2  C   UNL     1     -10.134 -10.655   6.372  1.00  0.00     0.000 C 
BRANCH   2   3
ATOM      3  C   UNL     1     -11.583 -11.102   6.081  1.00  0.00     0.000 C 
BRANCH   3   4
ATOM      4  C   UNL     1     -12.597  -9.962   6.264  1.00  0.00     0.000 C 
BRANCH   4   5
ATOM      5  C   UNL     1     -13.903 -10.474   6.893  1.00  0.00     0.000 C 
BRANCH   5   6
ATOM      6  C   UNL     1     -14.297  -9.705   8.165  1.00  0.00     0.000 C 
BRANCH   6   7
ATOM      7  C   UNL     1     -13.624 -10.260   9.433  1.00  0.00     0.000 C 
BRANCH   7   8
ATOM      8  C   UNL     1     -12.292  -9.542   9.743  1.00  0.00     0.000 C 
BRANCH   8   9
ATOM      9  C   UNL     1     -11.104 -10.500   9.930  1.00  0.00     0.000 C 
BRANCH   9  10
ATOM     10  C   UNL     1      -9.851  -9.797  10.469  1.00  0.00     0.000 C 
BRANCH  10  11
ATOM     11  C   UNL     1      -8.588 -10.299   9.751  1.00  0.00     0.000 C 
BRANCH  11  12
ATOM     12  C   UNL     1      -7.879 -11.429  10.514  1.00  0.00     0.006 C 
BRANCH  12  13
ATOM     13  C   UNL     1      -8.051 -12.799   9.844  1.00  0.00     0.053 C 
BRANCH  13  14
ATOM     14  C   UNL     1      -8.623 -13.792  10.806  1.00  0.00     0.041 C 
ATOM     15  O   UNL     1      -9.454 -13.425  11.678  1.00  0.00    -0.550 OA
ATOM     16  O   UNL     1      -8.232 -15.125  10.746  1.00  0.00    -0.550 OA
ENDBRANCH  13  14
ENDBRANCH  12  13
ENDBRANCH  11  12
ENDBRANCH  10  11
ENDBRANCH   9  10
ENDBRANCH   8   9
ENDBRANCH   7   8
ENDBRANCH   6   7
ENDBRANCH   5   6
ENDBRANCH   4   5
ENDBRANCH   3   4
ENDBRANCH   2   3
ENDBRANCH   1   2
BRANCH   1  17
ATOM     17  C   UNL     1      -9.662 -13.125   5.873  1.00  0.00     0.000 C 
BRANCH  17  18
ATOM     18  C   UNL     1      -8.621 -13.810   4.975  1.00  0.00     0.000 C 
BRANCH  18  19
ATOM     19  C   UNL     1      -7.178 -13.585   5.464  1.00  0.00     0.000 C 
BRANCH  19  20
ATOM     20  C   UNL     1      -6.548 -14.857   6.056  1.00  0.00     0.000 C 
BRANCH  20  21
ATOM     21  C   UNL     1      -6.451 -16.048   5.084  1.00  0.00     0.000 C 
BRANCH  21  22
ATOM     22  C   UNL     1      -5.094 -16.155   4.357  1.00  0.00    -0.000 C 
BRANCH  22  23
ATOM     23  C   UNL     1      -4.335 -17.452   4.698  1.00  0.00    -0.000 C 
BRANCH  23  24
ATOM     24  C   UNL     1      -2.822 -17.331   4.452  1.00  0.00    -0.000 C 
BRANCH  24  25
ATOM     25  C   UNL     1      -2.274 -15.937   4.810  1.00  0.00    -0.000 C 
BRANCH  25  26
ATOM     26  C   UNL     1      -1.904 -15.814   6.297  1.00  0.00    -0.000 C 
BRANCH  26  27
ATOM     27  C   UNL     1      -2.878 -14.914   7.075  1.00  0.00    -0.000 C 
BRANCH  27  28
ATOM     28  C   UNL     1      -3.457 -15.599   8.325  1.00  0.00    -0.000 C 
BRANCH  28  29
ATOM     29  C   UNL     1      -3.773 -17.095   8.119  1.00  0.00    -0.003 C 
ATOM     30  C   UNL     1      -5.219 -17.438   8.478  1.00  0.00     0.004 C 
ENDBRANCH  28  29
ENDBRANCH  27  28
ENDBRANCH  26  27
ENDBRANCH  25  26
ENDBRANCH  24  25
ENDBRANCH  23  24
ENDBRANCH  22  23
ENDBRANCH  21  22
ENDBRANCH  20  21
ENDBRANCH  19  20
ENDBRANCH  18  19
ENDBRANCH  17  18
ENDBRANCH   1  17
TORSDOF 26
ENDMDL
MODEL 4
REMARK VINA RESULT:    -4.537      4.257     11.403
REMARK INTER + INTRA:         -14.476
REMARK INTER:                 -12.034
REMARK INTRA:                  -2.441
REMARK UNBOUND:                -3.044
REMARK SMILES CCCCCCCCCCCCCCCCCCCCCCCCCCCC(=O)[O-]
REMARK SMILES IDX 15 1 16 2 17 3 18 4 19 5 20 6 21 7 22 8 23 9 24 10 25 11
REMARK SMILES IDX 26 12 27 13 28 14 29 15 30 16 14 17 13 18 12 19 11 20 10 21
REMARK SMILES IDX 9 22 8 23 7 24 6 25 5 26 4 27 3 28 2 29 1 30
REMARK H PARENT
REMARK Flexibility Score: inf
ROOT
ATOM      1  C   UNL     1      -3.508 -15.957   5.817  1.00  0.00     0.000 C 
ENDROOT
BRANCH   1   2
ATOM      2  C   UNL     1      -4.814 -16.379   5.118  1.00  0.00     0.000 C 
BRANCH   2   3
ATOM      3  C   UNL     1      -6.069 -16.229   6.004  1.00  0.00     0.000 C 
BRANCH   3   4
ATOM      4  C   UNL     1      -6.646 -14.805   5.969  1.00  0.00     0.000 C 
BRANCH   4   5
ATOM      5  C   UNL     1      -7.930 -14.745   5.127  1.00  0.00     0.000 C 
BRANCH   5   6
ATOM      6  C   UNL     1      -8.564 -13.344   5.101  1.00  0.00     0.000 C 
BRANCH   6   7
ATOM      7  C   UNL     1      -9.863 -13.260   5.923  1.00  0.00     0.000 C 
BRANCH   7   8
ATOM      8  C   UNL     1     -10.530 -11.871   5.809  1.00  0.00     0.000 C 
BRANCH   8   9
ATOM      9  C   UNL     1     -10.687 -11.150   7.157  1.00  0.00     0.000 C 
BRANCH   9  10
ATOM     10  C   UNL     1     -10.757  -9.624   7.012  1.00  0.00     0.000 C 
BRANCH  10  11
ATOM     11  C   UNL     1     -12.049  -9.071   7.636  1.00  0.00     0.000 C 
BRANCH  11  12
ATOM     12  C   UNL     1     -13.181 -10.109   7.678  1.00  0.00     0.006 C 
BRANCH  12  13
ATOM     13  C   UNL     1     -14.133  -9.904   8.865  1.00  0.00     0.053 C 
BRANCH  13  14
ATOM     14  C   UNL     1     -15.527  -9.640   8.387  1.00  0.00     0.041 C 
ATOM     15  O   UNL     1     -16.377  -9.130   9.163  1.00  0.00    -0.550 OA
ATOM     16  O   UNL     1     -15.890  -9.965   7.085  1.00  0.00    -0.550 OA
ENDBRANCH  13  14
ENDBRANCH  12  13
ENDBRANCH  11  12
ENDBRANCH  10  11
ENDBRANCH   9  10
ENDBRANCH   8   9
ENDBRANCH   7   8
ENDBRANCH   6   7
ENDBRANCH   5   6
ENDBRANCH   4   5
ENDBRANCH   3   4
ENDBRANCH   2   3
ENDBRANCH   1   2
BRANCH   1  17
ATOM     17  C   UNL     1      -2.253 -16.512   5.125  1.00  0.00     0.000 C 
BRANCH  17  18
ATOM     18  C   UNL     1      -2.481 -16.815   3.636  1.00  0.00     0.000 C 
BRANCH  18  19
ATOM     19  C   UNL     1      -1.984 -18.216   3.235  1.00  0.00     0.000 C 
BRANCH  19  20
ATOM     20  C   UNL     1      -1.422 -19.010   4.427  1.00  0.00     0.000 C 
BRANCH  20  21
ATOM     21  C   UNL     1      -2.177 -20.312   4.756  1.00  0.00     0.000 C 
BRANCH  21  22
ATOM     22  C   UNL     1      -3.271 -20.148   5.832  1.00  0.00    -0.000 C 
BRANCH  22  23
ATOM     23  C   UNL     1      -4.661 -19.865   5.231  1.00  0.00    -0.000 C 
BRANCH  23  24
ATOM     24  C   UNL     1      -5.768 -19.831   6.297  1.00  0.00    -0.000 C 
BRANCH  24  25
ATOM     25  C   UNL     1      -6.374 -21.221   6.565  1.00  0.00    -0.000 C 
BRANCH  25  26
ATOM     26  C   UNL     1      -7.110 -21.790   5.341  1.00  0.00    -0.000 C 
BRANCH  26  27
ATOM     27  C   UNL     1      -8.638 -21.709   5.480  1.00  0.00    -0.000 C 
BRANCH  27  28
ATOM     28  C   UNL     1      -9.289 -20.813   4.412  1.00  0.00    -0.000 C 
BRANCH  28  29
ATOM     29  C   UNL     1      -8.508 -19.512   4.137  1.00  0.00    -0.003 C 
ATOM     30  C   UNL     1      -9.359 -18.464   3.419  1.00  0.00     0.004 C 
ENDBRANCH  28  29
ENDBRANCH  27  28
ENDBRANCH  26  27
ENDBRANCH  25  26
ENDBRANCH  24  25
ENDBRANCH  23  24
ENDBRANCH  22  23
ENDBRANCH  21  22
ENDBRANCH  20  21
ENDBRANCH  19  20
ENDBRANCH  18  19
ENDBRANCH  17  18
ENDBRANCH   1  17
TORSDOF 26
ENDMDL
MODEL 5
REMARK VINA RESULT:    -4.514      3.967     10.169
REMARK INTER + INTRA:         -14.418
REMARK INTER:                 -10.872
REMARK INTRA:                  -3.545
REMARK UNBOUND:                -3.044
REMARK SMILES CCCCCCCCCCCCCCCCCCCCCCCCCCCC(=O)[O-]
REMARK SMILES IDX 15 1 16 2 17 3 18 4 19 5 20 6 21 7 22 8 23 9 24 10 25 11
REMARK SMILES IDX 26 12 27 13 28 14 29 15 30 16 14 17 13 18 12 19 11 20 10 21
REMARK SMILES IDX 9 22 8 23 7 24 6 25 5 26 4 27 3 28 2 29 1 30
REMARK H PARENT
REMARK Flexibility Score: inf
ROOT
ATOM      1  C   UNL     1      -5.969 -15.595   4.889  1.00  0.00     0.000 C 
ENDROOT
BRANCH   1   2
ATOM      2  C   UNL     1      -6.879 -14.798   5.843  1.00  0.00     0.000 C 
BRANCH   2   3
ATOM      3  C   UNL     1      -7.582 -13.598   5.171  1.00  0.00     0.000 C 
BRANCH   3   4
ATOM      4  C   UNL     1      -9.090 -13.561   5.466  1.00  0.00     0.000 C 
BRANCH   4   5
ATOM      5  C   UNL     1      -9.424 -12.502   6.528  1.00  0.00     0.000 C 
BRANCH   5   6
ATOM      6  C   UNL     1     -10.778 -11.816   6.285  1.00  0.00     0.000 C 
BRANCH   6   7
ATOM      7  C   UNL     1     -10.672 -10.280   6.245  1.00  0.00     0.000 C 
BRANCH   7   8
ATOM      8  C   UNL     1     -12.061  -9.606   6.190  1.00  0.00     0.000 C 
BRANCH   8   9
ATOM      9  C   UNL     1     -13.198 -10.493   6.723  1.00  0.00     0.000 C 
BRANCH   9  10
ATOM     10  C   UNL     1     -13.878  -9.906   7.967  1.00  0.00     0.000 C 
BRANCH  10  11
ATOM     11  C   UNL     1     -13.084 -10.247   9.239  1.00  0.00     0.000 C 
BRANCH  11  12
ATOM     12  C   UNL     1     -12.389  -9.022   9.853  1.00  0.00     0.006 C 
BRANCH  12  13
ATOM     13  C   UNL     1     -10.865  -9.051   9.675  1.00  0.00     0.053 C 
BRANCH  13  14
ATOM     14  C   UNL     1     -10.263 -10.187  10.442  1.00  0.00     0.041 C 
ATOM     15  O   UNL     1     -10.071 -11.298   9.883  1.00  0.00    -0.550 OA
ATOM     16  O   UNL     1      -9.920 -10.019  11.779  1.00  0.00    -0.550 OA
ENDBRANCH  13  14
ENDBRANCH  12  13
ENDBRANCH  11  12
ENDBRANCH  10  11
ENDBRANCH   9  10
ENDBRANCH   8   9
ENDBRANCH   7   8
ENDBRANCH   6   7
ENDBRANCH   5   6
ENDBRANCH   4   5
ENDBRANCH   3   4
ENDBRANCH   2   3
ENDBRANCH   1   2
BRANCH   1  17
ATOM     17  C   UNL     1      -5.919 -17.094   5.225  1.00  0.00     0.000 C 
BRANCH  17  18
ATOM     18  C   UNL     1      -4.568 -17.735   4.876  1.00  0.00     0.000 C 
BRANCH  18  19
ATOM     19  C   UNL     1      -3.888 -17.063   3.669  1.00  0.00     0.000 C 
BRANCH  19  20
ATOM     20  C   UNL     1      -2.382 -16.836   3.888  1.00  0.00     0.000 C 
BRANCH  20  21
ATOM     21  C   UNL     1      -2.031 -15.823   4.995  1.00  0.00     0.000 C 
BRANCH  21  22
ATOM     22  C   UNL     1      -1.209 -16.422   6.156  1.00  0.00    -0.000 C 
BRANCH  22  23
ATOM     23  C   UNL     1      -1.939 -16.335   7.510  1.00  0.00    -0.000 C 
BRANCH  23  24
ATOM     24  C   UNL     1      -3.071 -15.294   7.503  1.00  0.00    -0.000 C 
BRANCH  24  25
ATOM     25  C   UNL     1      -4.317 -15.770   8.271  1.00  0.00    -0.000 C 
BRANCH  25  26
ATOM     26  C   UNL     1      -4.156 -17.192   8.832  1.00  0.00    -0.000 C 
BRANCH  26  27
ATOM     27  C   UNL     1      -5.462 -18.001   8.775  1.00  0.00    -0.000 C 
BRANCH  27  28
ATOM     28  C   UNL     1      -5.266 -19.412   8.194  1.00  0.00    -0.000 C 
BRANCH  28  29
ATOM     29  C   UNL     1      -6.508 -19.955   7.457  1.00  0.00    -0.003 C 
ATOM     30  C   UNL     1      -6.139 -20.925   6.334  1.00  0.00     0.004 C 
ENDBRANCH  28  29
ENDBRANCH  27  28
ENDBRANCH  26  27
ENDBRANCH  25  26
ENDBRANCH  24  25
ENDBRANCH  23  24
ENDBRANCH  22  23
ENDBRANCH  21  22
ENDBRANCH  20  21
ENDBRANCH  19  20
ENDBRANCH  18  19
ENDBRANCH  17  18
ENDBRANCH   1  17
TORSDOF 26
ENDMDL
MODEL 6
REMARK VINA RESULT:    -4.503      2.939      9.034
REMARK INTER + INTRA:         -14.392
REMARK INTER:                 -11.456
REMARK INTRA:                  -2.936
REMARK UNBOUND:                -3.044
REMARK SMILES CCCCCCCCCCCCCCCCCCCCCCCCCCCC(=O)[O-]
REMARK SMILES IDX 15 1 16 2 17 3 18 4 19 5 20 6 21 7 22 8 23 9 24 10 25 11
REMARK SMILES IDX 26 12 27 13 28 14 29 15 30 16 14 17 13 18 12 19 11 20 10 21
REMARK SMILES IDX 9 22 8 23 7 24 6 25 5 26 4 27 3 28 2 29 1 30
REMARK H PARENT
REMARK Flexibility Score: inf
ROOT
ATOM      1  C   UNL     1      -9.059 -11.672   6.543  1.00  0.00     0.000 C 
ENDROOT
BRANCH   1   2
ATOM      2  C   UNL     1     -10.078 -10.523   6.656  1.00  0.00     0.000 C 
BRANCH   2   3
ATOM      3  C   UNL     1     -11.386 -10.775   5.875  1.00  0.00     0.000 C 
BRANCH   3   4
ATOM      4  C   UNL     1     -12.500  -9.789   6.260  1.00  0.00     0.000 C 
BRANCH   4   5
ATOM      5  C   UNL     1     -13.629 -10.497   7.025  1.00  0.00     0.000 C 
BRANCH   5   6
ATOM      6  C   UNL     1     -13.875  -9.898   8.420  1.00  0.00     0.000 C 
BRANCH   6   7
ATOM      7  C   UNL     1     -12.863 -10.392   9.470  1.00  0.00     0.000 C 
BRANCH   7   8
ATOM      8  C   UNL     1     -11.799  -9.321   9.796  1.00  0.00     0.000 C 
BRANCH   8   9
ATOM      9  C   UNL     1     -10.532  -9.891  10.454  1.00  0.00     0.000 C 
BRANCH   9  10
ATOM     10  C   UNL     1     -10.342 -11.389  10.181  1.00  0.00     0.000 C 
BRANCH  10  11
ATOM     11  C   UNL     1     -10.292 -12.185  11.495  1.00  0.00     0.000 C 
BRANCH  11  12
ATOM     12  C   UNL     1      -8.934 -12.863  11.730  1.00  0.00     0.006 C 
BRANCH  12  13
ATOM     13  C   UNL     1      -8.208 -13.210  10.423  1.00  0.00     0.053 C 
BRANCH  13  14
ATOM     14  C   UNL     1      -7.954 -14.682  10.332  1.00  0.00     0.041 C 
ATOM     15  O   UNL     1      -8.502 -15.472  11.146  1.00  0.00    -0.550 OA
ATOM     16  O   UNL     1      -7.105 -15.183   9.352  1.00  0.00    -0.550 OA
ENDBRANCH  13  14
ENDBRANCH  12  13
ENDBRANCH  11  12
ENDBRANCH  10  11
ENDBRANCH   9  10
ENDBRANCH   8   9
ENDBRANCH   7   8
ENDBRANCH   6   7
ENDBRANCH   5   6
ENDBRANCH   4   5
ENDBRANCH   3   4
ENDBRANCH   2   3
ENDBRANCH   1   2
BRANCH   1  17
ATOM     17  C   UNL     1      -9.708 -13.013   6.166  1.00  0.00     0.000 C 
BRANCH  17  18
ATOM     18  C   UNL     1      -8.939 -13.757   5.065  1.00  0.00     0.000 C 
BRANCH  18  19
ATOM     19  C   UNL     1      -7.416 -13.549   5.163  1.00  0.00     0.000 C 
BRANCH  19  20
ATOM     20  C   UNL     1      -6.733 -14.587   6.070  1.00  0.00     0.000 C 
BRANCH  20  21
ATOM     21  C   UNL     1      -6.528 -15.974   5.431  1.00  0.00     0.000 C 
BRANCH  21  22
ATOM     22  C   UNL     1      -5.180 -16.133   4.697  1.00  0.00    -0.000 C 
BRANCH  22  23
ATOM     23  C   UNL     1      -3.993 -16.312   5.663  1.00  0.00    -0.000 C 
BRANCH  23  24
ATOM     24  C   UNL     1      -2.637 -16.053   4.985  1.00  0.00    -0.000 C 
BRANCH  24  25
ATOM     25  C   UNL     1      -2.548 -16.678   3.581  1.00  0.00    -0.000 C 
BRANCH  25  26
ATOM     26  C   UNL     1      -1.898 -18.071   3.596  1.00  0.00    -0.000 C 
BRANCH  26  27
ATOM     27  C   UNL     1      -2.874 -19.174   4.039  1.00  0.00    -0.000 C 
BRANCH  27  28
ATOM     28  C   UNL     1      -2.457 -19.846   5.359  1.00  0.00    -0.000 C 
BRANCH  28  29
ATOM     29  C   UNL     1      -3.589 -20.655   6.024  1.00  0.00    -0.003 C 
ATOM     30  C   UNL     1      -4.973 -20.088   5.707  1.00  0.00     0.004 C 
ENDBRANCH  28  29
ENDBRANCH  27  28
ENDBRANCH  26  27
ENDBRANCH  25  26
ENDBRANCH  24  25
ENDBRANCH  23  24
ENDBRANCH  22  23
ENDBRANCH  21  22
ENDBRANCH  20  21
ENDBRANCH  19  20
ENDBRANCH  18  19
ENDBRANCH  17  18
ENDBRANCH   1  17
TORSDOF 26
ENDMDL
MODEL 7
REMARK VINA RESULT:    -4.500      1.512      3.684
REMARK INTER + INTRA:         -14.383
REMARK INTER:                 -10.800
REMARK INTRA:                  -3.584
REMARK UNBOUND:                -3.044
REMARK SMILES CCCCCCCCCCCCCCCCCCCCCCCCCCCC(=O)[O-]
REMARK SMILES IDX 15 1 16 2 17 3 18 4 19 5 20 6 21 7 22 8 23 9 24 10 25 11
REMARK SMILES IDX 26 12 27 13 28 14 29 15 30 16 14 17 13 18 12 19 11 20 10 21
REMARK SMILES IDX 9 22 8 23 7 24 6 25 5 26 4 27 3 28 2 29 1 30
REMARK H PARENT
REMARK Flexibility Score: inf
ROOT
ATOM      1  C   UNL     1      -8.466 -13.077   5.897  1.00  0.00     0.000 C 
ENDROOT
BRANCH   1   2
ATOM      2  C   UNL     1      -8.115 -14.325   5.066  1.00  0.00     0.000 C 
BRANCH   2   3
ATOM      3  C   UNL     1      -6.608 -14.658   5.051  1.00  0.00     0.000 C 
BRANCH   3   4
ATOM      4  C   UNL     1      -6.060 -14.969   6.453  1.00  0.00     0.000 C 
BRANCH   4   5
ATOM      5  C   UNL     1      -4.728 -15.731   6.373  1.00  0.00     0.000 C 
BRANCH   5   6
ATOM      6  C   UNL     1      -4.298 -16.037   4.929  1.00  0.00     0.000 C 
BRANCH   6   7
ATOM      7  C   UNL     1      -2.938 -16.754   4.849  1.00  0.00     0.000 C 
BRANCH   7   8
ATOM      8  C   UNL     1      -3.031 -18.086   4.071  1.00  0.00     0.000 C 
BRANCH   8   9
ATOM      9  C   UNL     1      -3.242 -19.313   4.972  1.00  0.00     0.000 C 
BRANCH   9  10
ATOM     10  C   UNL     1      -4.706 -19.771   5.021  1.00  0.00     0.000 C 
BRANCH  10  11
ATOM     11  C   UNL     1      -5.391 -19.284   6.308  1.00  0.00     0.000 C 
BRANCH  11  12
ATOM     12  C   UNL     1      -6.908 -19.102   6.143  1.00  0.00     0.006 C 
BRANCH  12  13
ATOM     13  C   UNL     1      -7.275 -18.223   4.939  1.00  0.00     0.053 C 
BRANCH  13  14
ATOM     14  C   UNL     1      -8.207 -18.947   4.019  1.00  0.00     0.041 C 
ATOM     15  O   UNL     1      -9.344 -18.470   3.764  1.00  0.00    -0.550 OA
ATOM     16  O   UNL     1      -7.822 -20.155   3.447  1.00  0.00    -0.550 OA
ENDBRANCH  13  14
ENDBRANCH  12  13
ENDBRANCH  11  12
ENDBRANCH  10  11
ENDBRANCH   9  10
ENDBRANCH   8   9
ENDBRANCH   7   8
ENDBRANCH   6   7
ENDBRANCH   5   6
ENDBRANCH   4   5
ENDBRANCH   3   4
ENDBRANCH   2   3
ENDBRANCH   1   2
BRANCH   1  17
ATOM     17  C   UNL     1      -9.966 -12.742   5.868  1.00  0.00     0.000 C 
BRANCH  17  18
ATOM     18  C   UNL     1     -10.378 -11.768   6.982  1.00  0.00     0.000 C 
BRANCH  18  19
ATOM     19  C   UNL     1     -10.155 -10.295   6.594  1.00  0.00     0.000 C 
BRANCH  19  20
ATOM     20  C   UNL     1     -11.463  -9.575   6.225  1.00  0.00     0.000 C 
BRANCH  20  21
ATOM     21  C   UNL     1     -12.742 -10.415   6.408  1.00  0.00     0.000 C 
BRANCH  21  22
ATOM     22  C   UNL     1     -13.737  -9.828   7.431  1.00  0.00    -0.000 C 
BRANCH  22  23
ATOM     23  C   UNL     1     -13.345 -10.136   8.889  1.00  0.00    -0.000 C 
BRANCH  23  24
ATOM     24  C   UNL     1     -12.753  -8.914   9.611  1.00  0.00    -0.000 C 
BRANCH  24  25
ATOM     25  C   UNL     1     -11.277  -9.113  10.000  1.00  0.00    -0.000 C 
BRANCH  25  26
ATOM     26  C   UNL     1     -10.936 -10.585  10.284  1.00  0.00    -0.000 C 
BRANCH  26  27
ATOM     27  C   UNL     1      -9.435 -10.806  10.530  1.00  0.00    -0.000 C 
BRANCH  27  28
ATOM     28  C   UNL     1      -8.972 -12.226  10.162  1.00  0.00    -0.000 C 
BRANCH  28  29
ATOM     29  C   UNL     1      -7.465 -12.463  10.389  1.00  0.00    -0.003 C 
ATOM     30  C   UNL     1      -6.956 -13.707   9.660  1.00  0.00     0.004 C 
ENDBRANCH  28  29
ENDBRANCH  27  28
ENDBRANCH  26  27
ENDBRANCH  25  26
ENDBRANCH  24  25
ENDBRANCH  23  24
ENDBRANCH  22  23
ENDBRANCH  21  22
ENDBRANCH  20  21
ENDBRANCH  19  20
ENDBRANCH  18  19
ENDBRANCH  17  18
ENDBRANCH   1  17
TORSDOF 26
ENDMDL
MODEL 8
REMARK VINA RESULT:    -4.449      4.320     10.494
REMARK INTER + INTRA:         -14.254
REMARK INTER:                 -10.514
REMARK INTRA:                  -3.740
REMARK UNBOUND:                -3.044
REMARK SMILES CCCCCCCCCCCCCCCCCCCCCCCCCCCC(=O)[O-]
REMARK SMILES IDX 15 1 16 2 17 3 18 4 19 5 20 6 21 7 22 8 23 9 24 10 25 11
REMARK SMILES IDX 26 12 27 13 28 14 29 15 30 16 14 17 13 18 12 19 11 20 10 21
REMARK SMILES IDX 9 22 8 23 7 24 6 25 5 26 4 27 3 28 2 29 1 30
REMARK H PARENT
REMARK Flexibility Score: inf
ROOT
ATOM      1  C   UNL     1      -2.684 -17.930   4.736  1.00  0.00     0.000 C 
ENDROOT
BRANCH   1   2
ATOM      2  C   UNL     1      -3.327 -17.014   3.679  1.00  0.00     0.000 C 
BRANCH   2   3
ATOM      3  C   UNL     1      -4.620 -16.322   4.161  1.00  0.00     0.000 C 
BRANCH   3   4
ATOM      4  C   UNL     1      -5.547 -17.277   4.928  1.00  0.00     0.000 C 
BRANCH   4   5
ATOM      5  C   UNL     1      -6.898 -16.612   5.240  1.00  0.00     0.000 C 
BRANCH   5   6
ATOM      6  C   UNL     1      -6.776 -15.100   5.493  1.00  0.00     0.000 C 
BRANCH   6   7
ATOM      7  C   UNL     1      -7.962 -14.300   4.922  1.00  0.00     0.000 C 
BRANCH   7   8
ATOM      8  C   UNL     1      -8.418 -13.179   5.882  1.00  0.00     0.000 C 
BRANCH   8   9
ATOM      9  C   UNL     1      -9.934 -12.925   5.858  1.00  0.00     0.000 C 
BRANCH   9  10
ATOM     10  C   UNL     1     -10.307 -11.504   6.300  1.00  0.00     0.000 C 
BRANCH  10  11
ATOM     11  C   UNL     1     -11.762 -11.447   6.796  1.00  0.00     0.000 C 
BRANCH  11  12
ATOM     12  C   UNL     1     -12.497 -10.177   6.340  1.00  0.00     0.006 C 
BRANCH  12  13
ATOM     13  C   UNL     1     -12.988  -9.320   7.514  1.00  0.00     0.053 C 
BRANCH  13  14
ATOM     14  C   UNL     1     -14.181  -9.947   8.166  1.00  0.00     0.041 C 
ATOM     15  O   UNL     1     -15.233 -10.149   7.503  1.00  0.00    -0.550 OA
ATOM     16  O   UNL     1     -14.135 -10.302   9.509  1.00  0.00    -0.550 OA
ENDBRANCH  13  14
ENDBRANCH  12  13
ENDBRANCH  11  12
ENDBRANCH  10  11
ENDBRANCH   9  10
ENDBRANCH   8   9
ENDBRANCH   7   8
ENDBRANCH   6   7
ENDBRANCH   5   6
ENDBRANCH   4   5
ENDBRANCH   3   4
ENDBRANCH   2   3
ENDBRANCH   1   2
BRANCH   1  17
ATOM     17  C   UNL     1      -1.225 -17.556   5.043  1.00  0.00     0.000 C 
BRANCH  17  18
ATOM     18  C   UNL     1      -1.073 -16.801   6.372  1.00  0.00     0.000 C 
BRANCH  18  19
ATOM     19  C   UNL     1      -1.265 -15.281   6.214  1.00  0.00     0.000 C 
BRANCH  19  20
ATOM     20  C   UNL     1      -2.093 -14.667   7.356  1.00  0.00     0.000 C 
BRANCH  20  21
ATOM     21  C   UNL     1      -3.564 -15.121   7.410  1.00  0.00     0.000 C 
BRANCH  21  22
ATOM     22  C   UNL     1      -3.907 -15.995   8.635  1.00  0.00    -0.000 C 
BRANCH  22  23
ATOM     23  C   UNL     1      -5.302 -16.642   8.534  1.00  0.00    -0.000 C 
BRANCH  23  24
ATOM     24  C   UNL     1      -5.251 -18.174   8.665  1.00  0.00    -0.000 C 
BRANCH  24  25
ATOM     25  C   UNL     1      -3.921 -18.767   8.166  1.00  0.00    -0.000 C 
BRANCH  25  26
ATOM     26  C   UNL     1      -4.053 -20.241   7.750  1.00  0.00    -0.000 C 
BRANCH  26  27
ATOM     27  C   UNL     1      -4.587 -20.406   6.318  1.00  0.00    -0.000 C 
BRANCH  27  28
ATOM     28  C   UNL     1      -5.889 -21.223   6.257  1.00  0.00    -0.000 C 
BRANCH  28  29
ATOM     29  C   UNL     1      -7.165 -20.362   6.365  1.00  0.00    -0.003 C 
ATOM     30  C   UNL     1      -8.397 -21.192   6.726  1.00  0.00     0.004 C 
ENDBRANCH  28  29
ENDBRANCH  27  28
ENDBRANCH  26  27
ENDBRANCH  25  26
ENDBRANCH  24  25
ENDBRANCH  23  24
ENDBRANCH  22  23
ENDBRANCH  21  22
ENDBRANCH  20  21
ENDBRANCH  19  20
ENDBRANCH  18  19
ENDBRANCH  17  18
ENDBRANCH   1  17
TORSDOF 26
ENDMDL
MODEL 9
REMARK VINA RESULT:    -4.422      3.913     10.362
REMARK INTER + INTRA:         -14.187
REMARK INTER:                 -10.647
REMARK INTRA:                  -3.540
REMARK UNBOUND:                -3.044
REMARK SMILES CCCCCCCCCCCCCCCCCCCCCCCCCCCC(=O)[O-]
REMARK SMILES IDX 15 1 16 2 17 3 18 4 19 5 20 6 21 7 22 8 23 9 24 10 25 11
REMARK SMILES IDX 26 12 27 13 28 14 29 15 30 16 14 17 13 18 12 19 11 20 10 21
REMARK SMILES IDX 9 22 8 23 7 24 6 25 5 26 4 27 3 28 2 29 1 30
REMARK H PARENT
REMARK Flexibility Score: inf
ROOT
ATOM      1  C   UNL     1      -5.074 -16.396   4.400  1.00  0.00     0.000 C 
ENDROOT
BRANCH   1   2
ATOM      2  C   UNL     1      -6.155 -16.310   5.493  1.00  0.00     0.000 C 
BRANCH   2   3
ATOM      3  C   UNL     1      -6.248 -14.924   6.167  1.00  0.00     0.000 C 
BRANCH   3   4
ATOM      4  C   UNL     1      -6.979 -13.893   5.294  1.00  0.00     0.000 C 
BRANCH   4   5
ATOM      5  C   UNL     1      -8.452 -14.281   5.088  1.00  0.00     0.000 C 
BRANCH   5   6
ATOM      6  C   UNL     1      -9.422 -13.125   5.379  1.00  0.00     0.000 C 
BRANCH   6   7
ATOM      7  C   UNL     1      -9.259 -12.549   6.797  1.00  0.00     0.000 C 
BRANCH   7   8
ATOM      8  C   UNL     1      -9.339 -11.006   6.807  1.00  0.00     0.000 C 
BRANCH   8   9
ATOM      9  C   UNL     1     -10.647 -10.452   6.219  1.00  0.00     0.000 C 
BRANCH   9  10
ATOM     10  C   UNL     1     -11.042  -9.095   6.817  1.00  0.00     0.000 C 
BRANCH  10  11
ATOM     11  C   UNL     1     -11.212  -9.197   8.342  1.00  0.00     0.000 C 
BRANCH  11  12
ATOM     12  C   UNL     1     -12.389 -10.095   8.751  1.00  0.00     0.006 C 
BRANCH  12  13
ATOM     13  C   UNL     1     -13.743  -9.378   8.667  1.00  0.00     0.053 C 
BRANCH  13  14
ATOM     14  C   UNL     1     -14.607  -9.997   7.613  1.00  0.00     0.041 C 
ATOM     15  O   UNL     1     -15.830  -9.705   7.543  1.00  0.00    -0.550 OA
ATOM     16  O   UNL     1     -14.063 -10.903   6.710  1.00  0.00    -0.550 OA
ENDBRANCH  13  14
ENDBRANCH  12  13
ENDBRANCH  11  12
ENDBRANCH  10  11
ENDBRANCH   9  10
ENDBRANCH   8   9
ENDBRANCH   7   8
ENDBRANCH   6   7
ENDBRANCH   5   6
ENDBRANCH   4   5
ENDBRANCH   3   4
ENDBRANCH   2   3
ENDBRANCH   1   2
BRANCH   1  17
ATOM     17  C   UNL     1      -4.291 -17.718   4.436  1.00  0.00     0.000 C 
BRANCH  17  18
ATOM     18  C   UNL     1      -2.800 -17.517   4.740  1.00  0.00     0.000 C 
BRANCH  18  19
ATOM     19  C   UNL     1      -2.314 -16.094   4.407  1.00  0.00     0.000 C 
BRANCH  19  20
ATOM     20  C   UNL     1      -1.753 -15.357   5.636  1.00  0.00     0.000 C 
BRANCH  20  21
ATOM     21  C   UNL     1      -2.711 -15.276   6.840  1.00  0.00     0.000 C 
BRANCH  21  22
ATOM     22  C   UNL     1      -2.021 -15.476   8.205  1.00  0.00    -0.000 C 
BRANCH  22  23
ATOM     23  C   UNL     1      -2.317 -16.855   8.827  1.00  0.00    -0.000 C 
BRANCH  23  24
ATOM     24  C   UNL     1      -3.559 -17.523   8.214  1.00  0.00    -0.000 C 
BRANCH  24  25
ATOM     25  C   UNL     1      -3.697 -19.001   8.622  1.00  0.00    -0.000 C 
BRANCH  25  26
ATOM     26  C   UNL     1      -4.425 -19.840   7.558  1.00  0.00    -0.000 C 
BRANCH  26  27
ATOM     27  C   UNL     1      -5.881 -19.393   7.348  1.00  0.00    -0.000 C 
BRANCH  27  28
ATOM     28  C   UNL     1      -6.684 -20.369   6.471  1.00  0.00    -0.000 C 
BRANCH  28  29
ATOM     29  C   UNL     1      -7.662 -19.670   5.505  1.00  0.00    -0.003 C 
ATOM     30  C   UNL     1      -7.272 -19.867   4.039  1.00  0.00     0.004 C 
ENDBRANCH  28  29
ENDBRANCH  27  28
ENDBRANCH  26  27
ENDBRANCH  25  26
ENDBRANCH  24  25
ENDBRANCH  23  24
ENDBRANCH  22  23
ENDBRANCH  21  22
ENDBRANCH  20  21
ENDBRANCH  19  20
ENDBRANCH  18  19
ENDBRANCH  17  18
ENDBRANCH   1  17
TORSDOF 26
ENDMDL
