MODEL 1
REMARK VINA RESULT:    -3.191      0.000      0.000
REMARK INTER + INTRA:          -5.097
REMARK INTER:                  -4.870
REMARK INTRA:                  -0.227
REMARK UNBOUND:                -0.227
REMARK SMILES CC1=CCC[C@@H](C)C(=O)C[C@H](C(C)C)C(=O)C1
REMARK SMILES IDX 8 1 9 2 6 3 7 4 5 5 4 6 3 7 2 8 1 9 10 11 11 12 15 13 16 14
REMARK SMILES IDX 17 15 12 17 13 18 14 19
REMARK H PARENT
REMARK Flexibility Score: 70.00
ROOT
ATOM      1  C   UNL     1      18.553  52.871  34.982  1.00  0.00     0.136 C 
ATOM      2  O   UNL     1      18.680  53.233  36.142  1.00  0.00    -0.299 OA
ENDROOT
BRANCH   1   3
ATOM      3  C   UNL     1      19.540  53.408  33.949  1.00  0.00     0.053 C 
ATOM      4  C   UNL     1      19.212  54.813  33.412  1.00  0.00     0.016 C 
BRANCH   3   5
ATOM      5  C   UNL     1      19.773  52.404  32.792  1.00  0.00     0.015 C 
BRANCH   5   6
ATOM      6  C   UNL     1      19.126  52.804  31.449  1.00  0.00     0.028 C 
BRANCH   6   7
ATOM      7  C   UNL     1      18.356  51.652  30.842  1.00  0.00    -0.028 C 
ATOM      8  C   UNL     1      17.011  51.508  30.827  1.00  0.00    -0.070 CG0
ATOM      9  C   UNL     1      16.438  50.288  30.151  1.00  0.00     0.039 C 
ATOM     10  G   UNL     1      16.058  52.478  31.495  1.00  0.00     0.000 G0
ENDBRANCH   6   7
ENDBRANCH   5   6
ENDBRANCH   3   5
ENDBRANCH   1   3
BRANCH   1  11
ATOM     11  C   UNL     1      17.396  51.947  34.647  1.00  0.00     0.087 C 
BRANCH  11  12
ATOM     12  C   UNL     1      16.148  52.699  34.115  1.00  0.00     0.066 C 
BRANCH  12  13
ATOM     13  C   UNL     1      15.638  52.026  32.853  1.00  0.00     0.140 C 
ATOM     14  O   UNL     1      14.859  51.087  32.942  1.00  0.00    -0.299 OA
BRANCH  13  15
ATOM     15  C   UNL     1      16.046  52.511  31.487  1.00  0.00     0.106 CG0
ATOM     16  G   UNL     1      16.995  51.525  30.838  1.00  0.00     0.000 G0
ENDBRANCH  13  15
ENDBRANCH  12  13
BRANCH  12  17
ATOM     17  C   UNL     1      15.011  52.783  35.180  1.00  0.00    -0.006 C 
ATOM     18  C   UNL     1      15.368  52.029  36.474  1.00  0.00     0.008 C 
ATOM     19  C   UNL     1      14.685  54.247  35.534  1.00  0.00     0.008 C 
ENDBRANCH  12  17
ENDBRANCH  11  12
ENDBRANCH   1  11
TORSDOF 1
ENDMDL
MODEL 2
REMARK VINA RESULT:    -3.129     13.210     14.638
REMARK INTER + INTRA:          -5.001
REMARK INTER:                  -5.050
REMARK INTRA:                   0.048
REMARK UNBOUND:                -0.227
REMARK SMILES CC1=CCC[C@@H](C)C(=O)C[C@H](C(C)C)C(=O)C1
REMARK SMILES IDX 8 1 9 2 6 3 7 4 5 5 4 6 3 7 2 8 1 9 10 11 11 12 15 13 16 14
REMARK SMILES IDX 17 15 12 17 13 18 14 19
REMARK H PARENT
REMARK Flexibility Score: 70.00
ROOT
ATOM      1  C   UNL     1      13.179  62.263  23.466  1.00  0.00     0.136 C 
ATOM      2  O   UNL     1      12.388  63.147  23.169  1.00  0.00    -0.299 OA
ENDROOT
BRANCH   1   3
ATOM      3  C   UNL     1      13.834  62.318  24.842  1.00  0.00     0.053 C 
ATOM      4  C   UNL     1      14.694  63.569  25.099  1.00  0.00     0.016 C 
BRANCH   3   5
ATOM      5  C   UNL     1      14.619  61.021  25.163  1.00  0.00     0.015 C 
BRANCH   5   6
ATOM      6  C   UNL     1      16.145  61.118  24.947  1.00  0.00     0.028 C 
BRANCH   6   7
ATOM      7  C   UNL     1      16.641  60.033  24.017  1.00  0.00    -0.028 C 
ATOM      8  C   UNL     1      16.862  60.157  22.688  1.00  0.00    -0.070 CG0
ATOM      9  C   UNL     1      17.377  58.953  21.941  1.00  0.00     0.039 C 
ATOM     10  G   UNL     1      16.574  61.422  21.907  1.00  0.00     0.000 G0
ENDBRANCH   6   7
ENDBRANCH   5   6
ENDBRANCH   3   5
ENDBRANCH   1   3
BRANCH   1  11
ATOM     11  C   UNL     1      13.481  61.200  22.426  1.00  0.00     0.087 C 
BRANCH  11  12
ATOM     12  C   UNL     1      14.081  61.777  21.118  1.00  0.00     0.066 C 
BRANCH  12  13
ATOM     13  C   UNL     1      15.470  61.207  20.890  1.00  0.00     0.140 C 
ATOM     14  O   UNL     1      15.702  60.572  19.870  1.00  0.00    -0.299 OA
BRANCH  13  15
ATOM     15  C   UNL     1      16.580  61.431  21.882  1.00  0.00     0.106 CG0
ATOM     16  G   UNL     1      16.827  60.176  22.693  1.00  0.00     0.000 G0
ENDBRANCH  13  15
ENDBRANCH  12  13
BRANCH  12  17
ATOM     17  C   UNL     1      13.174  61.500  19.878  1.00  0.00    -0.006 C 
ATOM     18  C   UNL     1      12.352  60.207  20.035  1.00  0.00     0.008 C 
ATOM     19  C   UNL     1      12.207  62.673  19.622  1.00  0.00     0.008 C 
ENDBRANCH  12  17
ENDBRANCH  11  12
ENDBRANCH   1  11
TORSDOF 1
ENDMDL
MODEL 3
REMARK VINA RESULT:    -3.104      1.645      2.023
REMARK INTER + INTRA:          -4.964
REMARK INTER:                  -4.949
REMARK INTRA:                  -0.015
REMARK UNBOUND:                -0.227
REMARK SMILES CC1=CCC[C@@H](C)C(=O)C[C@H](C(C)C)C(=O)C1
REMARK SMILES IDX 8 1 9 2 6 3 7 4 5 5 4 6 3 7 2 8 1 9 10 11 11 12 15 13 16 14
REMARK SMILES IDX 17 15 12 17 13 18 14 19
REMARK H PARENT
REMARK Flexibility Score: 70.00
ROOT
ATOM      1  C   UNL     1      18.683  52.910  34.898  1.00  0.00     0.136 C 
ATOM      2  O   UNL     1      19.394  52.897  35.892  1.00  0.00    -0.299 OA
ENDROOT
BRANCH   1   3
ATOM      3  C   UNL     1      19.133  53.743  33.702  1.00  0.00     0.053 C 
ATOM      4  C   UNL     1      20.598  53.529  33.280  1.00  0.00     0.016 C 
BRANCH   3   5
ATOM      5  C   UNL     1      18.817  55.248  33.891  1.00  0.00     0.015 C 
BRANCH   5   6
ATOM      6  C   UNL     1      17.617  55.764  33.069  1.00  0.00     0.028 C 
BRANCH   6   7
ATOM      7  C   UNL     1      17.521  55.064  31.732  1.00  0.00    -0.028 C 
ATOM      8  C   UNL     1      16.514  54.260  31.319  1.00  0.00    -0.070 CG0
ATOM      9  C   UNL     1      16.601  53.670  29.935  1.00  0.00     0.039 C 
ATOM     10  G   UNL     1      15.333  53.884  32.190  1.00  0.00     0.000 G0
ENDBRANCH   6   7
ENDBRANCH   5   6
ENDBRANCH   3   5
ENDBRANCH   1   3
BRANCH   1  11
ATOM     11  C   UNL     1      17.381  52.129  34.944  1.00  0.00     0.087 C 
BRANCH  11  12
ATOM     12  C   UNL     1      16.142  52.983  34.571  1.00  0.00     0.066 C 
BRANCH  12  13
ATOM     13  C   UNL     1      15.756  52.731  33.124  1.00  0.00     0.140 C 
ATOM     14  O   UNL     1      15.746  51.586  32.692  1.00  0.00    -0.299 OA
BRANCH  13  15
ATOM     15  C   UNL     1      15.355  53.861  32.213  1.00  0.00     0.106 CG0
ATOM     16  G   UNL     1      16.518  54.270  31.333  1.00  0.00     0.000 G0
ENDBRANCH  13  15
ENDBRANCH  12  13
BRANCH  12  17
ATOM     17  C   UNL     1      14.928  52.704  35.510  1.00  0.00    -0.006 C 
ATOM     18  C   UNL     1      15.330  51.899  36.759  1.00  0.00     0.008 C 
ATOM     19  C   UNL     1      14.259  54.017  35.962  1.00  0.00     0.008 C 
ENDBRANCH  12  17
ENDBRANCH  11  12
ENDBRANCH   1  11
TORSDOF 1
ENDMDL
MODEL 4
REMARK VINA RESULT:    -2.913      2.749      4.688
REMARK INTER + INTRA:          -4.673
REMARK INTER:                  -4.600
REMARK INTRA:                  -0.073
REMARK UNBOUND:                -0.227
REMARK SMILES CC1=CCC[C@@H](C)C(=O)C[C@H](C(C)C)C(=O)C1
REMARK SMILES IDX 8 1 9 2 6 3 7 4 5 5 4 6 3 7 2 8 1 9 10 11 11 12 15 13 16 14
REMARK SMILES IDX 17 15 12 17 13 18 14 19
REMARK H PARENT
REMARK Flexibility Score: 70.00
ROOT
ATOM      1  C   UNL     1      19.217  54.956  33.676  1.00  0.00     0.136 C 
ATOM      2  O   UNL     1      19.975  55.365  32.808  1.00  0.00    -0.299 OA
ENDROOT
BRANCH   1   3
ATOM      3  C   UNL     1      19.368  53.511  34.140  1.00  0.00     0.053 C 
ATOM      4  C   UNL     1      19.183  52.455  33.035  1.00  0.00     0.016 C 
BRANCH   3   5
ATOM      5  C   UNL     1      18.476  53.200  35.369  1.00  0.00     0.015 C 
BRANCH   5   6
ATOM      6  C   UNL     1      17.268  52.286  35.076  1.00  0.00     0.028 C 
BRANCH   6   7
ATOM      7  C   UNL     1      16.043  52.726  35.847  1.00  0.00    -0.028 C 
ATOM      8  C   UNL     1      15.062  53.542  35.394  1.00  0.00    -0.070 CG0
ATOM      9  C   UNL     1      13.911  53.846  36.319  1.00  0.00     0.039 C 
ATOM     10  G   UNL     1      15.086  54.202  34.031  1.00  0.00     0.000 G0
ENDBRANCH   6   7
ENDBRANCH   5   6
ENDBRANCH   3   5
ENDBRANCH   1   3
BRANCH   1  11
ATOM     11  C   UNL     1      18.154  55.907  34.197  1.00  0.00     0.087 C 
BRANCH  11  12
ATOM     12  C   UNL     1      16.894  55.968  33.296  1.00  0.00     0.066 C 
BRANCH  12  13
ATOM     13  C   UNL     1      15.663  55.594  34.102  1.00  0.00     0.140 C 
ATOM     14  O   UNL     1      15.129  56.434  34.814  1.00  0.00    -0.299 OA
BRANCH  13  15
ATOM     15  C   UNL     1      15.064  54.215  34.021  1.00  0.00     0.106 CG0
ATOM     16  G   UNL     1      15.075  53.552  35.383  1.00  0.00     0.000 G0
ENDBRANCH  13  15
ENDBRANCH  12  13
BRANCH  12  17
ATOM     17  C   UNL     1      16.704  57.372  32.641  1.00  0.00    -0.006 C 
ATOM     18  C   UNL     1      17.888  58.314  32.928  1.00  0.00     0.008 C 
ATOM     19  C   UNL     1      16.524  57.255  31.114  1.00  0.00     0.008 C 
ENDBRANCH  12  17
ENDBRANCH  11  12
ENDBRANCH   1  11
TORSDOF 1
ENDMDL
MODEL 5
REMARK VINA RESULT:    -2.859      2.074      4.034
REMARK INTER + INTRA:          -4.589
REMARK INTER:                  -4.370
REMARK INTRA:                  -0.219
REMARK UNBOUND:                -0.227
REMARK SMILES CC1=CCC[C@@H](C)C(=O)C[C@H](C(C)C)C(=O)C1
REMARK SMILES IDX 8 1 9 2 6 3 7 4 5 5 4 6 3 7 2 8 1 9 10 11 11 12 15 13 16 14
REMARK SMILES IDX 17 15 12 17 13 18 14 19
REMARK H PARENT
REMARK Flexibility Score: 70.00
ROOT
ATOM      1  C   UNL     1      18.344  51.829  32.177  1.00  0.00     0.136 C 
ATOM      2  O   UNL     1      19.048  50.853  31.969  1.00  0.00    -0.299 OA
ENDROOT
BRANCH   1   3
ATOM      3  C   UNL     1      18.716  52.751  33.335  1.00  0.00     0.053 C 
ATOM      4  C   UNL     1      20.155  53.293  33.292  1.00  0.00     0.016 C 
BRANCH   3   5
ATOM      5  C   UNL     1      18.396  52.112  34.711  1.00  0.00     0.015 C 
BRANCH   5   6
ATOM      6  C   UNL     1      17.243  52.788  35.484  1.00  0.00     0.028 C 
BRANCH   6   7
ATOM      7  C   UNL     1      16.825  54.086  34.828  1.00  0.00    -0.028 C 
ATOM      8  C   UNL     1      15.715  54.283  34.079  1.00  0.00    -0.070 CG0
ATOM      9  C   UNL     1      15.470  55.665  33.528  1.00  0.00     0.039 C 
ATOM     10  G   UNL     1      14.737  53.181  33.726  1.00  0.00     0.000 G0
ENDBRANCH   6   7
ENDBRANCH   5   6
ENDBRANCH   3   5
ENDBRANCH   1   3
BRANCH   1  11
ATOM     11  C   UNL     1      17.125  52.029  31.294  1.00  0.00     0.087 C 
BRANCH  11  12
ATOM     12  C   UNL     1      15.808  51.535  31.948  1.00  0.00     0.066 C 
BRANCH  12  13
ATOM     13  C   UNL     1      14.924  52.721  32.289  1.00  0.00     0.140 C 
ATOM     14  O   UNL     1      14.334  53.312  31.395  1.00  0.00    -0.299 OA
BRANCH  13  15
ATOM     15  C   UNL     1      14.731  53.169  33.714  1.00  0.00     0.106 CG0
ATOM     16  G   UNL     1      15.709  54.274  34.058  1.00  0.00     0.000 G0
ENDBRANCH  13  15
ENDBRANCH  12  13
BRANCH  12  17
ATOM     17  C   UNL     1      15.037  50.530  31.038  1.00  0.00    -0.006 C 
ATOM     18  C   UNL     1      15.982  49.545  30.326  1.00  0.00     0.008 C 
ATOM     19  C   UNL     1      14.001  49.725  31.847  1.00  0.00     0.008 C 
ENDBRANCH  12  17
ENDBRANCH  11  12
ENDBRANCH   1  11
TORSDOF 1
ENDMDL
MODEL 6
REMARK VINA RESULT:    -2.839      2.659      4.435
REMARK INTER + INTRA:          -4.560
REMARK INTER:                  -4.501
REMARK INTRA:                  -0.059
REMARK UNBOUND:                -0.227
REMARK SMILES CC1=CCC[C@@H](C)C(=O)C[C@H](C(C)C)C(=O)C1
REMARK SMILES IDX 8 1 9 2 6 3 7 4 5 5 4 6 3 7 2 8 1 9 10 11 11 12 15 13 16 14
REMARK SMILES IDX 17 15 12 17 13 18 14 19
REMARK H PARENT
REMARK Flexibility Score: 70.00
ROOT
ATOM      1  C   UNL     1      15.273  53.796  34.750  1.00  0.00     0.136 C 
ATOM      2  O   UNL     1      14.289  54.279  35.292  1.00  0.00    -0.299 OA
ENDROOT
BRANCH   1   3
ATOM      3  C   UNL     1      15.956  52.610  35.424  1.00  0.00     0.053 C 
ATOM      4  C   UNL     1      15.384  52.232  36.802  1.00  0.00     0.016 C 
BRANCH   3   5
ATOM      5  C   UNL     1      17.495  52.784  35.483  1.00  0.00     0.015 C 
BRANCH   5   6
ATOM      6  C   UNL     1      18.269  52.077  34.350  1.00  0.00     0.028 C 
BRANCH   6   7
ATOM      7  C   UNL     1      19.510  52.851  33.963  1.00  0.00    -0.028 C 
ATOM      8  C   UNL     1      19.568  53.893  33.102  1.00  0.00    -0.070 CG0
ATOM      9  C   UNL     1      20.909  54.541  32.865  1.00  0.00     0.039 C 
ATOM     10  G   UNL     1      18.371  54.407  32.329  1.00  0.00     0.000 G0
ENDBRANCH   6   7
ENDBRANCH   5   6
ENDBRANCH   3   5
ENDBRANCH   1   3
BRANCH   1  11
ATOM     11  C   UNL     1      15.767  54.441  33.467  1.00  0.00     0.087 C 
BRANCH  11  12
ATOM     12  C   UNL     1      16.566  55.747  33.709  1.00  0.00     0.066 C 
BRANCH  12  13
ATOM     13  C   UNL     1      17.865  55.712  32.924  1.00  0.00     0.140 C 
ATOM     14  O   UNL     1      18.526  56.735  32.802  1.00  0.00    -0.299 OA
BRANCH  13  15
ATOM     15  C   UNL     1      18.376  54.433  32.314  1.00  0.00     0.106 CG0
ATOM     16  G   UNL     1      19.552  53.901  33.108  1.00  0.00     0.000 G0
ENDBRANCH  13  15
ENDBRANCH  12  13
BRANCH  12  17
ATOM     17  C   UNL     1      15.744  57.021  33.335  1.00  0.00    -0.006 C 
ATOM     18  C   UNL     1      14.546  56.694  32.425  1.00  0.00     0.008 C 
ATOM     19  C   UNL     1      15.227  57.740  34.596  1.00  0.00     0.008 C 
ENDBRANCH  12  17
ENDBRANCH  11  12
ENDBRANCH   1  11
TORSDOF 1
ENDMDL
MODEL 7
REMARK VINA RESULT:    -2.820      1.829      4.114
REMARK INTER + INTRA:          -4.531
REMARK INTER:                  -4.337
REMARK INTRA:                  -0.194
REMARK UNBOUND:                -0.227
REMARK SMILES CC1=CCC[C@@H](C)C(=O)C[C@H](C(C)C)C(=O)C1
REMARK SMILES IDX 8 1 9 2 6 3 7 4 5 5 4 6 3 7 2 8 1 9 10 11 11 12 15 13 16 14
REMARK SMILES IDX 17 15 12 17 13 18 14 19
REMARK H PARENT
REMARK Flexibility Score: 70.00
ROOT
ATOM      1  C   UNL     1      15.645  52.516  33.874  1.00  0.00     0.136 C 
ATOM      2  O   UNL     1      14.968  53.528  33.764  1.00  0.00    -0.299 OA
ENDROOT
BRANCH   1   3
ATOM      3  C   UNL     1      16.275  52.217  35.231  1.00  0.00     0.053 C 
ATOM      4  C   UNL     1      15.279  52.128  36.401  1.00  0.00     0.016 C 
BRANCH   3   5
ATOM      5  C   UNL     1      17.440  53.186  35.556  1.00  0.00     0.015 C 
BRANCH   5   6
ATOM      6  C   UNL     1      18.831  52.701  35.098  1.00  0.00     0.028 C 
BRANCH   6   7
ATOM      7  C   UNL     1      19.334  53.502  33.917  1.00  0.00    -0.028 C 
ATOM      8  C   UNL     1      19.348  53.100  32.624  1.00  0.00    -0.070 CG0
ATOM      9  C   UNL     1      19.876  54.062  31.590  1.00  0.00     0.039 C 
ATOM     10  G   UNL     1      18.909  51.723  32.172  1.00  0.00     0.000 G0
ENDBRANCH   6   7
ENDBRANCH   5   6
ENDBRANCH   3   5
ENDBRANCH   1   3
BRANCH   1  11
ATOM     11  C   UNL     1      15.842  51.655  32.640  1.00  0.00     0.087 C 
BRANCH  11  12
ATOM     12  C   UNL     1      16.485  52.422  31.455  1.00  0.00     0.066 C 
BRANCH  12  13
ATOM     13  C   UNL     1      17.836  51.818  31.119  1.00  0.00     0.140 C 
ATOM     14  O   UNL     1      18.057  51.429  29.980  1.00  0.00    -0.299 OA
BRANCH  13  15
ATOM     15  C   UNL     1      18.926  51.713  32.153  1.00  0.00     0.106 CG0
ATOM     16  G   UNL     1      19.340  53.091  32.626  1.00  0.00     0.000 G0
ENDBRANCH  13  15
ENDBRANCH  12  13
BRANCH  12  17
ATOM     17  C   UNL     1      15.569  52.433  30.192  1.00  0.00    -0.006 C 
ATOM     18  C   UNL     1      14.462  51.365  30.266  1.00  0.00     0.008 C 
ATOM     19  C   UNL     1      14.913  53.813  29.990  1.00  0.00     0.008 C 
ENDBRANCH  12  17
ENDBRANCH  11  12
ENDBRANCH   1  11
TORSDOF 1
ENDMDL
MODEL 8
REMARK VINA RESULT:    -2.689     12.263     13.769
REMARK INTER + INTRA:          -4.331
REMARK INTER:                  -4.554
REMARK INTRA:                   0.223
REMARK UNBOUND:                -0.227
REMARK SMILES CC1=CCC[C@@H](C)C(=O)C[C@H](C(C)C)C(=O)C1
REMARK SMILES IDX 8 1 9 2 6 3 7 4 5 5 4 6 3 7 2 8 1 9 10 11 11 12 15 13 16 14
REMARK SMILES IDX 17 15 12 17 13 18 14 19
REMARK H PARENT
REMARK Flexibility Score: 70.00
ROOT
ATOM      1  C   UNL     1      12.729  60.645  21.386  1.00  0.00     0.136 C 
ATOM      2  O   UNL     1      11.817  59.929  20.999  1.00  0.00    -0.299 OA
ENDROOT
BRANCH   1   3
ATOM      3  C   UNL     1      13.496  61.458  20.347  1.00  0.00     0.053 C 
ATOM      4  C   UNL     1      12.691  61.818  19.086  1.00  0.00     0.016 C 
BRANCH   3   5
ATOM      5  C   UNL     1      14.851  60.800  19.981  1.00  0.00     0.015 C 
BRANCH   5   6
ATOM      6  C   UNL     1      16.066  61.348  20.759  1.00  0.00     0.028 C 
BRANCH   6   7
ATOM      7  C   UNL     1      16.920  60.227  21.309  1.00  0.00    -0.028 C 
ATOM      8  C   UNL     1      16.780  59.633  22.517  1.00  0.00    -0.070 CG0
ATOM      9  C   UNL     1      17.728  58.516  22.870  1.00  0.00     0.039 C 
ATOM     10  G   UNL     1      15.756  60.064  23.547  1.00  0.00     0.000 G0
ENDBRANCH   6   7
ENDBRANCH   5   6
ENDBRANCH   3   5
ENDBRANCH   1   3
BRANCH   1  11
ATOM     11  C   UNL     1      13.059  60.638  22.868  1.00  0.00     0.087 C 
BRANCH  11  12
ATOM     12  C   UNL     1      13.265  59.212  23.442  1.00  0.00     0.066 C 
BRANCH  12  13
ATOM     13  C   UNL     1      14.728  58.997  23.785  1.00  0.00     0.140 C 
ATOM     14  O   UNL     1      15.089  57.923  24.245  1.00  0.00    -0.299 OA
BRANCH  13  15
ATOM     15  C   UNL     1      15.754  60.073  23.542  1.00  0.00     0.106 CG0
ATOM     16  G   UNL     1      16.772  59.611  22.520  1.00  0.00     0.000 G0
ENDBRANCH  13  15
ENDBRANCH  12  13
BRANCH  12  17
ATOM     17  C   UNL     1      12.372  58.945  24.694  1.00  0.00    -0.006 C 
ATOM     18  C   UNL     1      11.809  60.245  25.296  1.00  0.00     0.008 C 
ATOM     19  C   UNL     1      11.196  58.009  24.351  1.00  0.00     0.008 C 
ENDBRANCH  12  17
ENDBRANCH  11  12
ENDBRANCH   1  11
TORSDOF 1
ENDMDL
MODEL 9
REMARK VINA RESULT:    -2.603      1.894      4.886
REMARK INTER + INTRA:          -4.199
REMARK INTER:                  -3.932
REMARK INTRA:                  -0.267
REMARK UNBOUND:                -0.227
REMARK SMILES CC1=CCC[C@@H](C)C(=O)C[C@H](C(C)C)C(=O)C1
REMARK SMILES IDX 8 1 9 2 6 3 7 4 5 5 4 6 3 7 2 8 1 9 10 11 11 12 15 13 16 14
REMARK SMILES IDX 17 15 12 17 13 18 14 19
REMARK H PARENT
REMARK Flexibility Score: 70.00
ROOT
ATOM      1  C   UNL     1      17.589  51.608  31.229  1.00  0.00     0.136 C 
ATOM      2  O   UNL     1      17.915  52.032  30.130  1.00  0.00    -0.299 OA
ENDROOT
BRANCH   1   3
ATOM      3  C   UNL     1      16.199  50.997  31.380  1.00  0.00     0.053 C 
ATOM      4  C   UNL     1      15.959  49.724  30.550  1.00  0.00     0.016 C 
BRANCH   3   5
ATOM      5  C   UNL     1      15.078  52.041  31.147  1.00  0.00     0.015 C 
BRANCH   5   6
ATOM      6  C   UNL     1      14.850  53.018  32.320  1.00  0.00     0.028 C 
BRANCH   6   7
ATOM      7  C   UNL     1      14.864  52.297  33.650  1.00  0.00    -0.028 C 
ATOM      8  C   UNL     1      15.636  52.603  34.718  1.00  0.00    -0.070 CG0
ATOM      9  C   UNL     1      15.484  51.766  35.963  1.00  0.00     0.039 C 
ATOM     10  G   UNL     1      16.675  53.705  34.712  1.00  0.00     0.000 G0
ENDBRANCH   6   7
ENDBRANCH   5   6
ENDBRANCH   3   5
ENDBRANCH   1   3
BRANCH   1  11
ATOM     11  C   UNL     1      18.576  51.761  32.372  1.00  0.00     0.087 C 
BRANCH  11  12
ATOM     12  C   UNL     1      18.594  53.188  32.978  1.00  0.00     0.066 C 
BRANCH  12  13
ATOM     13  C   UNL     1      18.044  53.158  34.392  1.00  0.00     0.140 C 
ATOM     14  O   UNL     1      18.728  52.699  35.297  1.00  0.00    -0.299 OA
BRANCH  13  15
ATOM     15  C   UNL     1      16.680  53.710  34.713  1.00  0.00     0.106 CG0
ATOM     16  G   UNL     1      15.647  52.602  34.710  1.00  0.00     0.000 G0
ENDBRANCH  13  15
ENDBRANCH  12  13
BRANCH  12  17
ATOM     17  C   UNL     1      20.023  53.816  32.968  1.00  0.00    -0.006 C 
ATOM     18  C   UNL     1      21.052  52.912  32.263  1.00  0.00     0.008 C 
ATOM     19  C   UNL     1      20.022  55.195  32.280  1.00  0.00     0.008 C 
ENDBRANCH  12  17
ENDBRANCH  11  12
ENDBRANCH   1  11
TORSDOF 1
ENDMDL
