MODEL 1
REMARK VINA RESULT:    -3.779      0.000      0.000
REMARK INTER + INTRA:          -5.528
REMARK INTER:                  -5.105
REMARK INTRA:                  -0.423
REMARK UNBOUND:                -0.423
REMARK SMILES CCCCCCC=CC(=O)[O-]
REMARK SMILES IDX 5 1 6 2 7 3 8 4 9 5 10 6 11 7 4 8 3 9 2 10 1 11
REMARK H PARENT
REMARK Flexibility Score: inf
ROOT
ATOM      1  C   UNL     1      10.430 -10.233  32.784  1.00  0.00     0.004 C 
ENDROOT
BRANCH   1   2
ATOM      2  C   UNL     1       9.822 -11.504  33.393  1.00  0.00     0.027 C 
BRANCH   2   3
ATOM      3  C   UNL     1       8.686 -11.175  34.323  1.00  0.00    -0.025 C 
ATOM      4  C   UNL     1       7.416 -10.927  33.959  1.00  0.00     0.020 C 
BRANCH   4   5
ATOM      5  C   UNL     1       6.867 -10.963  32.588  1.00  0.00     0.064 C 
ATOM      6  O   UNL     1       6.848  -9.945  31.847  1.00  0.00    -0.545 OA
ATOM      7  O   UNL     1       6.377 -12.163  32.093  1.00  0.00    -0.545 OA
ENDBRANCH   4   5
ENDBRANCH   2   3
ENDBRANCH   1   2
BRANCH   1   8
ATOM      8  C   UNL     1      10.778  -9.213  33.875  1.00  0.00     0.000 C 
BRANCH   8   9
ATOM      9  C   UNL     1      10.109  -7.858  33.594  1.00  0.00    -0.000 C 
BRANCH   9  10
ATOM     10  C   UNL     1      11.073  -6.845  32.959  1.00  0.00    -0.003 C 
ATOM     11  C   UNL     1      10.590  -5.402  33.094  1.00  0.00     0.004 C 
ENDBRANCH   9  10
ENDBRANCH   8   9
ENDBRANCH   1   8
TORSDOF 6
ENDMDL
MODEL 2
REMARK VINA RESULT:    -3.748      5.288      6.582
REMARK INTER + INTRA:          -5.485
REMARK INTER:                  -5.071
REMARK INTRA:                  -0.414
REMARK UNBOUND:                -0.423
REMARK SMILES CCCCCCC=CC(=O)[O-]
REMARK SMILES IDX 5 1 6 2 7 3 8 4 9 5 10 6 11 7 4 8 3 9 2 10 1 11
REMARK H PARENT
REMARK Flexibility Score: inf
ROOT
ATOM      1  C   UNL     1       8.719  -8.477  29.391  1.00  0.00     0.004 C 
ENDROOT
BRANCH   1   2
ATOM      2  C   UNL     1       9.369  -8.578  28.005  1.00  0.00     0.027 C 
BRANCH   2   3
ATOM      3  C   UNL     1      10.494  -9.578  28.002  1.00  0.00    -0.025 C 
ATOM      4  C   UNL     1      11.408  -9.733  27.028  1.00  0.00     0.020 C 
BRANCH   4   5
ATOM      5  C   UNL     1      11.521  -8.938  25.788  1.00  0.00     0.064 C 
ATOM      6  O   UNL     1      11.976  -7.764  25.785  1.00  0.00    -0.545 OA
ATOM      7  O   UNL     1      11.135  -9.513  24.585  1.00  0.00    -0.545 OA
ENDBRANCH   4   5
ENDBRANCH   2   3
ENDBRANCH   1   2
BRANCH   1   8
ATOM      8  C   UNL     1       9.733  -8.790  30.498  1.00  0.00     0.000 C 
BRANCH   8   9
ATOM      9  C   UNL     1       9.124  -9.728  31.551  1.00  0.00    -0.000 C 
BRANCH   9  10
ATOM     10  C   UNL     1       9.696 -11.152  31.473  1.00  0.00    -0.003 C 
ATOM     11  C   UNL     1      10.056 -11.721  32.845  1.00  0.00     0.004 C 
ENDBRANCH   9  10
ENDBRANCH   8   9
ENDBRANCH   1   8
TORSDOF 6
ENDMDL
MODEL 3
REMARK VINA RESULT:    -3.741      4.318      5.862
REMARK INTER + INTRA:          -5.476
REMARK INTER:                  -4.853
REMARK INTRA:                  -0.623
REMARK UNBOUND:                -0.423
REMARK SMILES CCCCCCC=CC(=O)[O-]
REMARK SMILES IDX 5 1 6 2 7 3 8 4 9 5 10 6 11 7 4 8 3 9 2 10 1 11
REMARK H PARENT
REMARK Flexibility Score: inf
ROOT
ATOM      1  C   UNL     1       9.886  -8.209  30.898  1.00  0.00     0.004 C 
ENDROOT
BRANCH   1   2
ATOM      2  C   UNL     1       9.130  -8.812  29.707  1.00  0.00     0.027 C 
BRANCH   2   3
ATOM      3  C   UNL     1      10.072  -9.482  28.744  1.00  0.00    -0.025 C 
ATOM      4  C   UNL     1      10.578  -8.934  27.626  1.00  0.00     0.020 C 
BRANCH   4   5
ATOM      5  C   UNL     1      10.347  -7.561  27.132  1.00  0.00     0.064 C 
ATOM      6  O   UNL     1       9.295  -7.238  26.520  1.00  0.00    -0.545 OA
ATOM      7  O   UNL     1      11.311  -6.591  27.370  1.00  0.00    -0.545 OA
ENDBRANCH   4   5
ENDBRANCH   2   3
ENDBRANCH   1   2
BRANCH   1   8
ATOM      8  C   UNL     1       9.913  -9.184  32.082  1.00  0.00     0.000 C 
BRANCH   8   9
ATOM      9  C   UNL     1       8.585  -9.948  32.196  1.00  0.00    -0.000 C 
BRANCH   9  10
ATOM     10  C   UNL     1       8.788 -11.453  32.423  1.00  0.00    -0.003 C 
ATOM     11  C   UNL     1       9.932 -12.029  31.590  1.00  0.00     0.004 C 
ENDBRANCH   9  10
ENDBRANCH   8   9
ENDBRANCH   1   8
TORSDOF 6
ENDMDL
MODEL 4
REMARK VINA RESULT:    -3.693      9.052     10.201
REMARK INTER + INTRA:          -5.411
REMARK INTER:                  -5.069
REMARK INTRA:                  -0.342
REMARK UNBOUND:                -0.423
REMARK SMILES CCCCCCC=CC(=O)[O-]
REMARK SMILES IDX 5 1 6 2 7 3 8 4 9 5 10 6 11 7 4 8 3 9 2 10 1 11
REMARK H PARENT
REMARK Flexibility Score: inf
ROOT
ATOM      1  C   UNL     1       8.477  -6.129  24.122  1.00  0.00     0.004 C 
ENDROOT
BRANCH   1   2
ATOM      2  C   UNL     1       8.879  -5.496  25.461  1.00  0.00     0.027 C 
BRANCH   2   3
ATOM      3  C   UNL     1      10.374  -5.448  25.615  1.00  0.00    -0.025 C 
ATOM      4  C   UNL     1      11.138  -6.389  26.198  1.00  0.00     0.020 C 
BRANCH   4   5
ATOM      5  C   UNL     1      10.677  -7.672  26.769  1.00  0.00     0.064 C 
ATOM      6  O   UNL     1      10.500  -8.696  26.058  1.00  0.00    -0.545 OA
ATOM      7  O   UNL     1      10.454  -7.755  28.136  1.00  0.00    -0.545 OA
ENDBRANCH   4   5
ENDBRANCH   2   3
ENDBRANCH   1   2
BRANCH   1   8
ATOM      8  C   UNL     1       7.214  -5.465  23.558  1.00  0.00     0.000 C 
BRANCH   8   9
ATOM      9  C   UNL     1       7.149  -5.617  22.030  1.00  0.00    -0.000 C 
BRANCH   9  10
ATOM     10  C   UNL     1       6.472  -4.420  21.347  1.00  0.00    -0.003 C 
ATOM     11  C   UNL     1       6.647  -3.117  22.125  1.00  0.00     0.004 C 
ENDBRANCH   9  10
ENDBRANCH   8   9
ENDBRANCH   1   8
TORSDOF 6
ENDMDL
MODEL 5
REMARK VINA RESULT:    -3.686      1.240      1.705
REMARK INTER + INTRA:          -5.402
REMARK INTER:                  -4.766
REMARK INTRA:                  -0.636
REMARK UNBOUND:                -0.423
REMARK SMILES CCCCCCC=CC(=O)[O-]
REMARK SMILES IDX 5 1 6 2 7 3 8 4 9 5 10 6 11 7 4 8 3 9 2 10 1 11
REMARK H PARENT
REMARK Flexibility Score: inf
ROOT
ATOM      1  C   UNL     1      10.700 -10.207  33.357  1.00  0.00     0.004 C 
ENDROOT
BRANCH   1   2
ATOM      2  C   UNL     1       9.726 -11.374  33.147  1.00  0.00     0.027 C 
BRANCH   2   3
ATOM      3  C   UNL     1       8.720 -11.060  32.074  1.00  0.00    -0.025 C 
ATOM      4  C   UNL     1       7.428 -10.746  32.271  1.00  0.00     0.020 C 
BRANCH   4   5
ATOM      5  C   UNL     1       6.741 -10.609  33.572  1.00  0.00     0.064 C 
ATOM      6  O   UNL     1       6.214 -11.591  34.158  1.00  0.00    -0.545 OA
ATOM      7  O   UNL     1       6.695  -9.361  34.178  1.00  0.00    -0.545 OA
ENDBRANCH   4   5
ENDBRANCH   2   3
ENDBRANCH   1   2
BRANCH   1   8
ATOM      8  C   UNL     1      10.275  -9.344  34.551  1.00  0.00     0.000 C 
BRANCH   8   9
ATOM      9  C   UNL     1       9.878  -7.931  34.095  1.00  0.00    -0.000 C 
BRANCH   9  10
ATOM     10  C   UNL     1      10.805  -7.384  32.999  1.00  0.00    -0.003 C 
ATOM     11  C   UNL     1      10.825  -5.857  32.948  1.00  0.00     0.004 C 
ENDBRANCH   9  10
ENDBRANCH   8   9
ENDBRANCH   1   8
TORSDOF 6
ENDMDL
MODEL 6
REMARK VINA RESULT:    -3.658      9.331     10.372
REMARK INTER + INTRA:          -5.364
REMARK INTER:                  -4.950
REMARK INTRA:                  -0.414
REMARK UNBOUND:                -0.423
REMARK SMILES CCCCCCC=CC(=O)[O-]
REMARK SMILES IDX 5 1 6 2 7 3 8 4 9 5 10 6 11 7 4 8 3 9 2 10 1 11
REMARK H PARENT
REMARK Flexibility Score: inf
ROOT
ATOM      1  C   UNL     1      11.830 -13.571  23.451  1.00  0.00     0.004 C 
ENDROOT
BRANCH   1   2
ATOM      2  C   UNL     1      11.849 -13.263  24.954  1.00  0.00     0.027 C 
BRANCH   2   3
ATOM      3  C   UNL     1      13.085 -12.498  25.339  1.00  0.00    -0.025 C 
ATOM      4  C   UNL     1      13.115 -11.279  25.904  1.00  0.00     0.020 C 
BRANCH   4   5
ATOM      5  C   UNL     1      11.950 -10.459  26.296  1.00  0.00     0.064 C 
ATOM      6  O   UNL     1      11.574 -10.359  27.494  1.00  0.00    -0.545 OA
ATOM      7  O   UNL     1      11.262  -9.758  25.315  1.00  0.00    -0.545 OA
ENDBRANCH   4   5
ENDBRANCH   2   3
ENDBRANCH   1   2
BRANCH   1   8
ATOM      8  C   UNL     1      11.985 -12.288  22.625  1.00  0.00     0.000 C 
BRANCH   8   9
ATOM      9  C   UNL     1      10.614 -11.705  22.252  1.00  0.00    -0.000 C 
BRANCH   9  10
ATOM     10  C   UNL     1      10.600 -11.082  20.848  1.00  0.00    -0.003 C 
ATOM     11  C   UNL     1       9.503 -10.032  20.677  1.00  0.00     0.004 C 
ENDBRANCH   9  10
ENDBRANCH   8   9
ENDBRANCH   1   8
TORSDOF 6
ENDMDL
MODEL 7
REMARK VINA RESULT:    -3.647      7.015      7.769
REMARK INTER + INTRA:          -5.350
REMARK INTER:                  -5.106
REMARK INTRA:                  -0.243
REMARK UNBOUND:                -0.423
REMARK SMILES CCCCCCC=CC(=O)[O-]
REMARK SMILES IDX 5 1 6 2 7 3 8 4 9 5 10 6 11 7 4 8 3 9 2 10 1 11
REMARK H PARENT
REMARK Flexibility Score: inf
ROOT
ATOM      1  C   UNL     1      10.584  -9.447  27.767  1.00  0.00     0.004 C 
ENDROOT
BRANCH   1   2
ATOM      2  C   UNL     1      11.411 -10.738  27.695  1.00  0.00     0.027 C 
BRANCH   2   3
ATOM      3  C   UNL     1      12.439 -10.667  26.599  1.00  0.00    -0.025 C 
ATOM      4  C   UNL     1      12.757 -11.660  25.752  1.00  0.00     0.020 C 
BRANCH   4   5
ATOM      5  C   UNL     1      12.144 -13.003  25.694  1.00  0.00     0.064 C 
ATOM      6  O   UNL     1      12.222 -13.816  26.653  1.00  0.00    -0.545 OA
ATOM      7  O   UNL     1      11.440 -13.371  24.556  1.00  0.00    -0.545 OA
ENDBRANCH   4   5
ENDBRANCH   2   3
ENDBRANCH   1   2
BRANCH   1   8
ATOM      8  C   UNL     1      11.101  -8.406  26.767  1.00  0.00     0.000 C 
BRANCH   8   9
ATOM      9  C   UNL     1      10.763  -6.981  27.232  1.00  0.00    -0.000 C 
BRANCH   9  10
ATOM     10  C   UNL     1      11.155  -5.916  26.197  1.00  0.00    -0.003 C 
ATOM     11  C   UNL     1       9.946  -5.307  25.487  1.00  0.00     0.004 C 
ENDBRANCH   9  10
ENDBRANCH   8   9
ENDBRANCH   1   8
TORSDOF 6
ENDMDL
MODEL 8
REMARK VINA RESULT:    -3.590      4.464      5.730
REMARK INTER + INTRA:          -5.272
REMARK INTER:                  -4.895
REMARK INTRA:                  -0.377
REMARK UNBOUND:                -0.423
REMARK SMILES CCCCCCC=CC(=O)[O-]
REMARK SMILES IDX 5 1 6 2 7 3 8 4 9 5 10 6 11 7 4 8 3 9 2 10 1 11
REMARK H PARENT
REMARK Flexibility Score: inf
ROOT
ATOM      1  C   UNL     1       9.613  -8.896  30.931  1.00  0.00     0.004 C 
ENDROOT
BRANCH   1   2
ATOM      2  C   UNL     1       9.364  -8.592  29.448  1.00  0.00     0.027 C 
BRANCH   2   3
ATOM      3  C   UNL     1      10.238  -9.438  28.563  1.00  0.00    -0.025 C 
ATOM      4  C   UNL     1      10.765  -9.064  27.384  1.00  0.00     0.020 C 
BRANCH   4   5
ATOM      5  C   UNL     1      10.628  -7.743  26.735  1.00  0.00     0.064 C 
ATOM      6  O   UNL     1       9.907  -7.568  25.718  1.00  0.00    -0.545 OA
ATOM      7  O   UNL     1      11.299  -6.656  27.279  1.00  0.00    -0.545 OA
ENDBRANCH   4   5
ENDBRANCH   2   3
ENDBRANCH   1   2
BRANCH   1   8
ATOM      8  C   UNL     1       9.490 -10.398  31.213  1.00  0.00     0.000 C 
BRANCH   8   9
ATOM      9  C   UNL     1      10.083 -10.751  32.586  1.00  0.00    -0.000 C 
BRANCH   9  10
ATOM     10  C   UNL     1      10.668  -9.526  33.306  1.00  0.00    -0.003 C 
ATOM     11  C   UNL     1      10.112  -9.349  34.719  1.00  0.00     0.004 C 
ENDBRANCH   9  10
ENDBRANCH   8   9
ENDBRANCH   1   8
TORSDOF 6
ENDMDL
