MODEL 1
REMARK VINA RESULT:    -3.642      0.000      0.000
REMARK INTER + INTRA:         -14.232
REMARK INTER:                  -9.177
REMARK INTRA:                  -5.054
REMARK UNBOUND:                -5.054
REMARK SMILES CCCCCCCCCCCCCCCCCCCCCCCCCCCC(=O)[O-]
REMARK SMILES IDX 15 1 16 2 17 3 18 4 19 5 20 6 21 7 22 8 23 9 24 10 25 11
REMARK SMILES IDX 26 12 27 13 28 14 29 15 30 16 14 17 13 18 12 19 11 20 10 21
REMARK SMILES IDX 9 22 8 23 7 24 6 25 5 26 4 27 3 28 2 29 1 30
REMARK H PARENT
REMARK Flexibility Score: inf
ROOT
ATOM      1  C   UNL     1      -2.061 -13.997   4.064  1.00  0.00     0.000 C 
ENDROOT
BRANCH   1   2
ATOM      2  C   UNL     1      -3.266 -13.497   4.884  1.00  0.00     0.000 C 
BRANCH   2   3
ATOM      3  C   UNL     1      -4.061 -14.637   5.545  1.00  0.00     0.000 C 
BRANCH   3   4
ATOM      4  C   UNL     1      -5.354 -14.150   6.224  1.00  0.00     0.000 C 
BRANCH   4   5
ATOM      5  C   UNL     1      -5.600 -12.629   6.157  1.00  0.00     0.000 C 
BRANCH   5   6
ATOM      6  C   UNL     1      -6.141 -11.992   7.455  1.00  0.00     0.000 C 
BRANCH   6   7
ATOM      7  C   UNL     1      -6.878 -12.962   8.395  1.00  0.00     0.000 C 
BRANCH   7   8
ATOM      8  C   UNL     1      -8.326 -12.560   8.732  1.00  0.00     0.000 C 
BRANCH   8   9
ATOM      9  C   UNL     1      -8.603 -11.049   8.571  1.00  0.00     0.000 C 
BRANCH   9  10
ATOM     10  C   UNL     1      -9.797 -10.764   7.645  1.00  0.00     0.000 C 
BRANCH  10  11
ATOM     11  C   UNL     1      -9.650 -11.456   6.272  1.00  0.00     0.000 C 
BRANCH  11  12
ATOM     12  C   UNL     1      -8.747 -10.688   5.289  1.00  0.00     0.006 C 
BRANCH  12  13
ATOM     13  C   UNL     1      -9.513  -9.954   4.178  1.00  0.00     0.053 C 
BRANCH  13  14
ATOM     14  C   UNL     1      -9.667 -10.798   2.949  1.00  0.00     0.041 C 
ATOM     15  O   UNL     1     -10.460 -11.777   2.947  1.00  0.00    -0.550 OA
ATOM     16  O   UNL     1      -8.940 -10.503   1.803  1.00  0.00    -0.550 OA
ENDBRANCH  13  14
ENDBRANCH  12  13
ENDBRANCH  11  12
ENDBRANCH  10  11
ENDBRANCH   9  10
ENDBRANCH   8   9
ENDBRANCH   7   8
ENDBRANCH   6   7
ENDBRANCH   5   6
ENDBRANCH   4   5
ENDBRANCH   3   4
ENDBRANCH   2   3
ENDBRANCH   1   2
BRANCH   1  17
ATOM     17  C   UNL     1      -0.712 -14.002   4.805  1.00  0.00     0.000 C 
BRANCH  17  18
ATOM     18  C   UNL     1      -0.322 -12.619   5.356  1.00  0.00     0.000 C 
BRANCH  18  19
ATOM     19  C   UNL     1       0.441 -12.713   6.688  1.00  0.00     0.000 C 
BRANCH  19  20
ATOM     20  C   UNL     1       1.210 -11.422   7.024  1.00  0.00     0.000 C 
BRANCH  20  21
ATOM     21  C   UNL     1       0.784 -10.817   8.372  1.00  0.00     0.000 C 
BRANCH  21  22
ATOM     22  C   UNL     1       0.710  -9.280   8.337  1.00  0.00    -0.000 C 
BRANCH  22  23
ATOM     23  C   UNL     1       0.275  -8.744   6.964  1.00  0.00    -0.000 C 
BRANCH  23  24
ATOM     24  C   UNL     1      -1.218  -8.373   6.917  1.00  0.00    -0.000 C 
BRANCH  24  25
ATOM     25  C   UNL     1      -2.027  -9.303   5.998  1.00  0.00    -0.000 C 
BRANCH  25  26
ATOM     26  C   UNL     1      -2.847 -10.340   6.780  1.00  0.00    -0.000 C 
BRANCH  26  27
ATOM     27  C   UNL     1      -2.965  -9.946   8.258  1.00  0.00    -0.000 C 
BRANCH  27  28
ATOM     28  C   UNL     1      -2.875 -11.181   9.166  1.00  0.00    -0.000 C 
BRANCH  28  29
ATOM     29  C   UNL     1      -2.632 -12.477   8.377  1.00  0.00    -0.003 C 
ATOM     30  C   UNL     1      -2.526 -13.707   9.278  1.00  0.00     0.004 C 
ENDBRANCH  28  29
ENDBRANCH  27  28
ENDBRANCH  26  27
ENDBRANCH  25  26
ENDBRANCH  24  25
ENDBRANCH  23  24
ENDBRANCH  22  23
ENDBRANCH  21  22
ENDBRANCH  20  21
ENDBRANCH  19  20
ENDBRANCH  18  19
ENDBRANCH  17  18
ENDBRANCH   1  17
TORSDOF 26
ENDMDL
MODEL 2
REMARK VINA RESULT:    -3.636      1.362      3.634
REMARK INTER + INTRA:         -14.217
REMARK INTER:                  -9.956
REMARK INTRA:                  -4.261
REMARK UNBOUND:                -5.054
REMARK SMILES CCCCCCCCCCCCCCCCCCCCCCCCCCCC(=O)[O-]
REMARK SMILES IDX 15 1 16 2 17 3 18 4 19 5 20 6 21 7 22 8 23 9 24 10 25 11
REMARK SMILES IDX 26 12 27 13 28 14 29 15 30 16 14 17 13 18 12 19 11 20 10 21
REMARK SMILES IDX 9 22 8 23 7 24 6 25 5 26 4 27 3 28 2 29 1 30
REMARK H PARENT
REMARK Flexibility Score: inf
ROOT
ATOM      1  C   UNL     1      -2.441 -12.435   9.465  1.00  0.00     0.000 C 
ENDROOT
BRANCH   1   2
ATOM      2  C   UNL     1      -2.982 -13.722   8.812  1.00  0.00     0.000 C 
BRANCH   2   3
ATOM      3  C   UNL     1      -4.329 -14.176   9.402  1.00  0.00     0.000 C 
BRANCH   3   4
ATOM      4  C   UNL     1      -5.468 -14.174   8.365  1.00  0.00     0.000 C 
BRANCH   4   5
ATOM      5  C   UNL     1      -5.025 -13.970   6.901  1.00  0.00     0.000 C 
BRANCH   5   6
ATOM      6  C   UNL     1      -5.657 -12.758   6.185  1.00  0.00     0.000 C 
BRANCH   6   7
ATOM      7  C   UNL     1      -6.893 -12.164   6.883  1.00  0.00     0.000 C 
BRANCH   7   8
ATOM      8  C   UNL     1      -8.234 -12.807   6.479  1.00  0.00     0.000 C 
BRANCH   8   9
ATOM      9  C   UNL     1      -9.145 -11.873   5.653  1.00  0.00     0.000 C 
BRANCH   9  10
ATOM     10  C   UNL     1      -8.585 -10.444   5.551  1.00  0.00     0.000 C 
BRANCH  10  11
ATOM     11  C   UNL     1      -9.052  -9.724   4.267  1.00  0.00     0.000 C 
BRANCH  11  12
ATOM     12  C   UNL     1      -9.990 -10.575   3.390  1.00  0.00     0.006 C 
BRANCH  12  13
ATOM     13  C   UNL     1      -9.387 -10.976   2.035  1.00  0.00     0.053 C 
BRANCH  13  14
ATOM     14  C   UNL     1     -10.270 -11.929   1.288  1.00  0.00     0.041 C 
ATOM     15  O   UNL     1     -11.450 -11.602   0.993  1.00  0.00    -0.550 OA
ATOM     16  O   UNL     1      -9.791 -13.178   0.912  1.00  0.00    -0.550 OA
ENDBRANCH  13  14
ENDBRANCH  12  13
ENDBRANCH  11  12
ENDBRANCH  10  11
ENDBRANCH   9  10
ENDBRANCH   8   9
ENDBRANCH   7   8
ENDBRANCH   6   7
ENDBRANCH   5   6
ENDBRANCH   4   5
ENDBRANCH   3   4
ENDBRANCH   2   3
ENDBRANCH   1   2
BRANCH   1  17
ATOM     17  C   UNL     1      -3.375 -11.214   9.396  1.00  0.00     0.000 C 
BRANCH  17  18
ATOM     18  C   UNL     1      -3.337 -10.501   8.033  1.00  0.00     0.000 C 
BRANCH  18  19
ATOM     19  C   UNL     1      -2.738  -9.087   8.127  1.00  0.00     0.000 C 
BRANCH  19  20
ATOM     20  C   UNL     1      -2.608  -8.406   6.753  1.00  0.00     0.000 C 
BRANCH  20  21
ATOM     21  C   UNL     1      -1.144  -8.267   6.302  1.00  0.00     0.000 C 
BRANCH  21  22
ATOM     22  C   UNL     1      -0.143  -8.572   7.429  1.00  0.00    -0.000 C 
BRANCH  22  23
ATOM     23  C   UNL     1       0.853  -9.679   7.047  1.00  0.00    -0.000 C 
BRANCH  23  24
ATOM     24  C   UNL     1       0.491 -11.041   7.665  1.00  0.00    -0.000 C 
BRANCH  24  25
ATOM     25  C   UNL     1       0.347 -12.147   6.606  1.00  0.00    -0.000 C 
BRANCH  25  26
ATOM     26  C   UNL     1      -0.572 -11.737   5.446  1.00  0.00    -0.000 C 
BRANCH  26  27
ATOM     27  C   UNL     1      -1.903 -12.497   5.503  1.00  0.00    -0.000 C 
BRANCH  27  28
ATOM     28  C   UNL     1      -1.690 -13.997   5.254  1.00  0.00    -0.000 C 
BRANCH  28  29
ATOM     29  C   UNL     1      -2.417 -14.496   3.996  1.00  0.00    -0.003 C 
ATOM     30  C   UNL     1      -1.515 -14.524   2.763  1.00  0.00     0.004 C 
ENDBRANCH  28  29
ENDBRANCH  27  28
ENDBRANCH  26  27
ENDBRANCH  25  26
ENDBRANCH  24  25
ENDBRANCH  23  24
ENDBRANCH  22  23
ENDBRANCH  21  22
ENDBRANCH  20  21
ENDBRANCH  19  20
ENDBRANCH  18  19
ENDBRANCH  17  18
ENDBRANCH   1  17
TORSDOF 26
ENDMDL
MODEL 3
REMARK VINA RESULT:    -3.541      1.203      2.243
REMARK INTER + INTRA:         -13.977
REMARK INTER:                 -10.277
REMARK INTRA:                  -3.700
REMARK UNBOUND:                -5.054
REMARK SMILES CCCCCCCCCCCCCCCCCCCCCCCCCCCC(=O)[O-]
REMARK SMILES IDX 15 1 16 2 17 3 18 4 19 5 20 6 21 7 22 8 23 9 24 10 25 11
REMARK SMILES IDX 26 12 27 13 28 14 29 15 30 16 14 17 13 18 12 19 11 20 10 21
REMARK SMILES IDX 9 22 8 23 7 24 6 25 5 26 4 27 3 28 2 29 1 30
REMARK H PARENT
REMARK Flexibility Score: inf
ROOT
ATOM      1  C   UNL     1      -3.663 -13.223   4.960  1.00  0.00     0.000 C 
ENDROOT
BRANCH   1   2
ATOM      2  C   UNL     1      -4.733 -13.614   5.998  1.00  0.00     0.000 C 
BRANCH   2   3
ATOM      3  C   UNL     1      -5.829 -12.546   6.165  1.00  0.00     0.000 C 
BRANCH   3   4
ATOM      4  C   UNL     1      -6.160 -12.254   7.640  1.00  0.00     0.000 C 
BRANCH   4   5
ATOM      5  C   UNL     1      -7.664 -12.225   7.983  1.00  0.00     0.000 C 
BRANCH   5   6
ATOM      6  C   UNL     1      -8.528 -11.318   7.081  1.00  0.00     0.000 C 
BRANCH   6   7
ATOM      7  C   UNL     1      -9.977 -11.119   7.559  1.00  0.00     0.000 C 
BRANCH   7   8
ATOM      8  C   UNL     1     -10.303  -9.698   8.057  1.00  0.00     0.000 C 
BRANCH   8   9
ATOM      9  C   UNL     1     -11.331  -8.954   7.177  1.00  0.00     0.000 C 
BRANCH   9  10
ATOM     10  C   UNL     1     -10.710  -8.402   5.883  1.00  0.00     0.000 C 
BRANCH  10  11
ATOM     11  C   UNL     1     -11.283  -9.085   4.622  1.00  0.00     0.000 C 
BRANCH  11  12
ATOM     12  C   UNL     1     -10.310 -10.081   3.964  1.00  0.00     0.006 C 
BRANCH  12  13
ATOM     13  C   UNL     1     -10.999 -11.271   3.281  1.00  0.00     0.053 C 
BRANCH  13  14
ATOM     14  C   UNL     1     -10.603 -11.399   1.841  1.00  0.00     0.041 C 
ATOM     15  O   UNL     1      -9.419 -11.161   1.485  1.00  0.00    -0.550 OA
ATOM     16  O   UNL     1     -11.540 -11.786   0.890  1.00  0.00    -0.550 OA
ENDBRANCH  13  14
ENDBRANCH  12  13
ENDBRANCH  11  12
ENDBRANCH  10  11
ENDBRANCH   9  10
ENDBRANCH   8   9
ENDBRANCH   7   8
ENDBRANCH   6   7
ENDBRANCH   5   6
ENDBRANCH   4   5
ENDBRANCH   3   4
ENDBRANCH   2   3
ENDBRANCH   1   2
BRANCH   1  17
ATOM     17  C   UNL     1      -2.345 -14.016   5.038  1.00  0.00     0.000 C 
BRANCH  17  18
ATOM     18  C   UNL     1      -1.099 -13.134   4.850  1.00  0.00     0.000 C 
BRANCH  18  19
ATOM     19  C   UNL     1       0.176 -13.792   5.405  1.00  0.00     0.000 C 
BRANCH  19  20
ATOM     20  C   UNL     1       1.024 -12.825   6.250  1.00  0.00     0.000 C 
BRANCH  20  21
ATOM     21  C   UNL     1       0.419 -11.413   6.313  1.00  0.00     0.000 C 
BRANCH  21  22
ATOM     22  C   UNL     1       0.828 -10.647   7.584  1.00  0.00    -0.000 C 
BRANCH  22  23
ATOM     23  C   UNL     1       1.064  -9.151   7.317  1.00  0.00    -0.000 C 
BRANCH  23  24
ATOM     24  C   UNL     1      -0.116  -8.485   6.587  1.00  0.00    -0.000 C 
BRANCH  24  25
ATOM     25  C   UNL     1      -1.383  -8.417   7.456  1.00  0.00    -0.000 C 
BRANCH  25  26
ATOM     26  C   UNL     1      -2.641  -8.870   6.700  1.00  0.00    -0.000 C 
BRANCH  26  27
ATOM     27  C   UNL     1      -3.008 -10.315   7.060  1.00  0.00    -0.000 C 
BRANCH  27  28
ATOM     28  C   UNL     1      -3.246 -10.462   8.570  1.00  0.00    -0.000 C 
BRANCH  28  29
ATOM     29  C   UNL     1      -2.257 -11.435   9.232  1.00  0.00    -0.003 C 
ATOM     30  C   UNL     1      -2.258 -12.815   8.577  1.00  0.00     0.004 C 
ENDBRANCH  28  29
ENDBRANCH  27  28
ENDBRANCH  26  27
ENDBRANCH  25  26
ENDBRANCH  24  25
ENDBRANCH  23  24
ENDBRANCH  22  23
ENDBRANCH  21  22
ENDBRANCH  20  21
ENDBRANCH  19  20
ENDBRANCH  18  19
ENDBRANCH  17  18
ENDBRANCH   1  17
TORSDOF 26
ENDMDL
MODEL 4
REMARK VINA RESULT:    -3.533      1.785      4.455
REMARK INTER + INTRA:         -13.957
REMARK INTER:                 -10.371
REMARK INTRA:                  -3.586
REMARK UNBOUND:                -5.054
REMARK SMILES CCCCCCCCCCCCCCCCCCCCCCCCCCCC(=O)[O-]
REMARK SMILES IDX 15 1 16 2 17 3 18 4 19 5 20 6 21 7 22 8 23 9 24 10 25 11
REMARK SMILES IDX 26 12 27 13 28 14 29 15 30 16 14 17 13 18 12 19 11 20 10 21
REMARK SMILES IDX 9 22 8 23 7 24 6 25 5 26 4 27 3 28 2 29 1 30
REMARK H PARENT
REMARK Flexibility Score: inf
ROOT
ATOM      1  C   UNL     1      -0.330  -9.197   6.450  1.00  0.00     0.000 C 
ENDROOT
BRANCH   1   2
ATOM      2  C   UNL     1      -1.626  -8.404   6.709  1.00  0.00     0.000 C 
BRANCH   2   3
ATOM      3  C   UNL     1      -2.821  -9.303   7.071  1.00  0.00     0.000 C 
BRANCH   3   4
ATOM      4  C   UNL     1      -2.641 -10.758   6.600  1.00  0.00     0.000 C 
BRANCH   4   5
ATOM      5  C   UNL     1      -3.905 -11.639   6.687  1.00  0.00     0.000 C 
BRANCH   5   6
ATOM      6  C   UNL     1      -4.532 -11.752   8.092  1.00  0.00     0.000 C 
BRANCH   6   7
ATOM      7  C   UNL     1      -6.055 -11.978   8.106  1.00  0.00     0.000 C 
BRANCH   7   8
ATOM      8  C   UNL     1      -6.726 -11.940   6.720  1.00  0.00     0.000 C 
BRANCH   8   9
ATOM      9  C   UNL     1      -8.196 -11.469   6.756  1.00  0.00     0.000 C 
BRANCH   9  10
ATOM     10  C   UNL     1      -8.834 -11.418   5.357  1.00  0.00     0.000 C 
BRANCH  10  11
ATOM     11  C   UNL     1      -8.929  -9.977   4.811  1.00  0.00     0.000 C 
BRANCH  11  12
ATOM     12  C   UNL     1      -9.567  -9.889   3.412  1.00  0.00     0.006 C 
BRANCH  12  13
ATOM     13  C   UNL     1     -10.776 -10.817   3.216  1.00  0.00     0.053 C 
BRANCH  13  14
ATOM     14  C   UNL     1     -10.747 -11.502   1.883  1.00  0.00     0.041 C 
ATOM     15  O   UNL     1      -9.662 -11.944   1.420  1.00  0.00    -0.550 OA
ATOM     16  O   UNL     1     -11.919 -11.659   1.153  1.00  0.00    -0.550 OA
ENDBRANCH  13  14
ENDBRANCH  12  13
ENDBRANCH  11  12
ENDBRANCH  10  11
ENDBRANCH   9  10
ENDBRANCH   8   9
ENDBRANCH   7   8
ENDBRANCH   6   7
ENDBRANCH   5   6
ENDBRANCH   4   5
ENDBRANCH   3   4
ENDBRANCH   2   3
ENDBRANCH   1   2
BRANCH   1  17
ATOM     17  C   UNL     1       0.869  -8.815   7.336  1.00  0.00     0.000 C 
BRANCH  17  18
ATOM     18  C   UNL     1       0.520  -8.765   8.833  1.00  0.00     0.000 C 
BRANCH  18  19
ATOM     19  C   UNL     1       0.460 -10.165   9.468  1.00  0.00     0.000 C 
BRANCH  19  20
ATOM     20  C   UNL     1      -0.911 -10.475  10.095  1.00  0.00     0.000 C 
BRANCH  20  21
ATOM     21  C   UNL     1      -1.333 -11.940   9.894  1.00  0.00     0.000 C 
BRANCH  21  22
ATOM     22  C   UNL     1      -0.141 -12.866   9.595  1.00  0.00    -0.000 C 
BRANCH  22  23
ATOM     23  C   UNL     1      -0.565 -14.153   8.869  1.00  0.00    -0.000 C 
BRANCH  23  24
ATOM     24  C   UNL     1      -1.253 -13.875   7.521  1.00  0.00    -0.000 C 
BRANCH  24  25
ATOM     25  C   UNL     1      -0.309 -14.080   6.325  1.00  0.00    -0.000 C 
BRANCH  25  26
ATOM     26  C   UNL     1       0.474 -12.807   5.967  1.00  0.00    -0.000 C 
BRANCH  26  27
ATOM     27  C   UNL     1       1.925 -12.897   6.457  1.00  0.00    -0.000 C 
BRANCH  27  28
ATOM     28  C   UNL     1       2.665 -14.056   5.774  1.00  0.00    -0.000 C 
BRANCH  28  29
ATOM     29  C   UNL     1       4.183 -14.003   6.001  1.00  0.00    -0.003 C 
ATOM     30  C   UNL     1       4.662 -12.634   6.483  1.00  0.00     0.004 C 
ENDBRANCH  28  29
ENDBRANCH  27  28
ENDBRANCH  26  27
ENDBRANCH  25  26
ENDBRANCH  24  25
ENDBRANCH  23  24
ENDBRANCH  22  23
ENDBRANCH  21  22
ENDBRANCH  20  21
ENDBRANCH  19  20
ENDBRANCH  18  19
ENDBRANCH  17  18
ENDBRANCH   1  17
TORSDOF 26
ENDMDL
MODEL 5
REMARK VINA RESULT:    -3.519      1.715      4.126
REMARK INTER + INTRA:         -13.921
REMARK INTER:                  -9.859
REMARK INTRA:                  -4.062
REMARK UNBOUND:                -5.054
REMARK SMILES CCCCCCCCCCCCCCCCCCCCCCCCCCCC(=O)[O-]
REMARK SMILES IDX 15 1 16 2 17 3 18 4 19 5 20 6 21 7 22 8 23 9 24 10 25 11
REMARK SMILES IDX 26 12 27 13 28 14 29 15 30 16 14 17 13 18 12 19 11 20 10 21
REMARK SMILES IDX 9 22 8 23 7 24 6 25 5 26 4 27 3 28 2 29 1 30
REMARK H PARENT
REMARK Flexibility Score: inf
ROOT
ATOM      1  C   UNL     1      -0.684 -11.758   9.091  1.00  0.00     0.000 C 
ENDROOT
BRANCH   1   2
ATOM      2  C   UNL     1      -1.889 -11.255   9.909  1.00  0.00     0.000 C 
BRANCH   2   3
ATOM      3  C   UNL     1      -3.205 -11.963   9.542  1.00  0.00     0.000 C 
BRANCH   3   4
ATOM      4  C   UNL     1      -4.434 -11.042   9.659  1.00  0.00     0.000 C 
BRANCH   4   5
ATOM      5  C   UNL     1      -5.765 -11.656   9.176  1.00  0.00     0.000 C 
BRANCH   5   6
ATOM      6  C   UNL     1      -5.678 -12.469   7.867  1.00  0.00     0.000 C 
BRANCH   6   7
ATOM      7  C   UNL     1      -6.389 -11.832   6.660  1.00  0.00     0.000 C 
BRANCH   7   8
ATOM      8  C   UNL     1      -7.643 -12.586   6.177  1.00  0.00     0.000 C 
BRANCH   8   9
ATOM      9  C   UNL     1      -8.918 -11.716   6.153  1.00  0.00     0.000 C 
BRANCH   9  10
ATOM     10  C   UNL     1      -8.722 -10.405   5.373  1.00  0.00     0.000 C 
BRANCH  10  11
ATOM     11  C   UNL     1      -9.482 -10.407   4.028  1.00  0.00     0.000 C 
BRANCH  11  12
ATOM     12  C   UNL     1     -10.977 -10.059   4.164  1.00  0.00     0.006 C 
BRANCH  12  13
ATOM     13  C   UNL     1     -11.924 -11.184   3.720  1.00  0.00     0.053 C 
BRANCH  13  14
ATOM     14  C   UNL     1     -12.402 -10.993   2.312  1.00  0.00     0.041 C 
ATOM     15  O   UNL     1     -11.721 -11.427   1.346  1.00  0.00    -0.550 OA
ATOM     16  O   UNL     1     -13.602 -10.338   2.065  1.00  0.00    -0.550 OA
ENDBRANCH  13  14
ENDBRANCH  12  13
ENDBRANCH  11  12
ENDBRANCH  10  11
ENDBRANCH   9  10
ENDBRANCH   8   9
ENDBRANCH   7   8
ENDBRANCH   6   7
ENDBRANCH   5   6
ENDBRANCH   4   5
ENDBRANCH   3   4
ENDBRANCH   2   3
ENDBRANCH   1   2
BRANCH   1  17
ATOM     17  C   UNL     1       0.570 -10.866   9.143  1.00  0.00     0.000 C 
BRANCH  17  18
ATOM     18  C   UNL     1       0.928 -10.249   7.779  1.00  0.00     0.000 C 
BRANCH  18  19
ATOM     19  C   UNL     1       0.581  -8.752   7.703  1.00  0.00     0.000 C 
BRANCH  19  20
ATOM     20  C   UNL     1      -0.525  -8.450   6.675  1.00  0.00     0.000 C 
BRANCH  20  21
ATOM     21  C   UNL     1      -1.924  -8.406   7.312  1.00  0.00     0.000 C 
BRANCH  21  22
ATOM     22  C   UNL     1      -2.865  -9.488   6.754  1.00  0.00    -0.000 C 
BRANCH  22  23
ATOM     23  C   UNL     1      -2.141 -10.475   5.825  1.00  0.00    -0.000 C 
BRANCH  23  24
ATOM     24  C   UNL     1      -2.777 -11.877   5.836  1.00  0.00    -0.000 C 
BRANCH  24  25
ATOM     25  C   UNL     1      -1.729 -12.998   5.931  1.00  0.00    -0.000 C 
BRANCH  25  26
ATOM     26  C   UNL     1      -0.378 -12.597   5.318  1.00  0.00    -0.000 C 
BRANCH  26  27
ATOM     27  C   UNL     1       0.596 -13.782   5.311  1.00  0.00    -0.000 C 
BRANCH  27  28
ATOM     28  C   UNL     1       1.508 -13.751   6.546  1.00  0.00    -0.000 C 
BRANCH  28  29
ATOM     29  C   UNL     1       2.911 -13.209   6.230  1.00  0.00    -0.003 C 
ATOM     30  C   UNL     1       4.001 -14.272   6.368  1.00  0.00     0.004 C 
ENDBRANCH  28  29
ENDBRANCH  27  28
ENDBRANCH  26  27
ENDBRANCH  25  26
ENDBRANCH  24  25
ENDBRANCH  23  24
ENDBRANCH  22  23
ENDBRANCH  21  22
ENDBRANCH  20  21
ENDBRANCH  19  20
ENDBRANCH  18  19
ENDBRANCH  17  18
ENDBRANCH   1  17
TORSDOF 26
ENDMDL
MODEL 6
REMARK VINA RESULT:    -3.486      1.047      2.760
REMARK INTER + INTRA:         -13.839
REMARK INTER:                  -8.470
REMARK INTRA:                  -5.369
REMARK UNBOUND:                -5.054
REMARK SMILES CCCCCCCCCCCCCCCCCCCCCCCCCCCC(=O)[O-]
REMARK SMILES IDX 15 1 16 2 17 3 18 4 19 5 20 6 21 7 22 8 23 9 24 10 25 11
REMARK SMILES IDX 26 12 27 13 28 14 29 15 30 16 14 17 13 18 12 19 11 20 10 21
REMARK SMILES IDX 9 22 8 23 7 24 6 25 5 26 4 27 3 28 2 29 1 30
REMARK H PARENT
REMARK Flexibility Score: inf
ROOT
ATOM      1  C   UNL     1      -3.094 -12.767   5.103  1.00  0.00     0.000 C 
ENDROOT
BRANCH   1   2
ATOM      2  C   UNL     1      -4.055 -13.298   6.185  1.00  0.00     0.000 C 
BRANCH   2   3
ATOM      3  C   UNL     1      -5.507 -12.828   5.986  1.00  0.00     0.000 C 
BRANCH   3   4
ATOM      4  C   UNL     1      -6.118 -12.217   7.261  1.00  0.00     0.000 C 
BRANCH   4   5
ATOM      5  C   UNL     1      -6.455 -13.226   8.378  1.00  0.00     0.000 C 
BRANCH   5   6
ATOM      6  C   UNL     1      -6.450 -12.649   9.809  1.00  0.00     0.000 C 
BRANCH   6   7
ATOM      7  C   UNL     1      -7.208 -11.320   9.975  1.00  0.00     0.000 C 
BRANCH   7   8
ATOM      8  C   UNL     1      -8.724 -11.404   9.712  1.00  0.00     0.000 C 
BRANCH   8   9
ATOM      9  C   UNL     1      -9.312 -10.129   9.071  1.00  0.00     0.000 C 
BRANCH   9  10
ATOM     10  C   UNL     1      -9.836 -10.374   7.646  1.00  0.00     0.000 C 
BRANCH  10  11
ATOM     11  C   UNL     1      -9.881 -11.876   7.290  1.00  0.00     0.000 C 
BRANCH  11  12
ATOM     12  C   UNL     1      -9.484 -12.176   5.832  1.00  0.00     0.006 C 
BRANCH  12  13
ATOM     13  C   UNL     1      -8.870 -10.979   5.091  1.00  0.00     0.053 C 
BRANCH  13  14
ATOM     14  C   UNL     1      -9.708 -10.550   3.925  1.00  0.00     0.041 C 
ATOM     15  O   UNL     1      -9.163 -10.090   2.887  1.00  0.00    -0.550 OA
ATOM     16  O   UNL     1     -11.092 -10.661   3.981  1.00  0.00    -0.550 OA
ENDBRANCH  13  14
ENDBRANCH  12  13
ENDBRANCH  11  12
ENDBRANCH  10  11
ENDBRANCH   9  10
ENDBRANCH   8   9
ENDBRANCH   7   8
ENDBRANCH   6   7
ENDBRANCH   5   6
ENDBRANCH   4   5
ENDBRANCH   3   4
ENDBRANCH   2   3
ENDBRANCH   1   2
BRANCH   1  17
ATOM     17  C   UNL     1      -1.638 -13.253   5.215  1.00  0.00     0.000 C 
BRANCH  17  18
ATOM     18  C   UNL     1      -0.613 -12.108   5.141  1.00  0.00     0.000 C 
BRANCH  18  19
ATOM     19  C   UNL     1       0.423 -12.173   6.276  1.00  0.00     0.000 C 
BRANCH  19  20
ATOM     20  C   UNL     1       0.079 -13.238   7.333  1.00  0.00     0.000 C 
BRANCH  20  21
ATOM     21  C   UNL     1      -0.471 -12.622   8.631  1.00  0.00     0.000 C 
BRANCH  21  22
ATOM     22  C   UNL     1      -1.766 -13.303   9.109  1.00  0.00    -0.000 C 
BRANCH  22  23
ATOM     23  C   UNL     1      -2.823 -12.290   9.577  1.00  0.00    -0.000 C 
BRANCH  23  24
ATOM     24  C   UNL     1      -2.445 -10.837   9.238  1.00  0.00    -0.000 C 
BRANCH  24  25
ATOM     25  C   UNL     1      -3.370 -10.221   8.175  1.00  0.00    -0.000 C 
BRANCH  25  26
ATOM     26  C   UNL     1      -2.595  -9.662   6.972  1.00  0.00    -0.000 C 
BRANCH  26  27
ATOM     27  C   UNL     1      -1.664  -8.521   7.400  1.00  0.00    -0.000 C 
BRANCH  27  28
ATOM     28  C   UNL     1      -0.346  -8.562   6.613  1.00  0.00    -0.000 C 
BRANCH  28  29
ATOM     29  C   UNL     1       0.874  -8.802   7.516  1.00  0.00    -0.003 C 
ATOM     30  C   UNL     1       0.511  -8.857   8.999  1.00  0.00     0.004 C 
ENDBRANCH  28  29
ENDBRANCH  27  28
ENDBRANCH  26  27
ENDBRANCH  25  26
ENDBRANCH  24  25
ENDBRANCH  23  24
ENDBRANCH  22  23
ENDBRANCH  21  22
ENDBRANCH  20  21
ENDBRANCH  19  20
ENDBRANCH  18  19
ENDBRANCH  17  18
ENDBRANCH   1  17
TORSDOF 26
ENDMDL
MODEL 7
REMARK VINA RESULT:    -3.441      1.467      4.400
REMARK INTER + INTRA:         -13.725
REMARK INTER:                  -9.169
REMARK INTRA:                  -4.556
REMARK UNBOUND:                -5.054
REMARK SMILES CCCCCCCCCCCCCCCCCCCCCCCCCCCC(=O)[O-]
REMARK SMILES IDX 15 1 16 2 17 3 18 4 19 5 20 6 21 7 22 8 23 9 24 10 25 11
REMARK SMILES IDX 26 12 27 13 28 14 29 15 30 16 14 17 13 18 12 19 11 20 10 21
REMARK SMILES IDX 9 22 8 23 7 24 6 25 5 26 4 27 3 28 2 29 1 30
REMARK H PARENT
REMARK Flexibility Score: inf
ROOT
ATOM      1  C   UNL     1       0.235  -8.735   6.635  1.00  0.00     0.000 C 
ENDROOT
BRANCH   1   2
ATOM      2  C   UNL     1      -1.218  -8.468   6.198  1.00  0.00     0.000 C 
BRANCH   2   3
ATOM      3  C   UNL     1      -2.202  -8.400   7.379  1.00  0.00     0.000 C 
BRANCH   3   4
ATOM      4  C   UNL     1      -3.126  -9.630   7.461  1.00  0.00     0.000 C 
BRANCH   4   5
ATOM      5  C   UNL     1      -3.364 -10.181   8.882  1.00  0.00     0.000 C 
BRANCH   5   6
ATOM      6  C   UNL     1      -4.340 -11.372   8.971  1.00  0.00     0.000 C 
BRANCH   6   7
ATOM      7  C   UNL     1      -5.045 -11.733   7.651  1.00  0.00     0.000 C 
BRANCH   7   8
ATOM      8  C   UNL     1      -5.928 -12.994   7.714  1.00  0.00     0.000 C 
BRANCH   8   9
ATOM      9  C   UNL     1      -7.082 -12.994   6.689  1.00  0.00     0.000 C 
BRANCH   9  10
ATOM     10  C   UNL     1      -7.403 -11.585   6.162  1.00  0.00     0.000 C 
BRANCH  10  11
ATOM     11  C   UNL     1      -8.866 -11.458   5.684  1.00  0.00     0.000 C 
BRANCH  11  12
ATOM     12  C   UNL     1      -9.210 -10.069   5.115  1.00  0.00     0.006 C 
BRANCH  12  13
ATOM     13  C   UNL     1      -9.257 -10.016   3.580  1.00  0.00     0.053 C 
BRANCH  13  14
ATOM     14  C   UNL     1     -10.432 -10.764   3.028  1.00  0.00     0.041 C 
ATOM     15  O   UNL     1     -10.291 -11.518   2.029  1.00  0.00    -0.550 OA
ATOM     16  O   UNL     1     -11.684 -10.633   3.616  1.00  0.00    -0.550 OA
ENDBRANCH  13  14
ENDBRANCH  12  13
ENDBRANCH  11  12
ENDBRANCH  10  11
ENDBRANCH   9  10
ENDBRANCH   8   9
ENDBRANCH   7   8
ENDBRANCH   6   7
ENDBRANCH   5   6
ENDBRANCH   4   5
ENDBRANCH   3   4
ENDBRANCH   2   3
ENDBRANCH   1   2
BRANCH   1  17
ATOM     17  C   UNL     1       0.444  -8.939   8.147  1.00  0.00     0.000 C 
BRANCH  17  18
ATOM     18  C   UNL     1       0.881 -10.370   8.507  1.00  0.00     0.000 C 
BRANCH  18  19
ATOM     19  C   UNL     1      -0.086 -11.047   9.494  1.00  0.00     0.000 C 
BRANCH  19  20
ATOM     20  C   UNL     1       0.156 -12.562   9.617  1.00  0.00     0.000 C 
BRANCH  20  21
ATOM     21  C   UNL     1      -1.153 -13.368   9.629  1.00  0.00     0.000 C 
BRANCH  21  22
ATOM     22  C   UNL     1      -1.205 -14.435   8.521  1.00  0.00    -0.000 C 
BRANCH  22  23
ATOM     23  C   UNL     1      -2.441 -14.286   7.620  1.00  0.00    -0.000 C 
BRANCH  23  24
ATOM     24  C   UNL     1      -2.079 -13.894   6.176  1.00  0.00    -0.000 C 
BRANCH  24  25
ATOM     25  C   UNL     1      -1.497 -12.475   6.079  1.00  0.00    -0.000 C 
BRANCH  25  26
ATOM     26  C   UNL     1      -0.036 -12.467   5.603  1.00  0.00    -0.000 C 
BRANCH  26  27
ATOM     27  C   UNL     1       0.413 -13.873   5.185  1.00  0.00    -0.000 C 
BRANCH  27  28
ATOM     28  C   UNL     1       1.876 -14.122   5.579  1.00  0.00    -0.000 C 
BRANCH  28  29
ATOM     29  C   UNL     1       2.350 -13.196   6.709  1.00  0.00    -0.003 C 
ATOM     30  C   UNL     1       3.826 -12.819   6.586  1.00  0.00     0.004 C 
ENDBRANCH  28  29
ENDBRANCH  27  28
ENDBRANCH  26  27
ENDBRANCH  25  26
ENDBRANCH  24  25
ENDBRANCH  23  24
ENDBRANCH  22  23
ENDBRANCH  21  22
ENDBRANCH  20  21
ENDBRANCH  19  20
ENDBRANCH  18  19
ENDBRANCH  17  18
ENDBRANCH   1  17
TORSDOF 26
ENDMDL
MODEL 8
REMARK VINA RESULT:    -3.391      1.242      3.269
REMARK INTER + INTRA:         -13.599
REMARK INTER:                  -9.809
REMARK INTRA:                  -3.790
REMARK UNBOUND:                -5.054
REMARK SMILES CCCCCCCCCCCCCCCCCCCCCCCCCCCC(=O)[O-]
REMARK SMILES IDX 15 1 16 2 17 3 18 4 19 5 20 6 21 7 22 8 23 9 24 10 25 11
REMARK SMILES IDX 26 12 27 13 28 14 29 15 30 16 14 17 13 18 12 19 11 20 10 21
REMARK SMILES IDX 9 22 8 23 7 24 6 25 5 26 4 27 3 28 2 29 1 30
REMARK H PARENT
REMARK Flexibility Score: inf
ROOT
ATOM      1  C   UNL     1      -4.987 -13.248   5.884  1.00  0.00     0.000 C 
ENDROOT
BRANCH   1   2
ATOM      2  C   UNL     1      -5.574 -12.110   6.741  1.00  0.00     0.000 C 
BRANCH   2   3
ATOM      3  C   UNL     1      -6.985 -11.686   6.297  1.00  0.00     0.000 C 
BRANCH   3   4
ATOM      4  C   UNL     1      -8.073 -12.058   7.322  1.00  0.00     0.000 C 
BRANCH   4   5
ATOM      5  C   UNL     1      -7.793 -11.608   8.771  1.00  0.00     0.000 C 
BRANCH   5   6
ATOM      6  C   UNL     1      -9.014 -11.054   9.535  1.00  0.00     0.000 C 
BRANCH   6   7
ATOM      7  C   UNL     1      -9.675  -9.820   8.895  1.00  0.00     0.000 C 
BRANCH   7   8
ATOM      8  C   UNL     1     -11.153 -10.009   8.502  1.00  0.00     0.000 C 
BRANCH   8   9
ATOM      9  C   UNL     1     -11.398  -9.971   6.978  1.00  0.00     0.000 C 
BRANCH   9  10
ATOM     10  C   UNL     1     -10.756  -8.745   6.308  1.00  0.00     0.000 C 
BRANCH  10  11
ATOM     11  C   UNL     1     -10.611  -8.922   4.781  1.00  0.00     0.000 C 
BRANCH  11  12
ATOM     12  C   UNL     1      -9.382  -9.756   4.372  1.00  0.00     0.006 C 
BRANCH  12  13
ATOM     13  C   UNL     1      -9.726 -11.141   3.804  1.00  0.00     0.053 C 
BRANCH  13  14
ATOM     14  C   UNL     1      -9.746 -11.145   2.305  1.00  0.00     0.041 C 
ATOM     15  O   UNL     1      -8.903 -10.469   1.658  1.00  0.00    -0.550 OA
ATOM     16  O   UNL     1     -10.692 -11.898   1.621  1.00  0.00    -0.550 OA
ENDBRANCH  13  14
ENDBRANCH  12  13
ENDBRANCH  11  12
ENDBRANCH  10  11
ENDBRANCH   9  10
ENDBRANCH   8   9
ENDBRANCH   7   8
ENDBRANCH   6   7
ENDBRANCH   5   6
ENDBRANCH   4   5
ENDBRANCH   3   4
ENDBRANCH   2   3
ENDBRANCH   1   2
BRANCH   1  17
ATOM     17  C   UNL     1      -3.633 -12.944   5.217  1.00  0.00     0.000 C 
BRANCH  17  18
ATOM     18  C   UNL     1      -2.431 -13.247   6.128  1.00  0.00     0.000 C 
BRANCH  18  19
ATOM     19  C   UNL     1      -1.124 -13.423   5.337  1.00  0.00     0.000 C 
BRANCH  19  20
ATOM     20  C   UNL     1      -0.221 -12.178   5.396  1.00  0.00     0.000 C 
BRANCH  20  21
ATOM     21  C   UNL     1       0.761 -12.219   6.578  1.00  0.00     0.000 C 
BRANCH  21  22
ATOM     22  C   UNL     1       1.060 -10.823   7.151  1.00  0.00    -0.000 C 
BRANCH  22  23
ATOM     23  C   UNL     1       0.572 -10.665   8.600  1.00  0.00    -0.000 C 
BRANCH  23  24
ATOM     24  C   UNL     1      -0.325 -11.831   9.054  1.00  0.00    -0.000 C 
BRANCH  24  25
ATOM     25  C   UNL     1      -1.771 -11.387   9.334  1.00  0.00    -0.000 C 
BRANCH  25  26
ATOM     26  C   UNL     1      -1.996  -9.895   9.042  1.00  0.00    -0.000 C 
BRANCH  26  27
ATOM     27  C   UNL     1      -3.085  -9.702   7.979  1.00  0.00    -0.000 C 
BRANCH  27  28
ATOM     28  C   UNL     1      -2.477  -9.675   6.569  1.00  0.00    -0.000 C 
BRANCH  28  29
ATOM     29  C   UNL     1      -1.712  -8.375   6.279  1.00  0.00    -0.003 C 
ATOM     30  C   UNL     1      -2.615  -7.263   5.747  1.00  0.00     0.004 C 
ENDBRANCH  28  29
ENDBRANCH  27  28
ENDBRANCH  26  27
ENDBRANCH  25  26
ENDBRANCH  24  25
ENDBRANCH  23  24
ENDBRANCH  22  23
ENDBRANCH  21  22
ENDBRANCH  20  21
ENDBRANCH  19  20
ENDBRANCH  18  19
ENDBRANCH  17  18
ENDBRANCH   1  17
TORSDOF 26
ENDMDL
MODEL 9
REMARK VINA RESULT:    -3.374      1.749      4.832
REMARK INTER + INTRA:         -13.557
REMARK INTER:                  -8.351
REMARK INTRA:                  -5.206
REMARK UNBOUND:                -5.054
REMARK SMILES CCCCCCCCCCCCCCCCCCCCCCCCCCCC(=O)[O-]
REMARK SMILES IDX 15 1 16 2 17 3 18 4 19 5 20 6 21 7 22 8 23 9 24 10 25 11
REMARK SMILES IDX 26 12 27 13 28 14 29 15 30 16 14 17 13 18 12 19 11 20 10 21
REMARK SMILES IDX 9 22 8 23 7 24 6 25 5 26 4 27 3 28 2 29 1 30
REMARK H PARENT
REMARK Flexibility Score: inf
ROOT
ATOM      1  C   UNL     1       0.876  -8.957   7.655  1.00  0.00     0.000 C 
ENDROOT
BRANCH   1   2
ATOM      2  C   UNL     1      -0.189  -8.697   6.572  1.00  0.00     0.000 C 
BRANCH   2   3
ATOM      3  C   UNL     1      -1.568  -8.340   7.155  1.00  0.00     0.000 C 
BRANCH   3   4
ATOM      4  C   UNL     1      -2.675  -9.314   6.711  1.00  0.00     0.000 C 
BRANCH   4   5
ATOM      5  C   UNL     1      -3.166 -10.292   7.799  1.00  0.00     0.000 C 
BRANCH   5   6
ATOM      6  C   UNL     1      -3.154  -9.735   9.238  1.00  0.00     0.000 C 
BRANCH   6   7
ATOM      7  C   UNL     1      -3.785 -10.659  10.296  1.00  0.00     0.000 C 
BRANCH   7   8
ATOM      8  C   UNL     1      -4.701 -11.759   9.729  1.00  0.00     0.000 C 
BRANCH   8   9
ATOM      9  C   UNL     1      -6.206 -11.440   9.859  1.00  0.00     0.000 C 
BRANCH   9  10
ATOM     10  C   UNL     1      -7.047 -12.098   8.752  1.00  0.00     0.000 C 
BRANCH  10  11
ATOM     11  C   UNL     1      -6.335 -12.067   7.382  1.00  0.00     0.000 C 
BRANCH  11  12
ATOM     12  C   UNL     1      -7.249 -11.627   6.223  1.00  0.00     0.006 C 
BRANCH  12  13
ATOM     13  C   UNL     1      -8.714 -11.408   6.629  1.00  0.00     0.053 C 
BRANCH  13  14
ATOM     14  C   UNL     1      -9.377 -10.355   5.793  1.00  0.00     0.041 C 
ATOM     15  O   UNL     1     -10.565 -10.011   6.031  1.00  0.00    -0.550 OA
ATOM     16  O   UNL     1      -8.684  -9.749   4.753  1.00  0.00    -0.550 OA
ENDBRANCH  13  14
ENDBRANCH  12  13
ENDBRANCH  11  12
ENDBRANCH  10  11
ENDBRANCH   9  10
ENDBRANCH   8   9
ENDBRANCH   7   8
ENDBRANCH   6   7
ENDBRANCH   5   6
ENDBRANCH   4   5
ENDBRANCH   3   4
ENDBRANCH   2   3
ENDBRANCH   1   2
BRANCH   1  17
ATOM     17  C   UNL     1       0.428  -8.685   9.103  1.00  0.00     0.000 C 
BRANCH  17  18
ATOM     18  C   UNL     1       0.466  -9.941   9.991  1.00  0.00     0.000 C 
BRANCH  18  19
ATOM     19  C   UNL     1       0.273 -11.236   9.184  1.00  0.00     0.000 C 
BRANCH  19  20
ATOM     20  C   UNL     1      -0.442 -12.336   9.989  1.00  0.00     0.000 C 
BRANCH  20  21
ATOM     21  C   UNL     1      -1.289 -13.260   9.099  1.00  0.00     0.000 C 
BRANCH  21  22
ATOM     22  C   UNL     1      -0.874 -14.737   9.209  1.00  0.00    -0.000 C 
BRANCH  22  23
ATOM     23  C   UNL     1       0.649 -14.914   9.308  1.00  0.00    -0.000 C 
BRANCH  23  24
ATOM     24  C   UNL     1       1.335 -14.929   7.930  1.00  0.00    -0.000 C 
BRANCH  24  25
ATOM     25  C   UNL     1       2.431 -13.857   7.807  1.00  0.00    -0.000 C 
BRANCH  25  26
ATOM     26  C   UNL     1       2.216 -12.930   6.600  1.00  0.00    -0.000 C 
BRANCH  26  27
ATOM     27  C   UNL     1       0.986 -13.359   5.790  1.00  0.00    -0.000 C 
BRANCH  27  28
ATOM     28  C   UNL     1      -0.017 -12.203   5.660  1.00  0.00    -0.000 C 
BRANCH  28  29
ATOM     29  C   UNL     1      -1.469 -12.691   5.549  1.00  0.00    -0.003 C 
ATOM     30  C   UNL     1      -1.653 -13.763   4.476  1.00  0.00     0.004 C 
ENDBRANCH  28  29
ENDBRANCH  27  28
ENDBRANCH  26  27
ENDBRANCH  25  26
ENDBRANCH  24  25
ENDBRANCH  23  24
ENDBRANCH  22  23
ENDBRANCH  21  22
ENDBRANCH  20  21
ENDBRANCH  19  20
ENDBRANCH  18  19
ENDBRANCH  17  18
ENDBRANCH   1  17
TORSDOF 26
ENDMDL
