MODEL 1
REMARK VINA RESULT:    -4.783      0.000      0.000
REMARK INTER + INTRA:          -5.117
REMARK INTER:                  -5.202
REMARK INTRA:                   0.086
REMARK UNBOUND:                 0.086
REMARK SMILES COc1cc2ccc(=O)oc2cc1O
REMARK SMILES IDX 3 1 13 2 12 3 11 4 5 5 4 6 6 7 7 8 8 9 9 10 10 11 2 12 1 13
REMARK SMILES IDX 14 14
REMARK H PARENT 14 15
REMARK Flexibility Score: inf
ROOT
ATOM      1  C   UNL     1      41.546  20.310  -1.440  1.00  0.00     0.161 A 
ATOM      2  C   UNL     1      41.921  18.966  -1.249  1.00  0.00     0.161 A 
ATOM      3  C   UNL     1      42.729  18.319  -2.192  1.00  0.00     0.098 A 
ATOM      4  C   UNL     1      43.172  18.998  -3.328  1.00  0.00     0.142 A 
ATOM      5  C   UNL     1      42.802  20.344  -3.529  1.00  0.00     0.022 A 
ATOM      6  C   UNL     1      41.993  20.996  -2.588  1.00  0.00     0.062 A 
ATOM      7  C   UNL     1      43.261  20.997  -4.677  1.00  0.00     0.019 A 
ATOM      8  C   UNL     1      44.065  20.306  -5.583  1.00  0.00     0.094 A 
ATOM      9  C   UNL     1      44.390  18.972  -5.319  1.00  0.00     0.336 A 
ATOM     10  O   UNL     1      45.114  18.330  -6.125  1.00  0.00    -0.246 OA
ATOM     11  O   UNL     1      43.941  18.374  -4.218  1.00  0.00    -0.423 OA
ENDROOT
BRANCH   1  12
ATOM     12  O   UNL     1      40.734  20.928  -0.475  1.00  0.00    -0.493 OA
ATOM     13  C   UNL     1      39.358  20.627  -0.264  1.00  0.00     0.278 C 
ENDBRANCH   1  12
BRANCH   2  14
ATOM     14  O   UNL     1      41.499  18.254  -0.127  1.00  0.00    -0.504 OA
ATOM     15  H   UNL     1      41.144  17.306  -0.189  1.00  0.00     0.293 HD
ENDBRANCH   2  14
TORSDOF 2
ENDMDL
MODEL 2
REMARK VINA RESULT:    -4.419      1.170      1.330
REMARK INTER + INTRA:          -4.721
REMARK INTER:                  -4.662
REMARK INTRA:                  -0.059
REMARK UNBOUND:                 0.086
REMARK SMILES COc1cc2ccc(=O)oc2cc1O
REMARK SMILES IDX 3 1 13 2 12 3 11 4 5 5 4 6 6 7 7 8 8 9 9 10 10 11 2 12 1 13
REMARK SMILES IDX 14 14
REMARK H PARENT 14 15
REMARK Flexibility Score: inf
ROOT
ATOM      1  C   UNL     1      41.642  19.263  -2.307  1.00  0.00     0.161 A 
ATOM      2  C   UNL     1      42.125  17.999  -1.913  1.00  0.00     0.161 A 
ATOM      3  C   UNL     1      43.147  17.378  -2.640  1.00  0.00     0.098 A 
ATOM      4  C   UNL     1      43.699  18.003  -3.760  1.00  0.00     0.142 A 
ATOM      5  C   UNL     1      43.224  19.268  -4.162  1.00  0.00     0.022 A 
ATOM      6  C   UNL     1      42.200  19.894  -3.438  1.00  0.00     0.062 A 
ATOM      7  C   UNL     1      43.796  19.868  -5.288  1.00  0.00     0.019 A 
ATOM      8  C   UNL     1      44.813  19.205  -5.975  1.00  0.00     0.094 A 
ATOM      9  C   UNL     1      45.233  17.952  -5.518  1.00  0.00     0.336 A 
ATOM     10  O   UNL     1      46.149  17.337  -6.125  1.00  0.00    -0.246 OA
ATOM     11  O   UNL     1      44.671  17.404  -4.444  1.00  0.00    -0.423 OA
ENDROOT
BRANCH   1  12
ATOM     12  O   UNL     1      40.616  19.858  -1.556  1.00  0.00    -0.493 OA
ATOM     13  C   UNL     1      40.825  20.761  -0.474  1.00  0.00     0.278 C 
ENDBRANCH   1  12
BRANCH   2  14
ATOM     14  O   UNL     1      41.598  17.343  -0.801  1.00  0.00    -0.504 OA
ATOM     15  H   UNL     1      40.613  17.122  -0.720  1.00  0.00     0.293 HD
ENDBRANCH   2  14
TORSDOF 2
ENDMDL
MODEL 3
REMARK VINA RESULT:    -4.409      7.034      9.502
REMARK INTER + INTRA:          -4.710
REMARK INTER:                  -4.661
REMARK INTRA:                  -0.049
REMARK UNBOUND:                 0.086
REMARK SMILES COc1cc2ccc(=O)oc2cc1O
REMARK SMILES IDX 3 1 13 2 12 3 11 4 5 5 4 6 6 7 7 8 8 9 9 10 10 11 2 12 1 13
REMARK SMILES IDX 14 14
REMARK H PARENT 14 15
REMARK Flexibility Score: inf
ROOT
ATOM      1  C   UNL     1      49.622  15.261  -4.679  1.00  0.00     0.161 A 
ATOM      2  C   UNL     1      48.458  15.939  -4.268  1.00  0.00     0.161 A 
ATOM      3  C   UNL     1      47.531  15.306  -3.432  1.00  0.00     0.098 A 
ATOM      4  C   UNL     1      47.749  13.998  -2.997  1.00  0.00     0.142 A 
ATOM      5  C   UNL     1      48.911  13.309  -3.401  1.00  0.00     0.022 A 
ATOM      6  C   UNL     1      49.842  13.939  -4.238  1.00  0.00     0.062 A 
ATOM      7  C   UNL     1      49.102  12.000  -2.949  1.00  0.00     0.019 A 
ATOM      8  C   UNL     1      48.146  11.417  -2.117  1.00  0.00     0.094 A 
ATOM      9  C   UNL     1      47.018  12.161  -1.757  1.00  0.00     0.336 A 
ATOM     10  O   UNL     1      46.143  11.652  -1.007  1.00  0.00    -0.246 OA
ATOM     11  O   UNL     1      46.861  13.405  -2.201  1.00  0.00    -0.423 OA
ENDROOT
BRANCH   1  12
ATOM     12  O   UNL     1      50.531  15.925  -5.517  1.00  0.00    -0.493 OA
ATOM     13  C   UNL     1      51.947  15.877  -5.373  1.00  0.00     0.278 C 
ENDBRANCH   1  12
BRANCH   2  14
ATOM     14  O   UNL     1      48.204  17.246  -4.682  1.00  0.00    -0.504 OA
ATOM     15  H   UNL     1      48.635  17.645  -5.509  1.00  0.00     0.293 HD
ENDBRANCH   2  14
TORSDOF 2
ENDMDL
MODEL 4
REMARK VINA RESULT:    -4.306      6.319      7.725
REMARK INTER + INTRA:          -4.599
REMARK INTER:                  -4.535
REMARK INTRA:                  -0.064
REMARK UNBOUND:                 0.086
REMARK SMILES COc1cc2ccc(=O)oc2cc1O
REMARK SMILES IDX 3 1 13 2 12 3 11 4 5 5 4 6 6 7 7 8 8 9 9 10 10 11 2 12 1 13
REMARK SMILES IDX 14 14
REMARK H PARENT 14 15
REMARK Flexibility Score: inf
ROOT
ATOM      1  C   UNL     1      47.031  13.183  -2.348  1.00  0.00     0.161 A 
ATOM      2  C   UNL     1      48.367  12.927  -2.715  1.00  0.00     0.161 A 
ATOM      3  C   UNL     1      49.047  13.812  -3.559  1.00  0.00     0.098 A 
ATOM      4  C   UNL     1      48.411  14.955  -4.046  1.00  0.00     0.142 A 
ATOM      5  C   UNL     1      47.075  15.221  -3.685  1.00  0.00     0.022 A 
ATOM      6  C   UNL     1      46.389  14.338  -2.839  1.00  0.00     0.062 A 
ATOM      7  C   UNL     1      46.465  16.374  -4.189  1.00  0.00     0.019 A 
ATOM      8  C   UNL     1      47.189  17.222  -5.026  1.00  0.00     0.094 A 
ATOM      9  C   UNL     1      48.511  16.894  -5.342  1.00  0.00     0.336 A 
ATOM     10  O   UNL     1      49.182  17.646  -6.097  1.00  0.00    -0.246 OA
ATOM     11  O   UNL     1      49.068  15.790  -4.848  1.00  0.00    -0.423 OA
ENDROOT
BRANCH   1  12
ATOM     12  O   UNL     1      46.377  12.275  -1.499  1.00  0.00    -0.493 OA
ATOM     13  C   UNL     1      45.376  11.354  -1.918  1.00  0.00     0.278 C 
ENDBRANCH   1  12
BRANCH   2  14
ATOM     14  O   UNL     1      49.036  11.795  -2.249  1.00  0.00    -0.504 OA
ATOM     15  H   UNL     1      50.022  11.807  -2.018  1.00  0.00     0.293 HD
ENDBRANCH   2  14
TORSDOF 2
ENDMDL
MODEL 5
REMARK VINA RESULT:    -4.303      5.836      8.193
REMARK INTER + INTRA:          -4.594
REMARK INTER:                  -4.551
REMARK INTRA:                  -0.044
REMARK UNBOUND:                 0.086
REMARK SMILES COc1cc2ccc(=O)oc2cc1O
REMARK SMILES IDX 3 1 13 2 12 3 11 4 5 5 4 6 6 7 7 8 8 9 9 10 10 11 2 12 1 13
REMARK SMILES IDX 14 14
REMARK H PARENT 14 15
REMARK Flexibility Score: inf
ROOT
ATOM      1  C   UNL     1      49.038  13.985  -3.735  1.00  0.00     0.161 A 
ATOM      2  C   UNL     1      48.412  13.110  -2.826  1.00  0.00     0.161 A 
ATOM      3  C   UNL     1      47.120  13.384  -2.361  1.00  0.00     0.098 A 
ATOM      4  C   UNL     1      46.440  14.523  -2.793  1.00  0.00     0.142 A 
ATOM      5  C   UNL     1      47.058  15.405  -3.703  1.00  0.00     0.022 A 
ATOM      6  C   UNL     1      48.351  15.136  -4.171  1.00  0.00     0.062 A 
ATOM      7  C   UNL     1      46.351  16.539  -4.117  1.00  0.00     0.019 A 
ATOM      8  C   UNL     1      45.066  16.763  -3.623  1.00  0.00     0.094 A 
ATOM      9  C   UNL     1      44.517  15.845  -2.722  1.00  0.00     0.336 A 
ATOM     10  O   UNL     1      43.359  16.030  -2.264  1.00  0.00    -0.246 OA
ATOM     11  O   UNL     1      45.212  14.774  -2.345  1.00  0.00    -0.423 OA
ENDROOT
BRANCH   1  12
ATOM     12  O   UNL     1      50.335  13.681  -4.182  1.00  0.00    -0.493 OA
ATOM     13  C   UNL     1      51.011  14.369  -5.229  1.00  0.00     0.278 C 
ENDBRANCH   1  12
BRANCH   2  14
ATOM     14  O   UNL     1      49.059  11.962  -2.371  1.00  0.00    -0.504 OA
ATOM     15  H   UNL     1      49.877  11.582  -2.835  1.00  0.00     0.293 HD
ENDBRANCH   2  14
TORSDOF 2
ENDMDL
MODEL 6
REMARK VINA RESULT:    -4.267      7.157     10.178
REMARK INTER + INTRA:          -4.556
REMARK INTER:                  -4.512
REMARK INTRA:                  -0.043
REMARK UNBOUND:                 0.086
REMARK SMILES COc1cc2ccc(=O)oc2cc1O
REMARK SMILES IDX 3 1 13 2 12 3 11 4 5 5 4 6 6 7 7 8 8 9 9 10 10 11 2 12 1 13
REMARK SMILES IDX 14 14
REMARK H PARENT 14 15
REMARK Flexibility Score: inf
ROOT
ATOM      1  C   UNL     1      51.153  14.529  -5.355  1.00  0.00     0.161 A 
ATOM      2  C   UNL     1      50.533  15.792  -5.409  1.00  0.00     0.161 A 
ATOM      3  C   UNL     1      49.323  16.011  -4.740  1.00  0.00     0.098 A 
ATOM      4  C   UNL     1      48.720  14.983  -4.014  1.00  0.00     0.142 A 
ATOM      5  C   UNL     1      49.332  13.715  -3.953  1.00  0.00     0.022 A 
ATOM      6  C   UNL     1      50.544  13.490  -4.621  1.00  0.00     0.062 A 
ATOM      7  C   UNL     1      48.704  12.705  -3.218  1.00  0.00     0.019 A 
ATOM      8  C   UNL     1      47.499  12.978  -2.570  1.00  0.00     0.094 A 
ATOM      9  C   UNL     1      46.949  14.260  -2.675  1.00  0.00     0.336 A 
ATOM     10  O   UNL     1      45.862  14.527  -2.098  1.00  0.00    -0.246 OA
ATOM     11  O   UNL     1      47.569  15.203  -3.382  1.00  0.00    -0.423 OA
ENDROOT
BRANCH   1  12
ATOM     12  O   UNL     1      52.367  14.342  -6.037  1.00  0.00    -0.493 OA
ATOM     13  C   UNL     1      53.084  13.113  -6.089  1.00  0.00     0.278 C 
ENDBRANCH   1  12
BRANCH   2  14
ATOM     14  O   UNL     1      51.104  16.843  -6.125  1.00  0.00    -0.504 OA
ATOM     15  H   UNL     1      51.348  16.761  -7.105  1.00  0.00     0.293 HD
ENDBRANCH   2  14
TORSDOF 2
ENDMDL
MODEL 7
REMARK VINA RESULT:    -4.187      7.371      9.054
REMARK INTER + INTRA:          -4.468
REMARK INTER:                  -4.413
REMARK INTRA:                  -0.056
REMARK UNBOUND:                 0.086
REMARK SMILES COc1cc2ccc(=O)oc2cc1O
REMARK SMILES IDX 3 1 13 2 12 3 11 4 5 5 4 6 6 7 7 8 8 9 9 10 10 11 2 12 1 13
REMARK SMILES IDX 14 14
REMARK H PARENT 14 15
REMARK Flexibility Score: inf
ROOT
ATOM      1  C   UNL     1      47.852  12.892  -2.877  1.00  0.00     0.161 A 
ATOM      2  C   UNL     1      47.482  14.250  -2.829  1.00  0.00     0.161 A 
ATOM      3  C   UNL     1      48.248  15.213  -3.497  1.00  0.00     0.098 A 
ATOM      4  C   UNL     1      49.383  14.839  -4.216  1.00  0.00     0.142 A 
ATOM      5  C   UNL     1      49.763  13.482  -4.272  1.00  0.00     0.022 A 
ATOM      6  C   UNL     1      48.999  12.514  -3.604  1.00  0.00     0.062 A 
ATOM      7  C   UNL     1      50.906  13.138  -5.000  1.00  0.00     0.019 A 
ATOM      8  C   UNL     1      51.632  14.137  -5.647  1.00  0.00     0.094 A 
ATOM      9  C   UNL     1      51.196  15.462  -5.548  1.00  0.00     0.336 A 
ATOM     10  O   UNL     1      51.838  16.380  -6.125  1.00  0.00    -0.246 OA
ATOM     11  O   UNL     1      50.104  15.762  -4.849  1.00  0.00    -0.423 OA
ENDROOT
BRANCH   1  12
ATOM     12  O   UNL     1      47.062  11.952  -2.196  1.00  0.00    -0.493 OA
ATOM     13  C   UNL     1      47.283  11.531  -0.853  1.00  0.00     0.278 C 
ENDBRANCH   1  12
BRANCH   2  14
ATOM     14  O   UNL     1      46.354  14.663  -2.120  1.00  0.00    -0.504 OA
ATOM     15  H   UNL     1      45.415  14.551  -2.484  1.00  0.00     0.293 HD
ENDBRANCH   2  14
TORSDOF 2
ENDMDL
MODEL 8
REMARK VINA RESULT:    -4.138      2.010      4.919
REMARK INTER + INTRA:          -4.415
REMARK INTER:                  -4.350
REMARK INTRA:                  -0.065
REMARK UNBOUND:                 0.086
REMARK SMILES COc1cc2ccc(=O)oc2cc1O
REMARK SMILES IDX 3 1 13 2 12 3 11 4 5 5 4 6 6 7 7 8 8 9 9 10 10 11 2 12 1 13
REMARK SMILES IDX 14 14
REMARK H PARENT 14 15
REMARK Flexibility Score: inf
ROOT
ATOM      1  C   UNL     1      43.706  16.658  -3.867  1.00  0.00     0.161 A 
ATOM      2  C   UNL     1      42.940  16.065  -2.845  1.00  0.00     0.161 A 
ATOM      3  C   UNL     1      42.185  16.863  -1.977  1.00  0.00     0.098 A 
ATOM      4  C   UNL     1      42.183  18.251  -2.115  1.00  0.00     0.142 A 
ATOM      5  C   UNL     1      42.946  18.856  -3.135  1.00  0.00     0.022 A 
ATOM      6  C   UNL     1      43.703  18.061  -4.007  1.00  0.00     0.062 A 
ATOM      7  C   UNL     1      42.923  20.250  -3.248  1.00  0.00     0.019 A 
ATOM      8  C   UNL     1      42.153  20.996  -2.356  1.00  0.00     0.094 A 
ATOM      9  C   UNL     1      41.422  20.328  -1.369  1.00  0.00     0.336 A 
ATOM     10  O   UNL     1      40.721  20.985  -0.554  1.00  0.00    -0.246 OA
ATOM     11  O   UNL     1      41.461  19.001  -1.284  1.00  0.00    -0.423 OA
ENDROOT
BRANCH   1  12
ATOM     12  O   UNL     1      44.451  15.829  -4.721  1.00  0.00    -0.493 OA
ATOM     13  C   UNL     1      45.842  15.560  -4.574  1.00  0.00     0.278 C 
ENDBRANCH   1  12
BRANCH   2  14
ATOM     14  O   UNL     1      42.917  14.681  -2.675  1.00  0.00    -0.504 OA
ATOM     15  H   UNL     1      43.223  14.042  -3.399  1.00  0.00     0.293 HD
ENDBRANCH   2  14
TORSDOF 2
ENDMDL
MODEL 9
REMARK VINA RESULT:    -3.974      7.395      9.309
REMARK INTER + INTRA:          -4.237
REMARK INTER:                  -4.193
REMARK INTRA:                  -0.043
REMARK UNBOUND:                 0.086
REMARK SMILES COc1cc2ccc(=O)oc2cc1O
REMARK SMILES IDX 3 1 13 2 12 3 11 4 5 5 4 6 6 7 7 8 8 9 9 10 10 11 2 12 1 13
REMARK SMILES IDX 14 14
REMARK H PARENT 14 15
REMARK Flexibility Score: inf
ROOT
ATOM      1  C   UNL     1      49.542  15.805  -5.043  1.00  0.00     0.161 A 
ATOM      2  C   UNL     1      50.437  14.719  -4.998  1.00  0.00     0.161 A 
ATOM      3  C   UNL     1      50.138  13.592  -4.223  1.00  0.00     0.098 A 
ATOM      4  C   UNL     1      48.952  13.532  -3.490  1.00  0.00     0.142 A 
ATOM      5  C   UNL     1      48.049  14.614  -3.529  1.00  0.00     0.022 A 
ATOM      6  C   UNL     1      48.344  15.745  -4.302  1.00  0.00     0.062 A 
ATOM      7  C   UNL     1      46.869  14.525  -2.783  1.00  0.00     0.019 A 
ATOM      8  C   UNL     1      46.621  13.378  -2.029  1.00  0.00     0.094 A 
ATOM      9  C   UNL     1      47.563  12.345  -2.038  1.00  0.00     0.336 A 
ATOM     10  O   UNL     1      47.357  11.301  -1.364  1.00  0.00    -0.246 OA
ATOM     11  O   UNL     1      48.677  12.455  -2.757  1.00  0.00    -0.423 OA
ENDROOT
BRANCH   1  12
ATOM     12  O   UNL     1      49.873  16.921  -5.830  1.00  0.00    -0.493 OA
ATOM     13  C   UNL     1      48.984  17.994  -6.124  1.00  0.00     0.278 C 
ENDBRANCH   1  12
BRANCH   2  14
ATOM     14  O   UNL     1      51.632  14.741  -5.716  1.00  0.00    -0.504 OA
ATOM     15  H   UNL     1      52.381  14.081  -5.542  1.00  0.00     0.293 HD
ENDBRANCH   2  14
TORSDOF 2
ENDMDL
