MODEL 1
REMARK VINA RESULT:    -3.099      0.000      0.000
REMARK INTER + INTRA:          -3.894
REMARK INTER:                  -3.823
REMARK INTRA:                  -0.071
REMARK UNBOUND:                -0.071
REMARK SMILES CCCCCC(=O)[O-]
REMARK SMILES IDX 4 1 5 2 6 3 7 4 8 5 3 6 2 7 1 8
REMARK H PARENT
REMARK Flexibility Score: inf
ROOT
ATOM      1  C   UNL     1      45.233 -26.230   1.747  1.00  0.00     0.006 C 
ENDROOT
BRANCH   1   2
ATOM      2  C   UNL     1      45.970 -27.040   2.829  1.00  0.00     0.053 C 
BRANCH   2   3
ATOM      3  C   UNL     1      46.089 -28.492   2.477  1.00  0.00     0.041 C 
ATOM      4  O   UNL     1      46.119 -28.851   1.271  1.00  0.00    -0.550 OA
ATOM      5  O   UNL     1      46.125 -29.453   3.481  1.00  0.00    -0.550 OA
ENDBRANCH   2   3
ENDBRANCH   1   2
BRANCH   1   6
ATOM      6  C   UNL     1      46.106 -25.163   1.058  1.00  0.00     0.000 C 
BRANCH   6   7
ATOM      7  C   UNL     1      45.406 -24.365  -0.055  1.00  0.00    -0.003 C 
ATOM      8  C   UNL     1      45.867 -22.911  -0.130  1.00  0.00     0.004 C 
ENDBRANCH   6   7
ENDBRANCH   1   6
TORSDOF 4
ENDMDL
MODEL 2
REMARK VINA RESULT:    -3.002      3.264      5.062
REMARK INTER + INTRA:          -3.775
REMARK INTER:                  -3.661
REMARK INTRA:                  -0.115
REMARK UNBOUND:                -0.071
REMARK SMILES CCCCCC(=O)[O-]
REMARK SMILES IDX 4 1 5 2 6 3 7 4 8 5 3 6 2 7 1 8
REMARK H PARENT
REMARK Flexibility Score: inf
ROOT
ATOM      1  C   UNL     1      45.142 -23.955  -0.695  1.00  0.00     0.006 C 
ENDROOT
BRANCH   1   2
ATOM      2  C   UNL     1      46.093 -23.633  -1.862  1.00  0.00     0.053 C 
BRANCH   2   3
ATOM      3  C   UNL     1      46.125 -24.721  -2.893  1.00  0.00     0.041 C 
ATOM      4  O   UNL     1      46.114 -24.432  -4.119  1.00  0.00    -0.550 OA
ATOM      5  O   UNL     1      46.124 -26.054  -2.502  1.00  0.00    -0.550 OA
ENDBRANCH   2   3
ENDBRANCH   1   2
BRANCH   1   6
ATOM      6  C   UNL     1      45.860 -24.351   0.609  1.00  0.00     0.000 C 
BRANCH   6   7
ATOM      7  C   UNL     1      45.817 -25.850   0.950  1.00  0.00    -0.003 C 
ATOM      8  C   UNL     1      45.414 -26.124   2.398  1.00  0.00     0.004 C 
ENDBRANCH   6   7
ENDBRANCH   1   6
TORSDOF 4
ENDMDL
MODEL 3
REMARK VINA RESULT:    -2.408      4.159      5.379
REMARK INTER + INTRA:          -3.043
REMARK INTER:                  -2.974
REMARK INTRA:                  -0.068
REMARK UNBOUND:                -0.071
REMARK SMILES CCCCCC(=O)[O-]
REMARK SMILES IDX 4 1 5 2 6 3 7 4 8 5 3 6 2 7 1 8
REMARK H PARENT
REMARK Flexibility Score: inf
ROOT
ATOM      1  C   UNL     1      45.339 -25.024  -2.502  1.00  0.00     0.006 C 
ENDROOT
BRANCH   1   2
ATOM      2  C   UNL     1      45.873 -23.820  -1.705  1.00  0.00     0.053 C 
BRANCH   2   3
ATOM      3  C   UNL     1      45.750 -24.013  -0.224  1.00  0.00     0.041 C 
ATOM      4  O   UNL     1      45.331 -25.107   0.240  1.00  0.00    -0.550 OA
ATOM      5  O   UNL     1      46.057 -22.972   0.644  1.00  0.00    -0.550 OA
ENDBRANCH   2   3
ENDBRANCH   1   2
BRANCH   1   6
ATOM      6  C   UNL     1      46.125 -25.319  -3.795  1.00  0.00     0.000 C 
BRANCH   6   7
ATOM      7  C   UNL     1      46.124 -24.185  -4.833  1.00  0.00    -0.003 C 
ATOM      8  C   UNL     1      45.954 -24.685  -6.266  1.00  0.00     0.004 C 
ENDBRANCH   6   7
ENDBRANCH   1   6
TORSDOF 4
ENDMDL
MODEL 4
REMARK VINA RESULT:    -1.610      2.685      4.741
REMARK INTER + INTRA:          -2.057
REMARK INTER:                  -1.998
REMARK INTRA:                  -0.060
REMARK UNBOUND:                -0.071
REMARK SMILES CCCCCC(=O)[O-]
REMARK SMILES IDX 4 1 5 2 6 3 7 4 8 5 3 6 2 7 1 8
REMARK H PARENT
REMARK Flexibility Score: inf
ROOT
ATOM      1  C   UNL     1      45.121 -26.518   3.111  1.00  0.00     0.006 C 
ENDROOT
BRANCH   1   2
ATOM      2  C   UNL     1      45.372 -26.899   1.641  1.00  0.00     0.053 C 
BRANCH   2   3
ATOM      3  C   UNL     1      45.632 -25.704   0.775  1.00  0.00     0.041 C 
ATOM      4  O   UNL     1      46.064 -25.854  -0.399  1.00  0.00    -0.550 OA
ATOM      5  O   UNL     1      45.440 -24.423   1.277  1.00  0.00    -0.550 OA
ENDBRANCH   2   3
ENDBRANCH   1   2
BRANCH   1   6
ATOM      6  C   UNL     1      46.123 -27.144   4.101  1.00  0.00     0.000 C 
BRANCH   6   7
ATOM      7  C   UNL     1      45.779 -26.952   5.587  1.00  0.00    -0.003 C 
ATOM      8  C   UNL     1      46.115 -28.174   6.442  1.00  0.00     0.004 C 
ENDBRANCH   6   7
ENDBRANCH   1   6
TORSDOF 4
ENDMDL
MODEL 5
REMARK VINA RESULT:    -1.420      3.679      5.163
REMARK INTER + INTRA:          -1.823
REMARK INTER:                  -1.705
REMARK INTRA:                  -0.118
REMARK UNBOUND:                -0.071
REMARK SMILES CCCCCC(=O)[O-]
REMARK SMILES IDX 4 1 5 2 6 3 7 4 8 5 3 6 2 7 1 8
REMARK H PARENT
REMARK Flexibility Score: inf
ROOT
ATOM      1  C   UNL     1      45.160 -25.089   0.669  1.00  0.00     0.006 C 
ENDROOT
BRANCH   1   2
ATOM      2  C   UNL     1      45.834 -23.736   0.959  1.00  0.00     0.053 C 
BRANCH   2   3
ATOM      3  C   UNL     1      45.792 -22.809  -0.219  1.00  0.00     0.041 C 
ATOM      4  O   UNL     1      46.125 -21.602  -0.086  1.00  0.00    -0.550 OA
ATOM      5  O   UNL     1      45.346 -23.268  -1.452  1.00  0.00    -0.550 OA
ENDBRANCH   2   3
ENDBRANCH   1   2
BRANCH   1   6
ATOM      6  C   UNL     1      46.125 -26.290   0.693  1.00  0.00     0.000 C 
BRANCH   6   7
ATOM      7  C   UNL     1      45.863 -27.315   1.809  1.00  0.00    -0.003 C 
ATOM      8  C   UNL     1      45.805 -26.685   3.200  1.00  0.00     0.004 C 
ENDBRANCH   6   7
ENDBRANCH   1   6
TORSDOF 4
ENDMDL
MODEL 6
REMARK VINA RESULT:    -0.842      2.166      4.393
REMARK INTER + INTRA:          -1.110
REMARK INTER:                  -1.381
REMARK INTRA:                   0.271
REMARK UNBOUND:                -0.071
REMARK SMILES CCCCCC(=O)[O-]
REMARK SMILES IDX 4 1 5 2 6 3 7 4 8 5 3 6 2 7 1 8
REMARK H PARENT
REMARK Flexibility Score: inf
ROOT
ATOM      1  C   UNL     1      45.280 -26.682   3.754  1.00  0.00     0.006 C 
ENDROOT
BRANCH   1   2
ATOM      2  C   UNL     1      44.599 -25.967   2.573  1.00  0.00     0.053 C 
BRANCH   2   3
ATOM      3  C   UNL     1      45.535 -25.737   1.425  1.00  0.00     0.041 C 
ATOM      4  O   UNL     1      45.894 -24.567   1.126  1.00  0.00    -0.550 OA
ATOM      5  O   UNL     1      45.977 -26.808   0.659  1.00  0.00    -0.550 OA
ENDBRANCH   2   3
ENDBRANCH   1   2
BRANCH   1   6
ATOM      6  C   UNL     1      46.117 -27.909   3.346  1.00  0.00     0.000 C 
BRANCH   6   7
ATOM      7  C   UNL     1      45.306 -29.171   3.008  1.00  0.00    -0.003 C 
ATOM      8  C   UNL     1      46.124 -30.229   2.270  1.00  0.00     0.004 C 
ENDBRANCH   6   7
ENDBRANCH   1   6
TORSDOF 4
ENDMDL
