MODEL 1
REMARK VINA RESULT:     6.187      0.000      0.000
REMARK INTER + INTRA:          14.956
REMARK INTER:                  16.315
REMARK INTRA:                  -1.359
REMARK UNBOUND:                -1.359
REMARK SMILES CCCCCCCCCCCCCCCCCCCCCCCCCCCCCC(=O)[O-]
REMARK SMILES IDX 16 1 17 2 18 3 19 4 20 5 21 6 22 7 23 8 24 9 25 10 26 11
REMARK SMILES IDX 27 12 28 13 29 14 30 15 31 16 32 17 15 18 14 19 13 20 12 21
REMARK SMILES IDX 11 22 10 23 9 24 8 25 7 26 6 27 5 28 4 29 3 30 2 31 1 32
REMARK H PARENT
REMARK Flexibility Score: inf
ROOT
ATOM      1  C   UNL     1      15.421  26.917   9.841  1.00  0.00     0.000 C 
ENDROOT
BRANCH   1   2
ATOM      2  C   UNL     1      14.876  25.896   8.831  1.00  0.00     0.000 C 
BRANCH   2   3
ATOM      3  C   UNL     1      14.927  26.410   7.383  1.00  0.00     0.000 C 
BRANCH   3   4
ATOM      4  C   UNL     1      15.064  25.272   6.354  1.00  0.00     0.000 C 
BRANCH   4   5
ATOM      5  C   UNL     1      15.542  25.776   4.982  1.00  0.00     0.000 C 
BRANCH   5   6
ATOM      6  C   UNL     1      16.927  26.443   5.051  1.00  0.00     0.000 C 
BRANCH   6   7
ATOM      7  C   UNL     1      17.863  26.017   3.903  1.00  0.00     0.000 C 
BRANCH   7   8
ATOM      8  C   UNL     1      19.371  26.098   4.214  1.00  0.00     0.000 C 
BRANCH   8   9
ATOM      9  C   UNL     1      20.101  24.738   4.237  1.00  0.00     0.000 C 
BRANCH   9  10
ATOM     10  C   UNL     1      21.415  24.743   5.043  1.00  0.00     0.000 C 
BRANCH  10  11
ATOM     11  C   UNL     1      22.357  25.914   4.696  1.00  0.00     0.000 C 
BRANCH  11  12
ATOM     12  C   UNL     1      23.847  25.585   4.912  1.00  0.00     0.000 C 
BRANCH  12  13
ATOM     13  C   UNL     1      24.753  25.977   3.726  1.00  0.00     0.006 C 
BRANCH  13  14
ATOM     14  C   UNL     1      26.242  25.656   3.935  1.00  0.00     0.053 C 
BRANCH  14  15
ATOM     15  C   UNL     1      26.808  24.857   2.802  1.00  0.00     0.041 C 
ATOM     16  O   UNL     1      27.030  23.624   2.943  1.00  0.00    -0.550 OA
ATOM     17  O   UNL     1      27.125  25.479   1.602  1.00  0.00    -0.550 OA
ENDBRANCH  14  15
ENDBRANCH  13  14
ENDBRANCH  12  13
ENDBRANCH  11  12
ENDBRANCH  10  11
ENDBRANCH   9  10
ENDBRANCH   8   9
ENDBRANCH   7   8
ENDBRANCH   6   7
ENDBRANCH   5   6
ENDBRANCH   4   5
ENDBRANCH   3   4
ENDBRANCH   2   3
ENDBRANCH   1   2
BRANCH   1  18
ATOM     18  C   UNL     1      14.989  26.563  11.273  1.00  0.00     0.000 C 
BRANCH  18  19
ATOM     19  C   UNL     1      16.134  25.952  12.097  1.00  0.00     0.000 C 
BRANCH  19  20
ATOM     20  C   UNL     1      16.563  26.848  13.267  1.00  0.00     0.000 C 
BRANCH  20  21
ATOM     21  C   UNL     1      17.988  27.379  13.057  1.00  0.00     0.000 C 
BRANCH  21  22
ATOM     22  C   UNL     1      18.663  26.795  11.803  1.00  0.00     0.000 C 
BRANCH  22  23
ATOM     23  C   UNL     1      19.680  27.750  11.143  1.00  0.00     0.000 C 
BRANCH  23  24
ATOM     24  C   UNL     1      21.074  27.665  11.788  1.00  0.00    -0.000 C 
BRANCH  24  25
ATOM     25  C   UNL     1      22.181  28.182  10.844  1.00  0.00    -0.000 C 
BRANCH  25  26
ATOM     26  C   UNL     1      23.572  28.232  11.496  1.00  0.00    -0.000 C 
BRANCH  26  27
ATOM     27  C   UNL     1      24.016  29.658  11.850  1.00  0.00    -0.000 C 
BRANCH  27  28
ATOM     28  C   UNL     1      25.549  29.761  11.908  1.00  0.00    -0.000 C 
BRANCH  28  29
ATOM     29  C   UNL     1      26.188  29.833  10.506  1.00  0.00    -0.000 C 
BRANCH  29  30
ATOM     30  C   UNL     1      27.701  30.108  10.526  1.00  0.00    -0.000 C 
BRANCH  30  31
ATOM     31  C   UNL     1      28.415  29.623   9.257  1.00  0.00    -0.003 C 
ATOM     32  C   UNL     1      28.706  28.127   9.325  1.00  0.00     0.004 C 
ENDBRANCH  30  31
ENDBRANCH  29  30
ENDBRANCH  28  29
ENDBRANCH  27  28
ENDBRANCH  26  27
ENDBRANCH  25  26
ENDBRANCH  24  25
ENDBRANCH  23  24
ENDBRANCH  22  23
ENDBRANCH  21  22
ENDBRANCH  20  21
ENDBRANCH  19  20
ENDBRANCH  18  19
ENDBRANCH   1  18
TORSDOF 28
ENDMDL
MODEL 2
REMARK VINA RESULT:     6.517      2.364      7.466
REMARK INTER + INTRA:          15.827
REMARK INTER:                  17.184
REMARK INTRA:                  -1.358
REMARK UNBOUND:                -1.359
REMARK SMILES CCCCCCCCCCCCCCCCCCCCCCCCCCCCCC(=O)[O-]
REMARK SMILES IDX 16 1 17 2 18 3 19 4 20 5 21 6 22 7 23 8 24 9 25 10 26 11
REMARK SMILES IDX 27 12 28 13 29 14 30 15 31 16 32 17 15 18 14 19 13 20 12 21
REMARK SMILES IDX 11 22 10 23 9 24 8 25 7 26 6 27 5 28 4 29 3 30 2 31 1 32
REMARK H PARENT
REMARK Flexibility Score: inf
ROOT
ATOM      1  C   UNL     1      14.904  25.606   9.669  1.00  0.00     0.000 C 
ENDROOT
BRANCH   1   2
ATOM      2  C   UNL     1      14.877  26.657  10.789  1.00  0.00     0.000 C 
BRANCH   2   3
ATOM      3  C   UNL     1      15.069  26.041  12.184  1.00  0.00     0.000 C 
BRANCH   3   4
ATOM      4  C   UNL     1      16.387  26.479  12.850  1.00  0.00     0.000 C 
BRANCH   4   5
ATOM      5  C   UNL     1      17.216  27.413  11.952  1.00  0.00     0.000 C 
BRANCH   5   6
ATOM      6  C   UNL     1      18.495  26.739  11.426  1.00  0.00     0.000 C 
BRANCH   6   7
ATOM      7  C   UNL     1      19.773  27.227  12.135  1.00  0.00     0.000 C 
BRANCH   7   8
ATOM      8  C   UNL     1      21.011  27.390  11.231  1.00  0.00     0.000 C 
BRANCH   8   9
ATOM      9  C   UNL     1      21.719  28.758  11.342  1.00  0.00     0.000 C 
BRANCH   9  10
ATOM     10  C   UNL     1      23.086  28.702  12.054  1.00  0.00     0.000 C 
BRANCH  10  11
ATOM     11  C   UNL     1      24.261  29.204  11.188  1.00  0.00     0.000 C 
BRANCH  11  12
ATOM     12  C   UNL     1      25.196  30.178  11.932  1.00  0.00     0.000 C 
BRANCH  12  13
ATOM     13  C   UNL     1      26.645  30.182  11.402  1.00  0.00     0.006 C 
BRANCH  13  14
ATOM     14  C   UNL     1      26.847  29.376  10.109  1.00  0.00     0.053 C 
BRANCH  14  15
ATOM     15  C   UNL     1      28.260  29.449   9.617  1.00  0.00     0.041 C 
ATOM     16  O   UNL     1      28.864  30.554   9.580  1.00  0.00    -0.550 OA
ATOM     17  O   UNL     1      28.899  28.302   9.165  1.00  0.00    -0.550 OA
ENDBRANCH  14  15
ENDBRANCH  13  14
ENDBRANCH  12  13
ENDBRANCH  11  12
ENDBRANCH  10  11
ENDBRANCH   9  10
ENDBRANCH   8   9
ENDBRANCH   7   8
ENDBRANCH   6   7
ENDBRANCH   5   6
ENDBRANCH   4   5
ENDBRANCH   3   4
ENDBRANCH   2   3
ENDBRANCH   1   2
BRANCH   1  18
ATOM     18  C   UNL     1      14.888  26.273   8.284  1.00  0.00     0.000 C 
BRANCH  18  19
ATOM     19  C   UNL     1      14.888  25.247   7.139  1.00  0.00     0.000 C 
BRANCH  19  20
ATOM     20  C   UNL     1      15.171  25.888   5.772  1.00  0.00     0.000 C 
BRANCH  20  21
ATOM     21  C   UNL     1      16.618  26.394   5.693  1.00  0.00     0.000 C 
BRANCH  21  22
ATOM     22  C   UNL     1      17.231  26.228   4.291  1.00  0.00     0.000 C 
BRANCH  22  23
ATOM     23  C   UNL     1      18.773  26.174   4.291  1.00  0.00     0.000 C 
BRANCH  23  24
ATOM     24  C   UNL     1      19.317  24.820   3.803  1.00  0.00    -0.000 C 
BRANCH  24  25
ATOM     25  C   UNL     1      20.710  24.509   4.393  1.00  0.00    -0.000 C 
BRANCH  25  26
ATOM     26  C   UNL     1      21.358  25.708   5.104  1.00  0.00    -0.000 C 
BRANCH  26  27
ATOM     27  C   UNL     1      22.880  25.567   5.246  1.00  0.00    -0.000 C 
BRANCH  27  28
ATOM     28  C   UNL     1      23.612  26.316   4.120  1.00  0.00    -0.000 C 
BRANCH  28  29
ATOM     29  C   UNL     1      25.128  26.030   4.111  1.00  0.00    -0.000 C 
BRANCH  29  30
ATOM     30  C   UNL     1      25.651  25.491   2.768  1.00  0.00    -0.000 C 
BRANCH  30  31
ATOM     31  C   UNL     1      27.179  25.365   2.727  1.00  0.00    -0.003 C 
ATOM     32  C   UNL     1      27.608  23.924   2.468  1.00  0.00     0.004 C 
ENDBRANCH  30  31
ENDBRANCH  29  30
ENDBRANCH  28  29
ENDBRANCH  27  28
ENDBRANCH  26  27
ENDBRANCH  25  26
ENDBRANCH  24  25
ENDBRANCH  23  24
ENDBRANCH  22  23
ENDBRANCH  21  22
ENDBRANCH  20  21
ENDBRANCH  19  20
ENDBRANCH  18  19
ENDBRANCH   1  18
TORSDOF 28
ENDMDL
MODEL 3
REMARK VINA RESULT:     8.978      2.499      7.602
REMARK INTER + INTRA:          22.314
REMARK INTER:                  23.697
REMARK INTRA:                  -1.383
REMARK UNBOUND:                -1.359
REMARK SMILES CCCCCCCCCCCCCCCCCCCCCCCCCCCCCC(=O)[O-]
REMARK SMILES IDX 16 1 17 2 18 3 19 4 20 5 21 6 22 7 23 8 24 9 25 10 26 11
REMARK SMILES IDX 27 12 28 13 29 14 30 15 31 16 32 17 15 18 14 19 13 20 12 21
REMARK SMILES IDX 11 22 10 23 9 24 8 25 7 26 6 27 5 28 4 29 3 30 2 31 1 32
REMARK H PARENT
REMARK Flexibility Score: inf
ROOT
ATOM      1  C   UNL     1      16.004  26.373  10.567  1.00  0.00     0.000 C 
ENDROOT
BRANCH   1   2
ATOM      2  C   UNL     1      15.627  26.900  11.960  1.00  0.00     0.000 C 
BRANCH   2   3
ATOM      3  C   UNL     1      16.140  25.997  13.094  1.00  0.00     0.000 C 
BRANCH   3   4
ATOM      4  C   UNL     1      17.357  26.595  13.824  1.00  0.00     0.000 C 
BRANCH   4   5
ATOM      5  C   UNL     1      18.193  27.513  12.916  1.00  0.00     0.000 C 
BRANCH   5   6
ATOM      6  C   UNL     1      19.111  26.722  11.968  1.00  0.00     0.000 C 
BRANCH   6   7
ATOM      7  C   UNL     1      20.064  27.622  11.157  1.00  0.00     0.000 C 
BRANCH   7   8
ATOM      8  C   UNL     1      21.531  27.628  11.630  1.00  0.00     0.000 C 
BRANCH   8   9
ATOM      9  C   UNL     1      22.308  28.925  11.315  1.00  0.00     0.000 C 
BRANCH   9  10
ATOM     10  C   UNL     1      23.781  28.902  11.771  1.00  0.00     0.000 C 
BRANCH  10  11
ATOM     11  C   UNL     1      24.315  30.276  12.228  1.00  0.00     0.000 C 
BRANCH  11  12
ATOM     12  C   UNL     1      25.746  30.569  11.738  1.00  0.00     0.000 C 
BRANCH  12  13
ATOM     13  C   UNL     1      26.352  29.447  10.868  1.00  0.00     0.006 C 
BRANCH  13  14
ATOM     14  C   UNL     1      27.887  29.464  10.795  1.00  0.00     0.053 C 
BRANCH  14  15
ATOM     15  C   UNL     1      28.382  29.438   9.382  1.00  0.00     0.041 C 
ATOM     16  O   UNL     1      29.064  28.464   8.965  1.00  0.00    -0.550 OA
ATOM     17  O   UNL     1      28.123  30.508   8.535  1.00  0.00    -0.550 OA
ENDBRANCH  14  15
ENDBRANCH  13  14
ENDBRANCH  12  13
ENDBRANCH  11  12
ENDBRANCH  10  11
ENDBRANCH   9  10
ENDBRANCH   8   9
ENDBRANCH   7   8
ENDBRANCH   6   7
ENDBRANCH   5   6
ENDBRANCH   4   5
ENDBRANCH   3   4
ENDBRANCH   2   3
ENDBRANCH   1   2
BRANCH   1  18
ATOM     18  C   UNL     1      14.876  26.627   9.556  1.00  0.00     0.000 C 
BRANCH  18  19
ATOM     19  C   UNL     1      14.875  25.605   8.408  1.00  0.00     0.000 C 
BRANCH  19  20
ATOM     20  C   UNL     1      14.895  26.270   7.024  1.00  0.00     0.000 C 
BRANCH  20  21
ATOM     21  C   UNL     1      15.338  25.273   5.943  1.00  0.00     0.000 C 
BRANCH  21  22
ATOM     22  C   UNL     1      15.812  25.966   4.653  1.00  0.00     0.000 C 
BRANCH  22  23
ATOM     23  C   UNL     1      16.691  25.070   3.755  1.00  0.00     0.000 C 
BRANCH  23  24
ATOM     24  C   UNL     1      17.890  25.828   3.159  1.00  0.00    -0.000 C 
BRANCH  24  25
ATOM     25  C   UNL     1      18.564  26.753   4.195  1.00  0.00    -0.000 C 
BRANCH  25  26
ATOM     26  C   UNL     1      19.989  26.319   4.573  1.00  0.00    -0.000 C 
BRANCH  26  27
ATOM     27  C   UNL     1      20.324  24.895   4.108  1.00  0.00    -0.000 C 
BRANCH  27  28
ATOM     28  C   UNL     1      21.227  24.179   5.125  1.00  0.00    -0.000 C 
BRANCH  28  29
ATOM     29  C   UNL     1      22.088  25.164   5.943  1.00  0.00    -0.000 C 
BRANCH  29  30
ATOM     30  C   UNL     1      23.443  24.584   6.386  1.00  0.00    -0.000 C 
BRANCH  30  31
ATOM     31  C   UNL     1      23.667  24.676   7.901  1.00  0.00    -0.003 C 
ATOM     32  C   UNL     1      25.011  24.072   8.298  1.00  0.00     0.004 C 
ENDBRANCH  30  31
ENDBRANCH  29  30
ENDBRANCH  28  29
ENDBRANCH  27  28
ENDBRANCH  26  27
ENDBRANCH  25  26
ENDBRANCH  24  25
ENDBRANCH  23  24
ENDBRANCH  22  23
ENDBRANCH  21  22
ENDBRANCH  20  21
ENDBRANCH  19  20
ENDBRANCH  18  19
ENDBRANCH   1  18
TORSDOF 28
ENDMDL
