MODEL 1
REMARK VINA RESULT:    -4.168      0.000      0.000
REMARK INTER + INTRA:          -4.624
REMARK INTER:                  -4.411
REMARK INTRA:                  -0.213
REMARK UNBOUND:                -0.213
REMARK SMILES C=C(C)[C@@H]1CC=C(C)C(=O)C1
REMARK SMILES IDX 8 1 7 2 6 3 5 4 4 5 11 6 9 7 10 8 2 9 1 10 3 11
REMARK H PARENT
REMARK Flexibility Score: inf
ROOT
ATOM      1  C   UNL     1      17.020 -49.898   0.709  1.00  0.00     0.048 C 
ATOM      2  C   UNL     1      17.590 -49.125  -0.448  1.00  0.00    -0.012 C 
ATOM      3  C   UNL     1      18.919 -49.084  -0.629  1.00  0.00    -0.019 C 
ATOM      4  C   UNL     1      19.559 -48.303  -1.745  1.00  0.00     0.036 C 
ATOM      5  C   UNL     1      18.668 -48.177  -3.000  1.00  0.00     0.025 C 
ATOM      6  C   UNL     1      17.223 -47.777  -2.638  1.00  0.00     0.089 C 
ATOM      7  C   UNL     1      16.682 -48.544  -1.464  1.00  0.00     0.158 C 
ATOM      8  O   UNL     1      15.433 -48.656  -1.332  1.00  0.00    -0.295 OA
ENDROOT
BRANCH   5   9
ATOM      9  C   UNL     1      18.741 -49.408  -3.906  1.00  0.00    -0.077 C 
ATOM     10  C   UNL     1      19.871 -50.120  -4.059  1.00  0.00     0.008 C 
ATOM     11  C   UNL     1      17.515 -49.855  -4.662  1.00  0.00     0.039 C 
ENDBRANCH   5   9
TORSDOF 1
ENDMDL
MODEL 2
REMARK VINA RESULT:    -3.967      1.902      4.019
REMARK INTER + INTRA:          -4.412
REMARK INTER:                  -4.208
REMARK INTRA:                  -0.205
REMARK UNBOUND:                -0.213
REMARK SMILES C=C(C)[C@@H]1CC=C(C)C(=O)C1
REMARK SMILES IDX 8 1 7 2 6 3 5 4 4 5 11 6 9 7 10 8 2 9 1 10 3 11
REMARK H PARENT
REMARK Flexibility Score: inf
ROOT
ATOM      1  C   UNL     1      17.164 -50.123  -5.728  1.00  0.00     0.048 C 
ATOM      2  C   UNL     1      17.379 -49.215  -4.549  1.00  0.00    -0.012 C 
ATOM      3  C   UNL     1      16.320 -48.745  -3.870  1.00  0.00    -0.019 C 
ATOM      4  C   UNL     1      16.461 -47.806  -2.702  1.00  0.00     0.036 C 
ATOM      5  C   UNL     1      17.780 -47.986  -1.921  1.00  0.00     0.025 C 
ATOM      6  C   UNL     1      18.997 -48.075  -2.865  1.00  0.00     0.089 C 
ATOM      7  C   UNL     1      18.752 -48.968  -4.049  1.00  0.00     0.158 C 
ATOM      8  O   UNL     1      19.740 -49.479  -4.643  1.00  0.00    -0.295 OA
ENDROOT
BRANCH   5   9
ATOM      9  C   UNL     1      17.720 -49.133  -0.910  1.00  0.00    -0.077 C 
ATOM     10  C   UNL     1      18.774 -49.930  -0.666  1.00  0.00     0.008 C 
ATOM     11  C   UNL     1      16.444 -49.395  -0.149  1.00  0.00     0.039 C 
ENDBRANCH   5   9
TORSDOF 1
ENDMDL
MODEL 3
REMARK VINA RESULT:    -3.637     11.031     12.532
REMARK INTER + INTRA:          -4.063
REMARK INTER:                  -3.843
REMARK INTRA:                  -0.220
REMARK UNBOUND:                -0.213
REMARK SMILES C=C(C)[C@@H]1CC=C(C)C(=O)C1
REMARK SMILES IDX 8 1 7 2 6 3 5 4 4 5 11 6 9 7 10 8 2 9 1 10 3 11
REMARK H PARENT
REMARK Flexibility Score: inf
ROOT
ATOM      1  C   UNL     1      27.883 -43.341 -11.745  1.00  0.00     0.048 C 
ATOM      2  C   UNL     1      26.825 -43.932 -10.855  1.00  0.00    -0.012 C 
ATOM      3  C   UNL     1      26.449 -45.209 -11.027  1.00  0.00    -0.019 C 
ATOM      4  C   UNL     1      25.374 -45.854 -10.194  1.00  0.00     0.036 C 
ATOM      5  C   UNL     1      25.259 -45.267  -8.771  1.00  0.00     0.025 C 
ATOM      6  C   UNL     1      25.266 -43.724  -8.787  1.00  0.00     0.089 C 
ATOM      7  C   UNL     1      26.314 -43.155  -9.701  1.00  0.00     0.158 C 
ATOM      8  O   UNL     1      26.731 -41.983  -9.496  1.00  0.00    -0.295 OA
ENDROOT
BRANCH   5   9
ATOM      9  C   UNL     1      26.279 -45.863  -7.799  1.00  0.00    -0.077 C 
ATOM     10  C   UNL     1      26.786 -45.159  -6.772  1.00  0.00     0.008 C 
ATOM     11  C   UNL     1      26.745 -47.285  -7.980  1.00  0.00     0.039 C 
ENDBRANCH   5   9
TORSDOF 1
ENDMDL
MODEL 4
REMARK VINA RESULT:    -3.565      5.064      7.023
REMARK INTER + INTRA:          -3.987
REMARK INTER:                  -3.770
REMARK INTRA:                  -0.217
REMARK UNBOUND:                -0.213
REMARK SMILES C=C(C)[C@@H]1CC=C(C)C(=O)C1
REMARK SMILES IDX 8 1 7 2 6 3 5 4 4 5 11 6 9 7 10 8 2 9 1 10 3 11
REMARK H PARENT
REMARK Flexibility Score: inf
ROOT
ATOM      1  C   UNL     1      15.562 -48.665  -8.368  1.00  0.00     0.048 C 
ATOM      2  C   UNL     1      14.801 -47.976  -7.269  1.00  0.00    -0.012 C 
ATOM      3  C   UNL     1      13.741 -47.210  -7.573  1.00  0.00    -0.019 C 
ATOM      4  C   UNL     1      12.955 -46.467  -6.527  1.00  0.00     0.036 C 
ATOM      5  C   UNL     1      12.959 -47.156  -5.146  1.00  0.00     0.025 C 
ATOM      6  C   UNL     1      14.377 -47.603  -4.733  1.00  0.00     0.089 C 
ATOM      7  C   UNL     1      15.128 -48.266  -5.853  1.00  0.00     0.158 C 
ATOM      8  O   UNL     1      16.074 -49.051  -5.572  1.00  0.00    -0.295 OA
ENDROOT
BRANCH   5   9
ATOM      9  C   UNL     1      11.922 -48.274  -5.037  1.00  0.00    -0.077 C 
ATOM     10  C   UNL     1      12.129 -49.375  -4.293  1.00  0.00     0.008 C 
ATOM     11  C   UNL     1      10.615 -48.159  -5.780  1.00  0.00     0.039 C 
ENDBRANCH   5   9
TORSDOF 1
ENDMDL
MODEL 5
REMARK VINA RESULT:    -3.563     19.945     21.206
REMARK INTER + INTRA:          -3.984
REMARK INTER:                  -4.067
REMARK INTRA:                   0.083
REMARK UNBOUND:                -0.213
REMARK SMILES C=C(C)[C@@H]1CC=C(C)C(=O)C1
REMARK SMILES IDX 8 1 7 2 6 3 5 4 4 5 11 6 9 7 10 8 2 9 1 10 3 11
REMARK H PARENT
REMARK Flexibility Score: inf
ROOT
ATOM      1  C   UNL     1      24.415 -33.336 -13.602  1.00  0.00     0.048 C 
ATOM      2  C   UNL     1      24.100 -32.369 -12.494  1.00  0.00    -0.012 C 
ATOM      3  C   UNL     1      23.525 -32.815 -11.366  1.00  0.00    -0.019 C 
ATOM      4  C   UNL     1      23.154 -31.898 -10.232  1.00  0.00     0.036 C 
ATOM      5  C   UNL     1      24.061 -30.654 -10.121  1.00  0.00     0.025 C 
ATOM      6  C   UNL     1      24.276 -29.979 -11.491  1.00  0.00     0.089 C 
ATOM      7  C   UNL     1      24.564 -30.965 -12.589  1.00  0.00     0.158 C 
ATOM      8  O   UNL     1      25.177 -30.570 -13.617  1.00  0.00    -0.295 OA
ENDROOT
BRANCH   5   9
ATOM      9  C   UNL     1      25.368 -30.936  -9.379  1.00  0.00    -0.077 C 
ATOM     10  C   UNL     1      25.460 -30.878  -8.039  1.00  0.00     0.008 C 
ATOM     11  C   UNL     1      26.609 -31.295 -10.158  1.00  0.00     0.039 C 
ENDBRANCH   5   9
TORSDOF 1
ENDMDL
MODEL 6
REMARK VINA RESULT:    -3.562     20.994     22.143
REMARK INTER + INTRA:          -3.983
REMARK INTER:                  -3.802
REMARK INTRA:                  -0.181
REMARK UNBOUND:                -0.213
REMARK SMILES C=C(C)[C@@H]1CC=C(C)C(=O)C1
REMARK SMILES IDX 8 1 7 2 6 3 5 4 4 5 11 6 9 7 10 8 2 9 1 10 3 11
REMARK H PARENT
REMARK Flexibility Score: inf
ROOT
ATOM      1  C   UNL     1      24.139 -34.778 -15.487  1.00  0.00     0.048 C 
ATOM      2  C   UNL     1      25.636 -34.867 -15.370  1.00  0.00    -0.012 C 
ATOM      3  C   UNL     1      26.249 -36.045 -15.565  1.00  0.00    -0.019 C 
ATOM      4  C   UNL     1      27.739 -36.212 -15.431  1.00  0.00     0.036 C 
ATOM      5  C   UNL     1      28.537 -34.934 -15.768  1.00  0.00     0.025 C 
ATOM      6  C   UNL     1      27.934 -33.688 -15.087  1.00  0.00     0.089 C 
ATOM      7  C   UNL     1      26.436 -33.632 -15.194  1.00  0.00     0.158 C 
ATOM      8  O   UNL     1      25.858 -32.515 -15.093  1.00  0.00    -0.295 OA
ENDROOT
BRANCH   5   9
ATOM      9  C   UNL     1      28.757 -34.749 -17.270  1.00  0.00    -0.077 C 
ATOM     10  C   UNL     1      28.635 -33.553 -17.871  1.00  0.00     0.008 C 
ATOM     11  C   UNL     1      29.125 -35.937 -18.125  1.00  0.00     0.039 C 
ENDBRANCH   5   9
TORSDOF 1
ENDMDL
MODEL 7
REMARK VINA RESULT:    -3.490     10.801     11.927
REMARK INTER + INTRA:          -3.907
REMARK INTER:                  -3.689
REMARK INTRA:                  -0.217
REMARK UNBOUND:                -0.213
REMARK SMILES C=C(C)[C@@H]1CC=C(C)C(=O)C1
REMARK SMILES IDX 8 1 7 2 6 3 5 4 4 5 11 6 9 7 10 8 2 9 1 10 3 11
REMARK H PARENT
REMARK Flexibility Score: inf
ROOT
ATOM      1  C   UNL     1      28.395 -46.671  -6.892  1.00  0.00     0.048 C 
ATOM      2  C   UNL     1      27.195 -46.090  -7.588  1.00  0.00    -0.012 C 
ATOM      3  C   UNL     1      26.562 -45.034  -7.051  1.00  0.00    -0.019 C 
ATOM      4  C   UNL     1      25.337 -44.424  -7.676  1.00  0.00     0.036 C 
ATOM      5  C   UNL     1      25.286 -44.575  -9.211  1.00  0.00     0.025 C 
ATOM      6  C   UNL     1      25.626 -46.013  -9.656  1.00  0.00     0.089 C 
ATOM      7  C   UNL     1      26.812 -46.583  -8.931  1.00  0.00     0.158 C 
ATOM      8  O   UNL     1      27.461 -47.522  -9.467  1.00  0.00    -0.295 OA
ENDROOT
BRANCH   5   9
ATOM      9  C   UNL     1      26.109 -43.511  -9.941  1.00  0.00    -0.077 C 
ATOM     10  C   UNL     1      26.276 -42.271  -9.449  1.00  0.00     0.008 C 
ATOM     11  C   UNL     1      26.765 -43.844 -11.258  1.00  0.00     0.039 C 
ENDBRANCH   5   9
TORSDOF 1
ENDMDL
MODEL 8
REMARK VINA RESULT:    -3.452     20.226     21.545
REMARK INTER + INTRA:          -3.867
REMARK INTER:                  -3.645
REMARK INTRA:                  -0.222
REMARK UNBOUND:                -0.213
REMARK SMILES C=C(C)[C@@H]1CC=C(C)C(=O)C1
REMARK SMILES IDX 8 1 7 2 6 3 5 4 4 5 11 6 9 7 10 8 2 9 1 10 3 11
REMARK H PARENT
REMARK Flexibility Score: inf
ROOT
ATOM      1  C   UNL     1      25.830 -34.748 -15.123  1.00  0.00     0.048 C 
ATOM      2  C   UNL     1      25.367 -33.465 -14.488  1.00  0.00    -0.012 C 
ATOM      3  C   UNL     1      24.081 -33.328 -14.129  1.00  0.00    -0.019 C 
ATOM      4  C   UNL     1      23.543 -32.062 -13.519  1.00  0.00     0.036 C 
ATOM      5  C   UNL     1      24.594 -31.271 -12.711  1.00  0.00     0.025 C 
ATOM      6  C   UNL     1      25.925 -31.137 -13.478  1.00  0.00     0.089 C 
ATOM      7  C   UNL     1      26.357 -32.424 -14.125  1.00  0.00     0.158 C 
ATOM      8  O   UNL     1      27.577 -32.593 -14.392  1.00  0.00    -0.295 OA
ENDROOT
BRANCH   5   9
ATOM      9  C   UNL     1      24.772 -31.802 -11.287  1.00  0.00    -0.077 C 
ATOM     10  C   UNL     1      25.934 -31.693 -10.621  1.00  0.00     0.008 C 
ATOM     11  C   UNL     1      23.617 -32.476 -10.589  1.00  0.00     0.039 C 
ENDBRANCH   5   9
TORSDOF 1
ENDMDL
MODEL 9
REMARK VINA RESULT:    -1.328      4.308      5.803
REMARK INTER + INTRA:          -1.618
REMARK INTER:                  -1.400
REMARK INTRA:                  -0.219
REMARK UNBOUND:                -0.213
REMARK SMILES C=C(C)[C@@H]1CC=C(C)C(=O)C1
REMARK SMILES IDX 8 1 7 2 6 3 5 4 4 5 11 6 9 7 10 8 2 9 1 10 3 11
REMARK H PARENT
REMARK Flexibility Score: inf
ROOT
ATOM      1  C   UNL     1      16.062 -48.760  -3.378  1.00  0.00     0.048 C 
ATOM      2  C   UNL     1      15.330 -48.268  -4.597  1.00  0.00    -0.012 C 
ATOM      3  C   UNL     1      15.690 -48.709  -5.812  1.00  0.00    -0.019 C 
ATOM      4  C   UNL     1      15.023 -48.234  -7.074  1.00  0.00     0.036 C 
ATOM      5  C   UNL     1      13.548 -47.825  -6.877  1.00  0.00     0.025 C 
ATOM      6  C   UNL     1      13.364 -46.925  -5.637  1.00  0.00     0.089 C 
ATOM      7  C   UNL     1      14.124 -47.422  -4.439  1.00  0.00     0.158 C 
ATOM      8  O   UNL     1      13.742 -47.076  -3.288  1.00  0.00    -0.295 OA
ENDROOT
BRANCH   5   9
ATOM      9  C   UNL     1      12.592 -49.019  -6.899  1.00  0.00    -0.077 C 
ATOM     10  C   UNL     1      12.843 -50.125  -7.621  1.00  0.00     0.008 C 
ATOM     11  C   UNL     1      11.320 -48.975  -6.091  1.00  0.00     0.039 C 
ENDBRANCH   5   9
TORSDOF 1
ENDMDL
