MODEL 1
REMARK VINA RESULT:    -3.677      0.000      0.000
REMARK INTER + INTRA:          -4.059
REMARK INTER:                  -3.999
REMARK INTRA:                  -0.060
REMARK UNBOUND:                -0.060
REMARK SMILES CC1(C)[C@@H]2CC=C(CO)[C@H]1C2
REMARK SMILES IDX 8 1 7 2 1 3 2 4 4 5 3 6 10 7 5 8 11 9 6 10 9 11
REMARK H PARENT 9 12
REMARK Flexibility Score: inf
ROOT
ATOM      1  C   UNL     1      14.079  36.204  69.000  1.00  0.00     0.187 C 
ENDROOT
BRANCH   1   2
ATOM      2  C   UNL     1      12.773  36.526  68.330  1.00  0.00    -0.045 C 
ATOM      3  C   UNL     1      11.388  39.078  68.899  1.00  0.00     0.012 C 
ATOM      4  C   UNL     1      11.574  38.557  67.446  1.00  0.00    -0.026 C 
ATOM      5  C   UNL     1      10.607  37.462  66.917  1.00  0.00    -0.000 C 
ATOM      6  C   UNL     1      11.650  39.780  66.497  1.00  0.00     0.012 C 
ATOM      7  C   UNL     1      12.703  37.529  67.170  1.00  0.00     0.023 C 
ATOM      8  C   UNL     1      10.287  36.424  68.048  1.00  0.00     0.031 C 
ATOM      9  C   UNL     1      11.787  36.865  66.124  1.00  0.00     0.013 C 
ATOM     10  C   UNL     1      11.590  35.979  68.741  1.00  0.00    -0.025 C 
ENDBRANCH   1   2
BRANCH   1  11
ATOM     11  O   UNL     1      14.993  37.247  68.798  1.00  0.00    -0.392 OA
ATOM     12  H   UNL     1      15.515  37.011  67.987  1.00  0.00     0.211 HD
ENDBRANCH   1  11
TORSDOF 2
ENDMDL
MODEL 2
REMARK VINA RESULT:    -3.413      3.159      4.916
REMARK INTER + INTRA:          -3.772
REMARK INTER:                  -3.738
REMARK INTRA:                  -0.034
REMARK UNBOUND:                -0.060
REMARK SMILES CC1(C)[C@@H]2CC=C(CO)[C@H]1C2
REMARK SMILES IDX 8 1 7 2 1 3 2 4 4 5 3 6 10 7 5 8 11 9 6 10 9 11
REMARK H PARENT 9 12
REMARK Flexibility Score: inf
ROOT
ATOM      1  C   UNL     1      11.442  39.339  68.244  1.00  0.00     0.187 C 
ENDROOT
BRANCH   1   2
ATOM      2  C   UNL     1      11.180  40.669  67.595  1.00  0.00    -0.045 C 
ATOM      3  C   UNL     1       9.904  42.856  69.125  1.00  0.00     0.012 C 
ATOM      4  C   UNL     1      11.165  43.101  68.251  1.00  0.00    -0.026 C 
ATOM      5  C   UNL     1      10.988  43.268  66.716  1.00  0.00    -0.000 C 
ATOM      6  C   UNL     1      11.973  44.266  68.877  1.00  0.00     0.012 C 
ATOM      7  C   UNL     1      12.065  41.887  67.897  1.00  0.00     0.023 C 
ATOM      8  C   UNL     1       9.889  42.285  66.184  1.00  0.00     0.031 C 
ATOM      9  C   UNL     1      12.332  42.535  66.525  1.00  0.00     0.013 C 
ATOM     10  C   UNL     1      10.129  40.869  66.744  1.00  0.00    -0.025 C 
ENDBRANCH   1   2
BRANCH   1  11
ATOM     11  O   UNL     1      12.462  38.664  67.559  1.00  0.00    -0.392 OA
ATOM     12  H   UNL     1      12.163  37.721  67.466  1.00  0.00     0.211 HD
ENDBRANCH   1  11
TORSDOF 2
ENDMDL
MODEL 3
REMARK VINA RESULT:    -2.929      1.075      2.127
REMARK INTER + INTRA:          -3.246
REMARK INTER:                  -3.217
REMARK INTRA:                  -0.029
REMARK UNBOUND:                -0.060
REMARK SMILES CC1(C)[C@@H]2CC=C(CO)[C@H]1C2
REMARK SMILES IDX 8 1 7 2 1 3 2 4 4 5 3 6 10 7 5 8 11 9 6 10 9 11
REMARK H PARENT 9 12
REMARK Flexibility Score: inf
ROOT
ATOM      1  C   UNL     1      13.485  36.474  68.313  1.00  0.00     0.187 C 
ENDROOT
BRANCH   1   2
ATOM      2  C   UNL     1      12.313  37.415  68.308  1.00  0.00    -0.045 C 
ATOM      3  C   UNL     1      12.021  39.434  66.166  1.00  0.00     0.012 C 
ATOM      4  C   UNL     1      10.827  38.547  66.618  1.00  0.00    -0.026 C 
ATOM      5  C   UNL     1      10.056  38.936  67.910  1.00  0.00    -0.000 C 
ATOM      6  C   UNL     1       9.880  38.351  65.407  1.00  0.00     0.012 C 
ATOM      7  C   UNL     1      11.136  37.210  67.344  1.00  0.00     0.023 C 
ATOM      8  C   UNL     1      11.051  39.464  69.001  1.00  0.00     0.031 C 
ATOM      9  C   UNL     1       9.875  37.432  68.203  1.00  0.00     0.013 C 
ATOM     10  C   UNL     1      12.255  38.509  69.125  1.00  0.00    -0.025 C 
ENDBRANCH   1   2
BRANCH   1  11
ATOM     11  O   UNL     1      14.676  37.192  68.485  1.00  0.00    -0.392 OA
ATOM     12  H   UNL     1      14.734  37.416  69.451  1.00  0.00     0.211 HD
ENDBRANCH   1  11
TORSDOF 2
ENDMDL
MODEL 4
REMARK VINA RESULT:    -2.856      2.076      3.496
REMARK INTER + INTRA:          -3.167
REMARK INTER:                  -3.114
REMARK INTRA:                  -0.053
REMARK UNBOUND:                -0.060
REMARK SMILES CC1(C)[C@@H]2CC=C(CO)[C@H]1C2
REMARK SMILES IDX 8 1 7 2 1 3 2 4 4 5 3 6 10 7 5 8 11 9 6 10 9 11
REMARK H PARENT 9 12
REMARK Flexibility Score: inf
ROOT
ATOM      1  C   UNL     1      11.687  41.439  67.447  1.00  0.00     0.187 C 
ENDROOT
BRANCH   1   2
ATOM      2  C   UNL     1      11.311  40.055  67.897  1.00  0.00    -0.045 C 
ATOM      3  C   UNL     1       9.887  38.220  66.065  1.00  0.00     0.012 C 
ATOM      4  C   UNL     1      11.112  37.751  66.898  1.00  0.00    -0.026 C 
ATOM      5  C   UNL     1      10.901  37.381  68.392  1.00  0.00    -0.000 C 
ATOM      6  C   UNL     1      11.833  36.626  66.112  1.00  0.00     0.012 C 
ATOM      7  C   UNL     1      12.100  38.826  67.425  1.00  0.00     0.023 C 
ATOM      8  C   UNL     1       9.875  38.363  69.057  1.00  0.00     0.031 C 
ATOM      9  C   UNL     1      12.296  37.968  68.690  1.00  0.00     0.013 C 
ATOM     10  C   UNL     1      10.236  39.821  68.707  1.00  0.00    -0.025 C 
ENDBRANCH   1   2
BRANCH   1  11
ATOM     11  O   UNL     1      12.676  41.369  66.456  1.00  0.00    -0.392 OA
ATOM     12  H   UNL     1      12.339  40.742  65.764  1.00  0.00     0.211 HD
ENDBRANCH   1  11
TORSDOF 2
ENDMDL
MODEL 5
REMARK VINA RESULT:    -2.828      2.653      4.725
REMARK INTER + INTRA:          -3.135
REMARK INTER:                  -3.079
REMARK INTRA:                  -0.057
REMARK UNBOUND:                -0.060
REMARK SMILES CC1(C)[C@@H]2CC=C(CO)[C@H]1C2
REMARK SMILES IDX 8 1 7 2 1 3 2 4 4 5 3 6 10 7 5 8 11 9 6 10 9 11
REMARK H PARENT 9 12
REMARK Flexibility Score: inf
ROOT
ATOM      1  C   UNL     1      13.033  42.958  68.408  1.00  0.00     0.187 C 
ENDROOT
BRANCH   1   2
ATOM      2  C   UNL     1      11.849  42.159  67.939  1.00  0.00    -0.045 C 
ATOM      3  C   UNL     1      12.223  39.852  66.124  1.00  0.00     0.012 C 
ATOM      4  C   UNL     1      11.311  39.762  67.380  1.00  0.00    -0.026 C 
ATOM      5  C   UNL     1       9.875  40.352  67.302  1.00  0.00    -0.000 C 
ATOM      6  C   UNL     1      11.315  38.296  67.880  1.00  0.00     0.012 C 
ATOM      7  C   UNL     1      11.540  40.777  68.531  1.00  0.00     0.023 C 
ATOM      8  C   UNL     1       9.876  41.682  66.472  1.00  0.00     0.031 C 
ATOM      9  C   UNL     1      10.018  40.780  68.777  1.00  0.00     0.013 C 
ATOM     10  C   UNL     1      11.021  42.600  66.945  1.00  0.00    -0.025 C 
ENDBRANCH   1   2
BRANCH   1  11
ATOM     11  O   UNL     1      13.931  42.128  69.093  1.00  0.00    -0.392 OA
ATOM     12  H   UNL     1      14.215  41.428  68.450  1.00  0.00     0.211 HD
ENDBRANCH   1  11
TORSDOF 2
ENDMDL
MODEL 6
REMARK VINA RESULT:    -2.821      2.180      3.731
REMARK INTER + INTRA:          -3.129
REMARK INTER:                  -3.106
REMARK INTRA:                  -0.023
REMARK UNBOUND:                -0.060
REMARK SMILES CC1(C)[C@@H]2CC=C(CO)[C@H]1C2
REMARK SMILES IDX 8 1 7 2 1 3 2 4 4 5 3 6 10 7 5 8 11 9 6 10 9 11
REMARK H PARENT 9 12
REMARK Flexibility Score: inf
ROOT
ATOM      1  C   UNL     1      10.310  39.531  66.124  1.00  0.00     0.187 C 
ENDROOT
BRANCH   1   2
ATOM      2  C   UNL     1      11.147  38.656  67.014  1.00  0.00    -0.045 C 
ATOM      3  C   UNL     1       9.899  36.470  68.568  1.00  0.00     0.012 C 
ATOM      4  C   UNL     1      11.205  36.249  67.755  1.00  0.00    -0.026 C 
ATOM      5  C   UNL     1      12.554  36.718  68.368  1.00  0.00    -0.000 C 
ATOM      6  C   UNL     1      11.251  34.768  67.301  1.00  0.00     0.012 C 
ATOM      7  C   UNL     1      11.525  37.229  66.594  1.00  0.00     0.023 C 
ATOM      8  C   UNL     1      12.365  38.078  69.125  1.00  0.00     0.031 C 
ATOM      9  C   UNL     1      13.020  37.093  66.946  1.00  0.00     0.013 C 
ATOM     10  C   UNL     1      11.575  39.068  68.245  1.00  0.00    -0.025 C 
ENDBRANCH   1   2
BRANCH   1  11
ATOM     11  O   UNL     1       9.907  40.678  66.821  1.00  0.00    -0.392 OA
ATOM     12  H   UNL     1       9.952  41.431  66.175  1.00  0.00     0.211 HD
ENDBRANCH   1  11
TORSDOF 2
ENDMDL
MODEL 7
REMARK VINA RESULT:    -2.809      3.610      5.349
REMARK INTER + INTRA:          -3.115
REMARK INTER:                  -3.078
REMARK INTRA:                  -0.036
REMARK UNBOUND:                -0.060
REMARK SMILES CC1(C)[C@@H]2CC=C(CO)[C@H]1C2
REMARK SMILES IDX 8 1 7 2 1 3 2 4 4 5 3 6 10 7 5 8 11 9 6 10 9 11
REMARK H PARENT 9 12
REMARK Flexibility Score: inf
ROOT
ATOM      1  C   UNL     1       9.939  39.737  66.468  1.00  0.00     0.187 C 
ENDROOT
BRANCH   1   2
ATOM      2  C   UNL     1      10.523  40.770  67.391  1.00  0.00    -0.045 C 
ATOM      3  C   UNL     1      12.471  42.753  66.377  1.00  0.00     0.012 C 
ATOM      4  C   UNL     1      11.274  43.171  67.276  1.00  0.00    -0.026 C 
ATOM      5  C   UNL     1      11.386  42.960  68.812  1.00  0.00    -0.000 C 
ATOM      6  C   UNL     1      10.876  44.624  66.912  1.00  0.00     0.012 C 
ATOM      7  C   UNL     1      10.045  42.227  67.354  1.00  0.00     0.023 C 
ATOM      8  C   UNL     1      12.122  41.612  69.125  1.00  0.00     0.031 C 
ATOM      9  C   UNL     1       9.880  42.630  68.832  1.00  0.00     0.013 C 
ATOM     10  C   UNL     1      11.527  40.475  68.270  1.00  0.00    -0.025 C 
ENDBRANCH   1   2
BRANCH   1  11
ATOM     11  O   UNL     1      10.965  39.045  65.811  1.00  0.00    -0.392 OA
ATOM     12  H   UNL     1      10.684  38.093  65.772  1.00  0.00     0.211 HD
ENDBRANCH   1  11
TORSDOF 2
ENDMDL
MODEL 8
REMARK VINA RESULT:    -1.112      3.815      5.761
REMARK INTER + INTRA:          -1.269
REMARK INTER:                  -1.245
REMARK INTRA:                  -0.024
REMARK UNBOUND:                -0.060
REMARK SMILES CC1(C)[C@@H]2CC=C(CO)[C@H]1C2
REMARK SMILES IDX 8 1 7 2 1 3 2 4 4 5 3 6 10 7 5 8 11 9 6 10 9 11
REMARK H PARENT 9 12
REMARK Flexibility Score: inf
ROOT
ATOM      1  C   UNL     1      11.712  44.020  66.333  1.00  0.00     0.187 C 
ENDROOT
BRANCH   1   2
ATOM      2  C   UNL     1      11.326  42.972  67.339  1.00  0.00    -0.045 C 
ATOM      3  C   UNL     1       9.875  40.539  66.486  1.00  0.00     0.012 C 
ATOM      4  C   UNL     1      11.101  40.465  67.439  1.00  0.00    -0.026 C 
ATOM      5  C   UNL     1      10.894  40.783  68.946  1.00  0.00    -0.000 C 
ATOM      6  C   UNL     1      11.807  39.104  67.219  1.00  0.00     0.012 C 
ATOM      7  C   UNL     1      12.101  41.652  67.446  1.00  0.00     0.023 C 
ATOM      8  C   UNL     1       9.881  41.967  69.120  1.00  0.00     0.031 C 
ATOM      9  C   UNL     1      12.295  41.426  68.959  1.00  0.00     0.013 C 
ATOM     10  C   UNL     1      10.253  43.124  68.171  1.00  0.00    -0.025 C 
ENDBRANCH   1   2
BRANCH   1  11
ATOM     11  O   UNL     1      10.628  44.873  66.088  1.00  0.00    -0.392 OA
ATOM     12  H   UNL     1      10.886  45.444  65.317  1.00  0.00     0.211 HD
ENDBRANCH   1  11
TORSDOF 2
ENDMDL
