MODEL 1
REMARK VINA RESULT:    -4.900      0.000      0.000
REMARK INTER + INTRA:          -8.292
REMARK INTER:                  -7.479
REMARK INTRA:                  -0.814
REMARK UNBOUND:                -0.814
REMARK SMILES CCCCCCCCCCC(=O)[O-]
REMARK SMILES IDX 7 1 8 2 9 3 10 4 11 5 12 6 13 7 6 8 5 9 4 10 3 11 2 12 1 13
REMARK H PARENT
REMARK Flexibility Score: inf
ROOT
ATOM      1  C   UNL     1       4.247 -33.807  20.995  1.00  0.00     0.000 C 
ENDROOT
BRANCH   1   2
ATOM      2  C   UNL     1       5.229 -34.594  20.114  1.00  0.00     0.000 C 
BRANCH   2   3
ATOM      3  C   UNL     1       4.484 -35.356  19.008  1.00  0.00     0.006 C 
BRANCH   3   4
ATOM      4  C   UNL     1       3.938 -36.704  19.499  1.00  0.00     0.053 C 
BRANCH   4   5
ATOM      5  C   UNL     1       2.980 -37.305  18.515  1.00  0.00     0.041 C 
ATOM      6  O   UNL     1       3.237 -37.276  17.283  1.00  0.00    -0.550 OA
ATOM      7  O   UNL     1       1.790 -37.867  18.958  1.00  0.00    -0.550 OA
ENDBRANCH   4   5
ENDBRANCH   3   4
ENDBRANCH   2   3
ENDBRANCH   1   2
BRANCH   1   8
ATOM      8  C   UNL     1       4.602 -33.879  22.489  1.00  0.00     0.000 C 
BRANCH   8   9
ATOM      9  C   UNL     1       5.994 -34.479  22.740  1.00  0.00    -0.000 C 
BRANCH   9  10
ATOM     10  C   UNL     1       5.920 -35.639  23.740  1.00  0.00    -0.000 C 
BRANCH  10  11
ATOM     11  C   UNL     1       5.301 -36.885  23.092  1.00  0.00    -0.000 C 
BRANCH  11  12
ATOM     12  C   UNL     1       4.606 -37.799  24.114  1.00  0.00    -0.003 C 
ATOM     13  C   UNL     1       4.556 -37.189  25.515  1.00  0.00     0.004 C 
ENDBRANCH  11  12
ENDBRANCH  10  11
ENDBRANCH   9  10
ENDBRANCH   8   9
ENDBRANCH   1   8
TORSDOF 9
ENDMDL
MODEL 2
REMARK VINA RESULT:    -4.821      2.645      5.576
REMARK INTER + INTRA:          -8.171
REMARK INTER:                  -7.582
REMARK INTRA:                  -0.588
REMARK UNBOUND:                -0.814
REMARK SMILES CCCCCCCCCCC(=O)[O-]
REMARK SMILES IDX 7 1 8 2 9 3 10 4 11 5 12 6 13 7 6 8 5 9 4 10 3 11 2 12 1 13
REMARK H PARENT
REMARK Flexibility Score: inf
ROOT
ATOM      1  C   UNL     1       4.361 -34.063  21.325  1.00  0.00     0.000 C 
ENDROOT
BRANCH   1   2
ATOM      2  C   UNL     1       4.978 -33.860  22.717  1.00  0.00     0.000 C 
BRANCH   2   3
ATOM      3  C   UNL     1       6.004 -34.961  23.027  1.00  0.00     0.006 C 
BRANCH   3   4
ATOM      4  C   UNL     1       5.806 -35.562  24.425  1.00  0.00     0.053 C 
BRANCH   4   5
ATOM      5  C   UNL     1       4.915 -36.767  24.389  1.00  0.00     0.041 C 
ATOM      6  O   UNL     1       4.690 -37.356  23.299  1.00  0.00    -0.550 OA
ATOM      7  O   UNL     1       4.308 -37.218  25.554  1.00  0.00    -0.550 OA
ENDBRANCH   4   5
ENDBRANCH   3   4
ENDBRANCH   2   3
ENDBRANCH   1   2
BRANCH   1   8
ATOM      8  C   UNL     1       5.342 -34.698  20.327  1.00  0.00     0.000 C 
BRANCH   8   9
ATOM      9  C   UNL     1       4.634 -35.317  19.112  1.00  0.00    -0.000 C 
BRANCH   9  10
ATOM     10  C   UNL     1       3.889 -36.599  19.506  1.00  0.00    -0.000 C 
BRANCH  10  11
ATOM     11  C   UNL     1       3.133 -37.186  18.305  1.00  0.00    -0.000 C 
BRANCH  11  12
ATOM     12  C   UNL     1       3.177 -36.268  17.073  1.00  0.00    -0.003 C 
ATOM     13  C   UNL     1       2.035 -36.538  16.094  1.00  0.00     0.004 C 
ENDBRANCH  11  12
ENDBRANCH  10  11
ENDBRANCH   9  10
ENDBRANCH   8   9
ENDBRANCH   1   8
TORSDOF 9
ENDMDL
MODEL 3
REMARK VINA RESULT:    -4.676      1.996      3.562
REMARK INTER + INTRA:          -7.949
REMARK INTER:                  -7.378
REMARK INTRA:                  -0.572
REMARK UNBOUND:                -0.814
REMARK SMILES CCCCCCCCCCC(=O)[O-]
REMARK SMILES IDX 7 1 8 2 9 3 10 4 11 5 12 6 13 7 6 8 5 9 4 10 3 11 2 12 1 13
REMARK H PARENT
REMARK Flexibility Score: inf
ROOT
ATOM      1  C   UNL     1       3.805 -36.432  19.571  1.00  0.00     0.000 C 
ENDROOT
BRANCH   1   2
ATOM      2  C   UNL     1       3.514 -37.402  18.416  1.00  0.00     0.000 C 
BRANCH   2   3
ATOM      3  C   UNL     1       2.454 -36.822  17.467  1.00  0.00     0.006 C 
BRANCH   3   4
ATOM      4  C   UNL     1       3.080 -36.019  16.318  1.00  0.00     0.053 C 
BRANCH   4   5
ATOM      5  C   UNL     1       2.961 -36.739  15.010  1.00  0.00     0.041 C 
ATOM      6  O   UNL     1       2.079 -36.400  14.178  1.00  0.00    -0.550 OA
ATOM      7  O   UNL     1       3.804 -37.806  14.723  1.00  0.00    -0.550 OA
ENDBRANCH   4   5
ENDBRANCH   3   4
ENDBRANCH   2   3
ENDBRANCH   1   2
BRANCH   1   8
ATOM      8  C   UNL     1       5.101 -36.775  20.322  1.00  0.00     0.000 C 
BRANCH   8   9
ATOM      9  C   UNL     1       4.841 -37.463  21.670  1.00  0.00    -0.000 C 
BRANCH   9  10
ATOM     10  C   UNL     1       4.802 -36.439  22.811  1.00  0.00    -0.000 C 
BRANCH  10  11
ATOM     11  C   UNL     1       5.715 -35.243  22.507  1.00  0.00    -0.000 C 
BRANCH  11  12
ATOM     12  C   UNL     1       5.039 -33.894  22.802  1.00  0.00    -0.003 C 
ATOM     13  C   UNL     1       3.997 -33.514  21.750  1.00  0.00     0.004 C 
ENDBRANCH  11  12
ENDBRANCH  10  11
ENDBRANCH   9  10
ENDBRANCH   8   9
ENDBRANCH   1   8
TORSDOF 9
ENDMDL
MODEL 4
REMARK VINA RESULT:    -4.663      1.376      2.216
REMARK INTER + INTRA:          -7.930
REMARK INTER:                  -7.310
REMARK INTRA:                  -0.621
REMARK UNBOUND:                -0.814
REMARK SMILES CCCCCCCCCCC(=O)[O-]
REMARK SMILES IDX 7 1 8 2 9 3 10 4 11 5 12 6 13 7 6 8 5 9 4 10 3 11 2 12 1 13
REMARK H PARENT
REMARK Flexibility Score: inf
ROOT
ATOM      1  C   UNL     1       4.636 -34.984  19.223  1.00  0.00     0.000 C 
ENDROOT
BRANCH   1   2
ATOM      2  C   UNL     1       4.036 -36.349  19.594  1.00  0.00     0.000 C 
BRANCH   2   3
ATOM      3  C   UNL     1       3.340 -36.989  18.383  1.00  0.00     0.006 C 
BRANCH   3   4
ATOM      4  C   UNL     1       3.479 -36.136  17.115  1.00  0.00     0.053 C 
BRANCH   4   5
ATOM      5  C   UNL     1       2.832 -36.791  15.933  1.00  0.00     0.041 C 
ATOM      6  O   UNL     1       3.461 -37.650  15.261  1.00  0.00    -0.550 OA
ATOM      7  O   UNL     1       1.545 -36.428  15.555  1.00  0.00    -0.550 OA
ENDBRANCH   4   5
ENDBRANCH   3   4
ENDBRANCH   2   3
ENDBRANCH   1   2
BRANCH   1   8
ATOM      8  C   UNL     1       5.360 -34.314  20.402  1.00  0.00     0.000 C 
BRANCH   8   9
ATOM      9  C   UNL     1       4.399 -33.890  21.524  1.00  0.00    -0.000 C 
BRANCH   9  10
ATOM     10  C   UNL     1       5.040 -34.097  22.902  1.00  0.00    -0.000 C 
BRANCH  10  11
ATOM     11  C   UNL     1       5.873 -35.386  22.933  1.00  0.00    -0.000 C 
BRANCH  11  12
ATOM     12  C   UNL     1       5.068 -36.598  23.431  1.00  0.00    -0.003 C 
ATOM     13  C   UNL     1       5.032 -36.696  24.956  1.00  0.00     0.004 C 
ENDBRANCH  11  12
ENDBRANCH  10  11
ENDBRANCH   9  10
ENDBRANCH   8   9
ENDBRANCH   1   8
TORSDOF 9
ENDMDL
MODEL 5
REMARK VINA RESULT:    -4.637      1.030      2.916
REMARK INTER + INTRA:          -7.890
REMARK INTER:                  -6.786
REMARK INTRA:                  -1.104
REMARK UNBOUND:                -0.814
REMARK SMILES CCCCCCCCCCC(=O)[O-]
REMARK SMILES IDX 7 1 8 2 9 3 10 4 11 5 12 6 13 7 6 8 5 9 4 10 3 11 2 12 1 13
REMARK H PARENT
REMARK Flexibility Score: inf
ROOT
ATOM      1  C   UNL     1       4.272 -37.667  21.766  1.00  0.00     0.000 C 
ENDROOT
BRANCH   1   2
ATOM      2  C   UNL     1       5.082 -37.943  20.490  1.00  0.00     0.000 C 
BRANCH   2   3
ATOM      3  C   UNL     1       5.042 -36.735  19.542  1.00  0.00     0.006 C 
BRANCH   3   4
ATOM      4  C   UNL     1       3.608 -36.273  19.249  1.00  0.00     0.053 C 
BRANCH   4   5
ATOM      5  C   UNL     1       2.887 -37.237  18.357  1.00  0.00     0.041 C 
ATOM      6  O   UNL     1       3.230 -37.362  17.151  1.00  0.00    -0.550 OA
ATOM      7  O   UNL     1       1.817 -37.974  18.848  1.00  0.00    -0.550 OA
ENDBRANCH   4   5
ENDBRANCH   3   4
ENDBRANCH   2   3
ENDBRANCH   1   2
BRANCH   1   8
ATOM      8  C   UNL     1       4.971 -38.178  23.035  1.00  0.00     0.000 C 
BRANCH   8   9
ATOM      9  C   UNL     1       5.196 -37.070  24.075  1.00  0.00    -0.000 C 
BRANCH   9  10
ATOM     10  C   UNL     1       6.050 -35.936  23.494  1.00  0.00    -0.000 C 
BRANCH  10  11
ATOM     11  C   UNL     1       5.289 -34.603  23.525  1.00  0.00    -0.000 C 
BRANCH  11  12
ATOM     12  C   UNL     1       5.228 -33.925  22.147  1.00  0.00    -0.003 C 
ATOM     13  C   UNL     1       3.798 -33.618  21.703  1.00  0.00     0.004 C 
ENDBRANCH  11  12
ENDBRANCH  10  11
ENDBRANCH   9  10
ENDBRANCH   8   9
ENDBRANCH   1   8
TORSDOF 9
ENDMDL
MODEL 6
REMARK VINA RESULT:    -4.516      3.079      6.106
REMARK INTER + INTRA:          -7.705
REMARK INTER:                  -7.106
REMARK INTRA:                  -0.599
REMARK UNBOUND:                -0.814
REMARK SMILES CCCCCCCCCCC(=O)[O-]
REMARK SMILES IDX 7 1 8 2 9 3 10 4 11 5 12 6 13 7 6 8 5 9 4 10 3 11 2 12 1 13
REMARK H PARENT
REMARK Flexibility Score: inf
ROOT
ATOM      1  C   UNL     1       4.559 -37.803  20.850  1.00  0.00     0.000 C 
ENDROOT
BRANCH   1   2
ATOM      2  C   UNL     1       5.023 -37.618  22.303  1.00  0.00     0.000 C 
BRANCH   2   3
ATOM      3  C   UNL     1       5.644 -36.228  22.508  1.00  0.00     0.006 C 
BRANCH   3   4
ATOM      4  C   UNL     1       4.686 -35.265  23.223  1.00  0.00     0.053 C 
BRANCH   4   5
ATOM      5  C   UNL     1       4.859 -33.856  22.744  1.00  0.00     0.041 C 
ATOM      6  O   UNL     1       4.109 -33.397  21.842  1.00  0.00    -0.550 OA
ATOM      7  O   UNL     1       5.869 -33.060  23.270  1.00  0.00    -0.550 OA
ENDBRANCH   4   5
ENDBRANCH   3   4
ENDBRANCH   2   3
ENDBRANCH   1   2
BRANCH   1   8
ATOM      8  C   UNL     1       5.033 -36.669  19.927  1.00  0.00     0.000 C 
BRANCH   8   9
ATOM      9  C   UNL     1       3.914 -36.137  19.019  1.00  0.00    -0.000 C 
BRANCH   9  10
ATOM     10  C   UNL     1       2.942 -37.258  18.632  1.00  0.00    -0.000 C 
BRANCH  10  11
ATOM     11  C   UNL     1       2.229 -36.935  17.311  1.00  0.00    -0.000 C 
BRANCH  11  12
ATOM     12  C   UNL     1       3.080 -36.056  16.380  1.00  0.00    -0.003 C 
ATOM     13  C   UNL     1       3.089 -36.559  14.937  1.00  0.00     0.004 C 
ENDBRANCH  11  12
ENDBRANCH  10  11
ENDBRANCH   9  10
ENDBRANCH   8   9
ENDBRANCH   1   8
TORSDOF 9
ENDMDL
MODEL 7
REMARK VINA RESULT:    -4.508      2.167      4.606
REMARK INTER + INTRA:          -7.694
REMARK INTER:                  -6.906
REMARK INTRA:                  -0.788
REMARK UNBOUND:                -0.814
REMARK SMILES CCCCCCCCCCC(=O)[O-]
REMARK SMILES IDX 7 1 8 2 9 3 10 4 11 5 12 6 13 7 6 8 5 9 4 10 3 11 2 12 1 13
REMARK H PARENT
REMARK Flexibility Score: inf
ROOT
ATOM      1  C   UNL     1       5.999 -34.417  22.863  1.00  0.00     0.000 C 
ENDROOT
BRANCH   1   2
ATOM      2  C   UNL     1       5.820 -35.052  24.250  1.00  0.00     0.000 C 
BRANCH   2   3
ATOM      3  C   UNL     1       5.813 -36.585  24.155  1.00  0.00     0.006 C 
BRANCH   3   4
ATOM      4  C   UNL     1       5.012 -37.089  22.947  1.00  0.00     0.053 C 
BRANCH   4   5
ATOM      5  C   UNL     1       4.953 -38.585  22.906  1.00  0.00     0.041 C 
ATOM      6  O   UNL     1       4.639 -39.235  23.938  1.00  0.00    -0.550 OA
ATOM      7  O   UNL     1       5.276 -39.263  21.738  1.00  0.00    -0.550 OA
ENDBRANCH   4   5
ENDBRANCH   3   4
ENDBRANCH   2   3
ENDBRANCH   1   2
BRANCH   1   8
ATOM      8  C   UNL     1       4.819 -33.515  22.467  1.00  0.00     0.000 C 
BRANCH   8   9
ATOM      9  C   UNL     1       4.201 -33.905  21.116  1.00  0.00    -0.000 C 
BRANCH   9  10
ATOM     10  C   UNL     1       5.227 -34.621  20.229  1.00  0.00    -0.000 C 
BRANCH  10  11
ATOM     11  C   UNL     1       4.537 -35.344  19.063  1.00  0.00    -0.000 C 
BRANCH  11  12
ATOM     12  C   UNL     1       4.205 -36.808  19.389  1.00  0.00    -0.003 C 
ATOM     13  C   UNL     1       2.903 -37.278  18.740  1.00  0.00     0.004 C 
ENDBRANCH  11  12
ENDBRANCH  10  11
ENDBRANCH   9  10
ENDBRANCH   8   9
ENDBRANCH   1   8
TORSDOF 9
ENDMDL
MODEL 8
REMARK VINA RESULT:    -4.285      3.286      6.721
REMARK INTER + INTRA:          -7.354
REMARK INTER:                  -6.921
REMARK INTRA:                  -0.433
REMARK UNBOUND:                -0.814
REMARK SMILES CCCCCCCCCCC(=O)[O-]
REMARK SMILES IDX 7 1 8 2 9 3 10 4 11 5 12 6 13 7 6 8 5 9 4 10 3 11 2 12 1 13
REMARK H PARENT
REMARK Flexibility Score: inf
ROOT
ATOM      1  C   UNL     1       4.079 -36.985  19.642  1.00  0.00     0.000 C 
ENDROOT
BRANCH   1   2
ATOM      2  C   UNL     1       4.424 -35.489  19.694  1.00  0.00     0.000 C 
BRANCH   2   3
ATOM      3  C   UNL     1       5.544 -35.219  20.710  1.00  0.00     0.006 C 
BRANCH   3   4
ATOM      4  C   UNL     1       5.022 -34.538  21.982  1.00  0.00     0.053 C 
BRANCH   4   5
ATOM      5  C   UNL     1       5.157 -35.426  23.181  1.00  0.00     0.041 C 
ATOM      6  O   UNL     1       5.620 -34.970  24.260  1.00  0.00    -0.550 OA
ATOM      7  O   UNL     1       4.803 -36.767  23.098  1.00  0.00    -0.550 OA
ENDBRANCH   4   5
ENDBRANCH   3   4
ENDBRANCH   2   3
ENDBRANCH   1   2
BRANCH   1   8
ATOM      8  C   UNL     1       2.964 -37.302  18.633  1.00  0.00     0.000 C 
BRANCH   8   9
ATOM      9  C   UNL     1       3.155 -36.578  17.292  1.00  0.00    -0.000 C 
BRANCH   9  10
ATOM     10  C   UNL     1       1.833 -36.499  16.517  1.00  0.00    -0.000 C 
BRANCH  10  11
ATOM     11  C   UNL     1       2.085 -36.467  15.002  1.00  0.00    -0.000 C 
BRANCH  11  12
ATOM     12  C   UNL     1       3.576 -36.595  14.649  1.00  0.00    -0.003 C 
ATOM     13  C   UNL     1       3.936 -37.975  14.101  1.00  0.00     0.004 C 
ENDBRANCH  11  12
ENDBRANCH  10  11
ENDBRANCH   9  10
ENDBRANCH   8   9
ENDBRANCH   1   8
TORSDOF 9
ENDMDL
