MODEL 1
REMARK VINA RESULT:    -2.856      0.000      0.000
REMARK INTER + INTRA:          -3.435
REMARK INTER:                  -3.357
REMARK INTRA:                  -0.078
REMARK UNBOUND:                -0.078
REMARK SMILES O=C([O-])CCC(=O)[O-]
REMARK SMILES IDX 4 1 2 2 1 3 3 4 5 5 6 6 7 7 8 8
REMARK H PARENT
REMARK Flexibility Score: inf
ROOT
ATOM      1  C   UNL     1     -99.735  69.752  24.985  1.00  0.00     0.059 C 
ENDROOT
BRANCH   1   2
ATOM      2  C   UNL     1     -99.165  69.012  23.813  1.00  0.00     0.042 C 
ATOM      3  O   UNL     1     -99.018  67.762  23.861  1.00  0.00    -0.550 OA
ATOM      4  O   UNL     1     -98.835  69.699  22.652  1.00  0.00    -0.550 OA
ENDBRANCH   1   2
BRANCH   1   5
ATOM      5  C   UNL     1     -99.322  69.108  26.312  1.00  0.00     0.059 C 
BRANCH   5   6
ATOM      6  C   UNL     1    -100.509  68.834  27.186  1.00  0.00     0.042 C 
ATOM      7  O   UNL     1    -101.668  69.128  26.792  1.00  0.00    -0.550 OA
ATOM      8  O   UNL     1    -100.328  68.292  28.453  1.00  0.00    -0.550 OA
ENDBRANCH   5   6
ENDBRANCH   1   5
TORSDOF 3
ENDMDL
MODEL 2
REMARK VINA RESULT:    -2.835      0.076      4.093
REMARK INTER + INTRA:          -3.410
REMARK INTER:                  -3.336
REMARK INTRA:                  -0.074
REMARK UNBOUND:                -0.078
REMARK SMILES O=C([O-])CCC(=O)[O-]
REMARK SMILES IDX 4 1 2 2 1 3 3 4 5 5 6 6 7 7 8 8
REMARK H PARENT
REMARK Flexibility Score: inf
ROOT
ATOM      1  C   UNL     1     -99.320  69.133  26.300  1.00  0.00     0.059 C 
ENDROOT
BRANCH   1   2
ATOM      2  C   UNL     1    -100.523  68.879  27.156  1.00  0.00     0.042 C 
ATOM      3  O   UNL     1    -101.674  69.174  26.737  1.00  0.00    -0.550 OA
ATOM      4  O   UNL     1    -100.377  68.277  28.399  1.00  0.00    -0.550 OA
ENDBRANCH   1   2
BRANCH   1   5
ATOM      5  C   UNL     1     -99.702  69.784  24.967  1.00  0.00     0.059 C 
BRANCH   5   6
ATOM      6  C   UNL     1     -99.118  69.045  23.802  1.00  0.00     0.042 C 
ATOM      7  O   UNL     1     -98.808  69.663  22.750  1.00  0.00    -0.550 OA
ATOM      8  O   UNL     1     -98.955  67.666  23.865  1.00  0.00    -0.550 OA
ENDBRANCH   5   6
ENDBRANCH   1   5
TORSDOF 3
ENDMDL
MODEL 3
REMARK VINA RESULT:    -2.834      0.260      1.634
REMARK INTER + INTRA:          -3.409
REMARK INTER:                  -3.353
REMARK INTRA:                  -0.056
REMARK UNBOUND:                -0.078
REMARK SMILES O=C([O-])CCC(=O)[O-]
REMARK SMILES IDX 4 1 2 2 1 3 3 4 5 5 6 6 7 7 8 8
REMARK H PARENT
REMARK Flexibility Score: inf
ROOT
ATOM      1  C   UNL     1     -99.913  69.711  24.829  1.00  0.00     0.059 C 
ENDROOT
BRANCH   1   2
ATOM      2  C   UNL     1     -99.210  69.016  23.702  1.00  0.00     0.042 C 
ATOM      3  O   UNL     1     -98.859  69.662  22.679  1.00  0.00    -0.550 OA
ATOM      4  O   UNL     1     -98.907  67.665  23.800  1.00  0.00    -0.550 OA
ENDBRANCH   1   2
BRANCH   1   5
ATOM      5  C   UNL     1     -99.511  69.128  26.188  1.00  0.00     0.059 C 
BRANCH   5   6
ATOM      6  C   UNL     1    -100.701  68.924  27.076  1.00  0.00     0.042 C 
ATOM      7  O   UNL     1    -100.589  68.271  28.146  1.00  0.00    -0.550 OA
ATOM      8  O   UNL     1    -101.944  69.419  26.698  1.00  0.00    -0.550 OA
ENDBRANCH   5   6
ENDBRANCH   1   5
TORSDOF 3
ENDMDL
MODEL 4
REMARK VINA RESULT:    -2.711      1.550      4.020
REMARK INTER + INTRA:          -3.265
REMARK INTER:                  -3.179
REMARK INTRA:                  -0.086
REMARK UNBOUND:                -0.078
REMARK SMILES O=C([O-])CCC(=O)[O-]
REMARK SMILES IDX 4 1 2 2 1 3 3 4 5 5 6 6 7 7 8 8
REMARK H PARENT
REMARK Flexibility Score: inf
ROOT
ATOM      1  C   UNL     1     -99.783  69.008  26.143  1.00  0.00     0.059 C 
ENDROOT
BRANCH   1   2
ATOM      2  C   UNL     1     -98.743  69.504  27.102  1.00  0.00     0.042 C 
ATOM      3  O   UNL     1     -98.251  70.655  26.965  1.00  0.00    -0.550 OA
ATOM      4  O   UNL     1     -98.347  68.709  28.170  1.00  0.00    -0.550 OA
ENDBRANCH   1   2
BRANCH   1   5
ATOM      5  C   UNL     1     -99.796  69.831  24.851  1.00  0.00     0.059 C 
BRANCH   5   6
ATOM      6  C   UNL     1     -99.162  69.087  23.715  1.00  0.00     0.042 C 
ATOM      7  O   UNL     1     -98.856  69.692  22.654  1.00  0.00    -0.550 OA
ATOM      8  O   UNL     1     -98.950  67.718  23.814  1.00  0.00    -0.550 OA
ENDBRANCH   5   6
ENDBRANCH   1   5
TORSDOF 3
ENDMDL
MODEL 5
REMARK VINA RESULT:    -2.683      1.297      2.061
REMARK INTER + INTRA:          -3.231
REMARK INTER:                  -3.202
REMARK INTRA:                  -0.030
REMARK UNBOUND:                -0.078
REMARK SMILES O=C([O-])CCC(=O)[O-]
REMARK SMILES IDX 4 1 2 2 1 3 3 4 5 5 6 6 7 7 8 8
REMARK H PARENT
REMARK Flexibility Score: inf
ROOT
ATOM      1  C   UNL     1     -99.736  69.029  25.994  1.00  0.00     0.059 C 
ENDROOT
BRANCH   1   2
ATOM      2  C   UNL     1     -99.216  68.998  24.589  1.00  0.00     0.042 C 
ATOM      3  O   UNL     1     -98.800  70.054  24.043  1.00  0.00    -0.550 OA
ATOM      4  O   UNL     1     -99.153  67.796  23.898  1.00  0.00    -0.550 OA
ENDBRANCH   1   2
BRANCH   1   5
ATOM      5  C   UNL     1     -98.600  69.173  27.013  1.00  0.00     0.059 C 
BRANCH   5   6
ATOM      6  C   UNL     1     -99.094  69.007  28.418  1.00  0.00     0.042 C 
ATOM      7  O   UNL     1     -98.557  69.651  29.358  1.00  0.00    -0.550 OA
ATOM      8  O   UNL     1    -100.118  68.110  28.694  1.00  0.00    -0.550 OA
ENDBRANCH   5   6
ENDBRANCH   1   5
TORSDOF 3
ENDMDL
MODEL 6
REMARK VINA RESULT:    -2.636      2.135      4.706
REMARK INTER + INTRA:          -3.177
REMARK INTER:                  -3.126
REMARK INTRA:                  -0.051
REMARK UNBOUND:                -0.078
REMARK SMILES O=C([O-])CCC(=O)[O-]
REMARK SMILES IDX 4 1 2 2 1 3 3 4 5 5 6 6 7 7 8 8
REMARK H PARENT
REMARK Flexibility Score: inf
ROOT
ATOM      1  C   UNL     1     -99.024  70.245  24.101  1.00  0.00     0.059 C 
ENDROOT
BRANCH   1   2
ATOM      2  C   UNL     1     -99.314  68.854  24.576  1.00  0.00     0.042 C 
ATOM      3  O   UNL     1     -99.044  67.864  23.844  1.00  0.00    -0.550 OA
ATOM      4  O   UNL     1     -99.845  68.648  25.843  1.00  0.00    -0.550 OA
ENDBRANCH   1   2
BRANCH   1   5
ATOM      5  C   UNL     1     -98.741  70.280  22.596  1.00  0.00     0.059 C 
BRANCH   5   6
ATOM      6  C   UNL     1     -97.695  71.296  22.253  1.00  0.00     0.042 C 
ATOM      7  O   UNL     1     -97.272  71.397  21.071  1.00  0.00    -0.550 OA
ATOM      8  O   UNL     1     -97.156  72.102  23.249  1.00  0.00    -0.550 OA
ENDBRANCH   5   6
ENDBRANCH   1   5
TORSDOF 3
ENDMDL
MODEL 7
REMARK VINA RESULT:    -2.555      9.272     10.632
REMARK INTER + INTRA:          -3.081
REMARK INTER:                  -2.955
REMARK INTRA:                  -0.125
REMARK UNBOUND:                -0.078
REMARK SMILES O=C([O-])CCC(=O)[O-]
REMARK SMILES IDX 4 1 2 2 1 3 3 4 5 5 6 6 7 7 8 8
REMARK H PARENT
REMARK Flexibility Score: inf
ROOT
ATOM      1  C   UNL     1    -100.558  62.360  34.686  1.00  0.00     0.059 C 
ENDROOT
BRANCH   1   2
ATOM      2  C   UNL     1    -101.039  61.527  33.537  1.00  0.00     0.042 C 
ATOM      3  O   UNL     1    -102.259  61.232  33.434  1.00  0.00    -0.550 OA
ATOM      4  O   UNL     1    -100.145  61.112  32.558  1.00  0.00    -0.550 OA
ENDBRANCH   1   2
BRANCH   1   5
ATOM      5  C   UNL     1    -100.692  63.858  34.391  1.00  0.00     0.059 C 
BRANCH   5   6
ATOM      6  C   UNL     1     -99.401  64.442  33.901  1.00  0.00     0.042 C 
ATOM      7  O   UNL     1     -98.653  65.076  34.691  1.00  0.00    -0.550 OA
ATOM      8  O   UNL     1     -99.048  64.323  32.563  1.00  0.00    -0.550 OA
ENDBRANCH   5   6
ENDBRANCH   1   5
TORSDOF 3
ENDMDL
MODEL 8
REMARK VINA RESULT:    -2.544      1.702      4.573
REMARK INTER + INTRA:          -3.069
REMARK INTER:                  -3.041
REMARK INTRA:                  -0.027
REMARK UNBOUND:                -0.078
REMARK SMILES O=C([O-])CCC(=O)[O-]
REMARK SMILES IDX 4 1 2 2 1 3 3 4 5 5 6 6 7 7 8 8
REMARK H PARENT
REMARK Flexibility Score: inf
ROOT
ATOM      1  C   UNL     1     -98.800  69.029  27.857  1.00  0.00     0.059 C 
ENDROOT
BRANCH   1   2
ATOM      2  C   UNL     1     -99.362  68.476  29.132  1.00  0.00     0.042 C 
ATOM      3  O   UNL     1    -100.454  68.909  29.585  1.00  0.00    -0.550 OA
ATOM      4  O   UNL     1     -98.699  67.453  29.797  1.00  0.00    -0.550 OA
ENDBRANCH   1   2
BRANCH   1   5
ATOM      5  C   UNL     1     -99.837  69.011  26.730  1.00  0.00     0.059 C 
BRANCH   5   6
ATOM      6  C   UNL     1     -99.202  69.238  25.391  1.00  0.00     0.042 C 
ATOM      7  O   UNL     1     -99.096  68.290  24.571  1.00  0.00    -0.550 OA
ATOM      8  O   UNL     1     -98.690  70.490  25.068  1.00  0.00    -0.550 OA
ENDBRANCH   5   6
ENDBRANCH   1   5
TORSDOF 3
ENDMDL
MODEL 9
REMARK VINA RESULT:    -2.540     13.205     14.127
REMARK INTER + INTRA:          -3.063
REMARK INTER:                  -2.940
REMARK INTRA:                  -0.123
REMARK UNBOUND:                -0.078
REMARK SMILES O=C([O-])CCC(=O)[O-]
REMARK SMILES IDX 4 1 2 2 1 3 3 4 5 5 6 6 7 7 8 8
REMARK H PARENT
REMARK Flexibility Score: inf
ROOT
ATOM      1  C   UNL     1     -96.006  56.727  21.492  1.00  0.00     0.059 C 
ENDROOT
BRANCH   1   2
ATOM      2  C   UNL     1     -97.106  56.126  22.313  1.00  0.00     0.042 C 
ATOM      3  O   UNL     1     -96.843  55.546  23.399  1.00  0.00    -0.550 OA
ATOM      4  O   UNL     1     -98.426  56.245  21.899  1.00  0.00    -0.550 OA
ENDBRANCH   1   2
BRANCH   1   5
ATOM      5  C   UNL     1     -95.965  56.131  20.081  1.00  0.00     0.059 C 
BRANCH   5   6
ATOM      6  C   UNL     1     -96.311  57.153  19.040  1.00  0.00     0.042 C 
ATOM      7  O   UNL     1     -95.782  57.098  17.899  1.00  0.00    -0.550 OA
ATOM      8  O   UNL     1     -97.185  58.189  19.346  1.00  0.00    -0.550 OA
ENDBRANCH   5   6
ENDBRANCH   1   5
TORSDOF 3
ENDMDL
