MODEL 1
REMARK VINA RESULT:    -0.281      0.000      0.000
REMARK INTER + INTRA:          -0.542
REMARK INTER:                  -0.429
REMARK INTRA:                  -0.112
REMARK UNBOUND:                -0.112
REMARK SMILES CCCCCCCCCCC(=O)[O-]
REMARK SMILES IDX 7 1 8 2 9 3 10 4 11 5 12 6 13 7 6 8 5 9 4 10 3 11 2 12 1 13
REMARK H PARENT
REMARK Flexibility Score: inf
ROOT
ATOM      1  C   UNL     1      68.097  76.220  96.792  1.00  0.00     0.000 C 
ENDROOT
BRANCH   1   2
ATOM      2  C   UNL     1      67.920  77.156  97.997  1.00  0.00     0.000 C 
BRANCH   2   3
ATOM      3  C   UNL     1      68.149  78.632  97.639  1.00  0.00     0.006 C 
BRANCH   3   4
ATOM      4  C   UNL     1      67.887  79.574  98.822  1.00  0.00     0.053 C 
BRANCH   4   5
ATOM      5  C   UNL     1      68.866  79.314  99.923  1.00  0.00     0.041 C 
ATOM      6  O   UNL     1      68.656  79.767 101.079  1.00  0.00    -0.550 OA
ATOM      7  O   UNL     1      70.036  78.612  99.661  1.00  0.00    -0.550 OA
ENDBRANCH   4   5
ENDBRANCH   3   4
ENDBRANCH   2   3
ENDBRANCH   1   2
BRANCH   1   8
ATOM      8  C   UNL     1      67.895  76.977  95.474  1.00  0.00     0.000 C 
BRANCH   8   9
ATOM      9  C   UNL     1      68.201  76.078  94.270  1.00  0.00    -0.000 C 
BRANCH   9  10
ATOM     10  C   UNL     1      67.875  76.792  92.952  1.00  0.00    -0.000 C 
BRANCH  10  11
ATOM     11  C   UNL     1      68.801  76.313  91.824  1.00  0.00    -0.000 C 
BRANCH  11  12
ATOM     12  C   UNL     1      68.215  75.126  91.044  1.00  0.00    -0.003 C 
ATOM     13  C   UNL     1      69.039  73.849  91.202  1.00  0.00     0.004 C 
ENDBRANCH  11  12
ENDBRANCH  10  11
ENDBRANCH   9  10
ENDBRANCH   8   9
ENDBRANCH   1   8
TORSDOF 9
ENDMDL
MODEL 2
REMARK VINA RESULT:     0.419      3.775      7.405
REMARK INTER + INTRA:           0.528
REMARK INTER:                   0.750
REMARK INTRA:                  -0.222
REMARK UNBOUND:                -0.112
REMARK SMILES CCCCCCCCCCC(=O)[O-]
REMARK SMILES IDX 7 1 8 2 9 3 10 4 11 5 12 6 13 7 6 8 5 9 4 10 3 11 2 12 1 13
REMARK H PARENT
REMARK Flexibility Score: inf
ROOT
ATOM      1  C   UNL     1      68.276  76.235  97.094  1.00  0.00     0.000 C 
ENDROOT
BRANCH   1   2
ATOM      2  C   UNL     1      67.875  76.980  95.812  1.00  0.00     0.000 C 
BRANCH   2   3
ATOM      3  C   UNL     1      68.358  76.270  94.538  1.00  0.00     0.006 C 
BRANCH   3   4
ATOM      4  C   UNL     1      67.882  76.966  93.257  1.00  0.00     0.053 C 
BRANCH   4   5
ATOM      5  C   UNL     1      68.275  76.169  92.053  1.00  0.00     0.041 C 
ATOM      6  O   UNL     1      67.906  76.530  90.905  1.00  0.00    -0.550 OA
ATOM      7  O   UNL     1      69.007  74.999  92.205  1.00  0.00    -0.550 OA
ENDBRANCH   4   5
ENDBRANCH   3   4
ENDBRANCH   2   3
ENDBRANCH   1   2
BRANCH   1   8
ATOM      8  C   UNL     1      68.087  77.124  98.328  1.00  0.00     0.000 C 
BRANCH   8   9
ATOM      9  C   UNL     1      69.436  77.462  98.976  1.00  0.00    -0.000 C 
BRANCH   9  10
ATOM     10  C   UNL     1      69.691  78.974  98.961  1.00  0.00    -0.000 C 
BRANCH  10  11
ATOM     11  C   UNL     1      68.382  79.754  99.158  1.00  0.00    -0.000 C 
BRANCH  11  12
ATOM     12  C   UNL     1      68.117  80.100 100.631  1.00  0.00    -0.003 C 
ATOM     13  C   UNL     1      69.038  79.348 101.591  1.00  0.00     0.004 C 
ENDBRANCH  11  12
ENDBRANCH  10  11
ENDBRANCH   9  10
ENDBRANCH   8   9
ENDBRANCH   1   8
TORSDOF 9
ENDMDL
