MODEL 1
REMARK VINA RESULT:     4.459      0.000      0.000
REMARK INTER + INTRA:           6.167
REMARK INTER:                   6.544
REMARK INTRA:                  -0.377
REMARK UNBOUND:                -0.377
REMARK SMILES O=C([O-])CCCCCCCC(=O)[O-]
REMARK SMILES IDX 7 1 6 2 5 3 4 4 2 5 1 6 3 7 8 8 9 9 10 10 11 11 12 12 13 13
REMARK H PARENT
REMARK Flexibility Score: inf
ROOT
ATOM      1  C   UNL     1       0.502   7.304  -4.073  1.00  0.00     0.000 C 
ENDROOT
BRANCH   1   2
ATOM      2  C   UNL     1       1.425   7.132  -2.854  1.00  0.00     0.000 C 
BRANCH   2   3
ATOM      3  C   UNL     1       2.903   7.380  -3.194  1.00  0.00     0.006 C 
BRANCH   3   4
ATOM      4  C   UNL     1       3.826   7.213  -1.980  1.00  0.00     0.053 C 
BRANCH   4   5
ATOM      5  C   UNL     1       5.258   7.185  -2.412  1.00  0.00     0.041 C 
ATOM      6  O   UNL     1       5.690   6.234  -3.115  1.00  0.00    -0.550 OA
ATOM      7  O   UNL     1       6.105   8.235  -2.081  1.00  0.00    -0.550 OA
ENDBRANCH   4   5
ENDBRANCH   3   4
ENDBRANCH   2   3
ENDBRANCH   1   2
BRANCH   1   8
ATOM      8  C   UNL     1       0.227   8.779  -4.402  1.00  0.00     0.000 C 
BRANCH   8   9
ATOM      9  C   UNL     1       0.452   9.110  -5.888  1.00  0.00     0.006 C 
BRANCH   9  10
ATOM     10  C   UNL     1       1.862   8.731  -6.358  1.00  0.00     0.053 C 
BRANCH  10  11
ATOM     11  C   UNL     1       1.945   8.652  -7.852  1.00  0.00     0.041 C 
ATOM     12  O   UNL     1       0.971   8.213  -8.518  1.00  0.00    -0.550 OA
ATOM     13  O   UNL     1       3.085   9.096  -8.509  1.00  0.00    -0.550 OA
ENDBRANCH  10  11
ENDBRANCH   9  10
ENDBRANCH   8   9
ENDBRANCH   1   8
TORSDOF 8
ENDMDL
MODEL 2
REMARK VINA RESULT:     4.469      0.063      5.526
REMARK INTER + INTRA:           6.183
REMARK INTER:                   6.550
REMARK INTRA:                  -0.368
REMARK UNBOUND:                -0.377
REMARK SMILES O=C([O-])CCCCCCCC(=O)[O-]
REMARK SMILES IDX 7 1 6 2 5 3 4 4 2 5 1 6 3 7 8 8 9 9 10 10 11 11 12 12 13 13
REMARK H PARENT
REMARK Flexibility Score: inf
ROOT
ATOM      1  C   UNL     1       0.526   7.284  -4.083  1.00  0.00     0.000 C 
ENDROOT
BRANCH   1   2
ATOM      2  C   UNL     1       0.132   8.734  -4.417  1.00  0.00     0.000 C 
BRANCH   2   3
ATOM      3  C   UNL     1       0.408   9.096  -5.885  1.00  0.00     0.006 C 
BRANCH   3   4
ATOM      4  C   UNL     1       1.830   8.729  -6.329  1.00  0.00     0.053 C 
BRANCH   4   5
ATOM      5  C   UNL     1       1.908   8.651  -7.821  1.00  0.00     0.041 C 
ATOM      6  O   UNL     1       0.929   8.218  -8.485  1.00  0.00    -0.550 OA
ATOM      7  O   UNL     1       3.042   9.102  -8.482  1.00  0.00    -0.550 OA
ENDBRANCH   4   5
ENDBRANCH   3   4
ENDBRANCH   2   3
ENDBRANCH   1   2
BRANCH   1   8
ATOM      8  C   UNL     1       1.452   7.191  -2.861  1.00  0.00     0.000 C 
BRANCH   8   9
ATOM      9  C   UNL     1       2.938   7.347  -3.227  1.00  0.00     0.006 C 
BRANCH   9  10
ATOM     10  C   UNL     1       3.853   7.217  -2.001  1.00  0.00     0.053 C 
BRANCH  10  11
ATOM     11  C   UNL     1       5.300   7.209  -2.389  1.00  0.00     0.041 C 
ATOM     12  O   UNL     1       5.777   6.242  -3.041  1.00  0.00    -0.550 OA
ATOM     13  O   UNL     1       6.114   8.286  -2.061  1.00  0.00    -0.550 OA
ENDBRANCH  10  11
ENDBRANCH   9  10
ENDBRANCH   8   9
ENDBRANCH   1   8
TORSDOF 8
ENDMDL
MODEL 3
REMARK VINA RESULT:     4.671      2.021      5.719
REMARK INTER + INTRA:           6.480
REMARK INTER:                   6.668
REMARK INTRA:                  -0.188
REMARK UNBOUND:                -0.377
REMARK SMILES O=C([O-])CCCCCCCC(=O)[O-]
REMARK SMILES IDX 7 1 6 2 5 3 4 4 2 5 1 6 3 7 8 8 9 9 10 10 11 11 12 12 13 13
REMARK H PARENT
REMARK Flexibility Score: inf
ROOT
ATOM      1  C   UNL     1       3.442   7.211  -2.256  1.00  0.00     0.000 C 
ENDROOT
BRANCH   1   2
ATOM      2  C   UNL     1       2.693   7.653  -3.525  1.00  0.00     0.000 C 
BRANCH   2   3
ATOM      3  C   UNL     1       1.166   7.625  -3.349  1.00  0.00     0.006 C 
BRANCH   3   4
ATOM      4  C   UNL     1       0.416   7.588  -4.686  1.00  0.00     0.053 C 
BRANCH   4   5
ATOM      5  C   UNL     1       0.755   8.793  -5.508  1.00  0.00     0.041 C 
ATOM      6  O   UNL     1       0.398   9.939  -5.128  1.00  0.00    -0.550 OA
ATOM      7  O   UNL     1       1.506   8.654  -6.667  1.00  0.00    -0.550 OA
ENDBRANCH   4   5
ENDBRANCH   3   4
ENDBRANCH   2   3
ENDBRANCH   1   2
BRANCH   1   8
ATOM      8  C   UNL     1       4.911   7.661  -2.251  1.00  0.00     0.000 C 
BRANCH   8   9
ATOM      9  C   UNL     1       5.878   6.542  -2.675  1.00  0.00     0.006 C 
BRANCH   9  10
ATOM     10  C   UNL     1       5.139   5.328  -3.253  1.00  0.00     0.053 C 
BRANCH  10  11
ATOM     11  C   UNL     1       6.012   4.539  -4.181  1.00  0.00     0.041 C 
ATOM     12  O   UNL     1       6.011   4.787  -5.416  1.00  0.00    -0.550 OA
ATOM     13  O   UNL     1       6.852   3.555  -3.678  1.00  0.00    -0.550 OA
ENDBRANCH  10  11
ENDBRANCH   9  10
ENDBRANCH   8   9
ENDBRANCH   1   8
TORSDOF 8
ENDMDL
MODEL 4
REMARK VINA RESULT:     4.699      2.026      3.257
REMARK INTER + INTRA:           6.521
REMARK INTER:                   6.676
REMARK INTRA:                  -0.156
REMARK UNBOUND:                -0.377
REMARK SMILES O=C([O-])CCCCCCCC(=O)[O-]
REMARK SMILES IDX 7 1 6 2 5 3 4 4 2 5 1 6 3 7 8 8 9 9 10 10 11 11 12 12 13 13
REMARK H PARENT
REMARK Flexibility Score: inf
ROOT
ATOM      1  C   UNL     1       3.488   7.260  -2.204  1.00  0.00     0.000 C 
ENDROOT
BRANCH   1   2
ATOM      2  C   UNL     1       4.968   7.680  -2.252  1.00  0.00     0.000 C 
BRANCH   2   3
ATOM      3  C   UNL     1       5.892   6.532  -2.688  1.00  0.00     0.006 C 
BRANCH   3   4
ATOM      4  C   UNL     1       5.121   5.335  -3.259  1.00  0.00     0.053 C 
BRANCH   4   5
ATOM      5  C   UNL     1       5.995   4.541  -4.178  1.00  0.00     0.041 C 
ATOM      6  O   UNL     1       5.994   4.777  -5.415  1.00  0.00    -0.550 OA
ATOM      7  O   UNL     1       6.848   3.573  -3.663  1.00  0.00    -0.550 OA
ENDBRANCH   4   5
ENDBRANCH   3   4
ENDBRANCH   2   3
ENDBRANCH   1   2
BRANCH   1   8
ATOM      8  C   UNL     1       2.725   7.640  -3.483  1.00  0.00     0.000 C 
BRANCH   8   9
ATOM      9  C   UNL     1       1.198   7.595  -3.300  1.00  0.00     0.006 C 
BRANCH   9  10
ATOM     10  C   UNL     1       0.455   7.562  -4.643  1.00  0.00     0.053 C 
BRANCH  10  11
ATOM     11  C   UNL     1       0.751   8.777  -5.469  1.00  0.00     0.041 C 
ATOM     12  O   UNL     1       0.351   9.911  -5.094  1.00  0.00    -0.550 OA
ATOM     13  O   UNL     1       1.497   8.660  -6.634  1.00  0.00    -0.550 OA
ENDBRANCH  10  11
ENDBRANCH   9  10
ENDBRANCH   8   9
ENDBRANCH   1   8
TORSDOF 8
ENDMDL
