MODEL 1
REMARK VINA RESULT:    -0.959      0.000      0.000
REMARK INTER + INTRA:          -4.054
REMARK INTER:                  -2.192
REMARK INTRA:                  -1.861
REMARK UNBOUND:                -1.861
REMARK SMILES CCCCCCCCCCCCCCCCCCCCCCCC(=O)[O-]
REMARK SMILES IDX 13 1 14 2 15 3 16 4 17 5 18 6 19 7 20 8 21 9 22 10 23 11
REMARK SMILES IDX 24 12 25 13 26 14 12 15 11 16 10 17 9 18 8 19 7 20 6 21 5 22
REMARK SMILES IDX 4 23 3 24 2 25 1 26
REMARK H PARENT
REMARK Flexibility Score: inf
ROOT
ATOM      1  C   UNL     1      13.800  14.303   6.123  1.00  0.00     0.000 C 
ENDROOT
BRANCH   1   2
ATOM      2  C   UNL     1      14.561  15.623   5.898  1.00  0.00     0.000 C 
BRANCH   2   3
ATOM      3  C   UNL     1      15.239  16.211   7.149  1.00  0.00     0.000 C 
BRANCH   3   4
ATOM      4  C   UNL     1      16.653  16.745   6.865  1.00  0.00     0.000 C 
BRANCH   4   5
ATOM      5  C   UNL     1      17.111  17.790   7.894  1.00  0.00     0.000 C 
BRANCH   5   6
ATOM      6  C   UNL     1      16.063  18.049   8.989  1.00  0.00     0.000 C 
BRANCH   6   7
ATOM      7  C   UNL     1      16.606  19.009  10.054  1.00  0.00     0.000 C 
BRANCH   7   8
ATOM      8  C   UNL     1      15.742  20.276  10.145  1.00  0.00     0.000 C 
BRANCH   8   9
ATOM      9  C   UNL     1      16.398  21.392  10.979  1.00  0.00     0.000 C 
BRANCH   9  10
ATOM     10  C   UNL     1      15.551  21.913  12.158  1.00  0.00     0.006 C 
BRANCH  10  11
ATOM     11  C   UNL     1      14.031  21.845  11.936  1.00  0.00     0.053 C 
BRANCH  11  12
ATOM     12  C   UNL     1      13.405  20.704  12.678  1.00  0.00     0.041 C 
ATOM     13  O   UNL     1      12.231  20.808  13.125  1.00  0.00    -0.550 OA
ATOM     14  O   UNL     1      14.127  19.540  12.906  1.00  0.00    -0.550 OA
ENDBRANCH  11  12
ENDBRANCH  10  11
ENDBRANCH   9  10
ENDBRANCH   8   9
ENDBRANCH   7   8
ENDBRANCH   6   7
ENDBRANCH   5   6
ENDBRANCH   4   5
ENDBRANCH   3   4
ENDBRANCH   2   3
ENDBRANCH   1   2
BRANCH   1  15
ATOM     15  C   UNL     1      14.345  13.496   7.315  1.00  0.00     0.000 C 
BRANCH  15  16
ATOM     16  C   UNL     1      15.858  13.236   7.217  1.00  0.00     0.000 C 
BRANCH  16  17
ATOM     17  C   UNL     1      16.503  12.947   8.585  1.00  0.00     0.000 C 
BRANCH  17  18
ATOM     18  C   UNL     1      17.059  14.221   9.249  1.00  0.00    -0.000 C 
BRANCH  18  19
ATOM     19  C   UNL     1      16.108  14.815  10.310  1.00  0.00    -0.000 C 
BRANCH  19  20
ATOM     20  C   UNL     1      16.844  15.553  11.444  1.00  0.00    -0.000 C 
BRANCH  20  21
ATOM     21  C   UNL     1      16.355  15.117  12.836  1.00  0.00    -0.000 C 
BRANCH  21  22
ATOM     22  C   UNL     1      16.377  13.587  13.017  1.00  0.00    -0.000 C 
BRANCH  22  23
ATOM     23  C   UNL     1      15.062  12.878  12.637  1.00  0.00    -0.000 C 
BRANCH  23  24
ATOM     24  C   UNL     1      15.228  11.596  11.795  1.00  0.00    -0.000 C 
BRANCH  24  25
ATOM     25  C   UNL     1      16.675  11.059  11.753  1.00  0.00    -0.003 C 
ATOM     26  C   UNL     1      16.733   9.532  11.813  1.00  0.00     0.004 C 
ENDBRANCH  24  25
ENDBRANCH  23  24
ENDBRANCH  22  23
ENDBRANCH  21  22
ENDBRANCH  20  21
ENDBRANCH  19  20
ENDBRANCH  18  19
ENDBRANCH  17  18
ENDBRANCH  16  17
ENDBRANCH  15  16
ENDBRANCH   1  15
TORSDOF 22
ENDMDL
MODEL 2
REMARK VINA RESULT:    -0.839      3.087      7.397
REMARK INTER + INTRA:          -3.780
REMARK INTER:                  -2.041
REMARK INTRA:                  -1.739
REMARK UNBOUND:                -1.861
REMARK SMILES CCCCCCCCCCCCCCCCCCCCCCCC(=O)[O-]
REMARK SMILES IDX 13 1 14 2 15 3 16 4 17 5 18 6 19 7 20 8 21 9 22 10 23 11
REMARK SMILES IDX 24 12 25 13 26 14 12 15 11 16 10 17 9 18 8 19 7 20 6 21 5 22
REMARK SMILES IDX 4 23 3 24 2 25 1 26
REMARK H PARENT
REMARK Flexibility Score: inf
ROOT
ATOM      1  C   UNL     1      13.751  12.733   8.109  1.00  0.00     0.000 C 
ENDROOT
BRANCH   1   2
ATOM      2  C   UNL     1      14.541  12.961   9.412  1.00  0.00     0.000 C 
BRANCH   2   3
ATOM      3  C   UNL     1      14.027  12.179  10.635  1.00  0.00     0.000 C 
BRANCH   3   4
ATOM      4  C   UNL     1      14.940  12.325  11.864  1.00  0.00     0.000 C 
BRANCH   4   5
ATOM      5  C   UNL     1      15.970  13.455  11.707  1.00  0.00     0.000 C 
BRANCH   5   6
ATOM      6  C   UNL     1      15.558  14.744  12.436  1.00  0.00     0.000 C 
BRANCH   6   7
ATOM      7  C   UNL     1      16.759  15.678  12.624  1.00  0.00     0.000 C 
BRANCH   7   8
ATOM      8  C   UNL     1      16.469  17.072  12.049  1.00  0.00     0.000 C 
BRANCH   8   9
ATOM      9  C   UNL     1      16.472  17.100  10.508  1.00  0.00     0.000 C 
BRANCH   9  10
ATOM     10  C   UNL     1      15.588  18.190   9.871  1.00  0.00     0.006 C 
BRANCH  10  11
ATOM     11  C   UNL     1      16.193  19.604   9.897  1.00  0.00     0.053 C 
BRANCH  11  12
ATOM     12  C   UNL     1      15.450  20.515  10.826  1.00  0.00     0.041 C 
ATOM     13  O   UNL     1      16.018  21.536  11.298  1.00  0.00    -0.550 OA
ATOM     14  O   UNL     1      14.145  20.221  11.196  1.00  0.00    -0.550 OA
ENDBRANCH  11  12
ENDBRANCH  10  11
ENDBRANCH   9  10
ENDBRANCH   8   9
ENDBRANCH   7   8
ENDBRANCH   6   7
ENDBRANCH   5   6
ENDBRANCH   4   5
ENDBRANCH   3   4
ENDBRANCH   2   3
ENDBRANCH   1   2
BRANCH   1  15
ATOM     15  C   UNL     1      14.552  13.119   6.852  1.00  0.00     0.000 C 
BRANCH  15  16
ATOM     16  C   UNL     1      15.788  13.975   7.172  1.00  0.00     0.000 C 
BRANCH  16  17
ATOM     17  C   UNL     1      15.444  15.458   7.400  1.00  0.00     0.000 C 
BRANCH  17  18
ATOM     18  C   UNL     1      16.481  16.404   6.764  1.00  0.00    -0.000 C 
BRANCH  18  19
ATOM     19  C   UNL     1      16.079  16.882   5.354  1.00  0.00    -0.000 C 
BRANCH  19  20
ATOM     20  C   UNL     1      14.556  16.871   5.117  1.00  0.00    -0.000 C 
BRANCH  20  21
ATOM     21  C   UNL     1      14.201  16.734   3.626  1.00  0.00    -0.000 C 
BRANCH  21  22
ATOM     22  C   UNL     1      15.039  17.664   2.730  1.00  0.00    -0.000 C 
BRANCH  22  23
ATOM     23  C   UNL     1      14.371  18.041   1.393  1.00  0.00    -0.000 C 
BRANCH  23  24
ATOM     24  C   UNL     1      15.270  18.810   0.404  1.00  0.00    -0.000 C 
BRANCH  24  25
ATOM     25  C   UNL     1      14.763  20.230   0.074  1.00  0.00    -0.003 C 
ATOM     26  C   UNL     1      13.321  20.233  -0.432  1.00  0.00     0.004 C 
ENDBRANCH  24  25
ENDBRANCH  23  24
ENDBRANCH  22  23
ENDBRANCH  21  22
ENDBRANCH  20  21
ENDBRANCH  19  20
ENDBRANCH  18  19
ENDBRANCH  17  18
ENDBRANCH  16  17
ENDBRANCH  15  16
ENDBRANCH   1  15
TORSDOF 22
ENDMDL
MODEL 3
REMARK VINA RESULT:    -0.569      4.943      9.212
REMARK INTER + INTRA:          -3.163
REMARK INTER:                  -1.544
REMARK INTRA:                  -1.619
REMARK UNBOUND:                -1.861
REMARK SMILES CCCCCCCCCCCCCCCCCCCCCCCC(=O)[O-]
REMARK SMILES IDX 13 1 14 2 15 3 16 4 17 5 18 6 19 7 20 8 21 9 22 10 23 11
REMARK SMILES IDX 24 12 25 13 26 14 12 15 11 16 10 17 9 18 8 19 7 20 6 21 5 22
REMARK SMILES IDX 4 23 3 24 2 25 1 26
REMARK H PARENT
REMARK Flexibility Score: inf
ROOT
ATOM      1  C   UNL     1      14.750  15.545   6.040  1.00  0.00     0.000 C 
ENDROOT
BRANCH   1   2
ATOM      2  C   UNL     1      15.543  15.803   7.336  1.00  0.00     0.000 C 
BRANCH   2   3
ATOM      3  C   UNL     1      16.910  16.483   7.143  1.00  0.00     0.000 C 
BRANCH   3   4
ATOM      4  C   UNL     1      17.125  17.671   8.096  1.00  0.00     0.000 C 
BRANCH   4   5
ATOM      5  C   UNL     1      16.000  17.813   9.133  1.00  0.00     0.000 C 
BRANCH   5   6
ATOM      6  C   UNL     1      16.385  18.720  10.312  1.00  0.00     0.000 C 
BRANCH   6   7
ATOM      7  C   UNL     1      16.993  17.904  11.458  1.00  0.00     0.000 C 
BRANCH   7   8
ATOM      8  C   UNL     1      15.898  17.239  12.304  1.00  0.00     0.000 C 
BRANCH   8   9
ATOM      9  C   UNL     1      16.152  15.739  12.546  1.00  0.00     0.000 C 
BRANCH   9  10
ATOM     10  C   UNL     1      16.339  14.892  11.271  1.00  0.00     0.006 C 
BRANCH  10  11
ATOM     11  C   UNL     1      16.022  13.397  11.442  1.00  0.00     0.053 C 
BRANCH  11  12
ATOM     12  C   UNL     1      14.747  13.011  10.755  1.00  0.00     0.041 C 
ATOM     13  O   UNL     1      13.674  12.933  11.411  1.00  0.00    -0.550 OA
ATOM     14  O   UNL     1      14.749  12.708   9.400  1.00  0.00    -0.550 OA
ENDBRANCH  11  12
ENDBRANCH  10  11
ENDBRANCH   9  10
ENDBRANCH   8   9
ENDBRANCH   7   8
ENDBRANCH   6   7
ENDBRANCH   5   6
ENDBRANCH   4   5
ENDBRANCH   3   4
ENDBRANCH   2   3
ENDBRANCH   1   2
BRANCH   1  15
ATOM     15  C   UNL     1      14.578  16.812   5.184  1.00  0.00     0.000 C 
BRANCH  15  16
ATOM     16  C   UNL     1      13.461  16.678   4.136  1.00  0.00     0.000 C 
BRANCH  16  17
ATOM     17  C   UNL     1      13.969  16.873   2.695  1.00  0.00     0.000 C 
BRANCH  17  18
ATOM     18  C   UNL     1      15.243  17.737   2.637  1.00  0.00    -0.000 C 
BRANCH  18  19
ATOM     19  C   UNL     1      15.473  18.383   1.255  1.00  0.00    -0.000 C 
BRANCH  19  20
ATOM     20  C   UNL     1      16.923  18.852   1.034  1.00  0.00    -0.000 C 
BRANCH  20  21
ATOM     21  C   UNL     1      17.028  19.923  -0.066  1.00  0.00    -0.000 C 
BRANCH  21  22
ATOM     22  C   UNL     1      15.912  20.980   0.030  1.00  0.00    -0.000 C 
BRANCH  22  23
ATOM     23  C   UNL     1      15.085  21.159  -1.258  1.00  0.00    -0.000 C 
BRANCH  23  24
ATOM     24  C   UNL     1      13.560  21.004  -1.085  1.00  0.00    -0.000 C 
BRANCH  24  25
ATOM     25  C   UNL     1      13.138  19.669  -0.434  1.00  0.00    -0.003 C 
ATOM     26  C   UNL     1      11.861  19.097  -1.050  1.00  0.00     0.004 C 
ENDBRANCH  24  25
ENDBRANCH  23  24
ENDBRANCH  22  23
ENDBRANCH  21  22
ENDBRANCH  20  21
ENDBRANCH  19  20
ENDBRANCH  18  19
ENDBRANCH  17  18
ENDBRANCH  16  17
ENDBRANCH  15  16
ENDBRANCH   1  15
TORSDOF 22
ENDMDL
MODEL 4
REMARK VINA RESULT:    -0.258      4.480      6.955
REMARK INTER + INTRA:          -2.451
REMARK INTER:                  -0.751
REMARK INTRA:                  -1.700
REMARK UNBOUND:                -1.861
REMARK SMILES CCCCCCCCCCCCCCCCCCCCCCCC(=O)[O-]
REMARK SMILES IDX 13 1 14 2 15 3 16 4 17 5 18 6 19 7 20 8 21 9 22 10 23 11
REMARK SMILES IDX 24 12 25 13 26 14 12 15 11 16 10 17 9 18 8 19 7 20 6 21 5 22
REMARK SMILES IDX 4 23 3 24 2 25 1 26
REMARK H PARENT
REMARK Flexibility Score: inf
ROOT
ATOM      1  C   UNL     1      14.064  12.587   7.926  1.00  0.00     0.000 C 
ENDROOT
BRANCH   1   2
ATOM      2  C   UNL     1      15.076  13.444   7.141  1.00  0.00     0.000 C 
BRANCH   2   3
ATOM      3  C   UNL     1      14.878  14.966   7.263  1.00  0.00     0.000 C 
BRANCH   3   4
ATOM      4  C   UNL     1      15.795  15.604   8.320  1.00  0.00     0.000 C 
BRANCH   4   5
ATOM      5  C   UNL     1      17.017  16.302   7.702  1.00  0.00     0.000 C 
BRANCH   5   6
ATOM      6  C   UNL     1      17.069  16.174   6.171  1.00  0.00     0.000 C 
BRANCH   6   7
ATOM      7  C   UNL     1      16.922  17.544   5.499  1.00  0.00     0.000 C 
BRANCH   7   8
ATOM      8  C   UNL     1      16.388  17.400   4.067  1.00  0.00     0.000 C 
BRANCH   8   9
ATOM      9  C   UNL     1      17.125  18.300   3.057  1.00  0.00     0.000 C 
BRANCH   9  10
ATOM     10  C   UNL     1      16.563  18.271   1.621  1.00  0.00     0.006 C 
BRANCH  10  11
ATOM     11  C   UNL     1      16.401  19.652   0.967  1.00  0.00     0.053 C 
BRANCH  11  12
ATOM     12  C   UNL     1      15.074  19.799   0.286  1.00  0.00     0.041 C 
ATOM     13  O   UNL     1      14.184  18.921   0.440  1.00  0.00    -0.550 OA
ATOM     14  O   UNL     1      14.831  20.887  -0.542  1.00  0.00    -0.550 OA
ENDBRANCH  11  12
ENDBRANCH  10  11
ENDBRANCH   9  10
ENDBRANCH   8   9
ENDBRANCH   7   8
ENDBRANCH   6   7
ENDBRANCH   5   6
ENDBRANCH   4   5
ENDBRANCH   3   4
ENDBRANCH   2   3
ENDBRANCH   1   2
BRANCH   1  15
ATOM     15  C   UNL     1      13.965  12.989   9.408  1.00  0.00     0.000 C 
BRANCH  15  16
ATOM     16  C   UNL     1      13.812  11.780  10.346  1.00  0.00     0.000 C 
BRANCH  16  17
ATOM     17  C   UNL     1      14.987  11.638  11.331  1.00  0.00     0.000 C 
BRANCH  17  18
ATOM     18  C   UNL     1      15.177  12.897  12.198  1.00  0.00    -0.000 C 
BRANCH  18  19
ATOM     19  C   UNL     1      16.565  12.965  12.869  1.00  0.00    -0.000 C 
BRANCH  19  20
ATOM     20  C   UNL     1      17.125  14.396  12.969  1.00  0.00    -0.000 C 
BRANCH  20  21
ATOM     21  C   UNL     1      16.492  15.343  11.934  1.00  0.00    -0.000 C 
BRANCH  21  22
ATOM     22  C   UNL     1      15.472  16.310  12.564  1.00  0.00    -0.000 C 
BRANCH  22  23
ATOM     23  C   UNL     1      15.823  17.803  12.409  1.00  0.00    -0.000 C 
BRANCH  23  24
ATOM     24  C   UNL     1      17.031  18.101  11.498  1.00  0.00    -0.000 C 
BRANCH  24  25
ATOM     25  C   UNL     1      16.977  19.489  10.824  1.00  0.00    -0.003 C 
ATOM     26  C   UNL     1      15.905  19.568   9.736  1.00  0.00     0.004 C 
ENDBRANCH  24  25
ENDBRANCH  23  24
ENDBRANCH  22  23
ENDBRANCH  21  22
ENDBRANCH  20  21
ENDBRANCH  19  20
ENDBRANCH  18  19
ENDBRANCH  17  18
ENDBRANCH  16  17
ENDBRANCH  15  16
ENDBRANCH   1  15
TORSDOF 22
ENDMDL
MODEL 5
REMARK VINA RESULT:    -0.188      5.302      7.536
REMARK INTER + INTRA:          -2.291
REMARK INTER:                  -1.008
REMARK INTRA:                  -1.283
REMARK UNBOUND:                -1.861
REMARK SMILES CCCCCCCCCCCCCCCCCCCCCCCC(=O)[O-]
REMARK SMILES IDX 13 1 14 2 15 3 16 4 17 5 18 6 19 7 20 8 21 9 22 10 23 11
REMARK SMILES IDX 24 12 25 13 26 14 12 15 11 16 10 17 9 18 8 19 7 20 6 21 5 22
REMARK SMILES IDX 4 23 3 24 2 25 1 26
REMARK H PARENT
REMARK Flexibility Score: inf
ROOT
ATOM      1  C   UNL     1      15.786  16.952   8.505  1.00  0.00     0.000 C 
ENDROOT
BRANCH   1   2
ATOM      2  C   UNL     1      16.049  16.132   7.228  1.00  0.00     0.000 C 
BRANCH   2   3
ATOM      3  C   UNL     1      14.903  16.135   6.199  1.00  0.00     0.000 C 
BRANCH   3   4
ATOM      4  C   UNL     1      15.269  16.873   4.901  1.00  0.00     0.000 C 
BRANCH   4   5
ATOM      5  C   UNL     1      14.132  16.856   3.867  1.00  0.00     0.000 C 
BRANCH   5   6
ATOM      6  C   UNL     1      14.555  17.431   2.505  1.00  0.00     0.000 C 
BRANCH   6   7
ATOM      7  C   UNL     1      15.954  18.052   2.580  1.00  0.00     0.000 C 
BRANCH   7   8
ATOM      8  C   UNL     1      16.486  18.383   1.178  1.00  0.00     0.000 C 
BRANCH   8   9
ATOM      9  C   UNL     1      16.348  19.874   0.819  1.00  0.00     0.000 C 
BRANCH   9  10
ATOM     10  C   UNL     1      15.195  20.212  -0.147  1.00  0.00     0.006 C 
BRANCH  10  11
ATOM     11  C   UNL     1      13.956  19.312  -0.007  1.00  0.00     0.053 C 
BRANCH  11  12
ATOM     12  C   UNL     1      12.761  19.890  -0.703  1.00  0.00     0.041 C 
ATOM     13  O   UNL     1      12.631  21.139  -0.806  1.00  0.00    -0.550 OA
ATOM     14  O   UNL     1      11.775  19.052  -1.208  1.00  0.00    -0.550 OA
ENDBRANCH  11  12
ENDBRANCH  10  11
ENDBRANCH   9  10
ENDBRANCH   8   9
ENDBRANCH   7   8
ENDBRANCH   6   7
ENDBRANCH   5   6
ENDBRANCH   4   5
ENDBRANCH   3   4
ENDBRANCH   2   3
ENDBRANCH   1   2
BRANCH   1  15
ATOM     15  C   UNL     1      16.984  17.831   8.906  1.00  0.00     0.000 C 
BRANCH  15  16
ATOM     16  C   UNL     1      16.720  19.331   8.698  1.00  0.00     0.000 C 
BRANCH  16  17
ATOM     17  C   UNL     1      16.509  20.089  10.022  1.00  0.00     0.000 C 
BRANCH  17  18
ATOM     18  C   UNL     1      15.298  19.557  10.813  1.00  0.00    -0.000 C 
BRANCH  18  19
ATOM     19  C   UNL     1      15.430  19.769  12.335  1.00  0.00    -0.000 C 
BRANCH  19  20
ATOM     20  C   UNL     1      15.730  18.471  13.109  1.00  0.00    -0.000 C 
BRANCH  20  21
ATOM     21  C   UNL     1      16.367  17.394  12.214  1.00  0.00    -0.000 C 
BRANCH  21  22
ATOM     22  C   UNL     1      16.069  15.965  12.706  1.00  0.00    -0.000 C 
BRANCH  22  23
ATOM     23  C   UNL     1      16.247  14.869  11.636  1.00  0.00    -0.000 C 
BRANCH  23  24
ATOM     24  C   UNL     1      15.100  13.841  11.554  1.00  0.00    -0.000 C 
BRANCH  24  25
ATOM     25  C   UNL     1      14.785  13.368  10.119  1.00  0.00    -0.003 C 
ATOM     26  C   UNL     1      14.064  12.021  10.092  1.00  0.00     0.004 C 
ENDBRANCH  24  25
ENDBRANCH  23  24
ENDBRANCH  22  23
ENDBRANCH  21  22
ENDBRANCH  20  21
ENDBRANCH  19  20
ENDBRANCH  18  19
ENDBRANCH  17  18
ENDBRANCH  16  17
ENDBRANCH  15  16
ENDBRANCH   1  15
TORSDOF 22
ENDMDL
MODEL 6
REMARK VINA RESULT:    -0.011      5.758      7.580
REMARK INTER + INTRA:          -1.887
REMARK INTER:                  -0.620
REMARK INTRA:                  -1.267
REMARK UNBOUND:                -1.861
REMARK SMILES CCCCCCCCCCCCCCCCCCCCCCCC(=O)[O-]
REMARK SMILES IDX 13 1 14 2 15 3 16 4 17 5 18 6 19 7 20 8 21 9 22 10 23 11
REMARK SMILES IDX 24 12 25 13 26 14 12 15 11 16 10 17 9 18 8 19 7 20 6 21 5 22
REMARK SMILES IDX 4 23 3 24 2 25 1 26
REMARK H PARENT
REMARK Flexibility Score: inf
ROOT
ATOM      1  C   UNL     1      14.949  15.898   6.305  1.00  0.00     0.000 C 
ENDROOT
BRANCH   1   2
ATOM      2  C   UNL     1      15.168  16.836   5.102  1.00  0.00     0.000 C 
BRANCH   2   3
ATOM      3  C   UNL     1      14.012  16.881   4.087  1.00  0.00     0.000 C 
BRANCH   3   4
ATOM      4  C   UNL     1      14.491  17.129   2.647  1.00  0.00     0.000 C 
BRANCH   4   5
ATOM      5  C   UNL     1      15.754  18.002   2.583  1.00  0.00     0.000 C 
BRANCH   5   6
ATOM      6  C   UNL     1      16.146  18.381   1.146  1.00  0.00     0.000 C 
BRANCH   6   7
ATOM      7  C   UNL     1      17.054  19.616   1.131  1.00  0.00     0.000 C 
BRANCH   7   8
ATOM      8  C   UNL     1      16.994  20.329  -0.228  1.00  0.00     0.000 C 
BRANCH   8   9
ATOM      9  C   UNL     1      15.854  21.361  -0.316  1.00  0.00     0.000 C 
BRANCH   9  10
ATOM     10  C   UNL     1      14.730  21.013  -1.312  1.00  0.00     0.006 C 
BRANCH  10  11
ATOM     11  C   UNL     1      13.315  21.013  -0.709  1.00  0.00     0.053 C 
BRANCH  11  12
ATOM     12  C   UNL     1      12.748  19.629  -0.610  1.00  0.00     0.041 C 
ATOM     13  O   UNL     1      13.220  18.811   0.224  1.00  0.00    -0.550 OA
ATOM     14  O   UNL     1      11.724  19.232  -1.459  1.00  0.00    -0.550 OA
ENDBRANCH  11  12
ENDBRANCH  10  11
ENDBRANCH   9  10
ENDBRANCH   8   9
ENDBRANCH   7   8
ENDBRANCH   6   7
ENDBRANCH   5   6
ENDBRANCH   4   5
ENDBRANCH   3   4
ENDBRANCH   2   3
ENDBRANCH   1   2
BRANCH   1  15
ATOM     15  C   UNL     1      16.261  15.536   7.024  1.00  0.00     0.000 C 
BRANCH  15  16
ATOM     16  C   UNL     1      16.758  16.652   7.958  1.00  0.00     0.000 C 
BRANCH  16  17
ATOM     17  C   UNL     1      15.629  17.266   8.806  1.00  0.00     0.000 C 
BRANCH  17  18
ATOM     18  C   UNL     1      16.028  18.623   9.415  1.00  0.00    -0.000 C 
BRANCH  18  19
ATOM     19  C   UNL     1      16.870  18.485  10.701  1.00  0.00    -0.000 C 
BRANCH  19  20
ATOM     20  C   UNL     1      16.018  18.328  11.975  1.00  0.00    -0.000 C 
BRANCH  20  21
ATOM     21  C   UNL     1      16.720  17.472  13.043  1.00  0.00    -0.000 C 
BRANCH  21  22
ATOM     22  C   UNL     1      17.104  16.074  12.523  1.00  0.00    -0.000 C 
BRANCH  22  23
ATOM     23  C   UNL     1      15.924  15.249  11.972  1.00  0.00    -0.000 C 
BRANCH  23  24
ATOM     24  C   UNL     1      15.867  13.784  12.451  1.00  0.00    -0.000 C 
BRANCH  24  25
ATOM     25  C   UNL     1      14.683  12.982  11.870  1.00  0.00    -0.003 C 
ATOM     26  C   UNL     1      13.537  12.825  12.870  1.00  0.00     0.004 C 
ENDBRANCH  24  25
ENDBRANCH  23  24
ENDBRANCH  22  23
ENDBRANCH  21  22
ENDBRANCH  20  21
ENDBRANCH  19  20
ENDBRANCH  18  19
ENDBRANCH  17  18
ENDBRANCH  16  17
ENDBRANCH  15  16
ENDBRANCH   1  15
TORSDOF 22
ENDMDL
MODEL 7
REMARK VINA RESULT:     0.110      5.062      9.666
REMARK INTER + INTRA:          -1.609
REMARK INTER:                   0.117
REMARK INTRA:                  -1.726
REMARK UNBOUND:                -1.861
REMARK SMILES CCCCCCCCCCCCCCCCCCCCCCCC(=O)[O-]
REMARK SMILES IDX 13 1 14 2 15 3 16 4 17 5 18 6 19 7 20 8 21 9 22 10 23 11
REMARK SMILES IDX 24 12 25 13 26 14 12 15 11 16 10 17 9 18 8 19 7 20 6 21 5 22
REMARK SMILES IDX 4 23 3 24 2 25 1 26
REMARK H PARENT
REMARK Flexibility Score: inf
ROOT
ATOM      1  C   UNL     1      14.813  16.439   6.635  1.00  0.00     0.000 C 
ENDROOT
BRANCH   1   2
ATOM      2  C   UNL     1      16.033  16.914   7.446  1.00  0.00     0.000 C 
BRANCH   2   3
ATOM      3  C   UNL     1      16.486  15.962   8.568  1.00  0.00     0.000 C 
BRANCH   3   4
ATOM      4  C   UNL     1      17.125  16.701   9.755  1.00  0.00     0.000 C 
BRANCH   4   5
ATOM      5  C   UNL     1      16.332  16.528  11.060  1.00  0.00     0.000 C 
BRANCH   5   6
ATOM      6  C   UNL     1      16.969  15.506  12.015  1.00  0.00     0.000 C 
BRANCH   6   7
ATOM      7  C   UNL     1      16.908  14.091  11.428  1.00  0.00     0.000 C 
BRANCH   7   8
ATOM      8  C   UNL     1      15.598  13.390  11.815  1.00  0.00     0.000 C 
BRANCH   8   9
ATOM      9  C   UNL     1      15.379  12.065  11.061  1.00  0.00     0.000 C 
BRANCH   9  10
ATOM     10  C   UNL     1      14.225  12.075  10.038  1.00  0.00     0.006 C 
BRANCH  10  11
ATOM     11  C   UNL     1      14.156  13.336   9.161  1.00  0.00     0.053 C 
BRANCH  11  12
ATOM     12  C   UNL     1      14.296  13.015   7.704  1.00  0.00     0.041 C 
ATOM     13  O   UNL     1      13.275  12.758   7.012  1.00  0.00    -0.550 OA
ATOM     14  O   UNL     1      15.554  12.966   7.118  1.00  0.00    -0.550 OA
ENDBRANCH  11  12
ENDBRANCH  10  11
ENDBRANCH   9  10
ENDBRANCH   8   9
ENDBRANCH   7   8
ENDBRANCH   6   7
ENDBRANCH   5   6
ENDBRANCH   4   5
ENDBRANCH   3   4
ENDBRANCH   2   3
ENDBRANCH   1   2
BRANCH   1  15
ATOM     15  C   UNL     1      15.094  16.361   5.124  1.00  0.00     0.000 C 
BRANCH  15  16
ATOM     16  C   UNL     1      14.113  17.203   4.290  1.00  0.00     0.000 C 
BRANCH  16  17
ATOM     17  C   UNL     1      14.154  16.854   2.791  1.00  0.00     0.000 C 
BRANCH  17  18
ATOM     18  C   UNL     1      14.845  17.948   1.955  1.00  0.00    -0.000 C 
BRANCH  18  19
ATOM     19  C   UNL     1      16.358  18.059   2.237  1.00  0.00    -0.000 C 
BRANCH  19  20
ATOM     20  C   UNL     1      17.011  19.295   1.590  1.00  0.00    -0.000 C 
BRANCH  20  21
ATOM     21  C   UNL     1      16.562  19.494   0.132  1.00  0.00    -0.000 C 
BRANCH  21  22
ATOM     22  C   UNL     1      15.964  20.892  -0.117  1.00  0.00    -0.000 C 
BRANCH  22  23
ATOM     23  C   UNL     1      14.764  20.913  -1.084  1.00  0.00    -0.000 C 
BRANCH  23  24
ATOM     24  C   UNL     1      13.410  20.523  -0.457  1.00  0.00    -0.000 C 
BRANCH  24  25
ATOM     25  C   UNL     1      12.980  19.070  -0.750  1.00  0.00    -0.003 C 
ATOM     26  C   UNL     1      11.482  18.948  -1.027  1.00  0.00     0.004 C 
ENDBRANCH  24  25
ENDBRANCH  23  24
ENDBRANCH  22  23
ENDBRANCH  21  22
ENDBRANCH  20  21
ENDBRANCH  19  20
ENDBRANCH  18  19
ENDBRANCH  17  18
ENDBRANCH  16  17
ENDBRANCH  15  16
ENDBRANCH   1  15
TORSDOF 22
ENDMDL
