MODEL 1
REMARK VINA RESULT:    -4.326      0.000      0.000
REMARK INTER + INTRA:          -6.945
REMARK INTER:                  -6.603
REMARK INTRA:                  -0.343
REMARK UNBOUND:                -0.343
REMARK SMILES CC1=CCC[C@@H](C)C(=O)C[C@H](C(C)C)C(=O)C1
REMARK SMILES IDX 8 1 9 2 6 3 7 4 5 5 4 6 3 7 2 8 1 9 10 11 11 12 15 13 16 14
REMARK SMILES IDX 17 15 12 17 13 18 14 19
REMARK H PARENT
REMARK Flexibility Score: 70.00
ROOT
ATOM      1  C   UNL     1      -0.569  28.369  31.762  1.00  0.00     0.136 C 
ATOM      2  O   UNL     1      -0.452  27.801  32.839  1.00  0.00    -0.299 OA
ENDROOT
BRANCH   1   3
ATOM      3  C   UNL     1      -1.437  27.761  30.684  1.00  0.00     0.053 C 
ATOM      4  C   UNL     1      -2.266  26.607  31.260  1.00  0.00     0.016 C 
BRANCH   3   5
ATOM      5  C   UNL     1      -0.590  27.282  29.489  1.00  0.00     0.015 C 
BRANCH   5   6
ATOM      6  C   UNL     1      -0.744  28.183  28.245  1.00  0.00     0.028 C 
BRANCH   6   7
ATOM      7  C   UNL     1       0.587  28.440  27.576  1.00  0.00    -0.028 C 
ATOM      8  C   UNL     1       1.434  29.472  27.806  1.00  0.00    -0.070 CG0
ATOM      9  C   UNL     1       2.690  29.535  26.971  1.00  0.00     0.039 C 
ATOM     10  G   UNL     1       1.222  30.550  28.855  1.00  0.00     0.000 G0
ENDBRANCH   6   7
ENDBRANCH   5   6
ENDBRANCH   3   5
ENDBRANCH   1   3
BRANCH   1  11
ATOM     11  C   UNL     1       0.092  29.709  31.529  1.00  0.00     0.087 C 
BRANCH  11  12
ATOM     12  C   UNL     1       1.621  29.614  31.303  1.00  0.00     0.066 C 
BRANCH  12  13
ATOM     13  C   UNL     1       2.099  30.342  30.053  1.00  0.00     0.140 C 
ATOM     14  O   UNL     1       3.224  30.819  30.058  1.00  0.00    -0.299 OA
BRANCH  13  15
ATOM     15  C   UNL     1       1.226  30.565  28.837  1.00  0.00     0.106 CG0
ATOM     16  G   UNL     1       1.424  29.462  27.811  1.00  0.00     0.000 G0
ENDBRANCH  13  15
ENDBRANCH  12  13
BRANCH  12  17
ATOM     17  C   UNL     1       2.430  29.998  32.579  1.00  0.00    -0.006 C 
ATOM     18  C   UNL     1       3.014  28.795  33.341  1.00  0.00     0.008 C 
ATOM     19  C   UNL     1       1.591  30.861  33.534  1.00  0.00     0.008 C 
ENDBRANCH  12  17
ENDBRANCH  11  12
ENDBRANCH   1  11
TORSDOF 1
ENDMDL
MODEL 2
REMARK VINA RESULT:    -4.136      1.490      1.687
REMARK INTER + INTRA:          -6.655
REMARK INTER:                  -6.477
REMARK INTRA:                  -0.178
REMARK UNBOUND:                -0.343
REMARK SMILES CC1=CCC[C@@H](C)C(=O)C[C@H](C(C)C)C(=O)C1
REMARK SMILES IDX 8 1 9 2 6 3 7 4 5 5 4 6 3 7 2 8 1 9 10 11 11 12 15 13 16 14
REMARK SMILES IDX 17 15 12 17 13 18 14 19
REMARK H PARENT
REMARK Flexibility Score: 70.00
ROOT
ATOM      1  C   UNL     1      -0.727  27.914  30.984  1.00  0.00     0.136 C 
ATOM      2  O   UNL     1      -1.003  27.077  31.832  1.00  0.00    -0.299 OA
ENDROOT
BRANCH   1   3
ATOM      3  C   UNL     1      -1.008  27.628  29.527  1.00  0.00     0.053 C 
ATOM      4  C   UNL     1      -2.487  27.272  29.333  1.00  0.00     0.016 C 
BRANCH   3   5
ATOM      5  C   UNL     1      -0.101  26.501  28.994  1.00  0.00     0.015 C 
BRANCH   5   6
ATOM      6  C   UNL     1       1.401  26.800  29.186  1.00  0.00     0.028 C 
BRANCH   6   7
ATOM      7  C   UNL     1       1.843  27.984  28.355  1.00  0.00    -0.028 C 
ATOM      8  C   UNL     1       2.612  29.025  28.755  1.00  0.00    -0.070 CG0
ATOM      9  C   UNL     1       2.879  30.116  27.746  1.00  0.00     0.039 C 
ATOM     10  G   UNL     1       3.240  29.159  30.132  1.00  0.00     0.000 G0
ENDBRANCH   6   7
ENDBRANCH   5   6
ENDBRANCH   3   5
ENDBRANCH   1   3
BRANCH   1  11
ATOM     11  C   UNL     1      -0.171  29.260  31.393  1.00  0.00     0.087 C 
BRANCH  11  12
ATOM     12  C   UNL     1       1.269  29.189  31.960  1.00  0.00     0.066 C 
BRANCH  12  13
ATOM     13  C   UNL     1       2.302  29.890  31.087  1.00  0.00     0.140 C 
ATOM     14  O   UNL     1       2.342  31.112  31.110  1.00  0.00    -0.299 OA
BRANCH  13  15
ATOM     15  C   UNL     1       3.230  29.155  30.144  1.00  0.00     0.106 CG0
ATOM     16  G   UNL     1       2.609  29.013  28.765  1.00  0.00     0.000 G0
ENDBRANCH  13  15
ENDBRANCH  12  13
BRANCH  12  17
ATOM     17  C   UNL     1       1.335  29.626  33.455  1.00  0.00    -0.006 C 
ATOM     18  C   UNL     1       2.686  29.342  34.134  1.00  0.00     0.008 C 
ATOM     19  C   UNL     1       0.199  28.993  34.273  1.00  0.00     0.008 C 
ENDBRANCH  12  17
ENDBRANCH  11  12
ENDBRANCH   1  11
TORSDOF 1
ENDMDL
MODEL 3
REMARK VINA RESULT:    -3.724      2.648      4.142
REMARK INTER + INTRA:          -6.025
REMARK INTER:                  -5.972
REMARK INTRA:                  -0.054
REMARK UNBOUND:                -0.343
REMARK SMILES CC1=CCC[C@@H](C)C(=O)C[C@H](C(C)C)C(=O)C1
REMARK SMILES IDX 8 1 9 2 6 3 7 4 5 5 4 6 3 7 2 8 1 9 10 11 11 12 15 13 16 14
REMARK SMILES IDX 17 15 12 17 13 18 14 19
REMARK H PARENT
REMARK Flexibility Score: 70.00
ROOT
ATOM      1  C   UNL     1       3.151  28.456  32.427  1.00  0.00     0.136 C 
ATOM      2  O   UNL     1       3.474  27.505  33.126  1.00  0.00    -0.299 OA
ENDROOT
BRANCH   1   3
ATOM      3  C   UNL     1       2.518  29.673  33.062  1.00  0.00     0.053 C 
ATOM      4  C   UNL     1       1.645  29.256  34.251  1.00  0.00     0.016 C 
BRANCH   3   5
ATOM      5  C   UNL     1       1.695  30.475  32.034  1.00  0.00     0.015 C 
BRANCH   5   6
ATOM      6  C   UNL     1       0.250  29.953  31.886  1.00  0.00     0.028 C 
BRANCH   6   7
ATOM      7  C   UNL     1      -0.250  30.094  30.466  1.00  0.00    -0.028 C 
ATOM      8  C   UNL     1      -0.214  29.158  29.488  1.00  0.00    -0.070 CG0
ATOM      9  C   UNL     1      -0.736  29.557  28.128  1.00  0.00     0.039 C 
ATOM     10  G   UNL     1       0.289  27.736  29.668  1.00  0.00     0.000 G0
ENDBRANCH   6   7
ENDBRANCH   5   6
ENDBRANCH   3   5
ENDBRANCH   1   3
BRANCH   1  11
ATOM     11  C   UNL     1       3.444  28.448  30.943  1.00  0.00     0.087 C 
BRANCH  11  12
ATOM     12  C   UNL     1       2.854  27.223  30.202  1.00  0.00     0.066 C 
BRANCH  12  13
ATOM     13  C   UNL     1       1.734  27.579  29.233  1.00  0.00     0.140 C 
ATOM     14  O   UNL     1       2.031  27.824  28.073  1.00  0.00    -0.299 OA
BRANCH  13  15
ATOM     15  C   UNL     1       0.286  27.714  29.651  1.00  0.00     0.106 CG0
ATOM     16  G   UNL     1      -0.204  29.142  29.479  1.00  0.00     0.000 G0
ENDBRANCH  13  15
ENDBRANCH  12  13
BRANCH  12  17
ATOM     17  C   UNL     1       3.962  26.337  29.554  1.00  0.00    -0.006 C 
ATOM     18  C   UNL     1       3.505  24.909  29.212  1.00  0.00     0.008 C 
ATOM     19  C   UNL     1       5.221  26.285  30.433  1.00  0.00     0.008 C 
ENDBRANCH  12  17
ENDBRANCH  11  12
ENDBRANCH   1  11
TORSDOF 1
ENDMDL
MODEL 4
REMARK VINA RESULT:    -3.612      1.946      3.153
REMARK INTER + INTRA:          -5.855
REMARK INTER:                  -5.955
REMARK INTRA:                   0.099
REMARK UNBOUND:                -0.343
REMARK SMILES CC1=CCC[C@@H](C)C(=O)C[C@H](C(C)C)C(=O)C1
REMARK SMILES IDX 8 1 9 2 6 3 7 4 5 5 4 6 3 7 2 8 1 9 10 11 11 12 15 13 16 14
REMARK SMILES IDX 17 15 12 17 13 18 14 19
REMARK H PARENT
REMARK Flexibility Score: 70.00
ROOT
ATOM      1  C   UNL     1       1.780  29.635  33.223  1.00  0.00     0.136 C 
ATOM      2  O   UNL     1       1.707  30.856  33.197  1.00  0.00    -0.299 OA
ENDROOT
BRANCH   1   3
ATOM      3  C   UNL     1       0.649  28.829  33.822  1.00  0.00     0.053 C 
ATOM      4  C   UNL     1       1.188  27.884  34.903  1.00  0.00     0.016 C 
BRANCH   3   5
ATOM      5  C   UNL     1      -0.112  28.042  32.737  1.00  0.00     0.015 C 
BRANCH   5   6
ATOM      6  C   UNL     1      -0.848  28.959  31.737  1.00  0.00     0.028 C 
BRANCH   6   7
ATOM      7  C   UNL     1      -0.560  28.566  30.306  1.00  0.00    -0.028 C 
ATOM      8  C   UNL     1       0.295  29.169  29.447  1.00  0.00    -0.070 CG0
ATOM      9  C   UNL     1       0.374  28.615  28.045  1.00  0.00     0.039 C 
ATOM     10  G   UNL     1       1.192  30.343  29.799  1.00  0.00     0.000 G0
ENDBRANCH   6   7
ENDBRANCH   5   6
ENDBRANCH   3   5
ENDBRANCH   1   3
BRANCH   1  11
ATOM     11  C   UNL     1       2.960  28.926  32.599  1.00  0.00     0.087 C 
BRANCH  11  12
ATOM     12  C   UNL     1       2.779  28.633  31.089  1.00  0.00     0.066 C 
BRANCH  12  13
ATOM     13  C   UNL     1       2.565  29.884  30.247  1.00  0.00     0.140 C 
ATOM     14  O   UNL     1       3.538  30.574  29.981  1.00  0.00    -0.299 OA
BRANCH  13  15
ATOM     15  C   UNL     1       1.201  30.351  29.785  1.00  0.00     0.106 CG0
ATOM     16  G   UNL     1       0.301  29.173  29.455  1.00  0.00     0.000 G0
ENDBRANCH  13  15
ENDBRANCH  12  13
BRANCH  12  17
ATOM     17  C   UNL     1       3.902  27.706  30.530  1.00  0.00    -0.006 C 
ATOM     18  C   UNL     1       3.462  26.830  29.344  1.00  0.00     0.008 C 
ATOM     19  C   UNL     1       4.499  26.823  31.636  1.00  0.00     0.008 C 
ENDBRANCH  12  17
ENDBRANCH  11  12
ENDBRANCH   1  11
TORSDOF 1
ENDMDL
MODEL 5
REMARK VINA RESULT:    -3.562      2.405      3.464
REMARK INTER + INTRA:          -5.778
REMARK INTER:                  -5.712
REMARK INTRA:                  -0.067
REMARK UNBOUND:                -0.343
REMARK SMILES CC1=CCC[C@@H](C)C(=O)C[C@H](C(C)C)C(=O)C1
REMARK SMILES IDX 8 1 9 2 6 3 7 4 5 5 4 6 3 7 2 8 1 9 10 11 11 12 15 13 16 14
REMARK SMILES IDX 17 15 12 17 13 18 14 19
REMARK H PARENT
REMARK Flexibility Score: 70.00
ROOT
ATOM      1  C   UNL     1       3.388  27.625  31.024  1.00  0.00     0.136 C 
ATOM      2  O   UNL     1       3.767  27.614  32.187  1.00  0.00    -0.299 OA
ENDROOT
BRANCH   1   3
ATOM      3  C   UNL     1       3.906  26.584  30.057  1.00  0.00     0.053 C 
ATOM      4  C   UNL     1       4.740  25.536  30.803  1.00  0.00     0.016 C 
BRANCH   3   5
ATOM      5  C   UNL     1       4.728  27.233  28.925  1.00  0.00     0.015 C 
BRANCH   5   6
ATOM      6  C   UNL     1       3.859  27.663  27.725  1.00  0.00     0.028 C 
BRANCH   6   7
ATOM      7  C   UNL     1       4.330  28.975  27.139  1.00  0.00    -0.028 C 
ATOM      8  C   UNL     1       3.785  30.200  27.329  1.00  0.00    -0.070 CG0
ATOM      9  C   UNL     1       4.412  31.360  26.593  1.00  0.00     0.039 C 
ATOM     10  G   UNL     1       2.608  30.492  28.245  1.00  0.00     0.000 G0
ENDBRANCH   6   7
ENDBRANCH   5   6
ENDBRANCH   3   5
ENDBRANCH   1   3
BRANCH   1  11
ATOM     11  C   UNL     1       2.354  28.629  30.566  1.00  0.00     0.087 C 
BRANCH  11  12
ATOM     12  C   UNL     1       2.737  30.097  30.877  1.00  0.00     0.066 C 
BRANCH  12  13
ATOM     13  C   UNL     1       3.041  30.923  29.634  1.00  0.00     0.140 C 
ATOM     14  O   UNL     1       3.630  31.985  29.777  1.00  0.00    -0.299 OA
BRANCH  13  15
ATOM     15  C   UNL     1       2.589  30.531  28.244  1.00  0.00     0.106 CG0
ATOM     16  G   UNL     1       3.775  30.203  27.354  1.00  0.00     0.000 G0
ENDBRANCH  13  15
ENDBRANCH  12  13
BRANCH  12  17
ATOM     17  C   UNL     1       1.712  30.784  31.830  1.00  0.00    -0.006 C 
ATOM     18  C   UNL     1       2.121  30.766  33.313  1.00  0.00     0.008 C 
ATOM     19  C   UNL     1       0.308  30.179  31.670  1.00  0.00     0.008 C 
ENDBRANCH  12  17
ENDBRANCH  11  12
ENDBRANCH   1  11
TORSDOF 1
ENDMDL
MODEL 6
REMARK VINA RESULT:    -3.551      2.354      4.362
REMARK INTER + INTRA:          -5.763
REMARK INTER:                  -6.003
REMARK INTRA:                   0.240
REMARK UNBOUND:                -0.343
REMARK SMILES CC1=CCC[C@@H](C)C(=O)C[C@H](C(C)C)C(=O)C1
REMARK SMILES IDX 8 1 9 2 6 3 7 4 5 5 4 6 3 7 2 8 1 9 10 11 11 12 15 13 16 14
REMARK SMILES IDX 17 15 12 17 13 18 14 19
REMARK H PARENT
REMARK Flexibility Score: 70.00
ROOT
ATOM      1  C   UNL     1       0.625  28.890  32.188  1.00  0.00     0.136 C 
ATOM      2  O   UNL     1       0.144  27.767  32.239  1.00  0.00    -0.299 OA
ENDROOT
BRANCH   1   3
ATOM      3  C   UNL     1       1.379  29.438  33.379  1.00  0.00     0.053 C 
ATOM      4  C   UNL     1       1.865  30.864  33.088  1.00  0.00     0.016 C 
BRANCH   3   5
ATOM      5  C   UNL     1       2.562  28.525  33.760  1.00  0.00     0.015 C 
BRANCH   5   6
ATOM      6  C   UNL     1       3.721  28.591  32.742  1.00  0.00     0.028 C 
BRANCH   6   7
ATOM      7  C   UNL     1       3.961  27.251  32.086  1.00  0.00    -0.028 C 
ATOM      8  C   UNL     1       3.950  26.973  30.761  1.00  0.00    -0.070 CG0
ATOM      9  C   UNL     1       4.174  25.537  30.351  1.00  0.00     0.039 C 
ATOM     10  G   UNL     1       3.753  28.004  29.662  1.00  0.00     0.000 G0
ENDBRANCH   6   7
ENDBRANCH   5   6
ENDBRANCH   3   5
ENDBRANCH   1   3
BRANCH   1  11
ATOM     11  C   UNL     1       0.529  29.706  30.918  1.00  0.00     0.087 C 
BRANCH  11  12
ATOM     12  C   UNL     1       1.870  29.818  30.152  1.00  0.00     0.066 C 
BRANCH  12  13
ATOM     13  C   UNL     1       2.334  28.503  29.538  1.00  0.00     0.140 C 
ATOM     14  O   UNL     1       1.498  27.793  28.998  1.00  0.00    -0.299 OA
BRANCH  13  15
ATOM     15  C   UNL     1       3.758  28.002  29.626  1.00  0.00     0.106 CG0
ATOM     16  G   UNL     1       3.917  26.997  30.755  1.00  0.00     0.000 G0
ENDBRANCH  13  15
ENDBRANCH  12  13
BRANCH  12  17
ATOM     17  C   UNL     1       1.869  31.000  29.134  1.00  0.00    -0.006 C 
ATOM     18  C   UNL     1       0.500  31.272  28.487  1.00  0.00     0.008 C 
ATOM     19  C   UNL     1       2.930  30.797  28.042  1.00  0.00     0.008 C 
ENDBRANCH  12  17
ENDBRANCH  11  12
ENDBRANCH   1  11
TORSDOF 1
ENDMDL
MODEL 7
REMARK VINA RESULT:    -3.488      1.864      4.208
REMARK INTER + INTRA:          -5.666
REMARK INTER:                  -7.050
REMARK INTRA:                   1.385
REMARK UNBOUND:                -0.343
REMARK SMILES CC1=CCC[C@@H](C)C(=O)C[C@H](C(C)C)C(=O)C1
REMARK SMILES IDX 8 1 9 2 6 3 7 4 5 5 4 6 3 7 2 8 1 9 10 11 11 12 15 13 16 14
REMARK SMILES IDX 17 15 12 17 13 18 14 19
REMARK H PARENT
REMARK Flexibility Score: 70.00
ROOT
ATOM      1  C   UNL     1      -0.092  28.781  32.576  1.00  0.00     0.136 C 
ATOM      2  O   UNL     1      -0.373  27.590  32.573  1.00  0.00    -0.299 OA
ENDROOT
BRANCH   1   3
ATOM      3  C   UNL     1       0.498  29.410  33.817  1.00  0.00     0.053 C 
ATOM      4  C   UNL     1       1.005  30.823  33.506  1.00  0.00     0.016 C 
BRANCH   3   5
ATOM      5  C   UNL     1       1.630  28.540  34.400  1.00  0.00     0.015 C 
BRANCH   5   6
ATOM      6  C   UNL     1       3.024  28.939  33.872  1.00  0.00     0.028 C 
BRANCH   6   7
ATOM      7  C   UNL     1       3.480  28.024  32.758  1.00  0.00    -0.028 C 
ATOM      8  C   UNL     1       3.319  28.211  31.426  1.00  0.00    -0.070 CG0
ATOM      9  C   UNL     1       3.824  27.124  30.508  1.00  0.00     0.039 C 
ATOM     10  G   UNL     1       2.693  29.443  30.794  1.00  0.00     0.000 G0
ENDBRANCH   6   7
ENDBRANCH   5   6
ENDBRANCH   3   5
ENDBRANCH   1   3
BRANCH   1  11
ATOM     11  C   UNL     1      -0.268  29.609  31.323  1.00  0.00     0.087 C 
BRANCH  11  12
ATOM     12  C   UNL     1       0.194  28.888  30.033  1.00  0.00     0.066 C 
BRANCH  12  13
ATOM     13  C   UNL     1       1.673  29.081  29.723  1.00  0.00     0.140 C 
ATOM     14  O   UNL     1       2.054  28.871  28.581  1.00  0.00    -0.299 OA
BRANCH  13  15
ATOM     15  C   UNL     1       2.700  29.449  30.771  1.00  0.00     0.106 CG0
ATOM     16  G   UNL     1       3.307  28.209  31.404  1.00  0.00     0.000 G0
ENDBRANCH  13  15
ENDBRANCH  12  13
BRANCH  12  17
ATOM     17  C   UNL     1      -0.244  27.391  30.007  1.00  0.00    -0.006 C 
ATOM     18  C   UNL     1       0.535  26.525  29.003  1.00  0.00     0.008 C 
ATOM     19  C   UNL     1      -1.753  27.256  29.750  1.00  0.00     0.008 C 
ENDBRANCH  12  17
ENDBRANCH  11  12
ENDBRANCH   1  11
TORSDOF 1
ENDMDL
MODEL 8
REMARK VINA RESULT:    -3.283      1.646      3.884
REMARK INTER + INTRA:          -5.354
REMARK INTER:                  -5.386
REMARK INTRA:                   0.032
REMARK UNBOUND:                -0.343
REMARK SMILES CC1=CCC[C@@H](C)C(=O)C[C@H](C(C)C)C(=O)C1
REMARK SMILES IDX 8 1 9 2 6 3 7 4 5 5 4 6 3 7 2 8 1 9 10 11 11 12 15 13 16 14
REMARK SMILES IDX 17 15 12 17 13 18 14 19
REMARK H PARENT
REMARK Flexibility Score: 70.00
ROOT
ATOM      1  C   UNL     1       2.976  30.831  29.385  1.00  0.00     0.136 C 
ATOM      2  O   UNL     1       3.615  31.874  29.431  1.00  0.00    -0.299 OA
ENDROOT
BRANCH   1   3
ATOM      3  C   UNL     1       2.149  30.510  28.161  1.00  0.00     0.053 C 
ATOM      4  C   UNL     1       3.062  30.290  26.949  1.00  0.00     0.016 C 
BRANCH   3   5
ATOM      5  C   UNL     1       1.120  31.622  27.875  1.00  0.00     0.015 C 
BRANCH   5   6
ATOM      6  C   UNL     1      -0.306  31.250  28.333  1.00  0.00     0.028 C 
BRANCH   6   7
ATOM      7  C   UNL     1      -0.660  29.831  27.950  1.00  0.00    -0.028 C 
ATOM      8  C   UNL     1      -0.766  28.762  28.775  1.00  0.00    -0.070 CG0
ATOM      9  C   UNL     1      -1.088  27.428  28.144  1.00  0.00     0.039 C 
ATOM     10  G   UNL     1      -0.608  28.814  30.285  1.00  0.00     0.000 G0
ENDBRANCH   6   7
ENDBRANCH   5   6
ENDBRANCH   3   5
ENDBRANCH   1   3
BRANCH   1  11
ATOM     11  C   UNL     1       3.064  29.832  30.517  1.00  0.00     0.087 C 
BRANCH  11  12
ATOM     12  C   UNL     1       1.734  29.651  31.288  1.00  0.00     0.066 C 
BRANCH  12  13
ATOM     13  C   UNL     1       0.830  28.575  30.700  1.00  0.00     0.140 C 
ATOM     14  O   UNL     1       1.307  27.468  30.499  1.00  0.00    -0.299 OA
BRANCH  13  15
ATOM     15  C   UNL     1      -0.604  28.829  30.287  1.00  0.00     0.106 CG0
ATOM     16  G   UNL     1      -0.764  28.743  28.779  1.00  0.00     0.000 G0
ENDBRANCH  13  15
ENDBRANCH  12  13
BRANCH  12  17
ATOM     17  C   UNL     1       1.960  29.486  32.822  1.00  0.00    -0.006 C 
ATOM     18  C   UNL     1       1.541  30.708  33.656  1.00  0.00     0.008 C 
ATOM     19  C   UNL     1       3.419  29.118  33.135  1.00  0.00     0.008 C 
ENDBRANCH  12  17
ENDBRANCH  11  12
ENDBRANCH   1  11
TORSDOF 1
ENDMDL
MODEL 9
REMARK VINA RESULT:    -3.185      1.676      3.869
REMARK INTER + INTRA:          -5.203
REMARK INTER:                  -5.745
REMARK INTRA:                   0.541
REMARK UNBOUND:                -0.343
REMARK SMILES CC1=CCC[C@@H](C)C(=O)C[C@H](C(C)C)C(=O)C1
REMARK SMILES IDX 8 1 9 2 6 3 7 4 5 5 4 6 3 7 2 8 1 9 10 11 11 12 15 13 16 14
REMARK SMILES IDX 17 15 12 17 13 18 14 19
REMARK H PARENT
REMARK Flexibility Score: 70.00
ROOT
ATOM      1  C   UNL     1       3.127  29.498  30.137  1.00  0.00     0.136 C 
ATOM      2  O   UNL     1       3.414  30.687  30.114  1.00  0.00    -0.299 OA
ENDROOT
BRANCH   1   3
ATOM      3  C   UNL     1       3.541  28.604  28.990  1.00  0.00     0.053 C 
ATOM      4  C   UNL     1       3.776  29.440  27.726  1.00  0.00     0.016 C 
BRANCH   3   5
ATOM      5  C   UNL     1       2.491  27.505  28.731  1.00  0.00     0.015 C 
BRANCH   5   6
ATOM      6  C   UNL     1       1.325  27.989  27.844  1.00  0.00     0.028 C 
BRANCH   6   7
ATOM      7  C   UNL     1       0.071  27.179  28.084  1.00  0.00    -0.028 C 
ATOM      8  C   UNL     1      -0.907  27.431  28.987  1.00  0.00    -0.070 CG0
ATOM      9  C   UNL     1      -2.045  26.442  29.070  1.00  0.00     0.039 C 
ATOM     10  G   UNL     1      -0.951  28.644  29.901  1.00  0.00     0.000 G0
ENDBRANCH   6   7
ENDBRANCH   5   6
ENDBRANCH   3   5
ENDBRANCH   1   3
BRANCH   1  11
ATOM     11  C   UNL     1       2.423  28.905  31.336  1.00  0.00     0.087 C 
BRANCH  11  12
ATOM     12  C   UNL     1       0.987  29.448  31.542  1.00  0.00     0.066 C 
BRANCH  12  13
ATOM     13  C   UNL     1      -0.101  28.464  31.132  1.00  0.00     0.140 C 
ATOM     14  O   UNL     1      -0.240  27.447  31.797  1.00  0.00    -0.299 OA
BRANCH  13  15
ATOM     15  C   UNL     1      -0.966  28.647  29.904  1.00  0.00     0.106 CG0
ATOM     16  G   UNL     1      -0.903  27.427  29.001  1.00  0.00     0.000 G0
ENDBRANCH  13  15
ENDBRANCH  12  13
BRANCH  12  17
ATOM     17  C   UNL     1       0.777  30.027  32.975  1.00  0.00    -0.006 C 
ATOM     18  C   UNL     1       1.882  30.995  33.431  1.00  0.00     0.008 C 
ATOM     19  C   UNL     1       0.606  28.906  34.011  1.00  0.00     0.008 C 
ENDBRANCH  12  17
ENDBRANCH  11  12
ENDBRANCH   1  11
TORSDOF 1
ENDMDL
