MODEL 1
REMARK VINA RESULT:    -2.692      0.000      0.000
REMARK INTER + INTRA:          -4.246
REMARK INTER:                  -3.636
REMARK INTRA:                  -0.610
REMARK UNBOUND:                -0.610
REMARK SMILES CCCCCCCC(=O)[O-]
REMARK SMILES IDX 5 1 6 2 7 3 8 4 9 5 10 6 4 7 3 8 2 9 1 10
REMARK H PARENT
REMARK Flexibility Score: inf
ROOT
ATOM      1  C   UNL     1     142.132 142.396 145.967  1.00  0.00     0.000 C 
ENDROOT
BRANCH   1   2
ATOM      2  C   UNL     1     141.717 142.773 147.397  1.00  0.00     0.006 C 
BRANCH   2   3
ATOM      3  C   UNL     1     142.675 142.163 148.424  1.00  0.00     0.053 C 
BRANCH   3   4
ATOM      4  C   UNL     1     142.010 141.044 149.162  1.00  0.00     0.041 C 
ATOM      5  O   UNL     1     142.506 139.888 149.139  1.00  0.00    -0.550 OA
ATOM      6  O   UNL     1     140.869 141.289 149.915  1.00  0.00    -0.550 OA
ENDBRANCH   3   4
ENDBRANCH   2   3
ENDBRANCH   1   2
BRANCH   1   7
ATOM      7  C   UNL     1     141.465 141.102 145.475  1.00  0.00     0.000 C 
BRANCH   7   8
ATOM      8  C   UNL     1     142.426 139.902 145.482  1.00  0.00    -0.000 C 
BRANCH   8   9
ATOM      9  C   UNL     1     143.881 140.312 145.208  1.00  0.00    -0.003 C 
ATOM     10  C   UNL     1     144.833 139.919 146.339  1.00  0.00     0.004 C 
ENDBRANCH   8   9
ENDBRANCH   7   8
ENDBRANCH   1   7
TORSDOF 6
ENDMDL
MODEL 2
REMARK VINA RESULT:    -2.678     17.499     18.906
REMARK INTER + INTRA:          -4.227
REMARK INTER:                  -3.841
REMARK INTRA:                  -0.387
REMARK UNBOUND:                -0.610
REMARK SMILES CCCCCCCC(=O)[O-]
REMARK SMILES IDX 5 1 6 2 7 3 8 4 9 5 10 6 4 7 3 8 2 9 1 10
REMARK H PARENT
REMARK Flexibility Score: inf
ROOT
ATOM      1  C   UNL     1     141.209 159.707 152.880  1.00  0.00     0.000 C 
ENDROOT
BRANCH   1   2
ATOM      2  C   UNL     1     142.035 160.125 154.107  1.00  0.00     0.006 C 
BRANCH   2   3
ATOM      3  C   UNL     1     143.522 159.828 153.892  1.00  0.00     0.053 C 
BRANCH   3   4
ATOM      4  C   UNL     1     144.045 158.953 154.987  1.00  0.00     0.041 C 
ATOM      5  O   UNL     1     143.481 157.859 155.249  1.00  0.00    -0.550 OA
ATOM      6  O   UNL     1     145.187 159.323 155.688  1.00  0.00    -0.550 OA
ENDBRANCH   3   4
ENDBRANCH   2   3
ENDBRANCH   1   2
BRANCH   1   7
ATOM      7  C   UNL     1     140.734 158.247 152.952  1.00  0.00     0.000 C 
BRANCH   7   8
ATOM      8  C   UNL     1     140.770 157.547 151.583  1.00  0.00    -0.000 C 
BRANCH   8   9
ATOM      9  C   UNL     1     141.627 158.304 150.558  1.00  0.00    -0.003 C 
ATOM     10  C   UNL     1     140.822 158.782 149.348  1.00  0.00     0.004 C 
ENDBRANCH   8   9
ENDBRANCH   7   8
ENDBRANCH   1   7
TORSDOF 6
ENDMDL
MODEL 3
REMARK VINA RESULT:    -2.607      3.547      4.729
REMARK INTER + INTRA:          -4.132
REMARK INTER:                  -3.601
REMARK INTRA:                  -0.531
REMARK UNBOUND:                -0.610
REMARK SMILES CCCCCCCC(=O)[O-]
REMARK SMILES IDX 5 1 6 2 7 3 8 4 9 5 10 6 4 7 3 8 2 9 1 10
REMARK H PARENT
REMARK Flexibility Score: inf
ROOT
ATOM      1  C   UNL     1     143.242 143.614 146.890  1.00  0.00     0.000 C 
ENDROOT
BRANCH   1   2
ATOM      2  C   UNL     1     144.371 143.301 145.897  1.00  0.00     0.006 C 
BRANCH   2   3
ATOM      3  C   UNL     1     143.894 143.473 144.452  1.00  0.00     0.053 C 
BRANCH   3   4
ATOM      4  C   UNL     1     144.701 142.618 143.527  1.00  0.00     0.041 C 
ATOM      5  O   UNL     1     145.229 143.119 142.500  1.00  0.00    -0.550 OA
ATOM      6  O   UNL     1     144.912 141.277 143.825  1.00  0.00    -0.550 OA
ENDBRANCH   3   4
ENDBRANCH   2   3
ENDBRANCH   1   2
BRANCH   1   7
ATOM      7  C   UNL     1     141.850 143.572 146.239  1.00  0.00     0.000 C 
BRANCH   7   8
ATOM      8  C   UNL     1     141.037 142.338 146.665  1.00  0.00    -0.000 C 
BRANCH   8   9
ATOM      9  C   UNL     1     140.893 141.309 145.533  1.00  0.00    -0.003 C 
ATOM     10  C   UNL     1     142.062 140.325 145.473  1.00  0.00     0.004 C 
ENDBRANCH   8   9
ENDBRANCH   7   8
ENDBRANCH   1   7
TORSDOF 6
ENDMDL
MODEL 4
REMARK VINA RESULT:    -2.579      3.163      4.858
REMARK INTER + INTRA:          -4.093
REMARK INTER:                  -3.892
REMARK INTRA:                  -0.202
REMARK UNBOUND:                -0.610
REMARK SMILES CCCCCCCC(=O)[O-]
REMARK SMILES IDX 5 1 6 2 7 3 8 4 9 5 10 6 4 7 3 8 2 9 1 10
REMARK H PARENT
REMARK Flexibility Score: inf
ROOT
ATOM      1  C   UNL     1     143.249 140.881 145.080  1.00  0.00     0.000 C 
ENDROOT
BRANCH   1   2
ATOM      2  C   UNL     1     144.124 139.875 144.316  1.00  0.00     0.006 C 
BRANCH   2   3
ATOM      3  C   UNL     1     145.582 139.955 144.780  1.00  0.00     0.053 C 
BRANCH   3   4
ATOM      4  C   UNL     1     146.147 141.313 144.502  1.00  0.00     0.041 C 
ATOM      5  O   UNL     1     146.126 141.781 143.334  1.00  0.00    -0.550 OA
ATOM      6  O   UNL     1     146.651 142.082 145.543  1.00  0.00    -0.550 OA
ENDBRANCH   3   4
ENDBRANCH   2   3
ENDBRANCH   1   2
BRANCH   1   7
ATOM      7  C   UNL     1     141.911 140.278 145.537  1.00  0.00     0.000 C 
BRANCH   7   8
ATOM      8  C   UNL     1     140.773 141.312 145.554  1.00  0.00    -0.000 C 
BRANCH   8   9
ATOM      9  C   UNL     1     141.060 142.487 146.502  1.00  0.00    -0.003 C 
ATOM     10  C   UNL     1     141.380 142.036 147.927  1.00  0.00     0.004 C 
ENDBRANCH   8   9
ENDBRANCH   7   8
ENDBRANCH   1   7
TORSDOF 6
ENDMDL
MODEL 5
REMARK VINA RESULT:    -2.568      5.438      6.627
REMARK INTER + INTRA:          -4.079
REMARK INTER:                  -3.905
REMARK INTRA:                  -0.174
REMARK UNBOUND:                -0.610
REMARK SMILES CCCCCCCC(=O)[O-]
REMARK SMILES IDX 5 1 6 2 7 3 8 4 9 5 10 6 4 7 3 8 2 9 1 10
REMARK H PARENT
REMARK Flexibility Score: inf
ROOT
ATOM      1  C   UNL     1     144.091 142.551 144.037  1.00  0.00     0.000 C 
ENDROOT
BRANCH   1   2
ATOM      2  C   UNL     1     145.351 143.058 143.317  1.00  0.00     0.006 C 
BRANCH   2   3
ATOM      3  C   UNL     1     144.980 143.944 142.125  1.00  0.00     0.053 C 
BRANCH   3   4
ATOM      4  C   UNL     1     146.093 143.969 141.124  1.00  0.00     0.041 C 
ATOM      5  O   UNL     1     146.511 142.897 140.616  1.00  0.00    -0.550 OA
ATOM      6  O   UNL     1     146.634 145.182 140.717  1.00  0.00    -0.550 OA
ENDBRANCH   3   4
ENDBRANCH   2   3
ENDBRANCH   1   2
BRANCH   1   7
ATOM      7  C   UNL     1     144.323 141.223 144.777  1.00  0.00     0.000 C 
BRANCH   7   8
ATOM      8  C   UNL     1     143.036 140.391 144.912  1.00  0.00    -0.000 C 
BRANCH   8   9
ATOM      9  C   UNL     1     142.138 140.879 146.059  1.00  0.00    -0.003 C 
ATOM     10  C   UNL     1     140.753 141.320 145.583  1.00  0.00     0.004 C 
ENDBRANCH   8   9
ENDBRANCH   7   8
ENDBRANCH   1   7
TORSDOF 6
ENDMDL
MODEL 6
REMARK VINA RESULT:    -2.555      2.680      4.548
REMARK INTER + INTRA:          -4.061
REMARK INTER:                  -3.725
REMARK INTRA:                  -0.336
REMARK UNBOUND:                -0.610
REMARK SMILES CCCCCCCC(=O)[O-]
REMARK SMILES IDX 5 1 6 2 7 3 8 4 9 5 10 6 4 7 3 8 2 9 1 10
REMARK H PARENT
REMARK Flexibility Score: inf
ROOT
ATOM      1  C   UNL     1     141.509 140.975 145.335  1.00  0.00     0.000 C 
ENDROOT
BRANCH   1   2
ATOM      2  C   UNL     1     142.591 139.900 145.520  1.00  0.00     0.006 C 
BRANCH   2   3
ATOM      3  C   UNL     1     143.575 139.907 144.346  1.00  0.00     0.053 C 
BRANCH   3   4
ATOM      4  C   UNL     1     144.543 141.040 144.479  1.00  0.00     0.041 C 
ATOM      5  O   UNL     1     144.609 141.925 143.587  1.00  0.00    -0.550 OA
ATOM      6  O   UNL     1     145.337 141.147 145.614  1.00  0.00    -0.550 OA
ENDBRANCH   3   4
ENDBRANCH   2   3
ENDBRANCH   1   2
BRANCH   1   7
ATOM      7  C   UNL     1     141.272 141.805 146.606  1.00  0.00     0.000 C 
BRANCH   7   8
ATOM      8  C   UNL     1     142.073 141.283 147.811  1.00  0.00    -0.000 C 
BRANCH   8   9
ATOM      9  C   UNL     1     141.345 141.509 149.144  1.00  0.00    -0.003 C 
ATOM     10  C   UNL     1     141.744 142.818 149.825  1.00  0.00     0.004 C 
ENDBRANCH   8   9
ENDBRANCH   7   8
ENDBRANCH   1   7
TORSDOF 6
ENDMDL
MODEL 7
REMARK VINA RESULT:    -2.519     17.841     18.622
REMARK INTER + INTRA:          -4.013
REMARK INTER:                  -3.882
REMARK INTRA:                  -0.131
REMARK UNBOUND:                -0.610
REMARK SMILES CCCCCCCC(=O)[O-]
REMARK SMILES IDX 5 1 6 2 7 3 8 4 9 5 10 6 4 7 3 8 2 9 1 10
REMARK H PARENT
REMARK Flexibility Score: inf
ROOT
ATOM      1  C   UNL     1     141.540 158.962 149.681  1.00  0.00     0.000 C 
ENDROOT
BRANCH   1   2
ATOM      2  C   UNL     1     141.034 158.627 151.092  1.00  0.00     0.006 C 
BRANCH   2   3
ATOM      3  C   UNL     1     141.212 159.820 152.036  1.00  0.00     0.053 C 
BRANCH   3   4
ATOM      4  C   UNL     1     141.026 159.396 153.458  1.00  0.00     0.041 C 
ATOM      5  O   UNL     1     139.876 159.372 153.968  1.00  0.00    -0.550 OA
ATOM      6  O   UNL     1     142.120 158.980 154.208  1.00  0.00    -0.550 OA
ENDBRANCH   3   4
ENDBRANCH   2   3
ENDBRANCH   1   2
BRANCH   1   7
ATOM      7  C   UNL     1     140.399 159.236 148.689  1.00  0.00     0.000 C 
BRANCH   7   8
ATOM      8  C   UNL     1     140.577 158.479 147.362  1.00  0.00    -0.000 C 
BRANCH   8   9
ATOM      9  C   UNL     1     140.170 159.324 146.144  1.00  0.00    -0.003 C 
ATOM     10  C   UNL     1     141.347 160.081 145.527  1.00  0.00     0.004 C 
ENDBRANCH   8   9
ENDBRANCH   7   8
ENDBRANCH   1   7
TORSDOF 6
ENDMDL
MODEL 8
REMARK VINA RESULT:    -2.487      2.365      3.371
REMARK INTER + INTRA:          -3.969
REMARK INTER:                  -3.800
REMARK INTRA:                  -0.169
REMARK UNBOUND:                -0.610
REMARK SMILES CCCCCCCC(=O)[O-]
REMARK SMILES IDX 5 1 6 2 7 3 8 4 9 5 10 6 4 7 3 8 2 9 1 10
REMARK H PARENT
REMARK Flexibility Score: inf
ROOT
ATOM      1  C   UNL     1     143.507 140.893 145.135  1.00  0.00     0.000 C 
ENDROOT
BRANCH   1   2
ATOM      2  C   UNL     1     142.189 140.218 145.542  1.00  0.00     0.006 C 
BRANCH   2   3
ATOM      3  C   UNL     1     141.033 141.223 145.532  1.00  0.00     0.053 C 
BRANCH   3   4
ATOM      4  C   UNL     1     141.259 142.291 146.555  1.00  0.00     0.041 C 
ATOM      5  O   UNL     1     141.441 143.483 146.197  1.00  0.00    -0.550 OA
ATOM      6  O   UNL     1     141.219 141.977 147.908  1.00  0.00    -0.550 OA
ENDBRANCH   3   4
ENDBRANCH   2   3
ENDBRANCH   1   2
BRANCH   1   7
ATOM      7  C   UNL     1     144.433 139.960 144.338  1.00  0.00     0.000 C 
BRANCH   7   8
ATOM      8  C   UNL     1     145.846 139.875 144.940  1.00  0.00    -0.000 C 
BRANCH   8   9
ATOM      9  C   UNL     1     146.792 140.945 144.373  1.00  0.00    -0.003 C 
ATOM     10  C   UNL     1     147.995 140.348 143.643  1.00  0.00     0.004 C 
ENDBRANCH   8   9
ENDBRANCH   7   8
ENDBRANCH   1   7
TORSDOF 6
ENDMDL
MODEL 9
REMARK VINA RESULT:    -2.470      4.484      5.759
REMARK INTER + INTRA:          -3.946
REMARK INTER:                  -3.517
REMARK INTRA:                  -0.429
REMARK UNBOUND:                -0.610
REMARK SMILES CCCCCCCC(=O)[O-]
REMARK SMILES IDX 5 1 6 2 7 3 8 4 9 5 10 6 4 7 3 8 2 9 1 10
REMARK H PARENT
REMARK Flexibility Score: inf
ROOT
ATOM      1  C   UNL     1     144.074 140.879 144.354  1.00  0.00     0.000 C 
ENDROOT
BRANCH   1   2
ATOM      2  C   UNL     1     144.945 142.143 144.408  1.00  0.00     0.006 C 
BRANCH   2   3
ATOM      3  C   UNL     1     144.501 143.159 143.352  1.00  0.00     0.053 C 
BRANCH   3   4
ATOM      4  C   UNL     1     145.663 143.579 142.508  1.00  0.00     0.041 C 
ATOM      5  O   UNL     1     146.402 142.713 141.971  1.00  0.00    -0.550 OA
ATOM      6  O   UNL     1     145.901 144.928 142.275  1.00  0.00    -0.550 OA
ENDBRANCH   3   4
ENDBRANCH   2   3
ENDBRANCH   1   2
BRANCH   1   7
ATOM      7  C   UNL     1     143.205 140.700 145.610  1.00  0.00     0.000 C 
BRANCH   7   8
ATOM      8  C   UNL     1     141.701 140.798 145.306  1.00  0.00    -0.000 C 
BRANCH   8   9
ATOM      9  C   UNL     1     141.003 141.889 146.133  1.00  0.00    -0.003 C 
ATOM     10  C   UNL     1     141.652 143.264 145.970  1.00  0.00     0.004 C 
ENDBRANCH   8   9
ENDBRANCH   7   8
ENDBRANCH   1   7
TORSDOF 6
ENDMDL
