MODEL 1
REMARK VINA RESULT:    -3.914      0.000      0.000
REMARK INTER + INTRA:         -12.051
REMARK INTER:                  -8.491
REMARK INTRA:                  -3.560
REMARK UNBOUND:                -3.560
REMARK SMILES CCCCCCCCCCCCCCCCCCCCCC(=O)[O-]
REMARK SMILES IDX 12 1 11 2 10 3 9 4 8 5 7 6 6 7 5 8 4 9 3 10 2 11 1 12 13 13
REMARK SMILES IDX 14 14 15 15 16 16 17 17 18 18 19 19 20 20 21 21 22 22 23 23
REMARK SMILES IDX 24 24
REMARK H PARENT
REMARK Flexibility Score: inf
ROOT
ATOM      1  C   UNL     1      28.439  -2.692   7.280  1.00  0.00     0.000 C 
ENDROOT
BRANCH   1   2
ATOM      2  C   UNL     1      28.788  -2.203   8.701  1.00  0.00     0.000 C 
BRANCH   2   3
ATOM      3  C   UNL     1      28.691  -0.683   8.917  1.00  0.00     0.000 C 
BRANCH   3   4
ATOM      4  C   UNL     1      27.901  -0.308  10.183  1.00  0.00    -0.000 C 
BRANCH   4   5
ATOM      5  C   UNL     1      26.657  -1.190  10.384  1.00  0.00    -0.000 C 
BRANCH   5   6
ATOM      6  C   UNL     1      25.414  -0.377  10.784  1.00  0.00    -0.000 C 
BRANCH   6   7
ATOM      7  C   UNL     1      25.305   0.950  10.016  1.00  0.00    -0.000 C 
BRANCH   7   8
ATOM      8  C   UNL     1      24.896   0.753   8.547  1.00  0.00    -0.000 C 
BRANCH   8   9
ATOM      9  C   UNL     1      25.804   1.518   7.568  1.00  0.00    -0.000 C 
BRANCH   9  10
ATOM     10  C   UNL     1      25.540   1.175   6.086  1.00  0.00    -0.000 C 
BRANCH  10  11
ATOM     11  C   UNL     1      26.539   1.866   5.145  1.00  0.00    -0.003 C 
ATOM     12  C   UNL     1      27.977   1.610   5.582  1.00  0.00     0.004 C 
ENDBRANCH  10  11
ENDBRANCH   9  10
ENDBRANCH   8   9
ENDBRANCH   7   8
ENDBRANCH   6   7
ENDBRANCH   5   6
ENDBRANCH   4   5
ENDBRANCH   3   4
ENDBRANCH   2   3
ENDBRANCH   1   2
BRANCH   1  13
ATOM     13  C   UNL     1      27.304  -1.920   6.583  1.00  0.00     0.000 C 
BRANCH  13  14
ATOM     14  C   UNL     1      25.882  -2.336   7.001  1.00  0.00     0.000 C 
BRANCH  14  15
ATOM     15  C   UNL     1      25.770  -3.804   7.466  1.00  0.00     0.000 C 
BRANCH  15  16
ATOM     16  C   UNL     1      24.650  -4.568   6.741  1.00  0.00     0.000 C 
BRANCH  16  17
ATOM     17  C   UNL     1      24.956  -6.068   6.570  1.00  0.00     0.000 C 
BRANCH  17  18
ATOM     18  C   UNL     1      26.433  -6.463   6.760  1.00  0.00     0.000 C 
BRANCH  18  19
ATOM     19  C   UNL     1      27.170  -6.682   5.427  1.00  0.00     0.000 C 
BRANCH  19  20
ATOM     20  C   UNL     1      27.972  -5.447   4.976  1.00  0.00     0.006 C 
BRANCH  20  21
ATOM     21  C   UNL     1      27.239  -4.539   3.977  1.00  0.00     0.053 C 
BRANCH  21  22
ATOM     22  C   UNL     1      26.545  -5.321   2.905  1.00  0.00     0.041 C 
ATOM     23  O   UNL     1      25.289  -5.399   2.890  1.00  0.00    -0.550 OA
ATOM     24  O   UNL     1      27.289  -5.984   1.937  1.00  0.00    -0.550 OA
ENDBRANCH  21  22
ENDBRANCH  20  21
ENDBRANCH  19  20
ENDBRANCH  18  19
ENDBRANCH  17  18
ENDBRANCH  16  17
ENDBRANCH  15  16
ENDBRANCH  14  15
ENDBRANCH  13  14
ENDBRANCH   1  13
TORSDOF 20
ENDMDL
MODEL 2
REMARK VINA RESULT:    -3.852      3.399      6.004
REMARK INTER + INTRA:         -11.915
REMARK INTER:                  -7.978
REMARK INTRA:                  -3.936
REMARK UNBOUND:                -3.560
REMARK SMILES CCCCCCCCCCCCCCCCCCCCCC(=O)[O-]
REMARK SMILES IDX 12 1 11 2 10 3 9 4 8 5 7 6 6 7 5 8 4 9 3 10 2 11 1 12 13 13
REMARK SMILES IDX 14 14 15 15 16 16 17 17 18 18 19 19 20 20 21 21 22 22 23 23
REMARK SMILES IDX 24 24
REMARK H PARENT
REMARK Flexibility Score: inf
ROOT
ATOM      1  C   UNL     1      24.017   1.011   7.817  1.00  0.00     0.000 C 
ENDROOT
BRANCH   1   2
ATOM      2  C   UNL     1      24.588  -0.061   6.865  1.00  0.00     0.000 C 
BRANCH   2   3
ATOM      3  C   UNL     1      24.603  -1.495   7.421  1.00  0.00     0.000 C 
BRANCH   3   4
ATOM      4  C   UNL     1      24.035  -2.527   6.432  1.00  0.00    -0.000 C 
BRANCH   4   5
ATOM      5  C   UNL     1      22.720  -3.153   6.924  1.00  0.00    -0.000 C 
BRANCH   5   6
ATOM      6  C   UNL     1      22.555  -3.059   8.451  1.00  0.00    -0.000 C 
BRANCH   6   7
ATOM      7  C   UNL     1      21.183  -2.502   8.863  1.00  0.00    -0.000 C 
BRANCH   7   8
ATOM      8  C   UNL     1      20.490  -1.733   7.727  1.00  0.00    -0.000 C 
BRANCH   8   9
ATOM      9  C   UNL     1      20.402  -0.221   7.998  1.00  0.00    -0.000 C 
BRANCH   9  10
ATOM     10  C   UNL     1      20.798   0.648   6.784  1.00  0.00    -0.000 C 
BRANCH  10  11
ATOM     11  C   UNL     1      21.005  -0.192   5.515  1.00  0.00    -0.003 C 
ATOM     12  C   UNL     1      21.991   0.480   4.564  1.00  0.00     0.004 C 
ENDBRANCH  10  11
ENDBRANCH   9  10
ENDBRANCH   8   9
ENDBRANCH   7   8
ENDBRANCH   6   7
ENDBRANCH   5   6
ENDBRANCH   4   5
ENDBRANCH   3   4
ENDBRANCH   2   3
ENDBRANCH   1   2
BRANCH   1  13
ATOM     13  C   UNL     1      23.757   0.534   9.258  1.00  0.00     0.000 C 
BRANCH  13  14
ATOM     14  C   UNL     1      24.780   1.024  10.300  1.00  0.00     0.000 C 
BRANCH  14  15
ATOM     15  C   UNL     1      25.205  -0.058  11.317  1.00  0.00     0.000 C 
BRANCH  15  16
ATOM     16  C   UNL     1      25.946  -1.230  10.654  1.00  0.00     0.000 C 
BRANCH  16  17
ATOM     17  C   UNL     1      27.455  -0.970  10.482  1.00  0.00     0.000 C 
BRANCH  17  18
ATOM     18  C   UNL     1      28.064  -1.485   9.163  1.00  0.00     0.000 C 
BRANCH  18  19
ATOM     19  C   UNL     1      28.666  -0.362   8.302  1.00  0.00     0.000 C 
BRANCH  19  20
ATOM     20  C   UNL     1      27.656   0.756   7.984  1.00  0.00     0.006 C 
BRANCH  20  21
ATOM     21  C   UNL     1      28.146   1.787   6.955  1.00  0.00     0.053 C 
BRANCH  21  22
ATOM     22  C   UNL     1      27.642   1.494   5.576  1.00  0.00     0.041 C 
ATOM     23  O   UNL     1      27.950   0.414   5.005  1.00  0.00    -0.550 OA
ATOM     24  O   UNL     1      26.852   2.423   4.911  1.00  0.00    -0.550 OA
ENDBRANCH  21  22
ENDBRANCH  20  21
ENDBRANCH  19  20
ENDBRANCH  18  19
ENDBRANCH  17  18
ENDBRANCH  16  17
ENDBRANCH  15  16
ENDBRANCH  14  15
ENDBRANCH  13  14
ENDBRANCH   1  13
TORSDOF 20
ENDMDL
MODEL 3
REMARK VINA RESULT:    -3.742     10.789     12.428
REMARK INTER + INTRA:         -11.677
REMARK INTER:                  -7.855
REMARK INTRA:                  -3.822
REMARK UNBOUND:                -3.560
REMARK SMILES CCCCCCCCCCCCCCCCCCCCCC(=O)[O-]
REMARK SMILES IDX 12 1 11 2 10 3 9 4 8 5 7 6 6 7 5 8 4 9 3 10 2 11 1 12 13 13
REMARK SMILES IDX 14 14 15 15 16 16 17 17 18 18 19 19 20 20 21 21 22 22 23 23
REMARK SMILES IDX 24 24
REMARK H PARENT
REMARK Flexibility Score: inf
ROOT
ATOM      1  C   UNL     1      22.672  -2.277  17.641  1.00  0.00     0.000 C 
ENDROOT
BRANCH   1   2
ATOM      2  C   UNL     1      22.061  -2.676  19.001  1.00  0.00     0.000 C 
BRANCH   2   3
ATOM      3  C   UNL     1      22.254  -4.149  19.403  1.00  0.00     0.000 C 
BRANCH   3   4
ATOM      4  C   UNL     1      20.971  -4.790  19.959  1.00  0.00    -0.000 C 
BRANCH   4   5
ATOM      5  C   UNL     1      20.500  -5.989  19.119  1.00  0.00    -0.000 C 
BRANCH   5   6
ATOM      6  C   UNL     1      21.561  -6.456  18.108  1.00  0.00    -0.000 C 
BRANCH   6   7
ATOM      7  C   UNL     1      21.039  -6.453  16.662  1.00  0.00    -0.000 C 
BRANCH   7   8
ATOM      8  C   UNL     1      21.398  -5.165  15.905  1.00  0.00    -0.000 C 
BRANCH   8   9
ATOM      9  C   UNL     1      20.193  -4.547  15.176  1.00  0.00    -0.000 C 
BRANCH   9  10
ATOM     10  C   UNL     1      19.601  -3.315  15.896  1.00  0.00    -0.000 C 
BRANCH  10  11
ATOM     11  C   UNL     1      18.669  -3.712  17.051  1.00  0.00    -0.003 C 
ATOM     12  C   UNL     1      18.512  -2.570  18.050  1.00  0.00     0.004 C 
ENDBRANCH  10  11
ENDBRANCH   9  10
ENDBRANCH   8   9
ENDBRANCH   7   8
ENDBRANCH   6   7
ENDBRANCH   5   6
ENDBRANCH   4   5
ENDBRANCH   3   4
ENDBRANCH   2   3
ENDBRANCH   1   2
BRANCH   1  13
ATOM     13  C   UNL     1      23.998  -1.499  17.722  1.00  0.00     0.000 C 
BRANCH  13  14
ATOM     14  C   UNL     1      25.252  -2.369  17.919  1.00  0.00     0.000 C 
BRANCH  14  15
ATOM     15  C   UNL     1      25.197  -3.724  17.180  1.00  0.00     0.000 C 
BRANCH  15  16
ATOM     16  C   UNL     1      25.736  -4.883  18.034  1.00  0.00     0.000 C 
BRANCH  16  17
ATOM     17  C   UNL     1      25.243  -6.263  17.558  1.00  0.00     0.000 C 
BRANCH  17  18
ATOM     18  C   UNL     1      24.984  -6.381  16.044  1.00  0.00     0.000 C 
BRANCH  18  19
ATOM     19  C   UNL     1      24.255  -7.681  15.660  1.00  0.00     0.000 C 
BRANCH  19  20
ATOM     20  C   UNL     1      24.536  -8.836  16.639  1.00  0.00     0.006 C 
BRANCH  20  21
ATOM     21  C   UNL     1      23.530  -9.996  16.565  1.00  0.00     0.053 C 
BRANCH  21  22
ATOM     22  C   UNL     1      24.200 -11.309  16.300  1.00  0.00     0.041 C 
ATOM     23  O   UNL     1      23.624 -12.184  15.602  1.00  0.00    -0.550 OA
ATOM     24  O   UNL     1      25.450 -11.574  16.845  1.00  0.00    -0.550 OA
ENDBRANCH  21  22
ENDBRANCH  20  21
ENDBRANCH  19  20
ENDBRANCH  18  19
ENDBRANCH  17  18
ENDBRANCH  16  17
ENDBRANCH  15  16
ENDBRANCH  14  15
ENDBRANCH  13  14
ENDBRANCH   1  13
TORSDOF 20
ENDMDL
MODEL 4
REMARK VINA RESULT:    -3.701      3.474      4.916
REMARK INTER + INTRA:         -11.588
REMARK INTER:                  -7.834
REMARK INTRA:                  -3.753
REMARK UNBOUND:                -3.560
REMARK SMILES CCCCCCCCCCCCCCCCCCCCCC(=O)[O-]
REMARK SMILES IDX 12 1 11 2 10 3 9 4 8 5 7 6 6 7 5 8 4 9 3 10 2 11 1 12 13 13
REMARK SMILES IDX 14 14 15 15 16 16 17 17 18 18 19 19 20 20 21 21 22 22 23 23
REMARK SMILES IDX 24 24
REMARK H PARENT
REMARK Flexibility Score: inf
ROOT
ATOM      1  C   UNL     1      28.175  -0.099  10.024  1.00  0.00     0.000 C 
ENDROOT
BRANCH   1   2
ATOM      2  C   UNL     1      27.265  -0.718  11.106  1.00  0.00     0.000 C 
BRANCH   2   3
ATOM      3  C   UNL     1      25.764  -0.738  10.770  1.00  0.00     0.000 C 
BRANCH   3   4
ATOM      4  C   UNL     1      24.970   0.350  11.513  1.00  0.00    -0.000 C 
BRANCH   4   5
ATOM      5  C   UNL     1      23.771   0.864  10.699  1.00  0.00    -0.000 C 
BRANCH   5   6
ATOM      6  C   UNL     1      23.897   2.354  10.338  1.00  0.00    -0.000 C 
BRANCH   6   7
ATOM      7  C   UNL     1      24.350   2.573   8.885  1.00  0.00    -0.000 C 
BRANCH   7   8
ATOM      8  C   UNL     1      25.879   2.559   8.733  1.00  0.00    -0.000 C 
BRANCH   8   9
ATOM      9  C   UNL     1      26.354   1.668   7.571  1.00  0.00    -0.000 C 
BRANCH   9  10
ATOM     10  C   UNL     1      27.646   2.175   6.894  1.00  0.00    -0.000 C 
BRANCH  10  11
ATOM     11  C   UNL     1      27.764   1.695   5.440  1.00  0.00    -0.003 C 
ATOM     12  C   UNL     1      26.444   1.866   4.693  1.00  0.00     0.004 C 
ENDBRANCH  10  11
ENDBRANCH   9  10
ENDBRANCH   8   9
ENDBRANCH   7   8
ENDBRANCH   6   7
ENDBRANCH   5   6
ENDBRANCH   4   5
ENDBRANCH   3   4
ENDBRANCH   2   3
ENDBRANCH   1   2
BRANCH   1  13
ATOM     13  C   UNL     1      29.102  -1.094   9.302  1.00  0.00     0.000 C 
BRANCH  13  14
ATOM     14  C   UNL     1      28.762  -1.343   7.821  1.00  0.00     0.000 C 
BRANCH  14  15
ATOM     15  C   UNL     1      28.572  -2.834   7.464  1.00  0.00     0.000 C 
BRANCH  15  16
ATOM     16  C   UNL     1      27.145  -3.148   6.986  1.00  0.00     0.000 C 
BRANCH  16  17
ATOM     17  C   UNL     1      26.117  -3.176   8.133  1.00  0.00     0.000 C 
BRANCH  17  18
ATOM     18  C   UNL     1      24.768  -2.499   7.822  1.00  0.00     0.000 C 
BRANCH  18  19
ATOM     19  C   UNL     1      24.906  -1.302   6.865  1.00  0.00     0.000 C 
BRANCH  19  20
ATOM     20  C   UNL     1      23.562  -0.604   6.581  1.00  0.00     0.006 C 
BRANCH  20  21
ATOM     21  C   UNL     1      22.510  -0.769   7.688  1.00  0.00     0.053 C 
BRANCH  21  22
ATOM     22  C   UNL     1      21.553   0.382   7.736  1.00  0.00     0.041 C 
ATOM     23  O   UNL     1      21.660   1.328   6.912  1.00  0.00    -0.550 OA
ATOM     24  O   UNL     1      20.559   0.420   8.705  1.00  0.00    -0.550 OA
ENDBRANCH  21  22
ENDBRANCH  20  21
ENDBRANCH  19  20
ENDBRANCH  18  19
ENDBRANCH  17  18
ENDBRANCH  16  17
ENDBRANCH  15  16
ENDBRANCH  14  15
ENDBRANCH  13  14
ENDBRANCH   1  13
TORSDOF 20
ENDMDL
MODEL 5
REMARK VINA RESULT:    -3.693     10.612     13.362
REMARK INTER + INTRA:         -11.570
REMARK INTER:                  -8.217
REMARK INTRA:                  -3.353
REMARK UNBOUND:                -3.560
REMARK SMILES CCCCCCCCCCCCCCCCCCCCCC(=O)[O-]
REMARK SMILES IDX 12 1 11 2 10 3 9 4 8 5 7 6 6 7 5 8 4 9 3 10 2 11 1 12 13 13
REMARK SMILES IDX 14 14 15 15 16 16 17 17 18 18 19 19 20 20 21 21 22 22 23 23
REMARK SMILES IDX 24 24
REMARK H PARENT
REMARK Flexibility Score: inf
ROOT
ATOM      1  C   UNL     1      25.770  -5.143  18.035  1.00  0.00     0.000 C 
ENDROOT
BRANCH   1   2
ATOM      2  C   UNL     1      25.384  -6.546  17.523  1.00  0.00     0.000 C 
BRANCH   2   3
ATOM      3  C   UNL     1      25.085  -6.638  16.017  1.00  0.00     0.000 C 
BRANCH   3   4
ATOM      4  C   UNL     1      24.426  -7.970  15.618  1.00  0.00    -0.000 C 
BRANCH   4   5
ATOM      5  C   UNL     1      24.410  -8.988  16.771  1.00  0.00    -0.000 C 
BRANCH   5   6
ATOM      6  C   UNL     1      23.156  -9.879  16.756  1.00  0.00    -0.000 C 
BRANCH   6   7
ATOM      7  C   UNL     1      22.100  -9.395  15.749  1.00  0.00    -0.000 C 
BRANCH   7   8
ATOM      8  C   UNL     1      20.665  -9.543  16.279  1.00  0.00    -0.000 C 
BRANCH   8   9
ATOM      9  C   UNL     1      19.624  -9.669  15.152  1.00  0.00    -0.000 C 
BRANCH   9  10
ATOM     10  C   UNL     1      19.423 -11.119  14.659  1.00  0.00    -0.000 C 
BRANCH  10  11
ATOM     11  C   UNL     1      19.620 -12.146  15.785  1.00  0.00    -0.003 C 
ATOM     12  C   UNL     1      20.574 -13.257  15.357  1.00  0.00     0.004 C 
ENDBRANCH  10  11
ENDBRANCH   9  10
ENDBRANCH   8   9
ENDBRANCH   7   8
ENDBRANCH   6   7
ENDBRANCH   5   6
ENDBRANCH   4   5
ENDBRANCH   3   4
ENDBRANCH   2   3
ENDBRANCH   1   2
BRANCH   1  13
ATOM     13  C   UNL     1      25.349  -3.975  17.124  1.00  0.00     0.000 C 
BRANCH  13  14
ATOM     14  C   UNL     1      25.044  -2.655  17.857  1.00  0.00     0.000 C 
BRANCH  14  15
ATOM     15  C   UNL     1      23.599  -2.148  17.659  1.00  0.00     0.000 C 
BRANCH  15  16
ATOM     16  C   UNL     1      22.848  -1.976  18.989  1.00  0.00     0.000 C 
BRANCH  16  17
ATOM     17  C   UNL     1      21.741  -3.027  19.197  1.00  0.00     0.000 C 
BRANCH  17  18
ATOM     18  C   UNL     1      22.239  -4.459  19.471  1.00  0.00     0.000 C 
BRANCH  18  19
ATOM     19  C   UNL     1      21.266  -5.539  18.964  1.00  0.00     0.000 C 
BRANCH  19  20
ATOM     20  C   UNL     1      21.779  -6.265  17.707  1.00  0.00     0.006 C 
BRANCH  20  21
ATOM     21  C   UNL     1      21.782  -5.410  16.430  1.00  0.00     0.053 C 
BRANCH  21  22
ATOM     22  C   UNL     1      20.807  -5.911  15.411  1.00  0.00     0.041 C 
ATOM     23  O   UNL     1      21.174  -6.101  14.222  1.00  0.00    -0.550 OA
ATOM     24  O   UNL     1      19.485  -6.146  15.770  1.00  0.00    -0.550 OA
ENDBRANCH  21  22
ENDBRANCH  20  21
ENDBRANCH  19  20
ENDBRANCH  18  19
ENDBRANCH  17  18
ENDBRANCH  16  17
ENDBRANCH  15  16
ENDBRANCH  14  15
ENDBRANCH  13  14
ENDBRANCH   1  13
TORSDOF 20
ENDMDL
MODEL 6
REMARK VINA RESULT:    -3.686     10.107     11.583
REMARK INTER + INTRA:         -11.556
REMARK INTER:                  -8.346
REMARK INTRA:                  -3.210
REMARK UNBOUND:                -3.560
REMARK SMILES CCCCCCCCCCCCCCCCCCCCCC(=O)[O-]
REMARK SMILES IDX 12 1 11 2 10 3 9 4 8 5 7 6 6 7 5 8 4 9 3 10 2 11 1 12 13 13
REMARK SMILES IDX 14 14 15 15 16 16 17 17 18 18 19 19 20 20 21 21 22 22 23 23
REMARK SMILES IDX 24 24
REMARK H PARENT
REMARK Flexibility Score: inf
ROOT
ATOM      1  C   UNL     1      25.800  -4.850  18.043  1.00  0.00     0.000 C 
ENDROOT
BRANCH   1   2
ATOM      2  C   UNL     1      25.067  -3.704  17.316  1.00  0.00     0.000 C 
BRANCH   2   3
ATOM      3  C   UNL     1      25.189  -2.320  17.977  1.00  0.00     0.000 C 
BRANCH   3   4
ATOM      4  C   UNL     1      23.959  -1.429  17.733  1.00  0.00    -0.000 C 
BRANCH   4   5
ATOM      5  C   UNL     1      22.898  -1.576  18.837  1.00  0.00    -0.000 C 
BRANCH   5   6
ATOM      6  C   UNL     1      21.595  -2.214  18.324  1.00  0.00    -0.000 C 
BRANCH   6   7
ATOM      7  C   UNL     1      21.059  -3.301  19.269  1.00  0.00    -0.000 C 
BRANCH   7   8
ATOM      8  C   UNL     1      22.144  -4.301  19.698  1.00  0.00    -0.000 C 
BRANCH   8   9
ATOM      9  C   UNL     1      22.175  -5.561  18.816  1.00  0.00    -0.000 C 
BRANCH   9  10
ATOM     10  C   UNL     1      20.880  -5.777  18.004  1.00  0.00    -0.000 C 
BRANCH  10  11
ATOM     11  C   UNL     1      21.168  -6.132  16.537  1.00  0.00    -0.003 C 
ATOM     12  C   UNL     1      21.246  -4.879  15.671  1.00  0.00     0.004 C 
ENDBRANCH  10  11
ENDBRANCH   9  10
ENDBRANCH   8   9
ENDBRANCH   7   8
ENDBRANCH   6   7
ENDBRANCH   5   6
ENDBRANCH   4   5
ENDBRANCH   3   4
ENDBRANCH   2   3
ENDBRANCH   1   2
BRANCH   1  13
ATOM     13  C   UNL     1      25.468  -6.265  17.534  1.00  0.00     0.000 C 
BRANCH  13  14
ATOM     14  C   UNL     1      24.966  -6.333  16.080  1.00  0.00     0.000 C 
BRANCH  14  15
ATOM     15  C   UNL     1      24.457  -7.729  15.658  1.00  0.00     0.000 C 
BRANCH  15  16
ATOM     16  C   UNL     1      24.184  -7.824  14.148  1.00  0.00     0.000 C 
BRANCH  16  17
ATOM     17  C   UNL     1      22.688  -7.983  13.814  1.00  0.00     0.000 C 
BRANCH  17  18
ATOM     18  C   UNL     1      22.103  -9.385  14.073  1.00  0.00     0.000 C 
BRANCH  18  19
ATOM     19  C   UNL     1      22.831 -10.492  13.291  1.00  0.00     0.000 C 
BRANCH  19  20
ATOM     20  C   UNL     1      23.237 -11.684  14.178  1.00  0.00     0.006 C 
BRANCH  20  21
ATOM     21  C   UNL     1      23.879 -11.294  15.519  1.00  0.00     0.053 C 
BRANCH  21  22
ATOM     22  C   UNL     1      25.373 -11.397  15.481  1.00  0.00     0.041 C 
ATOM     23  O   UNL     1      26.011 -10.991  14.475  1.00  0.00    -0.550 OA
ATOM     24  O   UNL     1      26.057 -11.965  16.549  1.00  0.00    -0.550 OA
ENDBRANCH  21  22
ENDBRANCH  20  21
ENDBRANCH  19  20
ENDBRANCH  18  19
ENDBRANCH  17  18
ENDBRANCH  16  17
ENDBRANCH  15  16
ENDBRANCH  14  15
ENDBRANCH  13  14
ENDBRANCH   1  13
TORSDOF 20
ENDMDL
MODEL 7
REMARK VINA RESULT:    -3.668      2.861      6.733
REMARK INTER + INTRA:         -11.517
REMARK INTER:                  -8.284
REMARK INTRA:                  -3.233
REMARK UNBOUND:                -3.560
REMARK SMILES CCCCCCCCCCCCCCCCCCCCCC(=O)[O-]
REMARK SMILES IDX 12 1 11 2 10 3 9 4 8 5 7 6 6 7 5 8 4 9 3 10 2 11 1 12 13 13
REMARK SMILES IDX 14 14 15 15 16 16 17 17 18 18 19 19 20 20 21 21 22 22 23 23
REMARK SMILES IDX 24 24
REMARK H PARENT
REMARK Flexibility Score: inf
ROOT
ATOM      1  C   UNL     1      22.155   0.062   7.232  1.00  0.00     0.000 C 
ENDROOT
BRANCH   1   2
ATOM      2  C   UNL     1      23.341  -0.001   6.247  1.00  0.00     0.000 C 
BRANCH   2   3
ATOM      3  C   UNL     1      24.661  -0.524   6.838  1.00  0.00     0.000 C 
BRANCH   3   4
ATOM      4  C   UNL     1      24.452  -1.412   8.077  1.00  0.00    -0.000 C 
BRANCH   4   5
ATOM      5  C   UNL     1      25.771  -1.740   8.796  1.00  0.00    -0.000 C 
BRANCH   5   6
ATOM      6  C   UNL     1      27.003  -1.519   7.902  1.00  0.00    -0.000 C 
BRANCH   6   7
ATOM      7  C   UNL     1      28.125  -2.532   8.184  1.00  0.00    -0.000 C 
BRANCH   7   8
ATOM      8  C   UNL     1      28.596  -3.262   6.916  1.00  0.00    -0.000 C 
BRANCH   8   9
ATOM      9  C   UNL     1      27.653  -3.046   5.719  1.00  0.00    -0.000 C 
BRANCH   9  10
ATOM     10  C   UNL     1      27.325  -4.345   4.950  1.00  0.00    -0.000 C 
BRANCH  10  11
ATOM     11  C   UNL     1      27.597  -4.210   3.444  1.00  0.00    -0.003 C 
ATOM     12  C   UNL     1      27.301  -5.515   2.711  1.00  0.00     0.004 C 
ENDBRANCH  10  11
ENDBRANCH   9  10
ENDBRANCH   8   9
ENDBRANCH   7   8
ENDBRANCH   6   7
ENDBRANCH   5   6
ENDBRANCH   4   5
ENDBRANCH   3   4
ENDBRANCH   2   3
ENDBRANCH   1   2
BRANCH   1  13
ATOM     13  C   UNL     1      21.612   1.475   7.513  1.00  0.00     0.000 C 
BRANCH  13  14
ATOM     14  C   UNL     1      21.273   1.760   8.988  1.00  0.00     0.000 C 
BRANCH  14  15
ATOM     15  C   UNL     1      21.891   0.750   9.979  1.00  0.00     0.000 C 
BRANCH  15  16
ATOM     16  C   UNL     1      22.872   1.412  10.960  1.00  0.00     0.000 C 
BRANCH  16  17
ATOM     17  C   UNL     1      24.341   1.310  10.505  1.00  0.00     0.000 C 
BRANCH  17  18
ATOM     18  C   UNL     1      24.767   2.327   9.429  1.00  0.00     0.000 C 
BRANCH  18  19
ATOM     19  C   UNL     1      26.142   2.008   8.816  1.00  0.00     0.000 C 
BRANCH  19  20
ATOM     20  C   UNL     1      26.377   2.722   7.471  1.00  0.00     0.006 C 
BRANCH  20  21
ATOM     21  C   UNL     1      27.658   2.295   6.737  1.00  0.00     0.053 C 
BRANCH  21  22
ATOM     22  C   UNL     1      27.363   1.588   5.450  1.00  0.00     0.041 C 
ATOM     23  O   UNL     1      26.483   2.034   4.669  1.00  0.00    -0.550 OA
ATOM     24  O   UNL     1      28.045   0.422   5.125  1.00  0.00    -0.550 OA
ENDBRANCH  21  22
ENDBRANCH  20  21
ENDBRANCH  19  20
ENDBRANCH  18  19
ENDBRANCH  17  18
ENDBRANCH  16  17
ENDBRANCH  15  16
ENDBRANCH  14  15
ENDBRANCH  13  14
ENDBRANCH   1  13
TORSDOF 20
ENDMDL
MODEL 8
REMARK VINA RESULT:    -3.658      2.337      4.136
REMARK INTER + INTRA:         -11.495
REMARK INTER:                  -7.532
REMARK INTRA:                  -3.963
REMARK UNBOUND:                -3.560
REMARK SMILES CCCCCCCCCCCCCCCCCCCCCC(=O)[O-]
REMARK SMILES IDX 12 1 11 2 10 3 9 4 8 5 7 6 6 7 5 8 4 9 3 10 2 11 1 12 13 13
REMARK SMILES IDX 14 14 15 15 16 16 17 17 18 18 19 19 20 20 21 21 22 22 23 23
REMARK SMILES IDX 24 24
REMARK H PARENT
REMARK Flexibility Score: inf
ROOT
ATOM      1  C   UNL     1      26.168   1.732   6.873  1.00  0.00     0.000 C 
ENDROOT
BRANCH   1   2
ATOM      2  C   UNL     1      27.678   1.441   7.006  1.00  0.00     0.000 C 
BRANCH   2   3
ATOM      3  C   UNL     1      28.051  -0.044   7.152  1.00  0.00     0.000 C 
BRANCH   3   4
ATOM      4  C   UNL     1      28.933  -0.321   8.382  1.00  0.00    -0.000 C 
BRANCH   4   5
ATOM      5  C   UNL     1      28.168  -1.040   9.505  1.00  0.00    -0.000 C 
BRANCH   5   6
ATOM      6  C   UNL     1      27.615  -0.068  10.561  1.00  0.00    -0.000 C 
BRANCH   6   7
ATOM      7  C   UNL     1      26.173   0.373  10.259  1.00  0.00    -0.000 C 
BRANCH   7   8
ATOM      8  C   UNL     1      25.186  -0.027  11.367  1.00  0.00    -0.000 C 
BRANCH   8   9
ATOM      9  C   UNL     1      24.107   1.039  11.617  1.00  0.00    -0.000 C 
BRANCH   9  10
ATOM     10  C   UNL     1      24.048   2.126  10.522  1.00  0.00    -0.000 C 
BRANCH  10  11
ATOM     11  C   UNL     1      22.606   2.440  10.094  1.00  0.00    -0.003 C 
ATOM     12  C   UNL     1      21.639   1.365  10.582  1.00  0.00     0.004 C 
ENDBRANCH  10  11
ENDBRANCH   9  10
ENDBRANCH   8   9
ENDBRANCH   7   8
ENDBRANCH   6   7
ENDBRANCH   5   6
ENDBRANCH   4   5
ENDBRANCH   3   4
ENDBRANCH   2   3
ENDBRANCH   1   2
BRANCH   1  13
ATOM     13  C   UNL     1      25.280   0.495   6.648  1.00  0.00     0.000 C 
BRANCH  13  14
ATOM     14  C   UNL     1      23.817   0.653   7.101  1.00  0.00     0.000 C 
BRANCH  14  15
ATOM     15  C   UNL     1      23.248  -0.585   7.827  1.00  0.00     0.000 C 
BRANCH  15  16
ATOM     16  C   UNL     1      23.954  -1.886   7.413  1.00  0.00     0.000 C 
BRANCH  16  17
ATOM     17  C   UNL     1      24.766  -2.523   8.557  1.00  0.00     0.000 C 
BRANCH  17  18
ATOM     18  C   UNL     1      25.952  -3.401   8.112  1.00  0.00     0.000 C 
BRANCH  18  19
ATOM     19  C   UNL     1      26.226  -3.314   6.600  1.00  0.00     0.000 C 
BRANCH  19  20
ATOM     20  C   UNL     1      27.719  -3.468   6.252  1.00  0.00     0.006 C 
BRANCH  20  21
ATOM     21  C   UNL     1      28.577  -4.075   7.373  1.00  0.00     0.053 C 
BRANCH  21  22
ATOM     22  C   UNL     1      28.638  -5.569   7.292  1.00  0.00     0.041 C 
ATOM     23  O   UNL     1      28.916  -6.248   8.315  1.00  0.00    -0.550 OA
ATOM     24  O   UNL     1      28.411  -6.210   6.080  1.00  0.00    -0.550 OA
ENDBRANCH  21  22
ENDBRANCH  20  21
ENDBRANCH  19  20
ENDBRANCH  18  19
ENDBRANCH  17  18
ENDBRANCH  16  17
ENDBRANCH  15  16
ENDBRANCH  14  15
ENDBRANCH  13  14
ENDBRANCH   1  13
TORSDOF 20
ENDMDL
MODEL 9
REMARK VINA RESULT:    -3.596      3.872      5.751
REMARK INTER + INTRA:         -11.361
REMARK INTER:                  -7.550
REMARK INTRA:                  -3.811
REMARK UNBOUND:                -3.560
REMARK SMILES CCCCCCCCCCCCCCCCCCCCCC(=O)[O-]
REMARK SMILES IDX 12 1 11 2 10 3 9 4 8 5 7 6 6 7 5 8 4 9 3 10 2 11 1 12 13 13
REMARK SMILES IDX 14 14 15 15 16 16 17 17 18 18 19 19 20 20 21 21 22 22 23 23
REMARK SMILES IDX 24 24
REMARK H PARENT
REMARK Flexibility Score: inf
ROOT
ATOM      1  C   UNL     1      28.304  -3.031   7.052  1.00  0.00     0.000 C 
ENDROOT
BRANCH   1   2
ATOM      2  C   UNL     1      28.714  -2.458   8.425  1.00  0.00     0.000 C 
BRANCH   2   3
ATOM      3  C   UNL     1      28.869  -0.929   8.482  1.00  0.00     0.000 C 
BRANCH   3   4
ATOM      4  C   UNL     1      28.224  -0.308   9.732  1.00  0.00    -0.000 C 
BRANCH   4   5
ATOM      5  C   UNL     1      26.878  -0.961  10.087  1.00  0.00    -0.000 C 
BRANCH   5   6
ATOM      6  C   UNL     1      25.857   0.050  10.637  1.00  0.00    -0.000 C 
BRANCH   6   7
ATOM      7  C   UNL     1      24.921   0.595   9.546  1.00  0.00    -0.000 C 
BRANCH   7   8
ATOM      8  C   UNL     1      25.191   2.072   9.217  1.00  0.00    -0.000 C 
BRANCH   8   9
ATOM      9  C   UNL     1      25.823   2.267   7.827  1.00  0.00    -0.000 C 
BRANCH   9  10
ATOM     10  C   UNL     1      25.792   0.994   6.952  1.00  0.00    -0.000 C 
BRANCH  10  11
ATOM     11  C   UNL     1      26.542   1.186   5.625  1.00  0.00    -0.003 C 
ATOM     12  C   UNL     1      27.981   1.632   5.864  1.00  0.00     0.004 C 
ENDBRANCH  10  11
ENDBRANCH   9  10
ENDBRANCH   8   9
ENDBRANCH   7   8
ENDBRANCH   6   7
ENDBRANCH   5   6
ENDBRANCH   4   5
ENDBRANCH   3   4
ENDBRANCH   2   3
ENDBRANCH   1   2
BRANCH   1  13
ATOM     13  C   UNL     1      26.963  -2.512   6.501  1.00  0.00     0.000 C 
BRANCH  13  14
ATOM     14  C   UNL     1      25.723  -3.307   6.952  1.00  0.00     0.000 C 
BRANCH  14  15
ATOM     15  C   UNL     1      24.608  -2.433   7.567  1.00  0.00     0.000 C 
BRANCH  15  16
ATOM     16  C   UNL     1      23.286  -2.532   6.788  1.00  0.00     0.000 C 
BRANCH  16  17
ATOM     17  C   UNL     1      22.873  -1.201   6.131  1.00  0.00     0.000 C 
BRANCH  17  18
ATOM     18  C   UNL     1      21.353  -0.960   6.038  1.00  0.00     0.000 C 
BRANCH  18  19
ATOM     19  C   UNL     1      20.883   0.234   6.887  1.00  0.00     0.000 C 
BRANCH  19  20
ATOM     20  C   UNL     1      22.036   1.170   7.294  1.00  0.00     0.006 C 
BRANCH  20  21
ATOM     21  C   UNL     1      21.602   2.407   8.097  1.00  0.00     0.053 C 
BRANCH  21  22
ATOM     22  C   UNL     1      20.880   2.039   9.356  1.00  0.00     0.041 C 
ATOM     23  O   UNL     1      19.755   2.544   9.611  1.00  0.00    -0.550 OA
ATOM     24  O   UNL     1      21.460   1.156  10.258  1.00  0.00    -0.550 OA
ENDBRANCH  21  22
ENDBRANCH  20  21
ENDBRANCH  19  20
ENDBRANCH  18  19
ENDBRANCH  17  18
ENDBRANCH  16  17
ENDBRANCH  15  16
ENDBRANCH  14  15
ENDBRANCH  13  14
ENDBRANCH   1  13
TORSDOF 20
ENDMDL
