MODEL 1
REMARK VINA RESULT:    -7.260      0.000      0.000
REMARK INTER + INTRA:          -7.472
REMARK INTER:                  -7.472
REMARK INTRA:                   0.000
REMARK UNBOUND:                 0.000
REMARK SMILES CC1(C)CC[C@@]2(C)CC[C@]3(C)C(=CC[C@@H]4[C@]5(C)CC[C@@H](O)C(C)(C)[C@@H]5CC[C@]43C)[C@H]2C1
REMARK SMILES IDX 1 1 2 2 4 3 5 4 6 5 8 6 9 7 10 8 12 9 13 10 14 11 15 12
REMARK SMILES IDX 28 13 27 14 26 15 25 16 16 17 18 18 19 19 20 20 22 21 23 22
REMARK SMILES IDX 24 23 17 24 29 25 30 26 31 27 11 28 7 29 3 30 21 31
REMARK H PARENT 21 32
REMARK Flexibility Score: inf
ROOT
ATOM      1  C   UNL     1     128.047 118.791 118.933  1.00  0.00     0.011 C 
ATOM      2  C   UNL     1     126.842 119.424 119.663  1.00  0.00    -0.035 C 
ATOM      3  C   UNL     1     125.585 118.579 119.359  1.00  0.00     0.007 C 
ATOM      4  C   UNL     1     124.356 119.040 120.154  1.00  0.00     0.008 C 
ATOM      5  C   UNL     1     124.574 119.066 121.699  1.00  0.00    -0.026 C 
ATOM      6  C   UNL     1     124.524 117.601 122.270  1.00  0.00     0.008 C 
ATOM      7  C   UNL     1     125.629 117.217 123.283  1.00  0.00     0.012 C 
ATOM      8  C   UNL     1     126.035 118.347 124.285  1.00  0.00    -0.006 C 
ATOM      9  C   UNL     1     126.270 119.660 123.533  1.00  0.00    -0.064 C 
ATOM     10  C   UNL     1     126.947 120.668 124.132  1.00  0.00    -0.027 C 
ATOM     11  C   UNL     1     127.714 120.537 125.434  1.00  0.00     0.032 C 
ATOM     12  C   UNL     1     127.614 119.150 126.152  1.00  0.00     0.006 C 
ATOM     13  C   UNL     1     127.390 118.000 125.095  1.00  0.00    -0.020 C 
ATOM     14  C   UNL     1     127.278 116.644 125.832  1.00  0.00     0.008 C 
ATOM     15  C   UNL     1     128.438 116.383 126.792  1.00  0.00     0.005 C 
ATOM     16  C   UNL     1     128.552 117.437 127.929  1.00  0.00     0.003 C 
ATOM     17  C   UNL     1     128.656 118.922 127.352  1.00  0.00    -0.025 C 
ATOM     18  C   UNL     1     130.126 119.264 126.943  1.00  0.00     0.010 C 
ATOM     19  C   UNL     1     131.183 118.905 127.995  1.00  0.00     0.033 C 
ATOM     20  C   UNL     1     131.093 117.433 128.423  1.00  0.00     0.120 C 
ATOM     21  C   UNL     1     129.691 117.036 128.984  1.00  0.00    -0.006 C 
ATOM     22  C   UNL     1     129.426 117.683 130.382  1.00  0.00     0.014 C 
ATOM     23  C   UNL     1     129.710 115.500 129.243  1.00  0.00     0.014 C 
ATOM     24  C   UNL     1     128.238 119.935 128.470  1.00  0.00     0.012 C 
ATOM     25  C   UNL     1     128.601 117.899 124.099  1.00  0.00     0.012 C 
ATOM     26  C   UNL     1     125.901 119.812 122.057  1.00  0.00     0.022 C 
ATOM     27  C   UNL     1     127.114 119.400 121.184  1.00  0.00     0.015 C 
ATOM     28  C   UNL     1     124.802 118.574 125.233  1.00  0.00     0.017 C 
ATOM     29  C   UNL     1     123.387 119.886 122.278  1.00  0.00     0.012 C 
ATOM     30  C   UNL     1     126.686 120.875 119.146  1.00  0.00     0.011 C 
ENDROOT
BRANCH  20  31
ATOM     31  O   UNL     1     132.127 117.111 129.325  1.00  0.00    -0.393 OA
ATOM     32  H   UNL     1     132.116 116.130 129.474  1.00  0.00     0.210 HD
ENDBRANCH  20  31
TORSDOF 1
ENDMDL
MODEL 2
REMARK VINA RESULT:    -7.000      8.102     11.115
REMARK INTER + INTRA:          -7.205
REMARK INTER:                  -7.205
REMARK INTRA:                   0.000
REMARK UNBOUND:                 0.000
REMARK SMILES CC1(C)CC[C@@]2(C)CC[C@]3(C)C(=CC[C@@H]4[C@]5(C)CC[C@@H](O)C(C)(C)[C@@H]5CC[C@]43C)[C@H]2C1
REMARK SMILES IDX 1 1 2 2 4 3 5 4 6 5 8 6 9 7 10 8 12 9 13 10 14 11 15 12
REMARK SMILES IDX 28 13 27 14 26 15 25 16 16 17 18 18 19 19 20 20 22 21 23 22
REMARK SMILES IDX 24 23 17 24 29 25 30 26 31 27 11 28 7 29 3 30 21 31
REMARK H PARENT 21 32
REMARK Flexibility Score: inf
ROOT
ATOM      1  C   UNL     1     125.330 123.045 129.717  1.00  0.00     0.011 C 
ATOM      2  C   UNL     1     124.959 122.557 128.299  1.00  0.00    -0.035 C 
ATOM      3  C   UNL     1     125.448 121.101 128.136  1.00  0.00     0.007 C 
ATOM      4  C   UNL     1     125.002 120.472 126.810  1.00  0.00     0.008 C 
ATOM      5  C   UNL     1     123.460 120.504 126.581  1.00  0.00    -0.026 C 
ATOM      6  C   UNL     1     122.766 119.399 127.460  1.00  0.00     0.008 C 
ATOM      7  C   UNL     1     121.496 119.827 128.233  1.00  0.00     0.012 C 
ATOM      8  C   UNL     1     120.550 120.810 127.467  1.00  0.00    -0.006 C 
ATOM      9  C   UNL     1     121.362 121.958 126.861  1.00  0.00    -0.064 C 
ATOM     10  C   UNL     1     120.734 123.086 126.455  1.00  0.00    -0.027 C 
ATOM     11  C   UNL     1     119.286 123.424 126.758  1.00  0.00     0.032 C 
ATOM     12  C   UNL     1     118.469 122.324 127.513  1.00  0.00     0.006 C 
ATOM     13  C   UNL     1     119.425 121.462 128.427  1.00  0.00    -0.020 C 
ATOM     14  C   UNL     1     118.596 120.373 129.149  1.00  0.00     0.008 C 
ATOM     15  C   UNL     1     117.379 120.931 129.884  1.00  0.00     0.005 C 
ATOM     16  C   UNL     1     116.359 121.641 128.948  1.00  0.00     0.003 C 
ATOM     17  C   UNL     1     117.049 122.799 128.091  1.00  0.00    -0.025 C 
ATOM     18  C   UNL     1     117.150 124.123 128.918  1.00  0.00     0.010 C 
ATOM     19  C   UNL     1     115.856 124.532 129.632  1.00  0.00     0.033 C 
ATOM     20  C   UNL     1     115.310 123.406 130.522  1.00  0.00     0.120 C 
ATOM     21  C   UNL     1     115.041 122.078 129.746  1.00  0.00    -0.006 C 
ATOM     22  C   UNL     1     113.812 122.211 128.788  1.00  0.00     0.014 C 
ATOM     23  C   UNL     1     114.626 121.001 130.793  1.00  0.00     0.014 C 
ATOM     24  C   UNL     1     116.165 123.101 126.836  1.00  0.00     0.012 C 
ATOM     25  C   UNL     1     120.107 122.348 129.531  1.00  0.00     0.012 C 
ATOM     26  C   UNL     1     122.891 121.936 126.847  1.00  0.00     0.022 C 
ATOM     27  C   UNL     1     123.421 122.596 128.146  1.00  0.00     0.015 C 
ATOM     28  C   UNL     1     119.933 120.001 126.270  1.00  0.00     0.017 C 
ATOM     29  C   UNL     1     123.250 120.172 125.076  1.00  0.00     0.012 C 
ATOM     30  C   UNL     1     125.644 123.501 127.281  1.00  0.00     0.011 C 
ENDROOT
BRANCH  20  31
ATOM     31  O   UNL     1     114.170 123.838 131.230  1.00  0.00    -0.393 OA
ATOM     32  H   UNL     1     114.421 124.632 131.771  1.00  0.00     0.210 HD
ENDBRANCH  20  31
TORSDOF 1
ENDMDL
MODEL 3
REMARK VINA RESULT:    -6.985      8.496     11.059
REMARK INTER + INTRA:          -7.189
REMARK INTER:                  -7.189
REMARK INTRA:                   0.000
REMARK UNBOUND:                 0.000
REMARK SMILES CC1(C)CC[C@@]2(C)CC[C@]3(C)C(=CC[C@@H]4[C@]5(C)CC[C@@H](O)C(C)(C)[C@@H]5CC[C@]43C)[C@H]2C1
REMARK SMILES IDX 1 1 2 2 4 3 5 4 6 5 8 6 9 7 10 8 12 9 13 10 14 11 15 12
REMARK SMILES IDX 28 13 27 14 26 15 25 16 16 17 18 18 19 19 20 20 22 21 23 22
REMARK SMILES IDX 24 23 17 24 29 25 30 26 31 27 11 28 7 29 3 30 21 31
REMARK H PARENT 21 32
REMARK Flexibility Score: inf
ROOT
ATOM      1  C   UNL     1     125.054 120.690 126.786  1.00  0.00     0.011 C 
ATOM      2  C   UNL     1     123.716 120.189 126.199  1.00  0.00    -0.035 C 
ATOM      3  C   UNL     1     123.334 118.869 126.904  1.00  0.00     0.007 C 
ATOM      4  C   UNL     1     121.946 118.360 126.495  1.00  0.00     0.008 C 
ATOM      5  C   UNL     1     120.799 119.392 126.725  1.00  0.00    -0.026 C 
ATOM      6  C   UNL     1     120.440 119.460 128.256  1.00  0.00     0.008 C 
ATOM      7  C   UNL     1     120.269 120.872 128.863  1.00  0.00     0.012 C 
ATOM      8  C   UNL     1     119.570 121.917 127.933  1.00  0.00    -0.006 C 
ATOM      9  C   UNL     1     120.197 121.881 126.536  1.00  0.00    -0.064 C 
ATOM     10  C   UNL     1     119.993 122.910 125.679  1.00  0.00    -0.027 C 
ATOM     11  C   UNL     1     119.370 124.239 126.061  1.00  0.00     0.032 C 
ATOM     12  C   UNL     1     118.855 124.357 127.534  1.00  0.00     0.006 C 
ATOM     13  C   UNL     1     119.703 123.429 128.488  1.00  0.00    -0.020 C 
ATOM     14  C   UNL     1     119.162 123.552 129.932  1.00  0.00     0.008 C 
ATOM     15  C   UNL     1     119.055 124.997 130.415  1.00  0.00     0.005 C 
ATOM     16  C   UNL     1     118.087 125.866 129.561  1.00  0.00     0.003 C 
ATOM     17  C   UNL     1     118.480 125.843 128.013  1.00  0.00    -0.025 C 
ATOM     18  C   UNL     1     119.614 126.876 127.706  1.00  0.00     0.010 C 
ATOM     19  C   UNL     1     119.381 128.274 128.292  1.00  0.00     0.033 C 
ATOM     20  C   UNL     1     119.117 128.228 129.804  1.00  0.00     0.120 C 
ATOM     21  C   UNL     1     117.903 127.327 130.194  1.00  0.00    -0.006 C 
ATOM     22  C   UNL     1     116.546 127.970 129.758  1.00  0.00     0.014 C 
ATOM     23  C   UNL     1     117.845 127.269 131.750  1.00  0.00     0.014 C 
ATOM     24  C   UNL     1     117.232 126.256 127.164  1.00  0.00     0.012 C 
ATOM     25  C   UNL     1     121.213 123.864 128.509  1.00  0.00     0.012 C 
ATOM     26  C   UNL     1     121.184 120.787 126.131  1.00  0.00     0.022 C 
ATOM     27  C   UNL     1     122.624 121.247 126.478  1.00  0.00     0.015 C 
ATOM     28  C   UNL     1     118.075 121.456 127.778  1.00  0.00     0.017 C 
ATOM     29  C   UNL     1     119.577 118.849 125.932  1.00  0.00     0.012 C 
ATOM     30  C   UNL     1     123.915 119.981 124.678  1.00  0.00     0.011 C 
ENDROOT
BRANCH  20  31
ATOM     31  O   UNL     1     118.991 129.530 130.329  1.00  0.00    -0.393 OA
ATOM     32  H   UNL     1     119.902 129.903 130.460  1.00  0.00     0.210 HD
ENDBRANCH  20  31
TORSDOF 1
ENDMDL
MODEL 4
REMARK VINA RESULT:    -6.951      9.565     13.111
REMARK INTER + INTRA:          -7.154
REMARK INTER:                  -7.154
REMARK INTRA:                   0.000
REMARK UNBOUND:                 0.000
REMARK SMILES CC1(C)CC[C@@]2(C)CC[C@]3(C)C(=CC[C@@H]4[C@]5(C)CC[C@@H](O)C(C)(C)[C@@H]5CC[C@]43C)[C@H]2C1
REMARK SMILES IDX 1 1 2 2 4 3 5 4 6 5 8 6 9 7 10 8 12 9 13 10 14 11 15 12
REMARK SMILES IDX 28 13 27 14 26 15 25 16 16 17 18 18 19 19 20 20 22 21 23 22
REMARK SMILES IDX 24 23 17 24 29 25 30 26 31 27 11 28 7 29 3 30 21 31
REMARK H PARENT 21 32
REMARK Flexibility Score: inf
ROOT
ATOM      1  C   UNL     1     123.460 118.042 132.035  1.00  0.00     0.011 C 
ATOM      2  C   UNL     1     122.013 117.791 132.513  1.00  0.00    -0.035 C 
ATOM      3  C   UNL     1     121.952 118.026 134.039  1.00  0.00     0.007 C 
ATOM      4  C   UNL     1     120.524 117.943 134.594  1.00  0.00     0.008 C 
ATOM      5  C   UNL     1     119.518 118.914 133.903  1.00  0.00    -0.026 C 
ATOM      6  C   UNL     1     119.747 120.381 134.424  1.00  0.00     0.008 C 
ATOM      7  C   UNL     1     119.777 121.498 133.354  1.00  0.00     0.012 C 
ATOM      8  C   UNL     1     118.758 121.323 132.180  1.00  0.00    -0.006 C 
ATOM      9  C   UNL     1     118.825 119.894 131.633  1.00  0.00    -0.064 C 
ATOM     10  C   UNL     1     118.294 119.612 130.420  1.00  0.00    -0.027 C 
ATOM     11  C   UNL     1     117.823 120.653 129.422  1.00  0.00     0.032 C 
ATOM     12  C   UNL     1     117.885 122.141 129.902  1.00  0.00     0.006 C 
ATOM     13  C   UNL     1     119.049 122.331 130.951  1.00  0.00    -0.020 C 
ATOM     14  C   UNL     1     119.077 123.805 131.421  1.00  0.00     0.008 C 
ATOM     15  C   UNL     1     119.118 124.805 130.267  1.00  0.00     0.005 C 
ATOM     16  C   UNL     1     117.883 124.719 129.326  1.00  0.00     0.003 C 
ATOM     17  C   UNL     1     117.677 123.243 128.752  1.00  0.00    -0.025 C 
ATOM     18  C   UNL     1     118.591 122.991 127.508  1.00  0.00     0.010 C 
ATOM     19  C   UNL     1     118.555 124.105 126.454  1.00  0.00     0.033 C 
ATOM     20  C   UNL     1     118.870 125.481 127.059  1.00  0.00     0.120 C 
ATOM     21  C   UNL     1     117.908 125.880 128.222  1.00  0.00    -0.006 C 
ATOM     22  C   UNL     1     116.471 126.199 127.697  1.00  0.00     0.014 C 
ATOM     23  C   UNL     1     118.431 127.221 128.820  1.00  0.00     0.014 C 
ATOM     24  C   UNL     1     116.194 123.081 128.280  1.00  0.00     0.012 C 
ATOM     25  C   UNL     1     120.448 122.011 130.312  1.00  0.00     0.012 C 
ATOM     26  C   UNL     1     119.621 118.801 132.346  1.00  0.00     0.022 C 
ATOM     27  C   UNL     1     121.075 118.796 131.807  1.00  0.00     0.015 C 
ATOM     28  C   UNL     1     117.324 121.513 132.796  1.00  0.00     0.017 C 
ATOM     29  C   UNL     1     118.103 118.431 134.330  1.00  0.00     0.012 C 
ATOM     30  C   UNL     1     121.642 116.332 132.151  1.00  0.00     0.011 C 
ENDROOT
BRANCH  20  31
ATOM     31  O   UNL     1     118.914 126.469 126.055  1.00  0.00    -0.393 OA
ATOM     32  H   UNL     1     118.278 127.191 126.300  1.00  0.00     0.210 HD
ENDBRANCH  20  31
TORSDOF 1
ENDMDL
MODEL 5
REMARK VINA RESULT:    -6.906      8.224     10.656
REMARK INTER + INTRA:          -7.108
REMARK INTER:                  -7.108
REMARK INTRA:                   0.000
REMARK UNBOUND:                 0.000
REMARK SMILES CC1(C)CC[C@@]2(C)CC[C@]3(C)C(=CC[C@@H]4[C@]5(C)CC[C@@H](O)C(C)(C)[C@@H]5CC[C@]43C)[C@H]2C1
REMARK SMILES IDX 1 1 2 2 4 3 5 4 6 5 8 6 9 7 10 8 12 9 13 10 14 11 15 12
REMARK SMILES IDX 28 13 27 14 26 15 25 16 16 17 18 18 19 19 20 20 22 21 23 22
REMARK SMILES IDX 24 23 17 24 29 25 30 26 31 27 11 28 7 29 3 30 21 31
REMARK H PARENT 21 32
REMARK Flexibility Score: inf
ROOT
ATOM      1  C   UNL     1     113.982 120.353 127.508  1.00  0.00     0.011 C 
ATOM      2  C   UNL     1     114.343 121.744 128.072  1.00  0.00    -0.035 C 
ATOM      3  C   UNL     1     113.887 121.809 129.547  1.00  0.00     0.007 C 
ATOM      4  C   UNL     1     114.329 123.102 130.246  1.00  0.00     0.008 C 
ATOM      5  C   UNL     1     115.867 123.357 130.193  1.00  0.00    -0.026 C 
ATOM      6  C   UNL     1     116.599 122.422 131.226  1.00  0.00     0.008 C 
ATOM      7  C   UNL     1     117.869 121.697 130.721  1.00  0.00     0.012 C 
ATOM      8  C   UNL     1     118.780 122.536 129.766  1.00  0.00    -0.006 C 
ATOM      9  C   UNL     1     117.933 123.198 128.676  1.00  0.00    -0.064 C 
ATOM     10  C   UNL     1     118.528 123.683 127.561  1.00  0.00    -0.027 C 
ATOM     11  C   UNL     1     119.971 123.423 127.173  1.00  0.00     0.032 C 
ATOM     12  C   UNL     1     120.825 122.615 128.206  1.00  0.00     0.006 C 
ATOM     13  C   UNL     1     119.903 121.635 129.031  1.00  0.00    -0.020 C 
ATOM     14  C   UNL     1     120.768 120.861 130.054  1.00  0.00     0.008 C 
ATOM     15  C   UNL     1     121.982 120.181 129.425  1.00  0.00     0.005 C 
ATOM     16  C   UNL     1     122.971 121.174 128.751  1.00  0.00     0.003 C 
ATOM     17  C   UNL     1     122.242 122.089 127.663  1.00  0.00    -0.025 C 
ATOM     18  C   UNL     1     122.120 121.344 126.293  1.00  0.00     0.010 C 
ATOM     19  C   UNL     1     123.415 120.676 125.812  1.00  0.00     0.033 C 
ATOM     20  C   UNL     1     124.000 119.727 126.868  1.00  0.00     0.120 C 
ATOM     21  C   UNL     1     124.290 120.425 128.234  1.00  0.00    -0.006 C 
ATOM     22  C   UNL     1     125.501 121.408 128.133  1.00  0.00     0.014 C 
ATOM     23  C   UNL     1     124.745 119.320 129.235  1.00  0.00     0.014 C 
ATOM     24  C   UNL     1     123.101 123.374 127.418  1.00  0.00     0.012 C 
ATOM     25  C   UNL     1     119.216 120.577 128.095  1.00  0.00     0.012 C 
ATOM     26  C   UNL     1     116.405 123.187 128.734  1.00  0.00     0.022 C 
ATOM     27  C   UNL     1     115.877 121.922 128.008  1.00  0.00     0.015 C 
ATOM     28  C   UNL     1     119.400 123.691 130.633  1.00  0.00     0.017 C 
ATOM     29  C   UNL     1     116.063 124.841 130.611  1.00  0.00     0.012 C 
ATOM     30  C   UNL     1     113.622 122.807 127.209  1.00  0.00     0.011 C 
ENDROOT
BRANCH  20  31
ATOM     31  O   UNL     1     125.139 119.065 126.368  1.00  0.00    -0.393 OA
ATOM     32  H   UNL     1     125.544 119.632 125.660  1.00  0.00     0.210 HD
ENDBRANCH  20  31
TORSDOF 1
ENDMDL
MODEL 6
REMARK VINA RESULT:    -6.864      7.860     10.262
REMARK INTER + INTRA:          -7.065
REMARK INTER:                  -7.065
REMARK INTRA:                   0.000
REMARK UNBOUND:                 0.000
REMARK SMILES CC1(C)CC[C@@]2(C)CC[C@]3(C)C(=CC[C@@H]4[C@]5(C)CC[C@@H](O)C(C)(C)[C@@H]5CC[C@]43C)[C@H]2C1
REMARK SMILES IDX 1 1 2 2 4 3 5 4 6 5 8 6 9 7 10 8 12 9 13 10 14 11 15 12
REMARK SMILES IDX 28 13 27 14 26 15 25 16 16 17 18 18 19 19 20 20 22 21 23 22
REMARK SMILES IDX 24 23 17 24 29 25 30 26 31 27 11 28 7 29 3 30 21 31
REMARK H PARENT 21 32
REMARK Flexibility Score: inf
ROOT
ATOM      1  C   UNL     1     114.460 122.248 125.754  1.00  0.00     0.011 C 
ATOM      2  C   UNL     1     114.578 122.093 127.286  1.00  0.00    -0.035 C 
ATOM      3  C   UNL     1     113.997 120.718 127.687  1.00  0.00     0.007 C 
ATOM      4  C   UNL     1     114.196 120.403 129.175  1.00  0.00     0.008 C 
ATOM      5  C   UNL     1     115.683 120.466 129.642  1.00  0.00    -0.026 C 
ATOM      6  C   UNL     1     116.450 119.180 129.158  1.00  0.00     0.008 C 
ATOM      7  C   UNL     1     117.845 119.403 128.529  1.00  0.00     0.012 C 
ATOM      8  C   UNL     1     118.708 120.522 129.200  1.00  0.00    -0.006 C 
ATOM      9  C   UNL     1     117.870 121.789 129.392  1.00  0.00    -0.064 C 
ATOM     10  C   UNL     1     118.483 122.972 129.634  1.00  0.00    -0.027 C 
ATOM     11  C   UNL     1     119.975 123.211 129.506  1.00  0.00     0.032 C 
ATOM     12  C   UNL     1     120.844 121.957 129.160  1.00  0.00     0.006 C 
ATOM     13  C   UNL     1     120.001 120.922 128.317  1.00  0.00    -0.020 C 
ATOM     14  C   UNL     1     120.877 119.686 128.004  1.00  0.00     0.008 C 
ATOM     15  C   UNL     1     122.221 120.044 127.373  1.00  0.00     0.005 C 
ATOM     16  C   UNL     1     123.116 120.935 128.282  1.00  0.00     0.003 C 
ATOM     17  C   UNL     1     122.360 122.268 128.732  1.00  0.00    -0.025 C 
ATOM     18  C   UNL     1     122.456 123.370 127.626  1.00  0.00     0.010 C 
ATOM     19  C   UNL     1     123.866 123.586 127.061  1.00  0.00     0.033 C 
ATOM     20  C   UNL     1     124.488 122.280 126.547  1.00  0.00     0.120 C 
ATOM     21  C   UNL     1     124.564 121.161 127.634  1.00  0.00    -0.006 C 
ATOM     22  C   UNL     1     125.632 121.492 128.727  1.00  0.00     0.014 C 
ATOM     23  C   UNL     1     125.083 119.868 126.937  1.00  0.00     0.014 C 
ATOM     24  C   UNL     1     123.050 122.837 130.017  1.00  0.00     0.012 C 
ATOM     25  C   UNL     1     119.547 121.541 126.947  1.00  0.00     0.012 C 
ATOM     26  C   UNL     1     116.359 121.792 129.159  1.00  0.00     0.022 C 
ATOM     27  C   UNL     1     116.073 122.144 127.676  1.00  0.00     0.015 C 
ATOM     28  C   UNL     1     119.088 120.000 130.633  1.00  0.00     0.017 C 
ATOM     29  C   UNL     1     115.637 120.485 131.196  1.00  0.00     0.012 C 
ATOM     30  C   UNL     1     113.791 123.253 127.940  1.00  0.00     0.011 C 
ENDROOT
BRANCH  20  31
ATOM     31  O   UNL     1     125.745 122.523 125.959  1.00  0.00    -0.393 OA
ATOM     32  H   UNL     1     125.884 123.505 125.915  1.00  0.00     0.210 HD
ENDBRANCH  20  31
TORSDOF 1
ENDMDL
MODEL 7
REMARK VINA RESULT:    -6.797      8.032     10.855
REMARK INTER + INTRA:          -6.995
REMARK INTER:                  -6.995
REMARK INTRA:                   0.000
REMARK UNBOUND:                 0.000
REMARK SMILES CC1(C)CC[C@@]2(C)CC[C@]3(C)C(=CC[C@@H]4[C@]5(C)CC[C@@H](O)C(C)(C)[C@@H]5CC[C@]43C)[C@H]2C1
REMARK SMILES IDX 1 1 2 2 4 3 5 4 6 5 8 6 9 7 10 8 12 9 13 10 14 11 15 12
REMARK SMILES IDX 28 13 27 14 26 15 25 16 16 17 18 18 19 19 20 20 22 21 23 22
REMARK SMILES IDX 24 23 17 24 29 25 30 26 31 27 11 28 7 29 3 30 21 31
REMARK H PARENT 21 32
REMARK Flexibility Score: inf
ROOT
ATOM      1  C   UNL     1     115.773 121.237 132.660  1.00  0.00     0.011 C 
ATOM      2  C   UNL     1     115.358 121.409 131.182  1.00  0.00    -0.035 C 
ATOM      3  C   UNL     1     114.695 122.795 131.015  1.00  0.00     0.007 C 
ATOM      4  C   UNL     1     114.375 123.125 129.552  1.00  0.00     0.008 C 
ATOM      5  C   UNL     1     115.609 123.050 128.600  1.00  0.00    -0.026 C 
ATOM      6  C   UNL     1     116.516 124.321 128.799  1.00  0.00     0.008 C 
ATOM      7  C   UNL     1     118.039 124.073 128.908  1.00  0.00     0.012 C 
ATOM      8  C   UNL     1     118.599 122.951 127.973  1.00  0.00    -0.006 C 
ATOM      9  C   UNL     1     117.727 121.697 128.072  1.00  0.00    -0.064 C 
ATOM     10  C   UNL     1     118.200 120.510 127.626  1.00  0.00    -0.027 C 
ATOM     11  C   UNL     1     119.641 120.251 127.230  1.00  0.00     0.032 C 
ATOM     12  C   UNL     1     120.596 121.490 127.264  1.00  0.00     0.006 C 
ATOM     13  C   UNL     1     120.111 122.525 128.353  1.00  0.00    -0.020 C 
ATOM     14  C   UNL     1     121.061 123.746 128.354  1.00  0.00     0.008 C 
ATOM     15  C   UNL     1     122.534 123.364 128.480  1.00  0.00     0.005 C 
ATOM     16  C   UNL     1     123.047 122.473 127.313  1.00  0.00     0.003 C 
ATOM     17  C   UNL     1     122.161 121.155 127.141  1.00  0.00    -0.025 C 
ATOM     18  C   UNL     1     122.616 120.039 128.139  1.00  0.00     0.010 C 
ATOM     19  C   UNL     1     124.130 119.799 128.182  1.00  0.00     0.033 C 
ATOM     20  C   UNL     1     124.911 121.091 128.459  1.00  0.00     0.120 C 
ATOM     21  C   UNL     1     124.626 122.221 127.420  1.00  0.00    -0.006 C 
ATOM     22  C   UNL     1     125.247 121.890 126.025  1.00  0.00     0.014 C 
ATOM     23  C   UNL     1     125.373 123.500 127.905  1.00  0.00     0.014 C 
ATOM     24  C   UNL     1     122.358 120.593 125.694  1.00  0.00     0.012 C 
ATOM     25  C   UNL     1     120.147 121.896 129.792  1.00  0.00     0.012 C 
ATOM     26  C   UNL     1     116.389 121.710 128.812  1.00  0.00     0.022 C 
ATOM     27  C   UNL     1     116.626 121.344 130.300  1.00  0.00     0.015 C 
ATOM     28  C   UNL     1     118.471 123.486 126.500  1.00  0.00     0.017 C 
ATOM     29  C   UNL     1     115.030 123.051 127.158  1.00  0.00     0.012 C 
ATOM     30  C   UNL     1     114.375 120.267 130.831  1.00  0.00     0.011 C 
ENDROOT
BRANCH  20  31
ATOM     31  O   UNL     1     126.290 120.826 128.577  1.00  0.00    -0.393 OA
ATOM     32  H   UNL     1     126.625 120.519 127.694  1.00  0.00     0.210 HD
ENDBRANCH  20  31
TORSDOF 1
ENDMDL
MODEL 8
REMARK VINA RESULT:    -6.709      8.670     12.038
REMARK INTER + INTRA:          -6.905
REMARK INTER:                  -6.905
REMARK INTRA:                   0.000
REMARK UNBOUND:                 0.000
REMARK SMILES CC1(C)CC[C@@]2(C)CC[C@]3(C)C(=CC[C@@H]4[C@]5(C)CC[C@@H](O)C(C)(C)[C@@H]5CC[C@]43C)[C@H]2C1
REMARK SMILES IDX 1 1 2 2 4 3 5 4 6 5 8 6 9 7 10 8 12 9 13 10 14 11 15 12
REMARK SMILES IDX 28 13 27 14 26 15 25 16 16 17 18 18 19 19 20 20 22 21 23 22
REMARK SMILES IDX 24 23 17 24 29 25 30 26 31 27 11 28 7 29 3 30 21 31
REMARK H PARENT 21 32
REMARK Flexibility Score: inf
ROOT
ATOM      1  C   UNL     1     124.344 121.713 132.531  1.00  0.00     0.011 C 
ATOM      2  C   UNL     1     124.466 122.495 131.205  1.00  0.00    -0.035 C 
ATOM      3  C   UNL     1     125.239 121.624 130.190  1.00  0.00     0.007 C 
ATOM      4  C   UNL     1     125.291 122.251 128.791  1.00  0.00     0.008 C 
ATOM      5  C   UNL     1     123.889 122.583 128.192  1.00  0.00    -0.026 C 
ATOM      6  C   UNL     1     123.198 121.262 127.689  1.00  0.00     0.008 C 
ATOM      7  C   UNL     1     121.710 121.074 128.070  1.00  0.00     0.012 C 
ATOM      8  C   UNL     1     120.844 122.375 128.036  1.00  0.00    -0.006 C 
ATOM      9  C   UNL     1     121.565 123.508 128.772  1.00  0.00    -0.064 C 
ATOM     10  C   UNL     1     120.875 124.606 129.160  1.00  0.00    -0.027 C 
ATOM     11  C   UNL     1     119.364 124.727 129.135  1.00  0.00     0.032 C 
ATOM     12  C   UNL     1     118.588 123.514 128.523  1.00  0.00     0.006 C 
ATOM     13  C   UNL     1     119.402 122.178 128.739  1.00  0.00    -0.020 C 
ATOM     14  C   UNL     1     118.621 120.999 128.110  1.00  0.00     0.008 C 
ATOM     15  C   UNL     1     117.170 120.919 128.579  1.00  0.00     0.005 C 
ATOM     16  C   UNL     1     116.330 122.177 128.219  1.00  0.00     0.003 C 
ATOM     17  C   UNL     1     117.002 123.516 128.774  1.00  0.00    -0.025 C 
ATOM     18  C   UNL     1     116.632 123.749 130.276  1.00  0.00     0.010 C 
ATOM     19  C   UNL     1     115.141 123.593 130.599  1.00  0.00     0.033 C 
ATOM     20  C   UNL     1     114.589 122.237 130.133  1.00  0.00     0.120 C 
ATOM     21  C   UNL     1     114.788 121.980 128.606  1.00  0.00    -0.006 C 
ATOM     22  C   UNL     1     113.862 122.897 127.743  1.00  0.00     0.014 C 
ATOM     23  C   UNL     1     114.309 120.526 128.312  1.00  0.00     0.014 C 
ATOM     24  C   UNL     1     116.451 124.737 127.965  1.00  0.00     0.012 C 
ATOM     25  C   UNL     1     119.585 121.864 130.267  1.00  0.00     0.012 C 
ATOM     26  C   UNL     1     123.018 123.367 129.227  1.00  0.00     0.022 C 
ATOM     27  C   UNL     1     123.047 122.773 130.659  1.00  0.00     0.015 C 
ATOM     28  C   UNL     1     120.732 122.804 126.528  1.00  0.00     0.017 C 
ATOM     29  C   UNL     1     124.159 123.518 126.979  1.00  0.00     0.012 C 
ATOM     30  C   UNL     1     125.217 123.816 131.503  1.00  0.00     0.011 C 
ENDROOT
BRANCH  20  31
ATOM     31  O   UNL     1     113.242 122.088 130.518  1.00  0.00    -0.393 OA
ATOM     32  H   UNL     1     113.195 121.397 131.228  1.00  0.00     0.210 HD
ENDBRANCH  20  31
TORSDOF 1
ENDMDL
MODEL 9
REMARK VINA RESULT:    -6.657      8.085     10.463
REMARK INTER + INTRA:          -6.852
REMARK INTER:                  -6.852
REMARK INTRA:                   0.000
REMARK UNBOUND:                 0.000
REMARK SMILES CC1(C)CC[C@@]2(C)CC[C@]3(C)C(=CC[C@@H]4[C@]5(C)CC[C@@H](O)C(C)(C)[C@@H]5CC[C@]43C)[C@H]2C1
REMARK SMILES IDX 1 1 2 2 4 3 5 4 6 5 8 6 9 7 10 8 12 9 13 10 14 11 15 12
REMARK SMILES IDX 28 13 27 14 26 15 25 16 16 17 18 18 19 19 20 20 22 21 23 22
REMARK SMILES IDX 24 23 17 24 29 25 30 26 31 27 11 28 7 29 3 30 21 31
REMARK H PARENT 21 32
REMARK Flexibility Score: inf
ROOT
ATOM      1  C   UNL     1     114.815 119.584 128.751  1.00  0.00     0.011 C 
ATOM      2  C   UNL     1     114.946 121.022 128.203  1.00  0.00    -0.035 C 
ATOM      3  C   UNL     1     114.217 121.984 129.168  1.00  0.00     0.007 C 
ATOM      4  C   UNL     1     114.410 123.458 128.791  1.00  0.00     0.008 C 
ATOM      5  C   UNL     1     115.904 123.897 128.690  1.00  0.00    -0.026 C 
ATOM      6  C   UNL     1     116.506 124.077 130.132  1.00  0.00     0.008 C 
ATOM      7  C   UNL     1     117.904 123.464 130.378  1.00  0.00     0.012 C 
ATOM      8  C   UNL     1     118.904 123.582 129.182  1.00  0.00    -0.006 C 
ATOM      9  C   UNL     1     118.222 123.148 127.881  1.00  0.00    -0.064 C 
ATOM     10  C   UNL     1     118.973 122.846 126.795  1.00  0.00    -0.027 C 
ATOM     11  C   UNL     1     120.480 122.675 126.810  1.00  0.00     0.032 C 
ATOM     12  C   UNL     1     121.191 122.967 128.173  1.00  0.00     0.006 C 
ATOM     13  C   UNL     1     120.216 122.659 129.376  1.00  0.00    -0.020 C 
ATOM     14  C   UNL     1     120.937 122.972 130.709  1.00  0.00     0.008 C 
ATOM     15  C   UNL     1     122.300 122.294 130.831  1.00  0.00     0.005 C 
ATOM     16  C   UNL     1     123.310 122.728 129.731  1.00  0.00     0.003 C 
ATOM     17  C   UNL     1     122.723 122.497 128.264  1.00  0.00    -0.025 C 
ATOM     18  C   UNL     1     122.924 121.015 127.806  1.00  0.00     0.010 C 
ATOM     19  C   UNL     1     124.337 120.462 128.031  1.00  0.00     0.033 C 
ATOM     20  C   UNL     1     124.792 120.621 129.488  1.00  0.00     0.120 C 
ATOM     21  C   UNL     1     124.761 122.099 129.989  1.00  0.00    -0.006 C 
ATOM     22  C   UNL     1     125.883 122.958 129.319  1.00  0.00     0.014 C 
ATOM     23  C   UNL     1     125.112 122.085 131.507  1.00  0.00     0.014 C 
ATOM     24  C   UNL     1     123.501 123.405 127.253  1.00  0.00     0.012 C 
ATOM     25  C   UNL     1     119.809 121.142 129.403  1.00  0.00     0.012 C 
ATOM     26  C   UNL     1     116.718 122.887 127.815  1.00  0.00     0.022 C 
ATOM     27  C   UNL     1     116.444 121.398 128.147  1.00  0.00     0.015 C 
ATOM     28  C   UNL     1     119.251 125.108 129.033  1.00  0.00     0.017 C 
ATOM     29  C   UNL     1     115.892 125.269 127.960  1.00  0.00     0.012 C 
ATOM     30  C   UNL     1     114.311 121.049 126.791  1.00  0.00     0.011 C 
ENDROOT
BRANCH  20  31
ATOM     31  O   UNL     1     126.057 120.029 129.683  1.00  0.00    -0.393 OA
ATOM     32  H   UNL     1     126.452 120.405 130.513  1.00  0.00     0.210 HD
ENDBRANCH  20  31
TORSDOF 1
ENDMDL
