MODEL 1
REMARK VINA RESULT:    -7.767      0.000      0.000
REMARK INTER + INTRA:          -9.419
REMARK INTER:                  -9.129
REMARK INTRA:                  -0.289
REMARK UNBOUND:                -0.289
REMARK SMILES O=c1c(O)c(-c2ccc(O)c(O)c2)oc2cc(O)ccc12
REMARK SMILES IDX 5 1 3 2 2 3 1 4 21 5 15 6 14 7 16 8 17 9 19 10 20 11 6 12
REMARK SMILES IDX 7 13 8 14 9 15 13 16 11 17 10 18 12 20 4 22 18 24
REMARK H PARENT 10 19 12 21 4 23 18 25
REMARK Flexibility Score: inf
ROOT
ATOM      1  C   UNL     1      88.704   8.274  44.104  1.00  0.00     0.180 A 
ATOM      2  C   UNL     1      87.332   8.103  44.381  1.00  0.00     0.208 A 
ATOM      3  C   UNL     1      86.722   6.884  44.051  1.00  0.00     0.235 A 
ATOM      4  O   UNL     1      85.498   6.703  44.298  1.00  0.00    -0.285 OA
ATOM      5  C   UNL     1      87.482   5.876  43.437  1.00  0.00     0.069 A 
ATOM      6  C   UNL     1      88.845   6.133  43.171  1.00  0.00     0.142 A 
ATOM      7  O   UNL     1      89.386   7.298  43.508  1.00  0.00    -0.452 OA
ATOM      8  C   UNL     1      89.633   5.157  42.552  1.00  0.00     0.094 A 
ATOM      9  C   UNL     1      89.078   3.924  42.195  1.00  0.00     0.119 A 
ATOM     10  C   UNL     1      87.726   3.664  42.459  1.00  0.00     0.047 A 
ATOM     11  C   UNL     1      86.929   4.633  43.076  1.00  0.00     0.020 A 
ENDROOT
BRANCH   1  12
ATOM     12  C   UNL     1      89.424   9.523  44.440  1.00  0.00     0.025 A 
ATOM     13  C   UNL     1      89.337  10.625  43.574  1.00  0.00     0.016 A 
ATOM     14  C   UNL     1      90.024  11.806  43.860  1.00  0.00     0.051 A 
ATOM     15  C   UNL     1      90.820  11.902  45.006  1.00  0.00     0.157 A 
ATOM     16  C   UNL     1      90.242   9.614  45.581  1.00  0.00     0.062 A 
ATOM     17  C   UNL     1      90.934  10.799  45.869  1.00  0.00     0.158 A 
BRANCH  15  18
ATOM     18  O   UNL     1      91.492  13.096  45.267  1.00  0.00    -0.504 OA
ATOM     19  H   UNL     1      91.017  13.991  45.269  1.00  0.00     0.293 HD
ENDBRANCH  15  18
BRANCH  17  20
ATOM     20  O   UNL     1      91.737  10.884  47.005  1.00  0.00    -0.504 OA
ATOM     21  H   UNL     1      92.651  10.446  47.043  1.00  0.00     0.293 HD
ENDBRANCH  17  20
ENDBRANCH   1  12
BRANCH   2  22
ATOM     22  O   UNL     1      86.590   9.143  44.948  1.00  0.00    -0.502 OA
ATOM     23  H   UNL     1      85.798   9.561  44.476  1.00  0.00     0.293 HD
ENDBRANCH   2  22
BRANCH   9  24
ATOM     24  O   UNL     1      89.879   2.963  41.579  1.00  0.00    -0.508 OA
ATOM     25  H   UNL     1      90.845   2.827  41.852  1.00  0.00     0.293 HD
ENDBRANCH   9  24
TORSDOF 5
ENDMDL
MODEL 2
REMARK VINA RESULT:    -7.608      2.625      3.091
REMARK INTER + INTRA:          -9.232
REMARK INTER:                  -8.930
REMARK INTRA:                  -0.301
REMARK UNBOUND:                -0.289
REMARK SMILES O=c1c(O)c(-c2ccc(O)c(O)c2)oc2cc(O)ccc12
REMARK SMILES IDX 5 1 3 2 2 3 1 4 21 5 15 6 14 7 16 8 17 9 19 10 20 11 6 12
REMARK SMILES IDX 7 13 8 14 9 15 13 16 11 17 10 18 12 20 4 22 18 24
REMARK H PARENT 10 19 12 21 4 23 18 25
REMARK Flexibility Score: inf
ROOT
ATOM      1  C   UNL     1      89.722   9.475  45.098  1.00  0.00     0.180 A 
ATOM      2  C   UNL     1      89.246   8.747  46.209  1.00  0.00     0.208 A 
ATOM      3  C   UNL     1      88.181   7.853  46.024  1.00  0.00     0.235 A 
ATOM      4  O   UNL     1      87.743   7.182  46.999  1.00  0.00    -0.285 OA
ATOM      5  C   UNL     1      87.603   7.720  44.751  1.00  0.00     0.069 A 
ATOM      6  C   UNL     1      88.122   8.502  43.696  1.00  0.00     0.142 A 
ATOM      7  O   UNL     1      89.138   9.330  43.911  1.00  0.00    -0.452 OA
ATOM      8  C   UNL     1      87.568   8.404  42.415  1.00  0.00     0.094 A 
ATOM      9  C   UNL     1      86.500   7.534  42.173  1.00  0.00     0.119 A 
ATOM     10  C   UNL     1      85.984   6.755  43.217  1.00  0.00     0.047 A 
ATOM     11  C   UNL     1      86.530   6.845  44.501  1.00  0.00     0.020 A 
ENDROOT
BRANCH   1  12
ATOM     12  C   UNL     1      90.854  10.423  45.208  1.00  0.00     0.025 A 
ATOM     13  C   UNL     1      90.599  11.803  45.240  1.00  0.00     0.016 A 
ATOM     14  C   UNL     1      91.652  12.716  45.322  1.00  0.00     0.051 A 
ATOM     15  C   UNL     1      92.976  12.268  45.357  1.00  0.00     0.157 A 
ATOM     16  C   UNL     1      92.187   9.974  45.222  1.00  0.00     0.062 A 
ATOM     17  C   UNL     1      93.246  10.890  45.303  1.00  0.00     0.158 A 
BRANCH  15  18
ATOM     18  O   UNL     1      94.007  13.203  45.442  1.00  0.00    -0.504 OA
ATOM     19  H   UNL     1      94.660  13.215  46.217  1.00  0.00     0.293 HD
ENDBRANCH  15  18
BRANCH  17  20
ATOM     20  O   UNL     1      94.564  10.437  45.323  1.00  0.00    -0.504 OA
ATOM     21  H   UNL     1      94.805   9.491  45.050  1.00  0.00     0.293 HD
ENDBRANCH  17  20
ENDBRANCH   1  12
BRANCH   2  22
ATOM     22  O   UNL     1      89.808   8.937  47.473  1.00  0.00    -0.502 OA
ATOM     23  H   UNL     1      89.274   9.302  48.253  1.00  0.00     0.293 HD
ENDBRANCH   2  22
BRANCH   9  24
ATOM     24  O   UNL     1      85.961   7.450  40.890  1.00  0.00    -0.508 OA
ATOM     25  H   UNL     1      86.035   6.601  40.341  1.00  0.00     0.293 HD
ENDBRANCH   9  24
TORSDOF 5
ENDMDL
MODEL 3
REMARK VINA RESULT:    -7.599      2.170      3.660
REMARK INTER + INTRA:          -9.221
REMARK INTER:                  -8.923
REMARK INTRA:                  -0.298
REMARK UNBOUND:                -0.289
REMARK SMILES O=c1c(O)c(-c2ccc(O)c(O)c2)oc2cc(O)ccc12
REMARK SMILES IDX 5 1 3 2 2 3 1 4 21 5 15 6 14 7 16 8 17 9 19 10 20 11 6 12
REMARK SMILES IDX 7 13 8 14 9 15 13 16 11 17 10 18 12 20 4 22 18 24
REMARK H PARENT 10 19 12 21 4 23 18 25
REMARK Flexibility Score: inf
ROOT
ATOM      1  C   UNL     1      87.970   7.466  44.240  1.00  0.00     0.180 A 
ATOM      2  C   UNL     1      88.109   6.062  44.215  1.00  0.00     0.208 A 
ATOM      3  C   UNL     1      87.149   5.301  43.533  1.00  0.00     0.235 A 
ATOM      4  O   UNL     1      87.256   4.044  43.487  1.00  0.00    -0.285 OA
ATOM      5  C   UNL     1      86.068   5.947  42.912  1.00  0.00     0.069 A 
ATOM      6  C   UNL     1      85.989   7.354  43.002  1.00  0.00     0.142 A 
ATOM      7  O   UNL     1      86.923   8.039  43.651  1.00  0.00    -0.452 OA
ATOM      8  C   UNL     1      84.922   8.034  42.405  1.00  0.00     0.094 A 
ATOM      9  C   UNL     1      83.931   7.326  41.716  1.00  0.00     0.119 A 
ATOM     10  C   UNL     1      84.008   5.930  41.622  1.00  0.00     0.047 A 
ATOM     11  C   UNL     1      85.070   5.240  42.216  1.00  0.00     0.020 A 
ENDROOT
BRANCH   1  12
ATOM     12  C   UNL     1      88.952   8.340  44.922  1.00  0.00     0.025 A 
ATOM     13  C   UNL     1      88.843   8.552  46.306  1.00  0.00     0.016 A 
ATOM     14  C   UNL     1      89.745   9.388  46.967  1.00  0.00     0.051 A 
ATOM     15  C   UNL     1      90.758  10.039  46.256  1.00  0.00     0.157 A 
ATOM     16  C   UNL     1      89.958   9.011  44.206  1.00  0.00     0.062 A 
ATOM     17  C   UNL     1      90.864   9.854  44.868  1.00  0.00     0.158 A 
BRANCH  15  18
ATOM     18  O   UNL     1      91.646  10.866  46.944  1.00  0.00    -0.504 OA
ATOM     19  H   UNL     1      91.629  10.951  47.953  1.00  0.00     0.293 HD
ENDBRANCH  15  18
BRANCH  17  20
ATOM     20  O   UNL     1      91.863  10.510  44.151  1.00  0.00    -0.504 OA
ATOM     21  H   UNL     1      92.095  10.247  43.200  1.00  0.00     0.293 HD
ENDBRANCH  17  20
ENDBRANCH   1  12
BRANCH   2  22
ATOM     22  O   UNL     1      89.168   5.444  44.884  1.00  0.00    -0.502 OA
ATOM     23  H   UNL     1      89.353   5.602  45.867  1.00  0.00     0.293 HD
ENDBRANCH   2  22
BRANCH   9  24
ATOM     24  O   UNL     1      82.877   8.020  41.126  1.00  0.00    -0.508 OA
ATOM     25  H   UNL     1      83.039   8.828  40.537  1.00  0.00     0.293 HD
ENDBRANCH   9  24
TORSDOF 5
ENDMDL
MODEL 4
REMARK VINA RESULT:    -7.597      1.953      6.728
REMARK INTER + INTRA:          -9.219
REMARK INTER:                  -8.952
REMARK INTRA:                  -0.267
REMARK UNBOUND:                -0.289
REMARK SMILES O=c1c(O)c(-c2ccc(O)c(O)c2)oc2cc(O)ccc12
REMARK SMILES IDX 5 1 3 2 2 3 1 4 21 5 15 6 14 7 16 8 17 9 19 10 20 11 6 12
REMARK SMILES IDX 7 13 8 14 9 15 13 16 11 17 10 18 12 20 4 22 18 24
REMARK H PARENT 10 19 12 21 4 23 18 25
REMARK Flexibility Score: inf
ROOT
ATOM      1  C   UNL     1      87.988   7.259  44.210  1.00  0.00     0.180 A 
ATOM      2  C   UNL     1      88.200   7.219  45.604  1.00  0.00     0.208 A 
ATOM      3  C   UNL     1      88.990   8.215  46.196  1.00  0.00     0.235 A 
ATOM      4  O   UNL     1      89.186   8.207  47.443  1.00  0.00    -0.285 OA
ATOM      5  C   UNL     1      89.567   9.210  45.391  1.00  0.00     0.069 A 
ATOM      6  C   UNL     1      89.327   9.167  44.000  1.00  0.00     0.142 A 
ATOM      7  O   UNL     1      88.565   8.212  43.480  1.00  0.00    -0.452 OA
ATOM      8  C   UNL     1      89.891  10.135  43.163  1.00  0.00     0.094 A 
ATOM      9  C   UNL     1      90.693  11.149  43.696  1.00  0.00     0.119 A 
ATOM     10  C   UNL     1      90.932  11.196  45.076  1.00  0.00     0.047 A 
ATOM     11  C   UNL     1      90.374  10.233  45.922  1.00  0.00     0.020 A 
ENDROOT
BRANCH   1  12
ATOM     12  C   UNL     1      87.151   6.257  43.513  1.00  0.00     0.025 A 
ATOM     13  C   UNL     1      85.833   6.586  43.156  1.00  0.00     0.016 A 
ATOM     14  C   UNL     1      85.019   5.650  42.516  1.00  0.00     0.051 A 
ATOM     15  C   UNL     1      85.499   4.366  42.238  1.00  0.00     0.157 A 
ATOM     16  C   UNL     1      87.625   4.959  43.251  1.00  0.00     0.062 A 
ATOM     17  C   UNL     1      86.807   4.017  42.611  1.00  0.00     0.158 A 
BRANCH  15  18
ATOM     18  O   UNL     1      84.663   3.453  41.596  1.00  0.00    -0.504 OA
ATOM     19  H   UNL     1      84.987   2.538  41.307  1.00  0.00     0.293 HD
ENDBRANCH  15  18
BRANCH  17  20
ATOM     20  O   UNL     1      87.288   2.734  42.349  1.00  0.00    -0.504 OA
ATOM     21  H   UNL     1      87.473   2.074  43.096  1.00  0.00     0.293 HD
ENDBRANCH  17  20
ENDBRANCH   1  12
BRANCH   2  22
ATOM     22  O   UNL     1      87.653   6.189  46.373  1.00  0.00    -0.502 OA
ATOM     23  H   UNL     1      88.058   5.899  47.255  1.00  0.00     0.293 HD
ENDBRANCH   2  22
BRANCH   9  24
ATOM     24  O   UNL     1      91.247  12.105  42.847  1.00  0.00    -0.508 OA
ATOM     25  H   UNL     1      92.000  12.710  43.152  1.00  0.00     0.293 HD
ENDBRANCH   9  24
TORSDOF 5
ENDMDL
MODEL 5
REMARK VINA RESULT:    -7.594      2.361      6.712
REMARK INTER + INTRA:          -9.215
REMARK INTER:                  -8.908
REMARK INTRA:                  -0.307
REMARK UNBOUND:                -0.289
REMARK SMILES O=c1c(O)c(-c2ccc(O)c(O)c2)oc2cc(O)ccc12
REMARK SMILES IDX 5 1 3 2 2 3 1 4 21 5 15 6 14 7 16 8 17 9 19 10 20 11 6 12
REMARK SMILES IDX 7 13 8 14 9 15 13 16 11 17 10 18 12 20 4 22 18 24
REMARK H PARENT 10 19 12 21 4 23 18 25
REMARK Flexibility Score: inf
ROOT
ATOM      1  C   UNL     1      89.336   8.023  42.835  1.00  0.00     0.180 A 
ATOM      2  C   UNL     1      90.489   7.607  42.137  1.00  0.00     0.208 A 
ATOM      3  C   UNL     1      91.747   8.018  42.604  1.00  0.00     0.235 A 
ATOM      4  O   UNL     1      92.794   7.651  42.002  1.00  0.00    -0.285 OA
ATOM      5  C   UNL     1      91.827   8.845  43.735  1.00  0.00     0.069 A 
ATOM      6  C   UNL     1      90.626   9.236  44.364  1.00  0.00     0.142 A 
ATOM      7  O   UNL     1      89.455   8.818  43.896  1.00  0.00    -0.452 OA
ATOM      8  C   UNL     1      90.664  10.067  45.489  1.00  0.00     0.094 A 
ATOM      9  C   UNL     1      91.889  10.513  45.996  1.00  0.00     0.119 A 
ATOM     10  C   UNL     1      93.084  10.125  45.375  1.00  0.00     0.047 A 
ATOM     11  C   UNL     1      93.057   9.295  44.250  1.00  0.00     0.020 A 
ENDROOT
BRANCH   1  12
ATOM     12  C   UNL     1      87.976   7.616  42.418  1.00  0.00     0.025 A 
ATOM     13  C   UNL     1      87.168   8.524  41.714  1.00  0.00     0.016 A 
ATOM     14  C   UNL     1      85.874   8.169  41.328  1.00  0.00     0.051 A 
ATOM     15  C   UNL     1      85.360   6.910  41.651  1.00  0.00     0.157 A 
ATOM     16  C   UNL     1      87.449   6.358  42.760  1.00  0.00     0.062 A 
ATOM     17  C   UNL     1      86.149   6.000  42.375  1.00  0.00     0.158 A 
BRANCH  15  18
ATOM     18  O   UNL     1      84.065   6.583  41.250  1.00  0.00    -0.504 OA
ATOM     19  H   UNL     1      83.722   5.629  41.264  1.00  0.00     0.293 HD
ENDBRANCH  15  18
BRANCH  17  20
ATOM     20  O   UNL     1      85.636   4.748  42.713  1.00  0.00    -0.504 OA
ATOM     21  H   UNL     1      85.349   4.083  42.004  1.00  0.00     0.293 HD
ENDBRANCH  17  20
ENDBRANCH   1  12
BRANCH   2  22
ATOM     22  O   UNL     1      90.375   6.825  40.985  1.00  0.00    -0.502 OA
ATOM     23  H   UNL     1      89.503   6.390  40.711  1.00  0.00     0.293 HD
ENDBRANCH   2  22
BRANCH   9  24
ATOM     24  O   UNL     1      91.908  11.340  47.118  1.00  0.00    -0.508 OA
ATOM     25  H   UNL     1      91.054  11.721  47.507  1.00  0.00     0.293 HD
ENDBRANCH   9  24
TORSDOF 5
ENDMDL
MODEL 6
REMARK VINA RESULT:    -7.582      3.863      9.157
REMARK INTER + INTRA:          -9.201
REMARK INTER:                  -8.886
REMARK INTRA:                  -0.315
REMARK UNBOUND:                -0.289
REMARK SMILES O=c1c(O)c(-c2ccc(O)c(O)c2)oc2cc(O)ccc12
REMARK SMILES IDX 5 1 3 2 2 3 1 4 21 5 15 6 14 7 16 8 17 9 19 10 20 11 6 12
REMARK SMILES IDX 7 13 8 14 9 15 13 16 11 17 10 18 12 20 4 22 18 24
REMARK H PARENT 10 19 12 21 4 23 18 25
REMARK Flexibility Score: inf
ROOT
ATOM      1  C   UNL     1      93.077  12.301  44.505  1.00  0.00     0.180 A 
ATOM      2  C   UNL     1      94.436  12.123  44.840  1.00  0.00     0.208 A 
ATOM      3  C   UNL     1      95.319  13.200  44.677  1.00  0.00     0.235 A 
ATOM      4  O   UNL     1      96.537  13.069  44.979  1.00  0.00    -0.285 OA
ATOM      5  C   UNL     1      94.838  14.417  44.167  1.00  0.00     0.069 A 
ATOM      6  C   UNL     1      93.469  14.508  43.834  1.00  0.00     0.142 A 
ATOM      7  O   UNL     1      92.664  13.467  44.012  1.00  0.00    -0.452 OA
ATOM      8  C   UNL     1      92.953  15.700  43.315  1.00  0.00     0.094 A 
ATOM      9  C   UNL     1      93.788  16.807  43.125  1.00  0.00     0.119 A 
ATOM     10  C   UNL     1      95.147  16.720  43.457  1.00  0.00     0.047 A 
ATOM     11  C   UNL     1      95.673  15.533  43.975  1.00  0.00     0.020 A 
ENDROOT
BRANCH   1  12
ATOM     12  C   UNL     1      92.079  11.220  44.668  1.00  0.00     0.025 A 
ATOM     13  C   UNL     1      91.692  10.464  43.549  1.00  0.00     0.016 A 
ATOM     14  C   UNL     1      90.738   9.452  43.675  1.00  0.00     0.051 A 
ATOM     15  C   UNL     1      90.144   9.189  44.913  1.00  0.00     0.157 A 
ATOM     16  C   UNL     1      91.466  10.968  45.907  1.00  0.00     0.062 A 
ATOM     17  C   UNL     1      90.506   9.953  46.035  1.00  0.00     0.158 A 
BRANCH  15  18
ATOM     18  O   UNL     1      89.196   8.171  45.008  1.00  0.00    -0.504 OA
ATOM     19  H   UNL     1      88.911   7.783  45.899  1.00  0.00     0.293 HD
ENDBRANCH  15  18
BRANCH  17  20
ATOM     20  O   UNL     1      89.907   9.706  47.269  1.00  0.00    -0.504 OA
ATOM     21  H   UNL     1      89.259  10.364  47.687  1.00  0.00     0.293 HD
ENDBRANCH  17  20
ENDBRANCH   1  12
BRANCH   2  22
ATOM     22  O   UNL     1      94.895  10.885  45.298  1.00  0.00    -0.502 OA
ATOM     23  H   UNL     1      95.764  10.478  44.976  1.00  0.00     0.293 HD
ENDBRANCH   2  22
BRANCH   9  24
ATOM     24  O   UNL     1      93.257  17.986  42.608  1.00  0.00    -0.508 OA
ATOM     25  H   UNL     1      93.149  18.125  41.610  1.00  0.00     0.293 HD
ENDBRANCH   9  24
TORSDOF 5
ENDMDL
MODEL 7
REMARK VINA RESULT:    -7.549      2.019      2.429
REMARK INTER + INTRA:          -9.163
REMARK INTER:                  -8.853
REMARK INTRA:                  -0.310
REMARK UNBOUND:                -0.289
REMARK SMILES O=c1c(O)c(-c2ccc(O)c(O)c2)oc2cc(O)ccc12
REMARK SMILES IDX 5 1 3 2 2 3 1 4 21 5 15 6 14 7 16 8 17 9 19 10 20 11 6 12
REMARK SMILES IDX 7 13 8 14 9 15 13 16 11 17 10 18 12 20 4 22 18 24
REMARK H PARENT 10 19 12 21 4 23 18 25
REMARK Flexibility Score: inf
ROOT
ATOM      1  C   UNL     1      89.666   8.864  43.691  1.00  0.00     0.180 A 
ATOM      2  C   UNL     1      88.616   9.647  43.168  1.00  0.00     0.208 A 
ATOM      3  C   UNL     1      87.437   9.008  42.756  1.00  0.00     0.235 A 
ATOM      4  O   UNL     1      86.479   9.687  42.294  1.00  0.00    -0.285 OA
ATOM      5  C   UNL     1      87.338   7.611  42.854  1.00  0.00     0.069 A 
ATOM      6  C   UNL     1      88.442   6.896  43.367  1.00  0.00     0.142 A 
ATOM      7  O   UNL     1      89.537   7.540  43.754  1.00  0.00    -0.452 OA
ATOM      8  C   UNL     1      88.386   5.502  43.472  1.00  0.00     0.094 A 
ATOM      9  C   UNL     1      87.238   4.810  43.071  1.00  0.00     0.119 A 
ATOM     10  C   UNL     1      86.139   5.517  42.563  1.00  0.00     0.047 A 
ATOM     11  C   UNL     1      86.185   6.910  42.453  1.00  0.00     0.020 A 
ENDROOT
BRANCH   1  12
ATOM     12  C   UNL     1      90.933   9.465  44.165  1.00  0.00     0.025 A 
ATOM     13  C   UNL     1      92.071   9.414  43.344  1.00  0.00     0.016 A 
ATOM     14  C   UNL     1      93.282   9.957  43.779  1.00  0.00     0.051 A 
ATOM     15  C   UNL     1      93.381  10.543  45.045  1.00  0.00     0.157 A 
ATOM     16  C   UNL     1      91.040  10.036  45.446  1.00  0.00     0.062 A 
ATOM     17  C   UNL     1      92.256  10.579  45.885  1.00  0.00     0.158 A 
BRANCH  15  18
ATOM     18  O   UNL     1      94.603  11.078  45.450  1.00  0.00    -0.504 OA
ATOM     19  H   UNL     1      95.100  10.731  46.262  1.00  0.00     0.293 HD
ENDBRANCH  15  18
BRANCH  17  20
ATOM     20  O   UNL     1      92.352  11.150  47.153  1.00  0.00    -0.504 OA
ATOM     21  H   UNL     1      92.174  12.136  47.307  1.00  0.00     0.293 HD
ENDBRANCH  17  20
ENDBRANCH   1  12
BRANCH   2  22
ATOM     22  O   UNL     1      88.762  11.030  43.037  1.00  0.00    -0.502 OA
ATOM     23  H   UNL     1      87.967  11.655  42.985  1.00  0.00     0.293 HD
ENDBRANCH   2  22
BRANCH   9  24
ATOM     24  O   UNL     1      87.199   3.422  43.183  1.00  0.00    -0.508 OA
ATOM     25  H   UNL     1      86.494   2.956  43.742  1.00  0.00     0.293 HD
ENDBRANCH   9  24
TORSDOF 5
ENDMDL
MODEL 8
REMARK VINA RESULT:    -7.423      6.846      9.836
REMARK INTER + INTRA:          -9.014
REMARK INTER:                  -8.698
REMARK INTRA:                  -0.316
REMARK UNBOUND:                -0.289
REMARK SMILES O=c1c(O)c(-c2ccc(O)c(O)c2)oc2cc(O)ccc12
REMARK SMILES IDX 5 1 3 2 2 3 1 4 21 5 15 6 14 7 16 8 17 9 19 10 20 11 6 12
REMARK SMILES IDX 7 13 8 14 9 15 13 16 11 17 10 18 12 20 4 22 18 24
REMARK H PARENT 10 19 12 21 4 23 18 25
REMARK Flexibility Score: inf
ROOT
ATOM      1  C   UNL     1      95.444  14.776  43.823  1.00  0.00     0.180 A 
ATOM      2  C   UNL     1      95.730  14.203  42.566  1.00  0.00     0.208 A 
ATOM      3  C   UNL     1      94.676  13.666  41.813  1.00  0.00     0.235 A 
ATOM      4  O   UNL     1      94.904  13.156  40.681  1.00  0.00    -0.285 OA
ATOM      5  C   UNL     1      93.372  13.691  42.333  1.00  0.00     0.069 A 
ATOM      6  C   UNL     1      93.172  14.261  43.609  1.00  0.00     0.142 A 
ATOM      7  O   UNL     1      94.197  14.767  44.286  1.00  0.00    -0.452 OA
ATOM      8  C   UNL     1      91.890  14.297  44.166  1.00  0.00     0.094 A 
ATOM      9  C   UNL     1      90.800  13.771  43.464  1.00  0.00     0.119 A 
ATOM     10  C   UNL     1      90.995  13.206  42.196  1.00  0.00     0.047 A 
ATOM     11  C   UNL     1      92.273  13.164  41.630  1.00  0.00     0.020 A 
ENDROOT
BRANCH   1  12
ATOM     12  C   UNL     1      96.499  15.380  44.668  1.00  0.00     0.025 A 
ATOM     13  C   UNL     1      96.855  16.724  44.471  1.00  0.00     0.016 A 
ATOM     14  C   UNL     1      97.861  17.310  45.244  1.00  0.00     0.051 A 
ATOM     15  C   UNL     1      98.537  16.561  46.211  1.00  0.00     0.157 A 
ATOM     16  C   UNL     1      97.194  14.623  45.627  1.00  0.00     0.062 A 
ATOM     17  C   UNL     1      98.206  15.209  46.402  1.00  0.00     0.158 A 
BRANCH  15  18
ATOM     18  O   UNL     1      99.535  17.174  46.968  1.00  0.00    -0.504 OA
ATOM     19  H   UNL     1     100.254  16.641  47.442  1.00  0.00     0.293 HD
ENDBRANCH  15  18
BRANCH  17  20
ATOM     20  O   UNL     1      98.886  14.453  47.356  1.00  0.00    -0.504 OA
ATOM     21  H   UNL     1      99.883  14.559  47.505  1.00  0.00     0.293 HD
ENDBRANCH  17  20
ENDBRANCH   1  12
BRANCH   2  22
ATOM     22  O   UNL     1      97.045  14.147  42.096  1.00  0.00    -0.502 OA
ATOM     23  H   UNL     1      97.556  14.977  41.821  1.00  0.00     0.293 HD
ENDBRANCH   2  22
BRANCH   9  24
ATOM     24  O   UNL     1      89.530  13.816  44.034  1.00  0.00    -0.508 OA
ATOM     25  H   UNL     1      89.357  14.307  44.903  1.00  0.00     0.293 HD
ENDBRANCH   9  24
TORSDOF 5
ENDMDL
MODEL 9
REMARK VINA RESULT:    -7.308      1.298      3.111
REMARK INTER + INTRA:          -8.880
REMARK INTER:                  -8.665
REMARK INTRA:                  -0.215
REMARK UNBOUND:                -0.289
REMARK SMILES O=c1c(O)c(-c2ccc(O)c(O)c2)oc2cc(O)ccc12
REMARK SMILES IDX 5 1 3 2 2 3 1 4 21 5 15 6 14 7 16 8 17 9 19 10 20 11 6 12
REMARK SMILES IDX 7 13 8 14 9 15 13 16 11 17 10 18 12 20 4 22 18 24
REMARK H PARENT 10 19 12 21 4 23 18 25
REMARK Flexibility Score: inf
ROOT
ATOM      1  C   UNL     1      88.591   8.349  43.840  1.00  0.00     0.180 A 
ATOM      2  C   UNL     1      89.210   7.211  43.282  1.00  0.00     0.208 A 
ATOM      3  C   UNL     1      88.408   6.131  42.888  1.00  0.00     0.235 A 
ATOM      4  O   UNL     1      88.937   5.105  42.377  1.00  0.00    -0.285 OA
ATOM      5  C   UNL     1      87.018   6.197  43.076  1.00  0.00     0.069 A 
ATOM      6  C   UNL     1      86.477   7.362  43.662  1.00  0.00     0.142 A 
ATOM      7  O   UNL     1      87.271   8.367  44.014  1.00  0.00    -0.452 OA
ATOM      8  C   UNL     1      85.098   7.462  43.874  1.00  0.00     0.094 A 
ATOM      9  C   UNL     1      84.249   6.413  43.507  1.00  0.00     0.119 A 
ATOM     10  C   UNL     1      84.783   5.256  42.922  1.00  0.00     0.047 A 
ATOM     11  C   UNL     1      86.159   5.145  42.706  1.00  0.00     0.020 A 
ENDROOT
BRANCH   1  12
ATOM     12  C   UNL     1      89.366   9.538  44.262  1.00  0.00     0.025 A 
ATOM     13  C   UNL     1      89.303  10.712  43.495  1.00  0.00     0.016 A 
ATOM     14  C   UNL     1      90.041  11.839  43.863  1.00  0.00     0.051 A 
ATOM     15  C   UNL     1      90.865  11.807  44.992  1.00  0.00     0.157 A 
ATOM     16  C   UNL     1      90.211   9.501  45.386  1.00  0.00     0.062 A 
ATOM     17  C   UNL     1      90.955  10.631  45.755  1.00  0.00     0.158 A 
BRANCH  15  18
ATOM     18  O   UNL     1      91.589  12.948  45.336  1.00  0.00    -0.504 OA
ATOM     19  H   UNL     1      92.076  13.505  44.643  1.00  0.00     0.293 HD
ENDBRANCH  15  18
BRANCH  17  20
ATOM     20  O   UNL     1      91.786  10.588  46.874  1.00  0.00    -0.504 OA
ATOM     21  H   UNL     1      92.165   9.714  47.221  1.00  0.00     0.293 HD
ENDBRANCH  17  20
ENDBRANCH   1  12
BRANCH   2  22
ATOM     22  O   UNL     1      90.600   7.154  43.153  1.00  0.00    -0.502 OA
ATOM     23  H   UNL     1      91.223   7.634  43.791  1.00  0.00     0.293 HD
ENDBRANCH   2  22
BRANCH   9  24
ATOM     24  O   UNL     1      82.878   6.531  43.725  1.00  0.00    -0.508 OA
ATOM     25  H   UNL     1      82.385   7.395  43.533  1.00  0.00     0.293 HD
ENDBRANCH   9  24
TORSDOF 5
ENDMDL
