MODEL 1
REMARK VINA RESULT:    -5.402      0.000      0.000
REMARK INTER + INTRA:          -5.830
REMARK INTER:                  -5.876
REMARK INTRA:                   0.046
REMARK UNBOUND:                 0.046
REMARK SMILES COc1cc2ccc(=O)oc2cc1O
REMARK SMILES IDX 3 1 13 2 12 3 11 4 5 5 4 6 6 7 7 8 8 9 9 10 10 11 2 12 1 13
REMARK SMILES IDX 14 14
REMARK H PARENT 14 15
REMARK Flexibility Score: inf
ROOT
ATOM      1  C   UNL     1      19.531  -0.572 -17.642  1.00  0.00     0.161 A 
ATOM      2  C   UNL     1      20.399   0.506 -17.378  1.00  0.00     0.161 A 
ATOM      3  C   UNL     1      21.173   1.057 -18.406  1.00  0.00     0.098 A 
ATOM      4  C   UNL     1      21.092   0.546 -19.703  1.00  0.00     0.142 A 
ATOM      5  C   UNL     1      20.226  -0.532 -19.979  1.00  0.00     0.022 A 
ATOM      6  C   UNL     1      19.450  -1.087 -18.953  1.00  0.00     0.062 A 
ATOM      7  C   UNL     1      20.167  -1.021 -21.288  1.00  0.00     0.019 A 
ATOM      8  C   UNL     1      20.959  -0.435 -22.275  1.00  0.00     0.094 A 
ATOM      9  C   UNL     1      21.795   0.631 -21.927  1.00  0.00     0.336 A 
ATOM     10  O   UNL     1      22.518   1.174 -22.803  1.00  0.00    -0.246 OA
ATOM     11  O   UNL     1      21.831   1.077 -20.674  1.00  0.00    -0.423 OA
ENDROOT
BRANCH   1  12
ATOM     12  O   UNL     1      18.769  -1.101 -16.589  1.00  0.00    -0.493 OA
ATOM     13  C   UNL     1      17.624  -0.472 -16.024  1.00  0.00     0.278 C 
ENDBRANCH   1  12
BRANCH   2  14
ATOM     14  O   UNL     1      20.507   1.044 -16.095  1.00  0.00    -0.504 OA
ATOM     15  H   UNL     1      20.402   0.478 -15.262  1.00  0.00     0.293 HD
ENDBRANCH   2  14
TORSDOF 2
ENDMDL
MODEL 2
REMARK VINA RESULT:    -5.386      1.280      5.400
REMARK INTER + INTRA:          -5.812
REMARK INTER:                  -5.747
REMARK INTRA:                  -0.065
REMARK UNBOUND:                 0.046
REMARK SMILES COc1cc2ccc(=O)oc2cc1O
REMARK SMILES IDX 3 1 13 2 12 3 11 4 5 5 4 6 6 7 7 8 8 9 9 10 10 11 2 12 1 13
REMARK SMILES IDX 14 14
REMARK H PARENT 14 15
REMARK Flexibility Score: inf
ROOT
ATOM      1  C   UNL     1      21.728   0.747 -21.423  1.00  0.00     0.161 A 
ATOM      2  C   UNL     1      20.993  -0.393 -21.806  1.00  0.00     0.161 A 
ATOM      3  C   UNL     1      20.189  -1.059 -20.874  1.00  0.00     0.098 A 
ATOM      4  C   UNL     1      20.105  -0.602 -19.557  1.00  0.00     0.142 A 
ATOM      5  C   UNL     1      20.836   0.538 -19.164  1.00  0.00     0.022 A 
ATOM      6  C   UNL     1      21.642   1.208 -20.093  1.00  0.00     0.062 A 
ATOM      7  C   UNL     1      20.731   0.972 -17.837  1.00  0.00     0.019 A 
ATOM      8  C   UNL     1      19.915   0.270 -16.950  1.00  0.00     0.094 A 
ATOM      9  C   UNL     1      19.221  -0.852 -17.412  1.00  0.00     0.336 A 
ATOM     10  O   UNL     1      18.478  -1.499 -16.627  1.00  0.00    -0.246 OA
ATOM     11  O   UNL     1      19.337  -1.243 -18.678  1.00  0.00    -0.423 OA
ENDROOT
BRANCH   1  12
ATOM     12  O   UNL     1      22.524   1.392 -22.382  1.00  0.00    -0.493 OA
ATOM     13  C   UNL     1      22.153   2.578 -23.076  1.00  0.00     0.278 C 
ENDBRANCH   1  12
BRANCH   2  14
ATOM     14  O   UNL     1      21.050  -0.879 -23.112  1.00  0.00    -0.504 OA
ATOM     15  H   UNL     1      21.493  -0.362 -23.862  1.00  0.00     0.293 HD
ENDBRANCH   2  14
TORSDOF 2
ENDMDL
MODEL 3
REMARK VINA RESULT:    -5.291      1.713      5.051
REMARK INTER + INTRA:          -5.708
REMARK INTER:                  -5.663
REMARK INTRA:                  -0.045
REMARK UNBOUND:                 0.046
REMARK SMILES COc1cc2ccc(=O)oc2cc1O
REMARK SMILES IDX 3 1 13 2 12 3 11 4 5 5 4 6 6 7 7 8 8 9 9 10 10 11 2 12 1 13
REMARK SMILES IDX 14 14
REMARK H PARENT 14 15
REMARK Flexibility Score: inf
ROOT
ATOM      1  C   UNL     1      20.432   0.149 -20.004  1.00  0.00     0.161 A 
ATOM      2  C   UNL     1      19.401  -0.252 -19.132  1.00  0.00     0.161 A 
ATOM      3  C   UNL     1      19.497   0.006 -17.760  1.00  0.00     0.098 A 
ATOM      4  C   UNL     1      20.614   0.663 -17.240  1.00  0.00     0.142 A 
ATOM      5  C   UNL     1      21.652   1.069 -18.104  1.00  0.00     0.022 A 
ATOM      6  C   UNL     1      21.560   0.813 -19.479  1.00  0.00     0.062 A 
ATOM      7  C   UNL     1      22.758   1.726 -17.554  1.00  0.00     0.019 A 
ATOM      8  C   UNL     1      22.802   1.958 -16.179  1.00  0.00     0.094 A 
ATOM      9  C   UNL     1      21.736   1.526 -15.385  1.00  0.00     0.336 A 
ATOM     10  O   UNL     1      21.757   1.726 -14.142  1.00  0.00    -0.246 OA
ATOM     11  O   UNL     1      20.696   0.904 -15.934  1.00  0.00    -0.423 OA
ENDROOT
BRANCH   1  12
ATOM     12  O   UNL     1      20.305  -0.125 -21.374  1.00  0.00    -0.493 OA
ATOM     13  C   UNL     1      21.398  -0.307 -22.268  1.00  0.00     0.278 C 
ENDBRANCH   1  12
BRANCH   2  14
ATOM     14  O   UNL     1      18.269  -0.911 -19.613  1.00  0.00    -0.504 OA
ATOM     15  H   UNL     1      17.504  -1.183 -19.007  1.00  0.00     0.293 HD
ENDBRANCH   2  14
TORSDOF 2
ENDMDL
MODEL 4
REMARK VINA RESULT:    -5.047     15.354     16.576
REMARK INTER + INTRA:          -5.444
REMARK INTER:                  -5.401
REMARK INTRA:                  -0.043
REMARK UNBOUND:                 0.046
REMARK SMILES COc1cc2ccc(=O)oc2cc1O
REMARK SMILES IDX 3 1 13 2 12 3 11 4 5 5 4 6 6 7 7 8 8 9 9 10 10 11 2 12 1 13
REMARK SMILES IDX 14 14
REMARK H PARENT 14 15
REMARK Flexibility Score: inf
ROOT
ATOM      1  C   UNL     1       7.472  -4.199 -10.937  1.00  0.00     0.161 A 
ATOM      2  C   UNL     1       7.026  -4.270  -9.601  1.00  0.00     0.161 A 
ATOM      3  C   UNL     1       7.650  -5.134  -8.694  1.00  0.00     0.098 A 
ATOM      4  C   UNL     1       8.720  -5.933  -9.101  1.00  0.00     0.142 A 
ATOM      5  C   UNL     1       9.174  -5.870 -10.434  1.00  0.00     0.022 A 
ATOM      6  C   UNL     1       8.553  -5.007 -11.346  1.00  0.00     0.062 A 
ATOM      7  C   UNL     1      10.249  -6.683 -10.811  1.00  0.00     0.019 A 
ATOM      8  C   UNL     1      10.835  -7.525  -9.867  1.00  0.00     0.094 A 
ATOM      9  C   UNL     1      10.330  -7.535  -8.562  1.00  0.00     0.336 A 
ATOM     10  O   UNL     1      10.846  -8.288  -7.695  1.00  0.00    -0.246 OA
ATOM     11  O   UNL     1       9.308  -6.751  -8.230  1.00  0.00    -0.423 OA
ENDROOT
BRANCH   1  12
ATOM     12  O   UNL     1       6.823  -3.323 -11.820  1.00  0.00    -0.493 OA
ATOM     13  C   UNL     1       7.231  -3.080 -13.163  1.00  0.00     0.278 C 
ENDBRANCH   1  12
BRANCH   2  14
ATOM     14  O   UNL     1       5.960  -3.487  -9.158  1.00  0.00    -0.504 OA
ATOM     15  H   UNL     1       5.862  -3.207  -8.189  1.00  0.00     0.293 HD
ENDBRANCH   2  14
TORSDOF 2
ENDMDL
MODEL 5
REMARK VINA RESULT:    -5.032     15.474     17.314
REMARK INTER + INTRA:          -5.427
REMARK INTER:                  -5.395
REMARK INTRA:                  -0.032
REMARK UNBOUND:                 0.046
REMARK SMILES COc1cc2ccc(=O)oc2cc1O
REMARK SMILES IDX 3 1 13 2 12 3 11 4 5 5 4 6 6 7 7 8 8 9 9 10 10 11 2 12 1 13
REMARK SMILES IDX 14 14
REMARK H PARENT 14 15
REMARK Flexibility Score: inf
ROOT
ATOM      1  C   UNL     1       8.069  -7.200  -7.565  1.00  0.00     0.161 A 
ATOM      2  C   UNL     1       7.852  -5.829  -7.322  1.00  0.00     0.161 A 
ATOM      3  C   UNL     1       7.734  -4.933  -8.390  1.00  0.00     0.098 A 
ATOM      4  C   UNL     1       7.829  -5.386  -9.707  1.00  0.00     0.142 A 
ATOM      5  C   UNL     1       8.046  -6.756  -9.962  1.00  0.00     0.022 A 
ATOM      6  C   UNL     1       8.165  -7.657  -8.896  1.00  0.00     0.062 A 
ATOM      7  C   UNL     1       8.136  -7.180 -11.293  1.00  0.00     0.019 A 
ATOM      8  C   UNL     1       8.011  -6.244 -12.319  1.00  0.00     0.094 A 
ATOM      9  C   UNL     1       7.798  -4.902 -11.990  1.00  0.00     0.336 A 
ATOM     10  O   UNL     1       7.681  -4.042 -12.902  1.00  0.00    -0.246 OA
ATOM     11  O   UNL     1       7.715  -4.526 -10.717  1.00  0.00    -0.423 OA
ENDROOT
BRANCH   1  12
ATOM     12  O   UNL     1       8.183  -8.072  -6.472  1.00  0.00    -0.493 OA
ATOM     13  C   UNL     1       7.082  -8.680  -5.804  1.00  0.00     0.278 C 
ENDBRANCH   1  12
BRANCH   2  14
ATOM     14  O   UNL     1       7.751  -5.338  -6.020  1.00  0.00    -0.504 OA
ATOM     15  H   UNL     1       7.009  -4.711  -5.735  1.00  0.00     0.293 HD
ENDBRANCH   2  14
TORSDOF 2
ENDMDL
MODEL 6
REMARK VINA RESULT:    -4.958      1.548      2.021
REMARK INTER + INTRA:          -5.347
REMARK INTER:                  -5.283
REMARK INTRA:                  -0.064
REMARK UNBOUND:                 0.046
REMARK SMILES COc1cc2ccc(=O)oc2cc1O
REMARK SMILES IDX 3 1 13 2 12 3 11 4 5 5 4 6 6 7 7 8 8 9 9 10 10 11 2 12 1 13
REMARK SMILES IDX 14 14
REMARK H PARENT 14 15
REMARK Flexibility Score: inf
ROOT
ATOM      1  C   UNL     1      20.585   0.901 -16.321  1.00  0.00     0.161 A 
ATOM      2  C   UNL     1      21.794   1.465 -16.777  1.00  0.00     0.161 A 
ATOM      3  C   UNL     1      22.161   1.351 -18.122  1.00  0.00     0.098 A 
ATOM      4  C   UNL     1      21.336   0.680 -19.027  1.00  0.00     0.142 A 
ATOM      5  C   UNL     1      20.124   0.113 -18.581  1.00  0.00     0.022 A 
ATOM      6  C   UNL     1      19.751   0.224 -17.235  1.00  0.00     0.062 A 
ATOM      7  C   UNL     1      19.318  -0.552 -19.512  1.00  0.00     0.019 A 
ATOM      8  C   UNL     1      19.732  -0.635 -20.841  1.00  0.00     0.094 A 
ATOM      9  C   UNL     1      20.947  -0.049 -21.209  1.00  0.00     0.336 A 
ATOM     10  O   UNL     1      21.339  -0.113 -22.405  1.00  0.00    -0.246 OA
ATOM     11  O   UNL     1      21.694   0.578 -20.305  1.00  0.00    -0.423 OA
ENDROOT
BRANCH   1  12
ATOM     12  O   UNL     1      20.246   1.033 -14.965  1.00  0.00    -0.493 OA
ATOM     13  C   UNL     1      19.390   2.042 -14.440  1.00  0.00     0.278 C 
ENDBRANCH   1  12
BRANCH   2  14
ATOM     14  O   UNL     1      22.644   2.142 -15.904  1.00  0.00    -0.504 OA
ATOM     15  H   UNL     1      22.426   3.063 -15.542  1.00  0.00     0.293 HD
ENDBRANCH   2  14
TORSDOF 2
ENDMDL
MODEL 7
REMARK VINA RESULT:    -4.924     15.539     17.789
REMARK INTER + INTRA:          -5.310
REMARK INTER:                  -5.265
REMARK INTRA:                  -0.045
REMARK UNBOUND:                 0.046
REMARK SMILES COc1cc2ccc(=O)oc2cc1O
REMARK SMILES IDX 3 1 13 2 12 3 11 4 5 5 4 6 6 7 7 8 8 9 9 10 10 11 2 12 1 13
REMARK SMILES IDX 14 14
REMARK H PARENT 14 15
REMARK Flexibility Score: inf
ROOT
ATOM      1  C   UNL     1       8.251  -6.777 -11.299  1.00  0.00     0.161 A 
ATOM      2  C   UNL     1       8.038  -5.410 -11.034  1.00  0.00     0.161 A 
ATOM      3  C   UNL     1       7.904  -4.959  -9.716  1.00  0.00     0.098 A 
ATOM      4  C   UNL     1       7.982  -5.858  -8.650  1.00  0.00     0.142 A 
ATOM      5  C   UNL     1       8.195  -7.229  -8.904  1.00  0.00     0.022 A 
ATOM      6  C   UNL     1       8.330  -7.685 -10.222  1.00  0.00     0.062 A 
ATOM      7  C   UNL     1       8.269  -8.105  -7.815  1.00  0.00     0.019 A 
ATOM      8  C   UNL     1       8.130  -7.602  -6.522  1.00  0.00     0.094 A 
ATOM      9  C   UNL     1       7.919  -6.231  -6.347  1.00  0.00     0.336 A 
ATOM     10  O   UNL     1       7.792  -5.757  -5.187  1.00  0.00    -0.246 OA
ATOM     11  O   UNL     1       7.854  -5.420  -7.400  1.00  0.00    -0.423 OA
ENDROOT
BRANCH   1  12
ATOM     12  O   UNL     1       8.380  -7.196 -12.632  1.00  0.00    -0.493 OA
ATOM     13  C   UNL     1       9.089  -8.358 -13.050  1.00  0.00     0.278 C 
ENDBRANCH   1  12
BRANCH   2  14
ATOM     14  O   UNL     1       7.955  -4.481 -12.072  1.00  0.00    -0.504 OA
ATOM     15  H   UNL     1       8.675  -4.395 -12.779  1.00  0.00     0.293 HD
ENDBRANCH   2  14
TORSDOF 2
ENDMDL
MODEL 8
REMARK VINA RESULT:    -4.921     15.520     17.080
REMARK INTER + INTRA:          -5.306
REMARK INTER:                  -5.269
REMARK INTRA:                  -0.037
REMARK UNBOUND:                 0.046
REMARK SMILES COc1cc2ccc(=O)oc2cc1O
REMARK SMILES IDX 3 1 13 2 12 3 11 4 5 5 4 6 6 7 7 8 8 9 9 10 10 11 2 12 1 13
REMARK SMILES IDX 14 14
REMARK H PARENT 14 15
REMARK Flexibility Score: inf
ROOT
ATOM      1  C   UNL     1       8.475  -6.194  -6.946  1.00  0.00     0.161 A 
ATOM      2  C   UNL     1       9.808  -5.806  -7.185  1.00  0.00     0.161 A 
ATOM      3  C   UNL     1      10.450  -6.184  -8.371  1.00  0.00     0.098 A 
ATOM      4  C   UNL     1       9.777  -6.946  -9.327  1.00  0.00     0.142 A 
ATOM      5  C   UNL     1       8.442  -7.339  -9.098  1.00  0.00     0.022 A 
ATOM      6  C   UNL     1       7.796  -6.963  -7.913  1.00  0.00     0.062 A 
ATOM      7  C   UNL     1       7.794  -8.102 -10.075  1.00  0.00     0.019 A 
ATOM      8  C   UNL     1       8.481  -8.450 -11.238  1.00  0.00     0.094 A 
ATOM      9  C   UNL     1       9.804  -8.025 -11.397  1.00  0.00     0.336 A 
ATOM     10  O   UNL     1      10.441  -8.328 -12.440  1.00  0.00    -0.246 OA
ATOM     11  O   UNL     1      10.396  -7.299 -10.452  1.00  0.00    -0.423 OA
ENDROOT
BRANCH   1  12
ATOM     12  O   UNL     1       7.861  -5.799  -5.747  1.00  0.00    -0.493 OA
ATOM     13  C   UNL     1       7.948  -6.515  -4.519  1.00  0.00     0.278 C 
ENDBRANCH   1  12
BRANCH   2  14
ATOM     14  O   UNL     1      10.514  -5.044  -6.254  1.00  0.00    -0.504 OA
ATOM     15  H   UNL     1      11.501  -5.187  -6.075  1.00  0.00     0.293 HD
ENDBRANCH   2  14
TORSDOF 2
ENDMDL
MODEL 9
REMARK VINA RESULT:    -4.803     10.226     12.995
REMARK INTER + INTRA:          -5.178
REMARK INTER:                  -5.117
REMARK INTRA:                  -0.061
REMARK UNBOUND:                 0.046
REMARK SMILES COc1cc2ccc(=O)oc2cc1O
REMARK SMILES IDX 3 1 13 2 12 3 11 4 5 5 4 6 6 7 7 8 8 9 9 10 10 11 2 12 1 13
REMARK SMILES IDX 14 14
REMARK H PARENT 14 15
REMARK Flexibility Score: inf
ROOT
ATOM      1  C   UNL     1      19.334  -2.329  -8.264  1.00  0.00     0.161 A 
ATOM      2  C   UNL     1      18.959  -2.747  -6.971  1.00  0.00     0.161 A 
ATOM      3  C   UNL     1      19.932  -3.152  -6.051  1.00  0.00     0.098 A 
ATOM      4  C   UNL     1      21.284  -3.144  -6.402  1.00  0.00     0.142 A 
ATOM      5  C   UNL     1      21.670  -2.728  -7.692  1.00  0.00     0.022 A 
ATOM      6  C   UNL     1      20.699  -2.322  -8.617  1.00  0.00     0.062 A 
ATOM      7  C   UNL     1      23.032  -2.731  -8.014  1.00  0.00     0.019 A 
ATOM      8  C   UNL     1      23.960  -3.143  -7.058  1.00  0.00     0.094 A 
ATOM      9  C   UNL     1      23.503  -3.544  -5.799  1.00  0.00     0.336 A 
ATOM     10  O   UNL     1      24.325  -3.919  -4.922  1.00  0.00    -0.246 OA
ATOM     11  O   UNL     1      22.202  -3.530  -5.519  1.00  0.00    -0.423 OA
ENDROOT
BRANCH   1  12
ATOM     12  O   UNL     1      18.332  -1.931  -9.163  1.00  0.00    -0.493 OA
ATOM     13  C   UNL     1      17.991  -2.630 -10.355  1.00  0.00     0.278 C 
ENDBRANCH   1  12
BRANCH   2  14
ATOM     14  O   UNL     1      17.619  -2.768  -6.583  1.00  0.00    -0.504 OA
ATOM     15  H   UNL     1      17.338  -2.908  -5.620  1.00  0.00     0.293 HD
ENDBRANCH   2  14
TORSDOF 2
ENDMDL
