MODEL 1
REMARK VINA RESULT:    -3.598      0.000      0.000
REMARK INTER + INTRA:          -4.541
REMARK INTER:                  -4.335
REMARK INTRA:                  -0.207
REMARK UNBOUND:                -0.207
REMARK SMILES OCC(O)CO
REMARK SMILES IDX 3 1 5 2 6 3 2 5 1 6 4 8
REMARK H PARENT 6 4 1 7 4 9
REMARK Flexibility Score: inf
ROOT
ATOM      1  C   UNL     1      37.005 -18.378 -29.779  1.00  0.00     0.165 C 
ENDROOT
BRANCH   1   2
ATOM      2  C   UNL     1      35.564 -18.716 -29.358  1.00  0.00     0.190 C 
BRANCH   2   3
ATOM      3  O   UNL     1      34.923 -19.458 -30.361  1.00  0.00    -0.394 OA
ATOM      4  H   UNL     1      35.609 -20.057 -30.755  1.00  0.00     0.210 HD
ENDBRANCH   2   3
ENDBRANCH   1   2
BRANCH   1   5
ATOM      5  C   UNL     1      37.046 -17.554 -31.075  1.00  0.00     0.190 C 
BRANCH   5   6
ATOM      6  O   UNL     1      37.158 -18.393 -32.192  1.00  0.00    -0.394 OA
ATOM      7  H   UNL     1      37.393 -19.291 -31.840  1.00  0.00     0.210 HD
ENDBRANCH   5   6
ENDBRANCH   1   5
BRANCH   1   8
ATOM      8  O   UNL     1      37.785 -19.541 -29.904  1.00  0.00    -0.388 OA
ATOM      9  H   UNL     1      37.545 -20.148 -29.156  1.00  0.00     0.211 HD
ENDBRANCH   1   8
TORSDOF 5
ENDMDL
MODEL 2
REMARK VINA RESULT:    -3.382      1.420      1.931
REMARK INTER + INTRA:          -4.281
REMARK INTER:                  -4.278
REMARK INTRA:                  -0.003
REMARK UNBOUND:                -0.207
REMARK SMILES OCC(O)CO
REMARK SMILES IDX 3 1 5 2 6 3 2 5 1 6 4 8
REMARK H PARENT 6 4 1 7 4 9
REMARK Flexibility Score: inf
ROOT
ATOM      1  C   UNL     1      35.774 -18.694 -29.478  1.00  0.00     0.165 C 
ENDROOT
BRANCH   1   2
ATOM      2  C   UNL     1      34.943 -17.722 -28.621  1.00  0.00     0.190 C 
BRANCH   2   3
ATOM      3  O   UNL     1      34.322 -18.408 -27.568  1.00  0.00    -0.394 OA
ATOM      4  H   UNL     1      34.122 -19.322 -27.900  1.00  0.00     0.210 HD
ENDBRANCH   2   3
ENDBRANCH   1   2
BRANCH   1   5
ATOM      5  C   UNL     1      36.873 -17.967 -30.269  1.00  0.00     0.190 C 
BRANCH   5   6
ATOM      6  O   UNL     1      36.856 -18.358 -31.614  1.00  0.00    -0.394 OA
ATOM      7  H   UNL     1      36.576 -19.310 -31.621  1.00  0.00     0.210 HD
ENDBRANCH   5   6
ENDBRANCH   1   5
BRANCH   1   8
ATOM      8  O   UNL     1      34.953 -19.442 -30.340  1.00  0.00    -0.388 OA
ATOM      9  H   UNL     1      34.457 -18.803 -30.916  1.00  0.00     0.211 HD
ENDBRANCH   1   8
TORSDOF 5
ENDMDL
MODEL 3
REMARK VINA RESULT:    -3.317      1.537      2.805
REMARK INTER + INTRA:          -4.202
REMARK INTER:                  -3.979
REMARK INTRA:                  -0.223
REMARK UNBOUND:                -0.207
REMARK SMILES OCC(O)CO
REMARK SMILES IDX 3 1 5 2 6 3 2 5 1 6 4 8
REMARK H PARENT 6 4 1 7 4 9
REMARK Flexibility Score: inf
ROOT
ATOM      1  C   UNL     1      36.299 -17.660 -29.228  1.00  0.00     0.165 C 
ENDROOT
BRANCH   1   2
ATOM      2  C   UNL     1      37.193 -17.919 -30.454  1.00  0.00     0.190 C 
BRANCH   2   3
ATOM      3  O   UNL     1      37.918 -19.109 -30.288  1.00  0.00    -0.394 OA
ATOM      4  H   UNL     1      37.733 -19.431 -29.368  1.00  0.00     0.210 HD
ENDBRANCH   2   3
ENDBRANCH   1   2
BRANCH   1   5
ATOM      5  C   UNL     1      35.153 -18.679 -29.128  1.00  0.00     0.190 C 
BRANCH   5   6
ATOM      6  O   UNL     1      35.020 -19.393 -30.327  1.00  0.00    -0.394 OA
ATOM      7  H   UNL     1      35.306 -18.775 -31.049  1.00  0.00     0.210 HD
ENDBRANCH   5   6
ENDBRANCH   1   5
BRANCH   1   8
ATOM      8  O   UNL     1      35.799 -16.346 -29.231  1.00  0.00    -0.388 OA
ATOM      9  H   UNL     1      34.838 -16.388 -28.982  1.00  0.00     0.211 HD
ENDBRANCH   1   8
TORSDOF 5
ENDMDL
MODEL 4
REMARK VINA RESULT:    -3.283      1.521      2.934
REMARK INTER + INTRA:          -4.162
REMARK INTER:                  -4.159
REMARK INTRA:                  -0.003
REMARK UNBOUND:                -0.207
REMARK SMILES OCC(O)CO
REMARK SMILES IDX 3 1 5 2 6 3 2 5 1 6 4 8
REMARK H PARENT 6 4 1 7 4 9
REMARK Flexibility Score: inf
ROOT
ATOM      1  C   UNL     1      35.916 -18.392 -29.740  1.00  0.00     0.165 C 
ENDROOT
BRANCH   1   2
ATOM      2  C   UNL     1      37.009 -17.712 -30.584  1.00  0.00     0.190 C 
BRANCH   2   3
ATOM      3  O   UNL     1      37.122 -18.337 -31.834  1.00  0.00    -0.394 OA
ATOM      4  H   UNL     1      36.203 -18.406 -32.204  1.00  0.00     0.210 HD
ENDBRANCH   2   3
ENDBRANCH   1   2
BRANCH   1   5
ATOM      5  C   UNL     1      35.318 -17.436 -28.697  1.00  0.00     0.190 C 
BRANCH   5   6
ATOM      6  O   UNL     1      34.482 -18.129 -27.811  1.00  0.00    -0.394 OA
ATOM      7  H   UNL     1      33.577 -17.736 -27.921  1.00  0.00     0.210 HD
ENDBRANCH   5   6
ENDBRANCH   1   5
BRANCH   1   8
ATOM      8  O   UNL     1      36.401 -19.560 -29.125  1.00  0.00    -0.388 OA
ATOM      9  H   UNL     1      35.687 -20.248 -29.176  1.00  0.00     0.211 HD
ENDBRANCH   1   8
TORSDOF 5
ENDMDL
MODEL 5
REMARK VINA RESULT:    -3.155      1.819      3.288
REMARK INTER + INTRA:          -4.008
REMARK INTER:                  -3.797
REMARK INTRA:                  -0.210
REMARK UNBOUND:                -0.207
REMARK SMILES OCC(O)CO
REMARK SMILES IDX 3 1 5 2 6 3 2 5 1 6 4 8
REMARK H PARENT 6 4 1 7 4 9
REMARK Flexibility Score: inf
ROOT
ATOM      1  C   UNL     1      34.587 -18.445 -28.586  1.00  0.00     0.165 C 
ENDROOT
BRANCH   1   2
ATOM      2  C   UNL     1      35.910 -18.211 -29.337  1.00  0.00     0.190 C 
BRANCH   2   3
ATOM      3  O   UNL     1      36.634 -19.408 -29.436  1.00  0.00    -0.394 OA
ATOM      4  H   UNL     1      37.511 -19.249 -29.000  1.00  0.00     0.210 HD
ENDBRANCH   2   3
ENDBRANCH   1   2
BRANCH   1   5
ATOM      5  C   UNL     1      33.506 -19.042 -29.500  1.00  0.00     0.190 C 
BRANCH   5   6
ATOM      6  O   UNL     1      34.089 -19.753 -30.557  1.00  0.00    -0.394 OA
ATOM      7  H   UNL     1      34.003 -20.714 -30.323  1.00  0.00     0.210 HD
ENDBRANCH   5   6
ENDBRANCH   1   5
BRANCH   1   8
ATOM      8  O   UNL     1      34.129 -17.261 -27.980  1.00  0.00    -0.388 OA
ATOM      9  H   UNL     1      33.419 -16.879 -28.560  1.00  0.00     0.211 HD
ENDBRANCH   1   8
TORSDOF 5
ENDMDL
MODEL 6
REMARK VINA RESULT:    -3.035      3.537      4.662
REMARK INTER + INTRA:          -3.863
REMARK INTER:                  -3.847
REMARK INTRA:                  -0.016
REMARK UNBOUND:                -0.207
REMARK SMILES OCC(O)CO
REMARK SMILES IDX 3 1 5 2 6 3 2 5 1 6 4 8
REMARK H PARENT 6 4 1 7 4 9
REMARK Flexibility Score: inf
ROOT
ATOM      1  C   UNL     1      32.584 -18.725 -28.371  1.00  0.00     0.165 C 
ENDROOT
BRANCH   1   2
ATOM      2  C   UNL     1      34.069 -18.321 -28.414  1.00  0.00     0.190 C 
BRANCH   2   3
ATOM      3  O   UNL     1      34.229 -17.000 -27.970  1.00  0.00    -0.394 OA
ATOM      4  H   UNL     1      35.049 -16.984 -27.411  1.00  0.00     0.210 HD
ENDBRANCH   2   3
ENDBRANCH   1   2
BRANCH   1   5
ATOM      5  C   UNL     1      32.118 -19.340 -29.700  1.00  0.00     0.190 C 
BRANCH   5   6
ATOM      6  O   UNL     1      33.215 -19.781 -30.453  1.00  0.00    -0.394 OA
ATOM      7  H   UNL     1      34.011 -19.323 -30.075  1.00  0.00     0.210 HD
ENDBRANCH   5   6
ENDBRANCH   1   5
BRANCH   1   8
ATOM      8  O   UNL     1      31.770 -17.635 -28.016  1.00  0.00    -0.388 OA
ATOM      9  H   UNL     1      31.941 -17.428 -27.060  1.00  0.00     0.211 HD
ENDBRANCH   1   8
TORSDOF 5
ENDMDL
MODEL 7
REMARK VINA RESULT:    -3.010      2.402      3.319
REMARK INTER + INTRA:          -3.832
REMARK INTER:                  -3.609
REMARK INTRA:                  -0.223
REMARK UNBOUND:                -0.207
REMARK SMILES OCC(O)CO
REMARK SMILES IDX 3 1 5 2 6 3 2 5 1 6 4 8
REMARK H PARENT 6 4 1 7 4 9
REMARK Flexibility Score: inf
ROOT
ATOM      1  C   UNL     1      34.180 -17.670 -28.600  1.00  0.00     0.165 C 
ENDROOT
BRANCH   1   2
ATOM      2  C   UNL     1      32.992 -18.567 -28.209  1.00  0.00     0.190 C 
BRANCH   2   3
ATOM      3  O   UNL     1      32.494 -19.237 -29.336  1.00  0.00    -0.394 OA
ATOM      4  H   UNL     1      31.511 -19.099 -29.340  1.00  0.00     0.210 HD
ENDBRANCH   2   3
ENDBRANCH   1   2
BRANCH   1   5
ATOM      5  C   UNL     1      35.452 -18.488 -28.869  1.00  0.00     0.190 C 
BRANCH   5   6
ATOM      6  O   UNL     1      35.351 -19.175 -30.086  1.00  0.00    -0.394 OA
ATOM      7  H   UNL     1      35.940 -18.693 -30.724  1.00  0.00     0.210 HD
ENDBRANCH   5   6
ENDBRANCH   1   5
BRANCH   1   8
ATOM      8  O   UNL     1      34.418 -16.686 -27.623  1.00  0.00    -0.388 OA
ATOM      9  H   UNL     1      33.709 -15.996 -27.710  1.00  0.00     0.211 HD
ENDBRANCH   1   8
TORSDOF 5
ENDMDL
MODEL 8
REMARK VINA RESULT:    -2.988      1.935      2.321
REMARK INTER + INTRA:          -3.806
REMARK INTER:                  -3.795
REMARK INTRA:                  -0.011
REMARK UNBOUND:                -0.207
REMARK SMILES OCC(O)CO
REMARK SMILES IDX 3 1 5 2 6 3 2 5 1 6 4 8
REMARK H PARENT 6 4 1 7 4 9
REMARK Flexibility Score: inf
ROOT
ATOM      1  C   UNL     1      35.863 -17.672 -29.689  1.00  0.00     0.165 C 
ENDROOT
BRANCH   1   2
ATOM      2  C   UNL     1      35.333 -18.748 -28.723  1.00  0.00     0.190 C 
BRANCH   2   3
ATOM      3  O   UNL     1      34.455 -18.177 -27.790  1.00  0.00    -0.394 OA
ATOM      4  H   UNL     1      35.004 -17.909 -27.008  1.00  0.00     0.210 HD
ENDBRANCH   2   3
ENDBRANCH   1   2
BRANCH   1   5
ATOM      5  C   UNL     1      37.276 -18.001 -30.194  1.00  0.00     0.190 C 
BRANCH   5   6
ATOM      6  O   UNL     1      37.598 -19.339 -29.930  1.00  0.00    -0.394 OA
ATOM      7  H   UNL     1      38.446 -19.519 -30.413  1.00  0.00     0.210 HD
ENDBRANCH   5   6
ENDBRANCH   1   5
BRANCH   1   8
ATOM      8  O   UNL     1      35.830 -16.397 -29.098  1.00  0.00    -0.388 OA
ATOM      9  H   UNL     1      35.877 -15.724 -29.827  1.00  0.00     0.211 HD
ENDBRANCH   1   8
TORSDOF 5
ENDMDL
MODEL 9
REMARK VINA RESULT:    -2.859      2.836      3.679
REMARK INTER + INTRA:          -3.651
REMARK INTER:                  -3.432
REMARK INTRA:                  -0.219
REMARK UNBOUND:                -0.207
REMARK SMILES OCC(O)CO
REMARK SMILES IDX 3 1 5 2 6 3 2 5 1 6 4 8
REMARK H PARENT 6 4 1 7 4 9
REMARK Flexibility Score: inf
ROOT
ATOM      1  C   UNL     1      34.652 -18.252 -28.350  1.00  0.00     0.165 C 
ENDROOT
BRANCH   1   2
ATOM      2  C   UNL     1      33.339 -18.780 -28.956  1.00  0.00     0.190 C 
BRANCH   2   3
ATOM      3  O   UNL     1      32.321 -18.781 -27.991  1.00  0.00    -0.394 OA
ATOM      4  H   UNL     1      32.589 -18.130 -27.291  1.00  0.00     0.210 HD
ENDBRANCH   2   3
ENDBRANCH   1   2
BRANCH   1   5
ATOM      5  C   UNL     1      34.746 -16.721 -28.429  1.00  0.00     0.190 C 
BRANCH   5   6
ATOM      6  O   UNL     1      33.707 -16.123 -27.702  1.00  0.00    -0.394 OA
ATOM      7  H   UNL     1      34.043 -16.021 -26.774  1.00  0.00     0.210 HD
ENDBRANCH   5   6
ENDBRANCH   1   5
BRANCH   1   8
ATOM      8  O   UNL     1      35.770 -18.852 -28.957  1.00  0.00    -0.388 OA
ATOM      9  H   UNL     1      35.941 -19.713 -28.493  1.00  0.00     0.211 HD
ENDBRANCH   1   8
TORSDOF 5
ENDMDL
