MODEL 1
REMARK VINA RESULT:    -6.950      0.000      0.000
REMARK INTER + INTRA:         -10.159
REMARK INTER:                  -9.184
REMARK INTRA:                  -0.974
REMARK UNBOUND:                -0.974
REMARK SMILES CC[C@@H](C=C[C@@H](C)[C@@H]1CC[C@H]2C3=CC[C@@H]4C[C@H](O)CC[C@@]4(C)[C@H]3CC[C@]21C)C(C)C
REMARK SMILES IDX 6 1 7 2 5 3 4 4 3 5 2 6 1 7 28 8 29 9 30 10 8 11 9 12 26 13
REMARK SMILES IDX 10 14 11 15 25 16 27 17 12 18 24 19 23 20 13 21 21 22 14 23
REMARK SMILES IDX 15 24 20 25 22 26 16 27 19 28 17 29 18 30
REMARK H PARENT 18 31
REMARK Flexibility Score: inf
ROOT
ATOM      1  C   UNL     1      11.814 -16.046  31.475  1.00  0.00     0.012 C 
ATOM      2  C   UNL     1      12.756 -15.983  32.690  1.00  0.00     0.012 C 
ENDROOT
BRANCH   1   3
ATOM      3  C   UNL     1      10.780 -17.135  31.687  1.00  0.00    -0.028 C 
ATOM      4  C   UNL     1      11.125 -18.398  32.008  1.00  0.00    -0.027 C 
BRANCH   4   5
ATOM      5  C   UNL     1      10.071 -19.439  32.327  1.00  0.00     0.014 C 
BRANCH   5   6
ATOM      6  C   UNL     1      10.246 -20.043  33.753  1.00  0.00     0.004 C 
ATOM      7  C   UNL     1       8.967 -20.151  34.592  1.00  0.00     0.004 C 
ENDBRANCH   5   6
BRANCH   5   8
ATOM      8  C   UNL     1       9.913 -20.477  31.171  1.00  0.00    -0.011 C 
ATOM      9  C   UNL     1       8.702 -20.169  30.278  1.00  0.00     0.008 C 
ATOM     10  C   UNL     1       9.859 -21.941  31.627  1.00  0.00     0.008 C 
ENDBRANCH   5   8
ENDBRANCH   4   5
ENDBRANCH   1   3
BRANCH   1  11
ATOM     11  C   UNL     1      12.521 -16.252  30.085  1.00  0.00     0.002 C 
ATOM     12  C   UNL     1      14.019 -16.579  30.225  1.00  0.00     0.005 C 
ATOM     13  C   UNL     1      12.484 -15.092  29.028  1.00  0.00    -0.023 C 
ATOM     14  C   UNL     1      14.792 -15.322  29.825  1.00  0.00     0.009 C 
ATOM     15  C   UNL     1      13.768 -14.286  29.343  1.00  0.00     0.021 C 
ATOM     16  C   UNL     1      12.533 -15.733  27.581  1.00  0.00     0.008 C 
ATOM     17  C   UNL     1      11.221 -14.192  29.141  1.00  0.00     0.012 C 
ATOM     18  C   UNL     1      14.329 -13.448  28.197  1.00  0.00    -0.067 C 
ATOM     19  C   UNL     1      13.574 -15.162  26.598  1.00  0.00     0.009 C 
ATOM     20  C   UNL     1      13.789 -13.649  26.777  1.00  0.00     0.021 C 
ATOM     21  C   UNL     1      15.398 -12.668  28.463  1.00  0.00    -0.027 C 
ATOM     22  C   UNL     1      14.634 -12.921  25.631  1.00  0.00    -0.023 C 
ATOM     23  C   UNL     1      16.194 -11.965  27.403  1.00  0.00     0.031 C 
ATOM     24  C   UNL     1      16.121 -12.747  26.092  1.00  0.00     0.002 C 
ATOM     25  C   UNL     1      14.653 -13.721  24.286  1.00  0.00     0.010 C 
ATOM     26  C   UNL     1      13.950 -11.543  25.363  1.00  0.00     0.012 C 
ATOM     27  C   UNL     1      17.031 -12.105  25.019  1.00  0.00     0.036 C 
ATOM     28  C   UNL     1      15.545 -13.086  23.204  1.00  0.00     0.032 C 
ATOM     29  C   UNL     1      16.986 -12.900  23.708  1.00  0.00     0.114 C 
BRANCH  29  30
ATOM     30  O   UNL     1      17.771 -12.289  22.724  1.00  0.00    -0.393 OA
ATOM     31  H   UNL     1      18.096 -11.420  23.095  1.00  0.00     0.210 HD
ENDBRANCH  29  30
ENDBRANCH   1  11
TORSDOF 6
ENDMDL
MODEL 2
REMARK VINA RESULT:    -6.786      2.702      4.888
REMARK INTER + INTRA:          -9.942
REMARK INTER:                  -9.727
REMARK INTRA:                  -0.215
REMARK UNBOUND:                -0.974
REMARK SMILES CC[C@@H](C=C[C@@H](C)[C@@H]1CC[C@H]2C3=CC[C@@H]4C[C@H](O)CC[C@@]4(C)[C@H]3CC[C@]21C)C(C)C
REMARK SMILES IDX 6 1 7 2 5 3 4 4 3 5 2 6 1 7 28 8 29 9 30 10 8 11 9 12 26 13
REMARK SMILES IDX 10 14 11 15 25 16 27 17 12 18 24 19 23 20 13 21 21 22 14 23
REMARK SMILES IDX 15 24 20 25 22 26 16 27 19 28 17 29 18 30
REMARK H PARENT 18 31
REMARK Flexibility Score: inf
ROOT
ATOM      1  C   UNL     1      11.845 -13.365  27.631  1.00  0.00     0.012 C 
ATOM      2  C   UNL     1      12.424 -12.218  28.477  1.00  0.00     0.012 C 
ENDROOT
BRANCH   1   3
ATOM      3  C   UNL     1      11.772 -14.629  28.465  1.00  0.00    -0.028 C 
ATOM      4  C   UNL     1      12.138 -14.653  29.763  1.00  0.00    -0.027 C 
BRANCH   4   5
ATOM      5  C   UNL     1      11.948 -15.898  30.605  1.00  0.00     0.014 C 
BRANCH   5   6
ATOM      6  C   UNL     1      10.948 -15.673  31.779  1.00  0.00     0.004 C 
ATOM      7  C   UNL     1      10.352 -16.942  32.398  1.00  0.00     0.004 C 
ENDBRANCH   5   6
BRANCH   5   8
ATOM      8  C   UNL     1      13.313 -16.545  30.999  1.00  0.00    -0.011 C 
ATOM      9  C   UNL     1      13.819 -16.045  32.360  1.00  0.00     0.008 C 
ATOM     10  C   UNL     1      14.422 -16.394  29.949  1.00  0.00     0.008 C 
ENDBRANCH   5   8
ENDBRANCH   4   5
ENDBRANCH   1   3
BRANCH   1  11
ATOM     11  C   UNL     1      12.609 -13.661  26.288  1.00  0.00     0.002 C 
ATOM     12  C   UNL     1      12.246 -15.032  25.689  1.00  0.00     0.005 C 
ATOM     13  C   UNL     1      14.179 -13.651  26.283  1.00  0.00    -0.023 C 
ATOM     14  C   UNL     1      13.432 -15.963  25.942  1.00  0.00     0.009 C 
ATOM     15  C   UNL     1      14.543 -15.125  26.589  1.00  0.00     0.021 C 
ATOM     16  C   UNL     1      14.671 -13.211  24.844  1.00  0.00     0.008 C 
ATOM     17  C   UNL     1      14.795 -12.694  27.343  1.00  0.00     0.012 C 
ATOM     18  C   UNL     1      15.922 -15.583  26.122  1.00  0.00    -0.067 C 
ATOM     19  C   UNL     1      15.733 -14.099  24.166  1.00  0.00     0.009 C 
ATOM     20  C   UNL     1      16.733 -14.696  25.171  1.00  0.00     0.021 C 
ATOM     21  C   UNL     1      16.304 -16.836  26.447  1.00  0.00    -0.027 C 
ATOM     22  C   UNL     1      18.025 -15.397  24.542  1.00  0.00    -0.023 C 
ATOM     23  C   UNL     1      17.520 -17.505  25.879  1.00  0.00     0.031 C 
ATOM     24  C   UNL     1      17.818 -16.948  24.487  1.00  0.00     0.002 C 
ATOM     25  C   UNL     1      18.331 -14.916  23.084  1.00  0.00     0.010 C 
ATOM     26  C   UNL     1      19.241 -15.010  25.443  1.00  0.00     0.012 C 
ATOM     27  C   UNL     1      18.997 -17.708  23.834  1.00  0.00     0.036 C 
ATOM     28  C   UNL     1      19.510 -15.654  22.427  1.00  0.00     0.032 C 
ATOM     29  C   UNL     1      19.284 -17.175  22.424  1.00  0.00     0.114 C 
BRANCH  29  30
ATOM     30  O   UNL     1      20.383 -17.830  21.855  1.00  0.00    -0.393 OA
ATOM     31  H   UNL     1      21.197 -17.547  22.361  1.00  0.00     0.210 HD
ENDBRANCH  29  30
ENDBRANCH   1  11
TORSDOF 6
ENDMDL
MODEL 3
REMARK VINA RESULT:    -6.248      5.597      8.074
REMARK INTER + INTRA:          -9.231
REMARK INTER:                  -7.933
REMARK INTRA:                  -1.298
REMARK UNBOUND:                -0.974
REMARK SMILES CC[C@@H](C=C[C@@H](C)[C@@H]1CC[C@H]2C3=CC[C@@H]4C[C@H](O)CC[C@@]4(C)[C@H]3CC[C@]21C)C(C)C
REMARK SMILES IDX 6 1 7 2 5 3 4 4 3 5 2 6 1 7 28 8 29 9 30 10 8 11 9 12 26 13
REMARK SMILES IDX 10 14 11 15 25 16 27 17 12 18 24 19 23 20 13 21 21 22 14 23
REMARK SMILES IDX 15 24 20 25 22 26 16 27 19 28 17 29 18 30
REMARK H PARENT 18 31
REMARK Flexibility Score: inf
ROOT
ATOM      1  C   UNL     1      16.571 -13.605  26.701  1.00  0.00     0.012 C 
ATOM      2  C   UNL     1      17.674 -13.111  27.654  1.00  0.00     0.012 C 
ENDROOT
BRANCH   1   3
ATOM      3  C   UNL     1      15.262 -12.915  27.035  1.00  0.00    -0.028 C 
ATOM      4  C   UNL     1      14.100 -13.591  27.129  1.00  0.00    -0.027 C 
BRANCH   4   5
ATOM      5  C   UNL     1      12.828 -12.899  27.575  1.00  0.00     0.014 C 
BRANCH   5   6
ATOM      6  C   UNL     1      12.368 -13.359  28.991  1.00  0.00     0.004 C 
ATOM      7  C   UNL     1      13.091 -14.585  29.561  1.00  0.00     0.004 C 
ENDBRANCH   5   6
BRANCH   5   8
ATOM      8  C   UNL     1      11.729 -12.935  26.467  1.00  0.00    -0.011 C 
ATOM      9  C   UNL     1      11.424 -14.366  26.000  1.00  0.00     0.008 C 
ATOM     10  C   UNL     1      12.016 -12.045  25.250  1.00  0.00     0.008 C 
ENDBRANCH   5   8
ENDBRANCH   4   5
ENDBRANCH   1   3
BRANCH   1  11
ATOM     11  C   UNL     1      16.355 -15.163  26.673  1.00  0.00     0.002 C 
ATOM     12  C   UNL     1      16.936 -15.865  27.913  1.00  0.00     0.005 C 
ATOM     13  C   UNL     1      16.925 -15.993  25.467  1.00  0.00    -0.023 C 
ATOM     14  C   UNL     1      18.216 -16.575  27.471  1.00  0.00     0.009 C 
ATOM     15  C   UNL     1      18.340 -16.393  25.952  1.00  0.00     0.021 C 
ATOM     16  C   UNL     1      15.999 -17.258  25.250  1.00  0.00     0.008 C 
ATOM     17  C   UNL     1      16.999 -15.185  24.141  1.00  0.00     0.012 C 
ATOM     18  C   UNL     1      18.946 -17.631  25.297  1.00  0.00    -0.067 C 
ATOM     19  C   UNL     1      16.699 -18.627  25.144  1.00  0.00     0.009 C 
ATOM     20  C   UNL     1      18.063 -18.541  24.437  1.00  0.00     0.021 C 
ATOM     21  C   UNL     1      20.211 -17.958  25.635  1.00  0.00    -0.027 C 
ATOM     22  C   UNL     1      18.733 -19.936  24.033  1.00  0.00    -0.023 C 
ATOM     23  C   UNL     1      20.862 -19.255  25.254  1.00  0.00     0.031 C 
ATOM     24  C   UNL     1      19.801 -20.345  25.103  1.00  0.00     0.002 C 
ATOM     25  C   UNL     1      17.696 -21.106  23.939  1.00  0.00     0.010 C 
ATOM     26  C   UNL     1      19.375 -19.745  22.622  1.00  0.00     0.012 C 
ATOM     27  C   UNL     1      20.460 -21.717  24.827  1.00  0.00     0.036 C 
ATOM     28  C   UNL     1      18.338 -22.475  23.652  1.00  0.00     0.032 C 
ATOM     29  C   UNL     1      19.404 -22.822  24.704  1.00  0.00     0.114 C 
BRANCH  29  30
ATOM     30  O   UNL     1      20.000 -24.053  24.405  1.00  0.00    -0.393 OA
ATOM     31  H   UNL     1      19.758 -24.690  25.136  1.00  0.00     0.210 HD
ENDBRANCH  29  30
ENDBRANCH   1  11
TORSDOF 6
ENDMDL
MODEL 4
REMARK VINA RESULT:    -6.082      3.703      9.161
REMARK INTER + INTRA:          -9.012
REMARK INTER:                  -7.830
REMARK INTRA:                  -1.183
REMARK UNBOUND:                -0.974
REMARK SMILES CC[C@@H](C=C[C@@H](C)[C@@H]1CC[C@H]2C3=CC[C@@H]4C[C@H](O)CC[C@@]4(C)[C@H]3CC[C@]21C)C(C)C
REMARK SMILES IDX 6 1 7 2 5 3 4 4 3 5 2 6 1 7 28 8 29 9 30 10 8 11 9 12 26 13
REMARK SMILES IDX 10 14 11 15 25 16 27 17 12 18 24 19 23 20 13 21 21 22 14 23
REMARK SMILES IDX 15 24 20 25 22 26 16 27 19 28 17 29 18 30
REMARK H PARENT 18 31
REMARK Flexibility Score: inf
ROOT
ATOM      1  C   UNL     1      18.959 -11.355  24.562  1.00  0.00     0.012 C 
ATOM      2  C   UNL     1      18.740 -10.358  23.410  1.00  0.00     0.012 C 
ENDROOT
BRANCH   1   3
ATOM      3  C   UNL     1      19.023 -12.766  24.010  1.00  0.00    -0.028 C 
ATOM      4  C   UNL     1      20.073 -13.579  24.244  1.00  0.00    -0.027 C 
BRANCH   4   5
ATOM      5  C   UNL     1      20.063 -15.021  23.779  1.00  0.00     0.014 C 
BRANCH   5   6
ATOM      6  C   UNL     1      19.026 -15.270  22.643  1.00  0.00     0.004 C 
ATOM      7  C   UNL     1      19.550 -16.031  21.419  1.00  0.00     0.004 C 
ENDBRANCH   5   6
BRANCH   5   8
ATOM      8  C   UNL     1      19.997 -16.017  24.980  1.00  0.00    -0.011 C 
ATOM      9  C   UNL     1      18.616 -16.678  25.109  1.00  0.00     0.008 C 
ATOM     10  C   UNL     1      20.412 -15.421  26.331  1.00  0.00     0.008 C 
ENDBRANCH   5   8
ENDBRANCH   4   5
ENDBRANCH   1   3
BRANCH   1  11
ATOM     11  C   UNL     1      17.897 -11.287  25.720  1.00  0.00     0.002 C 
ATOM     12  C   UNL     1      18.522 -11.492  27.111  1.00  0.00     0.005 C 
ATOM     13  C   UNL     1      16.681 -12.282  25.702  1.00  0.00    -0.023 C 
ATOM     14  C   UNL     1      18.143 -12.899  27.573  1.00  0.00     0.009 C 
ATOM     15  C   UNL     1      17.203 -13.492  26.514  1.00  0.00     0.021 C 
ATOM     16  C   UNL     1      15.453 -11.582  26.414  1.00  0.00     0.008 C 
ATOM     17  C   UNL     1      16.257 -12.714  24.270  1.00  0.00     0.012 C 
ATOM     18  C   UNL     1      16.138 -14.376  27.156  1.00  0.00    -0.067 C 
ATOM     19  C   UNL     1      14.728 -12.388  27.510  1.00  0.00     0.009 C 
ATOM     20  C   UNL     1      14.683 -13.895  27.204  1.00  0.00     0.021 C 
ATOM     21  C   UNL     1      16.555 -15.487  27.800  1.00  0.00    -0.027 C 
ATOM     22  C   UNL     1      13.720 -14.771  28.132  1.00  0.00    -0.023 C 
ATOM     23  C   UNL     1      15.663 -16.328  28.663  1.00  0.00     0.031 C 
ATOM     24  C   UNL     1      14.553 -15.466  29.262  1.00  0.00     0.002 C 
ATOM     25  C   UNL     1      12.607 -13.919  28.831  1.00  0.00     0.010 C 
ATOM     26  C   UNL     1      13.018 -15.816  27.208  1.00  0.00     0.012 C 
ATOM     27  C   UNL     1      13.692 -16.289  30.249  1.00  0.00     0.036 C 
ATOM     28  C   UNL     1      11.734 -14.728  29.807  1.00  0.00     0.032 C 
ATOM     29  C   UNL     1      12.592 -15.422  30.877  1.00  0.00     0.114 C 
BRANCH  29  30
ATOM     30  O   UNL     1      11.785 -16.181  31.732  1.00  0.00    -0.393 OA
ATOM     31  H   UNL     1      11.557 -17.030  31.256  1.00  0.00     0.210 HD
ENDBRANCH  29  30
ENDBRANCH   1  11
TORSDOF 6
ENDMDL
MODEL 5
REMARK VINA RESULT:    -5.932      5.337      7.945
REMARK INTER + INTRA:          -8.814
REMARK INTER:                  -7.735
REMARK INTRA:                  -1.079
REMARK UNBOUND:                -0.974
REMARK SMILES CC[C@@H](C=C[C@@H](C)[C@@H]1CC[C@H]2C3=CC[C@@H]4C[C@H](O)CC[C@@]4(C)[C@H]3CC[C@]21C)C(C)C
REMARK SMILES IDX 6 1 7 2 5 3 4 4 3 5 2 6 1 7 28 8 29 9 30 10 8 11 9 12 26 13
REMARK SMILES IDX 10 14 11 15 25 16 27 17 12 18 24 19 23 20 13 21 21 22 14 23
REMARK SMILES IDX 15 24 20 25 22 26 16 27 19 28 17 29 18 30
REMARK H PARENT 18 31
REMARK Flexibility Score: inf
ROOT
ATOM      1  C   UNL     1      19.493 -17.624  26.052  1.00  0.00     0.012 C 
ATOM      2  C   UNL     1      20.555 -16.536  25.815  1.00  0.00     0.012 C 
ENDROOT
BRANCH   1   3
ATOM      3  C   UNL     1      19.982 -18.945  25.491  1.00  0.00    -0.028 C 
ATOM      4  C   UNL     1      19.165 -19.787  24.826  1.00  0.00    -0.027 C 
BRANCH   4   5
ATOM      5  C   UNL     1      19.702 -21.046  24.177  1.00  0.00     0.014 C 
BRANCH   5   6
ATOM      6  C   UNL     1      20.279 -20.780  22.754  1.00  0.00     0.004 C 
ATOM      7  C   UNL     1      19.594 -19.664  21.956  1.00  0.00     0.004 C 
ENDBRANCH   5   6
BRANCH   5   8
ATOM      8  C   UNL     1      18.690 -22.230  24.282  1.00  0.00    -0.011 C 
ATOM      9  C   UNL     1      17.232 -21.752  24.212  1.00  0.00     0.008 C 
ATOM     10  C   UNL     1      18.880 -23.130  25.510  1.00  0.00     0.008 C 
ENDBRANCH   5   8
ENDBRANCH   4   5
ENDBRANCH   1   3
BRANCH   1  11
ATOM     11  C   UNL     1      18.063 -17.303  25.480  1.00  0.00     0.002 C 
ATOM     12  C   UNL     1      18.116 -16.588  24.119  1.00  0.00     0.005 C 
ATOM     13  C   UNL     1      17.078 -16.424  26.332  1.00  0.00    -0.023 C 
ATOM     14  C   UNL     1      17.756 -15.122  24.366  1.00  0.00     0.009 C 
ATOM     15  C   UNL     1      17.382 -14.985  25.848  1.00  0.00     0.021 C 
ATOM     16  C   UNL     1      15.596 -16.860  25.986  1.00  0.00     0.008 C 
ATOM     17  C   UNL     1      17.301 -16.554  27.865  1.00  0.00     0.012 C 
ATOM     18  C   UNL     1      16.263 -13.965  26.041  1.00  0.00    -0.067 C 
ATOM     19  C   UNL     1      14.602 -15.736  25.630  1.00  0.00     0.009 C 
ATOM     20  C   UNL     1      14.859 -14.445  26.426  1.00  0.00     0.021 C 
ATOM     21  C   UNL     1      16.525 -12.683  25.708  1.00  0.00    -0.027 C 
ATOM     22  C   UNL     1      13.721 -13.326  26.333  1.00  0.00    -0.023 C 
ATOM     23  C   UNL     1      15.473 -11.617  25.629  1.00  0.00     0.031 C 
ATOM     24  C   UNL     1      14.123 -12.241  25.277  1.00  0.00     0.002 C 
ATOM     25  C   UNL     1      12.332 -13.904  25.901  1.00  0.00     0.010 C 
ATOM     26  C   UNL     1      13.565 -12.711  27.760  1.00  0.00     0.012 C 
ATOM     27  C   UNL     1      13.050 -11.146  25.074  1.00  0.00     0.036 C 
ATOM     28  C   UNL     1      11.250 -12.826  25.707  1.00  0.00     0.032 C 
ATOM     29  C   UNL     1      11.698 -11.763  24.692  1.00  0.00     0.114 C 
BRANCH  29  30
ATOM     30  O   UNL     1      10.717 -10.773  24.557  1.00  0.00    -0.393 OA
ATOM     31  H   UNL     1      10.583 -10.614  23.579  1.00  0.00     0.210 HD
ENDBRANCH  29  30
ENDBRANCH   1  11
TORSDOF 6
ENDMDL
MODEL 6
REMARK VINA RESULT:    -5.810      8.597     13.077
REMARK INTER + INTRA:          -8.652
REMARK INTER:                  -7.255
REMARK INTRA:                  -1.397
REMARK UNBOUND:                -0.974
REMARK SMILES CC[C@@H](C=C[C@@H](C)[C@@H]1CC[C@H]2C3=CC[C@@H]4C[C@H](O)CC[C@@]4(C)[C@H]3CC[C@]21C)C(C)C
REMARK SMILES IDX 6 1 7 2 5 3 4 4 3 5 2 6 1 7 28 8 29 9 30 10 8 11 9 12 26 13
REMARK SMILES IDX 10 14 11 15 25 16 27 17 12 18 24 19 23 20 13 21 21 22 14 23
REMARK SMILES IDX 15 24 20 25 22 26 16 27 19 28 17 29 18 30
REMARK H PARENT 18 31
REMARK Flexibility Score: inf
ROOT
ATOM      1  C   UNL     1       2.562 -17.775  23.399  1.00  0.00     0.012 C 
ATOM      2  C   UNL     1       1.199 -18.206  22.828  1.00  0.00     0.012 C 
ENDROOT
BRANCH   1   3
ATOM      3  C   UNL     1       3.417 -17.190  22.292  1.00  0.00    -0.028 C 
ATOM      4  C   UNL     1       4.595 -17.738  21.930  1.00  0.00    -0.027 C 
BRANCH   4   5
ATOM      5  C   UNL     1       5.375 -17.204  20.747  1.00  0.00     0.014 C 
BRANCH   5   6
ATOM      6  C   UNL     1       5.797 -18.331  19.758  1.00  0.00     0.004 C 
ATOM      7  C   UNL     1       6.574 -19.501  20.374  1.00  0.00     0.004 C 
ENDBRANCH   5   6
BRANCH   5   8
ATOM      8  C   UNL     1       6.517 -16.237  21.194  1.00  0.00    -0.011 C 
ATOM      9  C   UNL     1       7.005 -16.538  22.619  1.00  0.00     0.008 C 
ATOM     10  C   UNL     1       6.181 -14.745  21.068  1.00  0.00     0.008 C 
ENDBRANCH   5   8
ENDBRANCH   4   5
ENDBRANCH   1   3
BRANCH   1  11
ATOM     11  C   UNL     1       3.364 -18.902  24.148  1.00  0.00     0.002 C 
ATOM     12  C   UNL     1       2.494 -20.127  24.482  1.00  0.00     0.005 C 
ATOM     13  C   UNL     1       4.075 -18.561  25.506  1.00  0.00    -0.023 C 
ATOM     14  C   UNL     1       2.209 -20.080  25.983  1.00  0.00     0.009 C 
ATOM     15  C   UNL     1       2.995 -18.897  26.564  1.00  0.00     0.021 C 
ATOM     16  C   UNL     1       5.348 -19.491  25.650  1.00  0.00     0.008 C 
ATOM     17  C   UNL     1       4.519 -17.075  25.616  1.00  0.00     0.012 C 
ATOM     18  C   UNL     1       3.509 -19.211  27.966  1.00  0.00    -0.067 C 
ATOM     19  C   UNL     1       5.510 -20.253  26.980  1.00  0.00     0.009 C 
ATOM     20  C   UNL     1       5.007 -19.446  28.189  1.00  0.00     0.021 C 
ATOM     21  C   UNL     1       2.590 -19.425  28.932  1.00  0.00    -0.027 C 
ATOM     22  C   UNL     1       5.385 -20.030  29.629  1.00  0.00    -0.023 C 
ATOM     23  C   UNL     1       2.928 -19.959  30.292  1.00  0.00     0.031 C 
ATOM     24  C   UNL     1       4.176 -20.836  30.213  1.00  0.00     0.002 C 
ATOM     25  C   UNL     1       6.615 -20.998  29.590  1.00  0.00     0.010 C 
ATOM     26  C   UNL     1       5.757 -18.813  30.534  1.00  0.00     0.012 C 
ATOM     27  C   UNL     1       4.473 -21.493  31.582  1.00  0.00     0.036 C 
ATOM     28  C   UNL     1       6.930 -21.648  30.949  1.00  0.00     0.032 C 
ATOM     29  C   UNL     1       5.708 -22.399  31.504  1.00  0.00     0.114 C 
BRANCH  29  30
ATOM     30  O   UNL     1       6.003 -22.952  32.755  1.00  0.00    -0.393 OA
ATOM     31  H   UNL     1       6.116 -22.196  33.399  1.00  0.00     0.210 HD
ENDBRANCH  29  30
ENDBRANCH   1  11
TORSDOF 6
ENDMDL
MODEL 7
REMARK VINA RESULT:    -5.779      3.624      6.787
REMARK INTER + INTRA:          -8.611
REMARK INTER:                  -7.822
REMARK INTRA:                  -0.788
REMARK UNBOUND:                -0.974
REMARK SMILES CC[C@@H](C=C[C@@H](C)[C@@H]1CC[C@H]2C3=CC[C@@H]4C[C@H](O)CC[C@@]4(C)[C@H]3CC[C@]21C)C(C)C
REMARK SMILES IDX 6 1 7 2 5 3 4 4 3 5 2 6 1 7 28 8 29 9 30 10 8 11 9 12 26 13
REMARK SMILES IDX 10 14 11 15 25 16 27 17 12 18 24 19 23 20 13 21 21 22 14 23
REMARK SMILES IDX 15 24 20 25 22 26 16 27 19 28 17 29 18 30
REMARK H PARENT 18 31
REMARK Flexibility Score: inf
ROOT
ATOM      1  C   UNL     1      14.982 -11.491  26.882  1.00  0.00     0.012 C 
ATOM      2  C   UNL     1      15.781 -10.698  27.931  1.00  0.00     0.012 C 
ENDROOT
BRANCH   1   3
ATOM      3  C   UNL     1      14.195 -12.593  27.565  1.00  0.00    -0.028 C 
ATOM      4  C   UNL     1      12.847 -12.615  27.568  1.00  0.00    -0.027 C 
BRANCH   4   5
ATOM      5  C   UNL     1      12.086 -13.786  28.157  1.00  0.00     0.014 C 
BRANCH   5   6
ATOM      6  C   UNL     1      12.752 -14.332  29.455  1.00  0.00     0.004 C 
ATOM      7  C   UNL     1      11.860 -15.207  30.344  1.00  0.00     0.004 C 
ENDBRANCH   5   6
BRANCH   5   8
ATOM      8  C   UNL     1      11.742 -14.857  27.075  1.00  0.00    -0.011 C 
ATOM      9  C   UNL     1      12.842 -15.921  26.944  1.00  0.00     0.008 C 
ATOM     10  C   UNL     1      11.408 -14.287  25.691  1.00  0.00     0.008 C 
ENDBRANCH   5   8
ENDBRANCH   4   5
ENDBRANCH   1   3
BRANCH   1  11
ATOM     11  C   UNL     1      15.833 -12.099  25.707  1.00  0.00     0.002 C 
ATOM     12  C   UNL     1      14.960 -12.714  24.599  1.00  0.00     0.005 C 
ATOM     13  C   UNL     1      16.885 -13.221  26.025  1.00  0.00    -0.023 C 
ATOM     14  C   UNL     1      15.059 -14.234  24.739  1.00  0.00     0.009 C 
ATOM     15  C   UNL     1      16.072 -14.527  25.853  1.00  0.00     0.021 C 
ATOM     16  C   UNL     1      18.060 -13.116  24.969  1.00  0.00     0.008 C 
ATOM     17  C   UNL     1      17.481 -13.121  27.458  1.00  0.00     0.012 C 
ATOM     18  C   UNL     1      16.883 -15.782  25.544  1.00  0.00    -0.067 C 
ATOM     19  C   UNL     1      18.472 -14.417  24.251  1.00  0.00     0.009 C 
ATOM     20  C   UNL     1      18.360 -15.654  25.158  1.00  0.00     0.021 C 
ATOM     21  C   UNL     1      16.214 -16.953  25.472  1.00  0.00    -0.027 C 
ATOM     22  C   UNL     1      19.024 -16.997  24.598  1.00  0.00    -0.023 C 
ATOM     23  C   UNL     1      16.824 -18.225  24.963  1.00  0.00     0.031 C 
ATOM     24  C   UNL     1      17.925 -17.907  23.953  1.00  0.00     0.002 C 
ATOM     25  C   UNL     1      20.110 -16.728  23.502  1.00  0.00     0.010 C 
ATOM     26  C   UNL     1      19.721 -17.702  25.805  1.00  0.00     0.012 C 
ATOM     27  C   UNL     1      18.486 -19.206  23.326  1.00  0.00     0.036 C 
ATOM     28  C   UNL     1      20.686 -18.013  22.879  1.00  0.00     0.032 C 
ATOM     29  C   UNL     1      19.573 -18.894  22.289  1.00  0.00     0.114 C 
BRANCH  29  30
ATOM     30  O   UNL     1      20.112 -20.072  21.760  1.00  0.00    -0.393 OA
ATOM     31  H   UNL     1      20.478 -19.856  20.855  1.00  0.00     0.210 HD
ENDBRANCH  29  30
ENDBRANCH   1  11
TORSDOF 6
ENDMDL
MODEL 8
REMARK VINA RESULT:    -5.752      5.851      9.328
REMARK INTER + INTRA:          -8.577
REMARK INTER:                  -7.740
REMARK INTRA:                  -0.836
REMARK UNBOUND:                -0.974
REMARK SMILES CC[C@@H](C=C[C@@H](C)[C@@H]1CC[C@H]2C3=CC[C@@H]4C[C@H](O)CC[C@@]4(C)[C@H]3CC[C@]21C)C(C)C
REMARK SMILES IDX 6 1 7 2 5 3 4 4 3 5 2 6 1 7 28 8 29 9 30 10 8 11 9 12 26 13
REMARK SMILES IDX 10 14 11 15 25 16 27 17 12 18 24 19 23 20 13 21 21 22 14 23
REMARK SMILES IDX 15 24 20 25 22 26 16 27 19 28 17 29 18 30
REMARK H PARENT 18 31
REMARK Flexibility Score: inf
ROOT
ATOM      1  C   UNL     1      19.757 -17.611  24.319  1.00  0.00     0.012 C 
ATOM      2  C   UNL     1      19.107 -17.154  23.001  1.00  0.00     0.012 C 
ENDROOT
BRANCH   1   3
ATOM      3  C   UNL     1      20.579 -18.861  24.075  1.00  0.00    -0.028 C 
ATOM      4  C   UNL     1      20.114 -19.894  23.344  1.00  0.00    -0.027 C 
BRANCH   4   5
ATOM      5  C   UNL     1      20.996 -21.082  23.019  1.00  0.00     0.014 C 
BRANCH   5   6
ATOM      6  C   UNL     1      20.952 -21.458  21.508  1.00  0.00     0.004 C 
ATOM      7  C   UNL     1      19.608 -21.235  20.805  1.00  0.00     0.004 C 
ENDBRANCH   5   6
BRANCH   5   8
ATOM      8  C   UNL     1      20.767 -22.264  24.014  1.00  0.00    -0.011 C 
ATOM      9  C   UNL     1      20.791 -23.627  23.307  1.00  0.00     0.008 C 
ATOM     10  C   UNL     1      19.497 -22.147  24.867  1.00  0.00     0.008 C 
ENDBRANCH   5   8
ENDBRANCH   4   5
ENDBRANCH   1   3
BRANCH   1  11
ATOM     11  C   UNL     1      18.760 -17.857  25.510  1.00  0.00     0.002 C 
ATOM     12  C   UNL     1      17.526 -18.676  25.091  1.00  0.00     0.005 C 
ATOM     13  C   UNL     1      18.154 -16.622  26.269  1.00  0.00    -0.023 C 
ATOM     14  C   UNL     1      16.347 -17.706  25.013  1.00  0.00     0.009 C 
ATOM     15  C   UNL     1      16.847 -16.336  25.490  1.00  0.00     0.021 C 
ATOM     16  C   UNL     1      17.865 -17.050  27.766  1.00  0.00     0.008 C 
ATOM     17  C   UNL     1      19.087 -15.378  26.269  1.00  0.00     0.012 C 
ATOM     18  C   UNL     1      15.761 -15.590  26.260  1.00  0.00    -0.067 C 
ATOM     19  C   UNL     1      16.463 -16.733  28.324  1.00  0.00     0.009 C 
ATOM     20  C   UNL     1      15.892 -15.414  27.776  1.00  0.00     0.021 C 
ATOM     21  C   UNL     1      14.643 -15.249  25.584  1.00  0.00    -0.027 C 
ATOM     22  C   UNL     1      14.577 -14.864  28.502  1.00  0.00    -0.023 C 
ATOM     23  C   UNL     1      13.405 -14.718  26.246  1.00  0.00     0.031 C 
ATOM     24  C   UNL     1      13.307 -15.254  27.674  1.00  0.00     0.002 C 
ATOM     25  C   UNL     1      14.389 -15.444  29.944  1.00  0.00     0.010 C 
ATOM     26  C   UNL     1      14.734 -13.315  28.621  1.00  0.00     0.012 C 
ATOM     27  C   UNL     1      11.978 -14.816  28.333  1.00  0.00     0.036 C 
ATOM     28  C   UNL     1      13.077 -15.005  30.618  1.00  0.00     0.032 C 
ATOM     29  C   UNL     1      11.858 -15.374  29.757  1.00  0.00     0.114 C 
BRANCH  29  30
ATOM     30  O   UNL     1      10.678 -14.935  30.369  1.00  0.00    -0.393 OA
ATOM     31  H   UNL     1      10.621 -13.946  30.237  1.00  0.00     0.210 HD
ENDBRANCH  29  30
ENDBRANCH   1  11
TORSDOF 6
ENDMDL
MODEL 9
REMARK VINA RESULT:    -5.648      8.924     10.474
REMARK INTER + INTRA:          -8.439
REMARK INTER:                  -7.514
REMARK INTRA:                  -0.925
REMARK UNBOUND:                -0.974
REMARK SMILES CC[C@@H](C=C[C@@H](C)[C@@H]1CC[C@H]2C3=CC[C@@H]4C[C@H](O)CC[C@@]4(C)[C@H]3CC[C@]21C)C(C)C
REMARK SMILES IDX 6 1 7 2 5 3 4 4 3 5 2 6 1 7 28 8 29 9 30 10 8 11 9 12 26 13
REMARK SMILES IDX 10 14 11 15 25 16 27 17 12 18 24 19 23 20 13 21 21 22 14 23
REMARK SMILES IDX 15 24 20 25 22 26 16 27 19 28 17 29 18 30
REMARK H PARENT 18 31
REMARK Flexibility Score: inf
ROOT
ATOM      1  C   UNL     1      16.443 -27.234  24.369  1.00  0.00     0.012 C 
ATOM      2  C   UNL     1      16.808 -28.406  23.441  1.00  0.00     0.012 C 
ENDROOT
BRANCH   1   3
ATOM      3  C   UNL     1      15.128 -26.622  23.926  1.00  0.00    -0.028 C 
ATOM      4  C   UNL     1      14.100 -26.437  24.779  1.00  0.00    -0.027 C 
BRANCH   4   5
ATOM      5  C   UNL     1      12.840 -25.720  24.341  1.00  0.00     0.014 C 
BRANCH   5   6
ATOM      6  C   UNL     1      12.979 -25.091  22.923  1.00  0.00     0.004 C 
ATOM      7  C   UNL     1      11.741 -24.356  22.396  1.00  0.00     0.004 C 
ENDBRANCH   5   6
BRANCH   5   8
ATOM      8  C   UNL     1      12.300 -24.764  25.451  1.00  0.00    -0.011 C 
ATOM      9  C   UNL     1      13.179 -23.515  25.616  1.00  0.00     0.008 C 
ATOM     10  C   UNL     1      12.082 -25.427  26.818  1.00  0.00     0.008 C 
ENDBRANCH   5   8
ENDBRANCH   4   5
ENDBRANCH   1   3
BRANCH   1  11
ATOM     11  C   UNL     1      17.535 -26.108  24.490  1.00  0.00     0.002 C 
ATOM     12  C   UNL     1      17.469 -25.360  25.834  1.00  0.00     0.005 C 
ATOM     13  C   UNL     1      17.573 -24.959  23.420  1.00  0.00    -0.023 C 
ATOM     14  C   UNL     1      16.857 -23.987  25.556  1.00  0.00     0.009 C 
ATOM     15  C   UNL     1      16.661 -23.871  24.038  1.00  0.00     0.021 C 
ATOM     16  C   UNL     1      19.069 -24.460  23.276  1.00  0.00     0.008 C 
ATOM     17  C   UNL     1      17.048 -25.397  22.024  1.00  0.00     0.012 C 
ATOM     18  C   UNL     1      16.906 -22.443  23.559  1.00  0.00    -0.067 C 
ATOM     19  C   UNL     1      19.310 -22.940  23.362  1.00  0.00     0.009 C 
ATOM     20  C   UNL     1      18.163 -22.123  22.742  1.00  0.00     0.021 C 
ATOM     21  C   UNL     1      16.073 -21.482  24.013  1.00  0.00    -0.027 C 
ATOM     22  C   UNL     1      18.446 -20.563  22.534  1.00  0.00    -0.023 C 
ATOM     23  C   UNL     1      16.315 -20.016  23.816  1.00  0.00     0.031 C 
ATOM     24  C   UNL     1      17.815 -19.744  23.710  1.00  0.00     0.002 C 
ATOM     25  C   UNL     1      19.974 -20.221  22.495  1.00  0.00     0.010 C 
ATOM     26  C   UNL     1      17.827 -20.165  21.157  1.00  0.00     0.012 C 
ATOM     27  C   UNL     1      18.093 -18.224  23.625  1.00  0.00     0.036 C 
ATOM     28  C   UNL     1      20.264 -18.713  22.397  1.00  0.00     0.032 C 
ATOM     29  C   UNL     1      19.599 -17.941  23.548  1.00  0.00     0.114 C 
BRANCH  29  30
ATOM     30  O   UNL     1      19.844 -16.569  23.422  1.00  0.00    -0.393 OA
ATOM     31  H   UNL     1      20.557 -16.329  24.080  1.00  0.00     0.210 HD
ENDBRANCH  29  30
ENDBRANCH   1  11
TORSDOF 6
ENDMDL
