MODEL 1
REMARK VINA RESULT:    -4.241      0.000      0.000
REMARK INTER + INTRA:          -4.654
REMARK INTER:                  -4.489
REMARK INTRA:                  -0.166
REMARK UNBOUND:                -0.166
REMARK SMILES CC(C)[C@@H]1CC[C@@H](C)CC1=O
REMARK SMILES IDX 8 1 7 2 6 3 5 4 4 5 10 6 11 7 9 8 2 9 1 10 3 11
REMARK H PARENT
REMARK Flexibility Score: inf
ROOT
ATOM      1  C   UNL     1       1.213 -20.232  -9.267  1.00  0.00     0.008 C 
ATOM      2  C   UNL     1       0.888 -21.707  -9.009  1.00  0.00    -0.007 C 
ATOM      3  C   UNL     1       1.662 -22.613  -9.989  1.00  0.00     0.004 C 
ATOM      4  C   UNL     1       1.340 -24.101  -9.763  1.00  0.00     0.012 C 
ATOM      5  C   UNL     1      -0.176 -24.387  -9.890  1.00  0.00     0.058 C 
ATOM      6  C   UNL     1      -0.900 -23.421  -8.967  1.00  0.00     0.136 C 
ATOM      7  O   UNL     1      -1.625 -23.811  -8.063  1.00  0.00    -0.299 OA
ATOM      8  C   UNL     1      -0.626 -21.954  -9.123  1.00  0.00     0.079 C 
ENDROOT
BRANCH   5   9
ATOM      9  C   UNL     1      -0.549 -25.883  -9.620  1.00  0.00    -0.007 C 
ATOM     10  C   UNL     1      -1.454 -26.434 -10.737  1.00  0.00     0.008 C 
ATOM     11  C   UNL     1       0.688 -26.792  -9.501  1.00  0.00     0.008 C 
ENDBRANCH   5   9
TORSDOF 1
ENDMDL
MODEL 2
REMARK VINA RESULT:    -4.228      2.271      5.058
REMARK INTER + INTRA:          -4.641
REMARK INTER:                  -4.488
REMARK INTRA:                  -0.153
REMARK UNBOUND:                -0.166
REMARK SMILES CC(C)[C@@H]1CC[C@@H](C)CC1=O
REMARK SMILES IDX 8 1 7 2 6 3 5 4 4 5 10 6 11 7 9 8 2 9 1 10 3 11
REMARK H PARENT
REMARK Flexibility Score: inf
ROOT
ATOM      1  C   UNL     1      -0.908 -29.335  -7.130  1.00  0.00     0.008 C 
ATOM      2  C   UNL     1      -0.567 -27.885  -7.492  1.00  0.00    -0.007 C 
ATOM      3  C   UNL     1      -1.794 -26.972  -7.289  1.00  0.00     0.004 C 
ATOM      4  C   UNL     1      -1.482 -25.511  -7.663  1.00  0.00     0.012 C 
ATOM      5  C   UNL     1      -0.986 -25.384  -9.124  1.00  0.00     0.058 C 
ATOM      6  C   UNL     1       0.169 -26.356  -9.297  1.00  0.00     0.136 C 
ATOM      7  O   UNL     1       1.284 -25.984  -9.637  1.00  0.00    -0.299 OA
ATOM      8  C   UNL     1      -0.058 -27.797  -8.941  1.00  0.00     0.079 C 
ENDROOT
BRANCH   5   9
ATOM      9  C   UNL     1      -0.614 -23.919  -9.526  1.00  0.00    -0.007 C 
ATOM     10  C   UNL     1      -1.001 -23.637 -10.990  1.00  0.00     0.008 C 
ATOM     11  C   UNL     1      -1.291 -22.865  -8.631  1.00  0.00     0.008 C 
ENDBRANCH   5   9
TORSDOF 1
ENDMDL
MODEL 3
REMARK VINA RESULT:    -4.224      2.194      3.161
REMARK INTER + INTRA:          -4.637
REMARK INTER:                  -4.478
REMARK INTRA:                  -0.159
REMARK UNBOUND:                -0.166
REMARK SMILES CC(C)[C@@H]1CC[C@@H](C)CC1=O
REMARK SMILES IDX 8 1 7 2 6 3 5 4 4 5 10 6 11 7 9 8 2 9 1 10 3 11
REMARK H PARENT
REMARK Flexibility Score: inf
ROOT
ATOM      1  C   UNL     1      -0.990 -22.912  -9.861  1.00  0.00     0.008 C 
ATOM      2  C   UNL     1      -0.639 -24.131  -9.000  1.00  0.00    -0.007 C 
ATOM      3  C   UNL     1       0.074 -25.206  -9.846  1.00  0.00     0.004 C 
ATOM      4  C   UNL     1       0.422 -26.450  -9.009  1.00  0.00     0.012 C 
ATOM      5  C   UNL     1      -0.833 -27.068  -8.347  1.00  0.00     0.058 C 
ATOM      6  C   UNL     1      -1.543 -25.957  -7.591  1.00  0.00     0.136 C 
ATOM      7  O   UNL     1      -1.750 -26.023  -6.387  1.00  0.00    -0.299 OA
ATOM      8  C   UNL     1      -1.904 -24.708  -8.342  1.00  0.00     0.079 C 
ENDROOT
BRANCH   5   9
ATOM      9  C   UNL     1      -0.513 -28.308  -7.448  1.00  0.00    -0.007 C 
ATOM     10  C   UNL     1      -1.592 -29.395  -7.607  1.00  0.00     0.008 C 
ATOM     11  C   UNL     1       0.858 -28.933  -7.763  1.00  0.00     0.008 C 
ENDBRANCH   5   9
TORSDOF 1
ENDMDL
MODEL 4
REMARK VINA RESULT:    -4.114      2.479      3.674
REMARK INTER + INTRA:          -4.520
REMARK INTER:                  -4.513
REMARK INTRA:                  -0.007
REMARK UNBOUND:                -0.166
REMARK SMILES CC(C)[C@@H]1CC[C@@H](C)CC1=O
REMARK SMILES IDX 8 1 7 2 6 3 5 4 4 5 10 6 11 7 9 8 2 9 1 10 3 11
REMARK H PARENT
REMARK Flexibility Score: inf
ROOT
ATOM      1  C   UNL     1       0.207 -22.865 -10.205  1.00  0.00     0.008 C 
ATOM      2  C   UNL     1      -0.301 -24.276  -9.889  1.00  0.00    -0.007 C 
ATOM      3  C   UNL     1      -1.131 -24.275  -8.588  1.00  0.00     0.004 C 
ATOM      4  C   UNL     1      -1.641 -25.685  -8.238  1.00  0.00     0.012 C 
ATOM      5  C   UNL     1      -0.478 -26.700  -8.104  1.00  0.00     0.058 C 
ATOM      6  C   UNL     1       0.353 -26.609  -9.373  1.00  0.00     0.136 C 
ATOM      7  O   UNL     1       0.536 -27.576 -10.098  1.00  0.00    -0.299 OA
ATOM      8  C   UNL     1       0.875 -25.262  -9.783  1.00  0.00     0.079 C 
ENDROOT
BRANCH   5   9
ATOM      9  C   UNL     1      -0.960 -28.156  -7.795  1.00  0.00    -0.007 C 
ATOM     10  C   UNL     1       0.194 -29.009  -7.239  1.00  0.00     0.008 C 
ATOM     11  C   UNL     1      -2.125 -28.196  -6.789  1.00  0.00     0.008 C 
ENDBRANCH   5   9
TORSDOF 1
ENDMDL
MODEL 5
REMARK VINA RESULT:    -4.084      2.929      4.300
REMARK INTER + INTRA:          -4.488
REMARK INTER:                  -4.343
REMARK INTRA:                  -0.145
REMARK UNBOUND:                -0.166
REMARK SMILES CC(C)[C@@H]1CC[C@@H](C)CC1=O
REMARK SMILES IDX 8 1 7 2 6 3 5 4 4 5 10 6 11 7 9 8 2 9 1 10 3 11
REMARK H PARENT
REMARK Flexibility Score: inf
ROOT
ATOM      1  C   UNL     1      -2.125 -23.363  -7.180  1.00  0.00     0.008 C 
ATOM      2  C   UNL     1      -2.060 -24.816  -7.662  1.00  0.00    -0.007 C 
ATOM      3  C   UNL     1      -1.944 -25.781  -6.464  1.00  0.00     0.004 C 
ATOM      4  C   UNL     1      -1.860 -27.249  -6.922  1.00  0.00     0.012 C 
ATOM      5  C   UNL     1      -0.670 -27.483  -7.885  1.00  0.00     0.058 C 
ATOM      6  C   UNL     1      -0.784 -26.461  -9.005  1.00  0.00     0.136 C 
ATOM      7  O   UNL     1      -0.877 -26.794 -10.178  1.00  0.00    -0.299 OA
ATOM      8  C   UNL     1      -0.882 -25.010  -8.632  1.00  0.00     0.079 C 
ENDROOT
BRANCH   5   9
ATOM      9  C   UNL     1      -0.579 -28.954  -8.410  1.00  0.00    -0.007 C 
ATOM     10  C   UNL     1       0.888 -29.376  -8.607  1.00  0.00     0.008 C 
ATOM     11  C   UNL     1      -1.256 -29.965  -7.467  1.00  0.00     0.008 C 
ENDBRANCH   5   9
TORSDOF 1
ENDMDL
MODEL 6
REMARK VINA RESULT:    -4.034      1.367      4.167
REMARK INTER + INTRA:          -4.436
REMARK INTER:                  -4.264
REMARK INTRA:                  -0.172
REMARK UNBOUND:                -0.166
REMARK SMILES CC(C)[C@@H]1CC[C@@H](C)CC1=O
REMARK SMILES IDX 8 1 7 2 6 3 5 4 4 5 10 6 11 7 9 8 2 9 1 10 3 11
REMARK H PARENT
REMARK Flexibility Score: inf
ROOT
ATOM      1  C   UNL     1      -1.346 -26.378  -8.317  1.00  0.00     0.008 C 
ATOM      2  C   UNL     1      -0.981 -25.116  -9.106  1.00  0.00    -0.007 C 
ATOM      3  C   UNL     1       0.531 -25.088  -9.415  1.00  0.00     0.004 C 
ATOM      4  C   UNL     1       0.928 -23.821 -10.194  1.00  0.00     0.012 C 
ATOM      5  C   UNL     1       0.538 -22.532  -9.431  1.00  0.00     0.058 C 
ATOM      6  C   UNL     1      -0.937 -22.639  -9.080  1.00  0.00     0.136 C 
ATOM      7  O   UNL     1      -1.754 -21.812  -9.458  1.00  0.00    -0.299 OA
ATOM      8  C   UNL     1      -1.399 -23.855  -8.330  1.00  0.00     0.079 C 
ENDROOT
BRANCH   5   9
ATOM      9  C   UNL     1       0.883 -21.221 -10.212  1.00  0.00    -0.007 C 
ATOM     10  C   UNL     1       1.944 -20.396  -9.460  1.00  0.00     0.008 C 
ATOM     11  C   UNL     1       1.399 -21.496 -11.636  1.00  0.00     0.008 C 
ENDBRANCH   5   9
TORSDOF 1
ENDMDL
MODEL 7
REMARK VINA RESULT:    -4.024      1.803      2.481
REMARK INTER + INTRA:          -4.425
REMARK INTER:                  -4.254
REMARK INTRA:                  -0.171
REMARK UNBOUND:                -0.166
REMARK SMILES CC(C)[C@@H]1CC[C@@H](C)CC1=O
REMARK SMILES IDX 8 1 7 2 6 3 5 4 4 5 10 6 11 7 9 8 2 9 1 10 3 11
REMARK H PARENT
REMARK Flexibility Score: inf
ROOT
ATOM      1  C   UNL     1       0.961 -20.820 -11.506  1.00  0.00     0.008 C 
ATOM      2  C   UNL     1       0.593 -22.283 -11.235  1.00  0.00    -0.007 C 
ATOM      3  C   UNL     1      -0.935 -22.437 -11.077  1.00  0.00     0.004 C 
ATOM      4  C   UNL     1      -1.331 -23.897 -10.786  1.00  0.00     0.012 C 
ATOM      5  C   UNL     1      -0.628 -24.442  -9.520  1.00  0.00     0.058 C 
ATOM      6  C   UNL     1       0.863 -24.198  -9.687  1.00  0.00     0.136 C 
ATOM      7  O   UNL     1       1.675 -25.113  -9.667  1.00  0.00    -0.299 OA
ATOM      8  C   UNL     1       1.323 -22.800  -9.984  1.00  0.00     0.079 C 
ENDROOT
BRANCH   5   9
ATOM      9  C   UNL     1      -0.969 -25.939  -9.218  1.00  0.00    -0.007 C 
ATOM     10  C   UNL     1      -1.718 -26.072  -7.880  1.00  0.00     0.008 C 
ATOM     11  C   UNL     1      -1.823 -26.589 -10.322  1.00  0.00     0.008 C 
ENDBRANCH   5   9
TORSDOF 1
ENDMDL
MODEL 8
REMARK VINA RESULT:    -3.965      2.158      3.281
REMARK INTER + INTRA:          -4.363
REMARK INTER:                  -4.188
REMARK INTRA:                  -0.175
REMARK UNBOUND:                -0.166
REMARK SMILES CC(C)[C@@H]1CC[C@@H](C)CC1=O
REMARK SMILES IDX 8 1 7 2 6 3 5 4 4 5 10 6 11 7 9 8 2 9 1 10 3 11
REMARK H PARENT
REMARK Flexibility Score: inf
ROOT
ATOM      1  C   UNL     1      -1.058 -18.303  -8.233  1.00  0.00     0.008 C 
ATOM      2  C   UNL     1      -0.964 -19.591  -9.058  1.00  0.00    -0.007 C 
ATOM      3  C   UNL     1      -1.367 -20.813  -8.206  1.00  0.00     0.004 C 
ATOM      4  C   UNL     1      -1.264 -22.124  -9.007  1.00  0.00     0.012 C 
ATOM      5  C   UNL     1       0.160 -22.342  -9.573  1.00  0.00     0.058 C 
ATOM      6  C   UNL     1       0.543 -21.085 -10.337  1.00  0.00     0.136 C 
ATOM      7  O   UNL     1       0.837 -21.114 -11.524  1.00  0.00    -0.299 OA
ATOM      8  C   UNL     1       0.457 -19.768  -9.622  1.00  0.00     0.079 C 
ENDROOT
BRANCH   5   9
ATOM      9  C   UNL     1       0.292 -23.642 -10.434  1.00  0.00    -0.007 C 
ATOM     10  C   UNL     1       1.016 -24.750  -9.647  1.00  0.00     0.008 C 
ATOM     11  C   UNL     1      -1.070 -24.186 -10.901  1.00  0.00     0.008 C 
ENDBRANCH   5   9
TORSDOF 1
ENDMDL
MODEL 9
REMARK VINA RESULT:    -3.946     14.920     15.979
REMARK INTER + INTRA:          -4.342
REMARK INTER:                  -4.174
REMARK INTRA:                  -0.168
REMARK UNBOUND:                -0.166
REMARK SMILES CC(C)[C@@H]1CC[C@@H](C)CC1=O
REMARK SMILES IDX 8 1 7 2 6 3 5 4 4 5 10 6 11 7 9 8 2 9 1 10 3 11
REMARK H PARENT
REMARK Flexibility Score: inf
ROOT
ATOM      1  C   UNL     1      15.640 -20.750  -6.170  1.00  0.00     0.008 C 
ATOM      2  C   UNL     1      15.220 -19.461  -6.884  1.00  0.00    -0.007 C 
ATOM      3  C   UNL     1      13.697 -19.446  -7.127  1.00  0.00     0.004 C 
ATOM      4  C   UNL     1      13.250 -18.167  -7.858  1.00  0.00     0.012 C 
ATOM      5  C   UNL     1      13.986 -17.992  -9.209  1.00  0.00     0.058 C 
ATOM      6  C   UNL     1      15.477 -18.091  -8.932  1.00  0.00     0.136 C 
ATOM      7  O   UNL     1      16.248 -17.182  -9.205  1.00  0.00    -0.299 OA
ATOM      8  C   UNL     1      15.983 -19.306  -8.211  1.00  0.00     0.079 C 
ENDROOT
BRANCH   5   9
ATOM      9  C   UNL     1      13.593 -16.677  -9.962  1.00  0.00    -0.007 C 
ATOM     10  C   UNL     1      13.096 -16.988 -11.386  1.00  0.00     0.008 C 
ATOM     11  C   UNL     1      12.503 -15.875  -9.229  1.00  0.00     0.008 C 
ENDBRANCH   5   9
TORSDOF 1
ENDMDL
