MODEL 1
REMARK VINA RESULT:     1.131      0.000      0.000
REMARK INTER + INTRA:           0.989
REMARK INTER:                   1.230
REMARK INTRA:                  -0.241
REMARK UNBOUND:                -0.241
REMARK SMILES O=C([O-])c1ccccc1O
REMARK SMILES IDX 4 1 9 2 5 3 8 4 6 5 7 6 2 7 1 8 3 9 10 10
REMARK H PARENT 10 11
REMARK Flexibility Score: inf
ROOT
ATOM      1  C   UNL     1     -15.173 -14.990  14.698  1.00  0.00     0.039 A 
ATOM      2  C   UNL     1     -15.764 -15.772  13.677  1.00  0.00     0.124 A 
ATOM      3  C   UNL     1     -15.729 -13.729  14.994  1.00  0.00     0.014 A 
ATOM      4  C   UNL     1     -16.883 -15.287  12.981  1.00  0.00     0.047 A 
ATOM      5  C   UNL     1     -16.842 -13.258  14.293  1.00  0.00     0.001 A 
ATOM      6  C   UNL     1     -17.418 -14.036  13.289  1.00  0.00     0.004 A 
ENDROOT
BRANCH   1   7
ATOM      7  C   UNL     1     -13.989 -15.464  15.460  1.00  0.00     0.075 C 
ATOM      8  O   UNL     1     -14.045 -16.534  16.122  1.00  0.00    -0.545 OA
ATOM      9  O   UNL     1     -12.800 -14.745  15.460  1.00  0.00    -0.545 OA
ENDBRANCH   1   7
BRANCH   2  10
ATOM     10  O   UNL     1     -15.248 -17.026  13.350  1.00  0.00    -0.507 OA
ATOM     11  H   UNL     1     -15.548 -17.525  12.521  1.00  0.00     0.293 HD
ENDBRANCH   2  10
TORSDOF 2
ENDMDL
MODEL 2
REMARK VINA RESULT:     1.326      2.612      3.721
REMARK INTER + INTRA:           1.201
REMARK INTER:                   1.444
REMARK INTRA:                  -0.243
REMARK UNBOUND:                -0.241
REMARK SMILES O=C([O-])c1ccccc1O
REMARK SMILES IDX 4 1 9 2 5 3 8 4 6 5 7 6 2 7 1 8 3 9 10 10
REMARK H PARENT 10 11
REMARK Flexibility Score: inf
ROOT
ATOM      1  C   UNL     1     -16.514 -14.460  13.635  1.00  0.00     0.039 A 
ATOM      2  C   UNL     1     -15.898 -15.435  14.455  1.00  0.00     0.124 A 
ATOM      3  C   UNL     1     -16.259 -14.478  12.250  1.00  0.00     0.014 A 
ATOM      4  C   UNL     1     -15.049 -16.395  13.883  1.00  0.00     0.047 A 
ATOM      5  C   UNL     1     -15.411 -15.439  11.694  1.00  0.00     0.001 A 
ATOM      6  C   UNL     1     -14.808 -16.396  12.509  1.00  0.00     0.004 A 
ENDROOT
BRANCH   1   7
ATOM      7  C   UNL     1     -17.420 -13.425  14.198  1.00  0.00     0.075 C 
ATOM      8  O   UNL     1     -17.188 -12.202  14.004  1.00  0.00    -0.545 OA
ATOM      9  O   UNL     1     -18.537 -13.778  14.947  1.00  0.00    -0.545 OA
ENDBRANCH   1   7
BRANCH   2  10
ATOM     10  O   UNL     1     -16.123 -15.456  15.832  1.00  0.00    -0.507 OA
ATOM     11  H   UNL     1     -16.689 -16.173  16.268  1.00  0.00     0.293 HD
ENDBRANCH   2  10
TORSDOF 2
ENDMDL
MODEL 3
REMARK VINA RESULT:     1.671      2.468      3.614
REMARK INTER + INTRA:           1.577
REMARK INTER:                   1.824
REMARK INTRA:                  -0.247
REMARK UNBOUND:                -0.241
REMARK SMILES O=C([O-])c1ccccc1O
REMARK SMILES IDX 4 1 9 2 5 3 8 4 6 5 7 6 2 7 1 8 3 9 10 10
REMARK H PARENT 10 11
REMARK Flexibility Score: inf
ROOT
ATOM      1  C   UNL     1     -16.166 -14.199  14.266  1.00  0.00     0.039 A 
ATOM      2  C   UNL     1     -16.089 -15.423  13.560  1.00  0.00     0.124 A 
ATOM      3  C   UNL     1     -15.164 -13.895  15.209  1.00  0.00     0.014 A 
ATOM      4  C   UNL     1     -15.028 -16.308  13.808  1.00  0.00     0.047 A 
ATOM      5  C   UNL     1     -14.114 -14.785  15.445  1.00  0.00     0.001 A 
ATOM      6  C   UNL     1     -14.046 -15.989  14.745  1.00  0.00     0.004 A 
ENDROOT
BRANCH   1   7
ATOM      7  C   UNL     1     -17.272 -13.232  14.036  1.00  0.00     0.075 C 
ATOM      8  O   UNL     1     -17.018 -12.035  13.739  1.00  0.00    -0.545 OA
ATOM      9  O   UNL     1     -18.601 -13.623  14.143  1.00  0.00    -0.545 OA
ENDBRANCH   1   7
BRANCH   2  10
ATOM     10  O   UNL     1     -17.059 -15.766  12.617  1.00  0.00    -0.507 OA
ATOM     11  H   UNL     1     -17.685 -16.549  12.758  1.00  0.00     0.293 HD
ENDBRANCH   2  10
TORSDOF 2
ENDMDL
MODEL 4
REMARK VINA RESULT:     1.756      1.388      2.273
REMARK INTER + INTRA:           1.670
REMARK INTER:                   1.919
REMARK INTRA:                  -0.249
REMARK UNBOUND:                -0.241
REMARK SMILES O=C([O-])c1ccccc1O
REMARK SMILES IDX 4 1 9 2 5 3 8 4 6 5 7 6 2 7 1 8 3 9 10 10
REMARK H PARENT 10 11
REMARK Flexibility Score: inf
ROOT
ATOM      1  C   UNL     1     -14.634 -15.065  14.795  1.00  0.00     0.039 A 
ATOM      2  C   UNL     1     -15.444 -13.909  14.681  1.00  0.00     0.124 A 
ATOM      3  C   UNL     1     -14.996 -16.220  14.075  1.00  0.00     0.014 A 
ATOM      4  C   UNL     1     -16.584 -13.931  13.863  1.00  0.00     0.047 A 
ATOM      5  C   UNL     1     -16.135 -16.228  13.264  1.00  0.00     0.001 A 
ATOM      6  C   UNL     1     -16.926 -15.086  13.158  1.00  0.00     0.004 A 
ENDROOT
BRANCH   1   7
ATOM      7  C   UNL     1     -13.418 -15.086  15.649  1.00  0.00     0.075 C 
ATOM      8  O   UNL     1     -13.132 -16.111  16.323  1.00  0.00    -0.545 OA
ATOM      9  O   UNL     1     -12.575 -13.984  15.725  1.00  0.00    -0.545 OA
ENDBRANCH   1   7
BRANCH   2  10
ATOM     10  O   UNL     1     -15.124 -12.742  15.375  1.00  0.00    -0.507 OA
ATOM     11  H   UNL     1     -15.602 -11.867  15.194  1.00  0.00     0.293 HD
ENDBRANCH   2  10
TORSDOF 2
ENDMDL
