MODEL 1
REMARK VINA RESULT:    -4.782      0.000      0.000
REMARK INTER + INTRA:          -8.776
REMARK INTER:                  -7.298
REMARK INTRA:                  -1.478
REMARK UNBOUND:                -1.478
REMARK SMILES CCCCCCCCCC=CC(=O)[O-]
REMARK SMILES IDX 7 1 8 2 9 3 10 4 11 5 12 6 13 7 14 8 6 9 5 10 4 11 3 12 2 13
REMARK SMILES IDX 1 14
REMARK H PARENT
REMARK Flexibility Score: inf
ROOT
ATOM      1  C   UNL     1     -13.125 -28.194 -32.235  1.00  0.00     0.000 C 
ENDROOT
BRANCH   1   2
ATOM      2  C   UNL     1     -12.172 -28.585 -33.378  1.00  0.00     0.004 C 
BRANCH   2   3
ATOM      3  C   UNL     1     -12.453 -27.811 -34.676  1.00  0.00     0.027 C 
BRANCH   3   4
ATOM      4  C   UNL     1     -11.256 -27.002 -35.097  1.00  0.00    -0.025 C 
ATOM      5  C   UNL     1     -11.276 -25.731 -35.530  1.00  0.00     0.020 C 
BRANCH   5   6
ATOM      6  C   UNL     1     -12.471 -24.878 -35.709  1.00  0.00     0.064 C 
ATOM      7  O   UNL     1     -12.678 -23.859 -35.000  1.00  0.00    -0.545 OA
ATOM      8  O   UNL     1     -13.402 -25.222 -36.680  1.00  0.00    -0.545 OA
ENDBRANCH   5   6
ENDBRANCH   3   4
ENDBRANCH   2   3
ENDBRANCH   1   2
BRANCH   1   9
ATOM      9  C   UNL     1     -12.629 -28.558 -30.820  1.00  0.00     0.000 C 
BRANCH   9  10
ATOM     10  C   UNL     1     -11.157 -28.211 -30.536  1.00  0.00     0.000 C 
BRANCH  10  11
ATOM     11  C   UNL     1     -10.936 -26.715 -30.269  1.00  0.00    -0.000 C 
BRANCH  11  12
ATOM     12  C   UNL     1     -10.098 -26.076 -31.386  1.00  0.00    -0.000 C 
BRANCH  12  13
ATOM     13  C   UNL     1     -10.792 -24.864 -32.025  1.00  0.00    -0.003 C 
ATOM     14  C   UNL     1     -12.273 -24.770 -31.661  1.00  0.00     0.004 C 
ENDBRANCH  12  13
ENDBRANCH  11  12
ENDBRANCH  10  11
ENDBRANCH   9  10
ENDBRANCH   1   9
TORSDOF 9
ENDMDL
MODEL 2
REMARK VINA RESULT:    -4.615      1.221      1.934
REMARK INTER + INTRA:          -8.521
REMARK INTER:                  -6.968
REMARK INTRA:                  -1.552
REMARK UNBOUND:                -1.478
REMARK SMILES CCCCCCCCCC=CC(=O)[O-]
REMARK SMILES IDX 7 1 8 2 9 3 10 4 11 5 12 6 13 7 14 8 6 9 5 10 4 11 3 12 2 13
REMARK SMILES IDX 1 14
REMARK H PARENT
REMARK Flexibility Score: inf
ROOT
ATOM      1  C   UNL     1     -12.691 -27.726 -30.261  1.00  0.00     0.000 C 
ENDROOT
BRANCH   1   2
ATOM      2  C   UNL     1     -13.002 -28.680 -31.429  1.00  0.00     0.004 C 
BRANCH   2   3
ATOM      3  C   UNL     1     -13.393 -27.934 -32.715  1.00  0.00     0.027 C 
BRANCH   3   4
ATOM      4  C   UNL     1     -12.456 -28.269 -33.844  1.00  0.00    -0.025 C 
ATOM      5  C   UNL     1     -12.472 -27.721 -35.071  1.00  0.00     0.020 C 
BRANCH   5   6
ATOM      6  C   UNL     1     -13.422 -26.705 -35.572  1.00  0.00     0.064 C 
ATOM      7  O   UNL     1     -13.080 -25.510 -35.771  1.00  0.00    -0.545 OA
ATOM      8  O   UNL     1     -14.738 -27.078 -35.812  1.00  0.00    -0.545 OA
ENDBRANCH   5   6
ENDBRANCH   3   4
ENDBRANCH   2   3
ENDBRANCH   1   2
BRANCH   1   9
ATOM      9  C   UNL     1     -11.200 -27.633 -29.875  1.00  0.00     0.000 C 
BRANCH   9  10
ATOM     10  C   UNL     1     -10.273 -27.098 -30.980  1.00  0.00     0.000 C 
BRANCH  10  11
ATOM     11  C   UNL     1     -10.337 -25.570 -31.127  1.00  0.00    -0.000 C 
BRANCH  11  12
ATOM     12  C   UNL     1     -10.964 -25.175 -32.472  1.00  0.00    -0.000 C 
BRANCH  12  13
ATOM     13  C   UNL     1     -12.275 -24.391 -32.306  1.00  0.00    -0.003 C 
ATOM     14  C   UNL     1     -12.618 -24.116 -30.842  1.00  0.00     0.004 C 
ENDBRANCH  12  13
ENDBRANCH  11  12
ENDBRANCH  10  11
ENDBRANCH   9  10
ENDBRANCH   1   9
TORSDOF 9
ENDMDL
MODEL 3
REMARK VINA RESULT:    -4.439      2.607      4.385
REMARK INTER + INTRA:          -8.253
REMARK INTER:                  -6.695
REMARK INTRA:                  -1.558
REMARK UNBOUND:                -1.478
REMARK SMILES CCCCCCCCCC=CC(=O)[O-]
REMARK SMILES IDX 7 1 8 2 9 3 10 4 11 5 12 6 13 7 14 8 6 9 5 10 4 11 3 12 2 13
REMARK SMILES IDX 1 14
REMARK H PARENT
REMARK Flexibility Score: inf
ROOT
ATOM      1  C   UNL     1     -12.815 -27.378 -29.960  1.00  0.00     0.000 C 
ENDROOT
BRANCH   1   2
ATOM      2  C   UNL     1     -13.725 -26.277 -30.535  1.00  0.00     0.004 C 
BRANCH   2   3
ATOM      3  C   UNL     1     -13.040 -24.902 -30.575  1.00  0.00     0.027 C 
BRANCH   3   4
ATOM      4  C   UNL     1     -12.442 -24.631 -31.929  1.00  0.00    -0.025 C 
ATOM      5  C   UNL     1     -11.150 -24.781 -32.265  1.00  0.00     0.020 C 
BRANCH   5   6
ATOM      6  C   UNL     1     -10.051 -25.211 -31.375  1.00  0.00     0.064 C 
ATOM      7  O   UNL     1      -9.736 -26.422 -31.238  1.00  0.00    -0.545 OA
ATOM      8  O   UNL     1      -9.355 -24.250 -30.654  1.00  0.00    -0.545 OA
ENDBRANCH   5   6
ENDBRANCH   3   4
ENDBRANCH   2   3
ENDBRANCH   1   2
BRANCH   1   9
ATOM      9  C   UNL     1     -12.530 -28.554 -30.916  1.00  0.00     0.000 C 
BRANCH   9  10
ATOM     10  C   UNL     1     -12.988 -28.338 -32.370  1.00  0.00     0.000 C 
BRANCH  10  11
ATOM     11  C   UNL     1     -11.828 -28.384 -33.375  1.00  0.00    -0.000 C 
BRANCH  11  12
ATOM     12  C   UNL     1     -12.202 -27.661 -34.677  1.00  0.00    -0.000 C 
BRANCH  12  13
ATOM     13  C   UNL     1     -13.581 -26.989 -34.604  1.00  0.00    -0.003 C 
ATOM     14  C   UNL     1     -14.604 -27.634 -35.539  1.00  0.00     0.004 C 
ENDBRANCH  12  13
ENDBRANCH  11  12
ENDBRANCH  10  11
ENDBRANCH   9  10
ENDBRANCH   1   9
TORSDOF 9
ENDMDL
MODEL 4
REMARK VINA RESULT:    -4.333      1.537      4.032
REMARK INTER + INTRA:          -8.091
REMARK INTER:                  -6.939
REMARK INTRA:                  -1.152
REMARK UNBOUND:                -1.478
REMARK SMILES CCCCCCCCCC=CC(=O)[O-]
REMARK SMILES IDX 7 1 8 2 9 3 10 4 11 5 12 6 13 7 14 8 6 9 5 10 4 11 3 12 2 13
REMARK SMILES IDX 1 14
REMARK H PARENT
REMARK Flexibility Score: inf
ROOT
ATOM      1  C   UNL     1     -13.025 -28.526 -31.196  1.00  0.00     0.000 C 
ENDROOT
BRANCH   1   2
ATOM      2  C   UNL     1     -11.617 -28.503 -30.575  1.00  0.00     0.004 C 
BRANCH   2   3
ATOM      3  C   UNL     1     -11.212 -27.107 -30.074  1.00  0.00     0.027 C 
BRANCH   3   4
ATOM      4  C   UNL     1     -10.222 -26.461 -31.005  1.00  0.00    -0.025 C 
ATOM      5  C   UNL     1     -10.385 -25.286 -31.637  1.00  0.00     0.020 C 
BRANCH   5   6
ATOM      6  C   UNL     1     -11.571 -24.405 -31.571  1.00  0.00     0.064 C 
ATOM      7  O   UNL     1     -11.675 -23.487 -30.717  1.00  0.00    -0.545 OA
ATOM      8  O   UNL     1     -12.609 -24.610 -32.469  1.00  0.00    -0.545 OA
ENDBRANCH   5   6
ENDBRANCH   3   4
ENDBRANCH   2   3
ENDBRANCH   1   2
BRANCH   1   9
ATOM      9  C   UNL     1     -13.094 -28.073 -32.669  1.00  0.00     0.000 C 
BRANCH   9  10
ATOM     10  C   UNL     1     -11.904 -28.510 -33.542  1.00  0.00     0.000 C 
BRANCH  10  11
ATOM     11  C   UNL     1     -11.857 -27.785 -34.896  1.00  0.00    -0.000 C 
BRANCH  11  12
ATOM     12  C   UNL     1     -13.270 -27.405 -35.363  1.00  0.00    -0.000 C 
BRANCH  12  13
ATOM     13  C   UNL     1     -13.368 -25.941 -35.816  1.00  0.00    -0.003 C 
ATOM     14  C   UNL     1     -12.014 -25.233 -35.826  1.00  0.00     0.004 C 
ENDBRANCH  12  13
ENDBRANCH  11  12
ENDBRANCH  10  11
ENDBRANCH   9  10
ENDBRANCH   1   9
TORSDOF 9
ENDMDL
MODEL 5
REMARK VINA RESULT:    -4.303      2.251      3.950
REMARK INTER + INTRA:          -8.045
REMARK INTER:                  -6.896
REMARK INTRA:                  -1.148
REMARK UNBOUND:                -1.478
REMARK SMILES CCCCCCCCCC=CC(=O)[O-]
REMARK SMILES IDX 7 1 8 2 9 3 10 4 11 5 12 6 13 7 14 8 6 9 5 10 4 11 3 12 2 13
REMARK SMILES IDX 1 14
REMARK H PARENT
REMARK Flexibility Score: inf
ROOT
ATOM      1  C   UNL     1     -13.770 -26.216 -35.903  1.00  0.00     0.000 C 
ENDROOT
BRANCH   1   2
ATOM      2  C   UNL     1     -12.467 -25.408 -35.768  1.00  0.00     0.004 C 
BRANCH   2   3
ATOM      3  C   UNL     1     -12.692 -23.893 -35.908  1.00  0.00     0.027 C 
BRANCH   3   4
ATOM      4  C   UNL     1     -12.747 -23.225 -34.560  1.00  0.00    -0.025 C 
ATOM      5  C   UNL     1     -12.699 -21.902 -34.334  1.00  0.00     0.020 C 
BRANCH   5   6
ATOM      6  C   UNL     1     -12.555 -20.837 -35.350  1.00  0.00     0.064 C 
ATOM      7  O   UNL     1     -13.550 -20.302 -35.904  1.00  0.00    -0.545 OA
ATOM      8  O   UNL     1     -11.280 -20.427 -35.716  1.00  0.00    -0.545 OA
ENDBRANCH   5   6
ENDBRANCH   3   4
ENDBRANCH   2   3
ENDBRANCH   1   2
BRANCH   1   9
ATOM      9  C   UNL     1     -13.801 -27.539 -35.110  1.00  0.00     0.000 C 
BRANCH   9  10
ATOM     10  C   UNL     1     -12.422 -28.162 -34.827  1.00  0.00     0.000 C 
BRANCH  10  11
ATOM     11  C   UNL     1     -12.099 -28.241 -33.327  1.00  0.00    -0.000 C 
BRANCH  11  12
ATOM     12  C   UNL     1     -13.118 -27.440 -32.504  1.00  0.00    -0.000 C 
BRANCH  12  13
ATOM     13  C   UNL     1     -12.602 -26.045 -32.121  1.00  0.00    -0.003 C 
ATOM     14  C   UNL     1     -11.082 -25.928 -32.219  1.00  0.00     0.004 C 
ENDBRANCH  12  13
ENDBRANCH  11  12
ENDBRANCH  10  11
ENDBRANCH   9  10
ENDBRANCH   1   9
TORSDOF 9
ENDMDL
MODEL 6
REMARK VINA RESULT:    -4.225      1.836      3.637
REMARK INTER + INTRA:          -7.926
REMARK INTER:                  -6.705
REMARK INTRA:                  -1.221
REMARK UNBOUND:                -1.478
REMARK SMILES CCCCCCCCCC=CC(=O)[O-]
REMARK SMILES IDX 7 1 8 2 9 3 10 4 11 5 12 6 13 7 14 8 6 9 5 10 4 11 3 12 2 13
REMARK SMILES IDX 1 14
REMARK H PARENT
REMARK Flexibility Score: inf
ROOT
ATOM      1  C   UNL     1     -11.221 -25.933 -31.811  1.00  0.00     0.000 C 
ENDROOT
BRANCH   1   2
ATOM      2  C   UNL     1     -10.960 -24.458 -32.167  1.00  0.00     0.004 C 
BRANCH   2   3
ATOM      3  C   UNL     1     -12.179 -23.778 -32.811  1.00  0.00     0.027 C 
BRANCH   3   4
ATOM      4  C   UNL     1     -12.401 -24.276 -34.214  1.00  0.00    -0.025 C 
ATOM      5  C   UNL     1     -12.604 -23.509 -35.299  1.00  0.00     0.020 C 
BRANCH   5   6
ATOM      6  C   UNL     1     -12.680 -22.033 -35.336  1.00  0.00     0.064 C 
ATOM      7  O   UNL     1     -11.813 -21.333 -35.920  1.00  0.00    -0.545 OA
ATOM      8  O   UNL     1     -13.733 -21.399 -34.690  1.00  0.00    -0.545 OA
ENDBRANCH   5   6
ENDBRANCH   3   4
ENDBRANCH   2   3
ENDBRANCH   1   2
BRANCH   1   9
ATOM      9  C   UNL     1     -12.516 -26.191 -31.014  1.00  0.00     0.000 C 
BRANCH   9  10
ATOM     10  C   UNL     1     -13.115 -27.599 -31.181  1.00  0.00     0.000 C 
BRANCH  10  11
ATOM     11  C   UNL     1     -12.763 -28.242 -32.531  1.00  0.00    -0.000 C 
BRANCH  11  12
ATOM     12  C   UNL     1     -13.658 -27.691 -33.650  1.00  0.00    -0.000 C 
BRANCH  12  13
ATOM     13  C   UNL     1     -13.029 -27.852 -35.042  1.00  0.00    -0.003 C 
ATOM     14  C   UNL     1     -11.505 -27.753 -35.018  1.00  0.00     0.004 C 
ENDBRANCH  12  13
ENDBRANCH  11  12
ENDBRANCH  10  11
ENDBRANCH   9  10
ENDBRANCH   1   9
TORSDOF 9
ENDMDL
MODEL 7
REMARK VINA RESULT:    -4.134      2.541      4.874
REMARK INTER + INTRA:          -7.787
REMARK INTER:                  -6.913
REMARK INTRA:                  -0.874
REMARK UNBOUND:                -1.478
REMARK SMILES CCCCCCCCCC=CC(=O)[O-]
REMARK SMILES IDX 7 1 8 2 9 3 10 4 11 5 12 6 13 7 14 8 6 9 5 10 4 11 3 12 2 13
REMARK SMILES IDX 1 14
REMARK H PARENT
REMARK Flexibility Score: inf
ROOT
ATOM      1  C   UNL     1     -12.237 -26.412 -35.471  1.00  0.00     0.000 C 
ENDROOT
BRANCH   1   2
ATOM      2  C   UNL     1     -12.970 -27.699 -35.052  1.00  0.00     0.004 C 
BRANCH   2   3
ATOM      3  C   UNL     1     -13.806 -27.517 -33.775  1.00  0.00     0.027 C 
BRANCH   3   4
ATOM      4  C   UNL     1     -13.124 -28.136 -32.586  1.00  0.00    -0.025 C 
ATOM      5  C   UNL     1     -12.323 -27.498 -31.716  1.00  0.00     0.020 C 
BRANCH   5   6
ATOM      6  C   UNL     1     -11.925 -26.074 -31.763  1.00  0.00     0.064 C 
ATOM      7  O   UNL     1     -10.831 -25.701 -32.261  1.00  0.00    -0.545 OA
ATOM      8  O   UNL     1     -12.779 -25.121 -31.223  1.00  0.00    -0.545 OA
ENDBRANCH   5   6
ENDBRANCH   3   4
ENDBRANCH   2   3
ENDBRANCH   1   2
BRANCH   1   9
ATOM      9  C   UNL     1     -13.132 -25.330 -36.110  1.00  0.00     0.000 C 
BRANCH   9  10
ATOM     10  C   UNL     1     -12.666 -23.881 -35.883  1.00  0.00     0.000 C 
BRANCH  10  11
ATOM     11  C   UNL     1     -12.652 -23.483 -34.400  1.00  0.00    -0.000 C 
BRANCH  11  12
ATOM     12  C   UNL     1     -12.600 -21.956 -34.243  1.00  0.00    -0.000 C 
BRANCH  12  13
ATOM     13  C   UNL     1     -12.888 -21.217 -35.559  1.00  0.00    -0.003 C 
ATOM     14  C   UNL     1     -11.817 -20.183 -35.903  1.00  0.00     0.004 C 
ENDBRANCH  12  13
ENDBRANCH  11  12
ENDBRANCH  10  11
ENDBRANCH   9  10
ENDBRANCH   1   9
TORSDOF 9
ENDMDL
MODEL 8
REMARK VINA RESULT:    -4.124      2.571      4.791
REMARK INTER + INTRA:          -7.772
REMARK INTER:                  -7.020
REMARK INTRA:                  -0.752
REMARK UNBOUND:                -1.478
REMARK SMILES CCCCCCCCCC=CC(=O)[O-]
REMARK SMILES IDX 7 1 8 2 9 3 10 4 11 5 12 6 13 7 14 8 6 9 5 10 4 11 3 12 2 13
REMARK SMILES IDX 1 14
REMARK H PARENT
REMARK Flexibility Score: inf
ROOT
ATOM      1  C   UNL     1     -11.420 -24.971 -32.599  1.00  0.00     0.000 C 
ENDROOT
BRANCH   1   2
ATOM      2  C   UNL     1     -12.202 -25.820 -31.581  1.00  0.00     0.004 C 
BRANCH   2   3
ATOM      3  C   UNL     1     -13.253 -26.725 -32.246  1.00  0.00     0.027 C 
BRANCH   3   4
ATOM      4  C   UNL     1     -12.719 -28.117 -32.452  1.00  0.00    -0.025 C 
ATOM      5  C   UNL     1     -12.180 -28.594 -33.586  1.00  0.00     0.020 C 
BRANCH   5   6
ATOM      6  C   UNL     1     -12.025 -27.867 -34.865  1.00  0.00     0.064 C 
ATOM      7  O   UNL     1     -10.935 -27.341 -35.207  1.00  0.00    -0.545 OA
ATOM      8  O   UNL     1     -13.124 -27.748 -35.705  1.00  0.00    -0.545 OA
ENDBRANCH   5   6
ENDBRANCH   3   4
ENDBRANCH   2   3
ENDBRANCH   1   2
BRANCH   1   9
ATOM      9  C   UNL     1     -12.257 -23.911 -33.344  1.00  0.00     0.000 C 
BRANCH   9  10
ATOM     10  C   UNL     1     -12.641 -24.281 -34.788  1.00  0.00     0.000 C 
BRANCH  10  11
ATOM     11  C   UNL     1     -12.505 -23.102 -35.763  1.00  0.00    -0.000 C 
BRANCH  11  12
ATOM     12  C   UNL     1     -13.022 -21.803 -35.128  1.00  0.00    -0.000 C 
BRANCH  12  13
ATOM     13  C   UNL     1     -12.447 -20.548 -35.802  1.00  0.00    -0.003 C 
ATOM     14  C   UNL     1     -13.440 -19.387 -35.835  1.00  0.00     0.004 C 
ENDBRANCH  12  13
ENDBRANCH  11  12
ENDBRANCH  10  11
ENDBRANCH   9  10
ENDBRANCH   1   9
TORSDOF 9
ENDMDL
MODEL 9
REMARK VINA RESULT:    -4.103      2.862      5.532
REMARK INTER + INTRA:          -7.739
REMARK INTER:                  -6.461
REMARK INTRA:                  -1.279
REMARK UNBOUND:                -1.478
REMARK SMILES CCCCCCCCCC=CC(=O)[O-]
REMARK SMILES IDX 7 1 8 2 9 3 10 4 11 5 12 6 13 7 14 8 6 9 5 10 4 11 3 12 2 13
REMARK SMILES IDX 1 14
REMARK H PARENT
REMARK Flexibility Score: inf
ROOT
ATOM      1  C   UNL     1     -12.404 -24.422 -33.537  1.00  0.00     0.000 C 
ENDROOT
BRANCH   1   2
ATOM      2  C   UNL     1     -11.125 -25.229 -33.250  1.00  0.00     0.004 C 
BRANCH   2   3
ATOM      3  C   UNL     1     -11.076 -25.772 -31.812  1.00  0.00     0.027 C 
BRANCH   3   4
ATOM      4  C   UNL     1     -12.452 -25.827 -31.205  1.00  0.00    -0.025 C 
ATOM      5  C   UNL     1     -13.021 -26.905 -30.640  1.00  0.00     0.020 C 
BRANCH   5   6
ATOM      6  C   UNL     1     -12.433 -28.256 -30.525  1.00  0.00     0.064 C 
ATOM      7  O   UNL     1     -13.008 -29.278 -30.982  1.00  0.00    -0.545 OA
ATOM      8  O   UNL     1     -11.214 -28.404 -29.875  1.00  0.00    -0.545 OA
ENDBRANCH   5   6
ENDBRANCH   3   4
ENDBRANCH   2   3
ENDBRANCH   1   2
BRANCH   1   9
ATOM      9  C   UNL     1     -12.554 -23.935 -34.993  1.00  0.00     0.000 C 
BRANCH   9  10
ATOM     10  C   UNL     1     -12.610 -25.051 -36.051  1.00  0.00     0.000 C 
BRANCH  10  11
ATOM     11  C   UNL     1     -13.767 -26.035 -35.823  1.00  0.00    -0.000 C 
BRANCH  11  12
ATOM     12  C   UNL     1     -13.257 -27.483 -35.795  1.00  0.00    -0.000 C 
BRANCH  12  13
ATOM     13  C   UNL     1     -13.143 -28.041 -34.368  1.00  0.00    -0.003 C 
ATOM     14  C   UNL     1     -11.761 -28.620 -34.068  1.00  0.00     0.004 C 
ENDBRANCH  12  13
ENDBRANCH  11  12
ENDBRANCH  10  11
ENDBRANCH   9  10
ENDBRANCH   1   9
TORSDOF 9
ENDMDL
