MODEL 1
REMARK VINA RESULT:    -3.309      0.000      0.000
REMARK INTER + INTRA:          -3.905
REMARK INTER:                  -3.889
REMARK INTRA:                  -0.016
REMARK UNBOUND:                -0.016
REMARK SMILES CCCCC(=O)[O-]
REMARK SMILES IDX 4 1 5 2 6 3 7 4 3 5 2 6 1 7
REMARK H PARENT
REMARK Flexibility Score: inf
ROOT
ATOM      1  C   UNL     1       6.604 -29.522 -17.705  1.00  0.00     0.053 C 
ENDROOT
BRANCH   1   2
ATOM      2  C   UNL     1       7.691 -28.737 -17.042  1.00  0.00     0.041 C 
ATOM      3  O   UNL     1       7.830 -28.778 -15.791  1.00  0.00    -0.550 OA
ATOM      4  O   UNL     1       8.585 -28.000 -17.810  1.00  0.00    -0.550 OA
ENDBRANCH   1   2
BRANCH   1   5
ATOM      5  C   UNL     1       7.132 -30.887 -18.163  1.00  0.00     0.006 C 
BRANCH   5   6
ATOM      6  C   UNL     1       6.064 -31.721 -18.886  1.00  0.00    -0.003 C 
ATOM      7  C   UNL     1       6.665 -32.752 -19.842  1.00  0.00     0.004 C 
ENDBRANCH   5   6
ENDBRANCH   1   5
TORSDOF 3
ENDMDL
MODEL 2
REMARK VINA RESULT:    -3.299     14.565     15.799
REMARK INTER + INTRA:          -3.893
REMARK INTER:                  -3.874
REMARK INTRA:                  -0.020
REMARK UNBOUND:                -0.016
REMARK SMILES CCCCC(=O)[O-]
REMARK SMILES IDX 4 1 5 2 6 3 7 4 3 5 2 6 1 7
REMARK H PARENT
REMARK Flexibility Score: inf
ROOT
ATOM      1  C   UNL     1      -1.423 -42.895 -17.999  1.00  0.00     0.053 C 
ENDROOT
BRANCH   1   2
ATOM      2  C   UNL     1      -0.426 -42.057 -18.734  1.00  0.00     0.041 C 
ATOM      3  O   UNL     1       0.780 -42.042 -18.372  1.00  0.00    -0.550 OA
ATOM      4  O   UNL     1      -0.818 -41.330 -19.852  1.00  0.00    -0.550 OA
ENDBRANCH   1   2
BRANCH   1   5
ATOM      5  C   UNL     1      -0.815 -44.257 -17.638  1.00  0.00     0.006 C 
BRANCH   5   6
ATOM      6  C   UNL     1      -1.816 -45.179 -16.926  1.00  0.00    -0.003 C 
ATOM      7  C   UNL     1      -2.686 -45.973 -17.900  1.00  0.00     0.004 C 
ENDBRANCH   5   6
ENDBRANCH   1   5
TORSDOF 3
ENDMDL
MODEL 3
REMARK VINA RESULT:    -3.292      2.687      3.967
REMARK INTER + INTRA:          -3.884
REMARK INTER:                  -3.853
REMARK INTRA:                  -0.031
REMARK UNBOUND:                -0.016
REMARK SMILES CCCCC(=O)[O-]
REMARK SMILES IDX 4 1 5 2 6 3 7 4 3 5 2 6 1 7
REMARK H PARENT
REMARK Flexibility Score: inf
ROOT
ATOM      1  C   UNL     1       7.125 -30.386 -17.988  1.00  0.00     0.053 C 
ENDROOT
BRANCH   1   2
ATOM      2  C   UNL     1       6.341 -31.566 -18.468  1.00  0.00     0.041 C 
ATOM      3  O   UNL     1       5.334 -31.962 -17.826  1.00  0.00    -0.550 OA
ATOM      4  O   UNL     1       6.694 -32.198 -19.655  1.00  0.00    -0.550 OA
ENDBRANCH   1   2
BRANCH   1   5
ATOM      5  C   UNL     1       6.183 -29.237 -17.607  1.00  0.00     0.006 C 
BRANCH   5   6
ATOM      6  C   UNL     1       6.940 -27.954 -17.228  1.00  0.00    -0.003 C 
ATOM      7  C   UNL     1       8.336 -27.887 -17.846  1.00  0.00     0.004 C 
ENDBRANCH   5   6
ENDBRANCH   1   5
TORSDOF 3
ENDMDL
MODEL 4
REMARK VINA RESULT:    -3.268      2.647      3.801
REMARK INTER + INTRA:          -3.856
REMARK INTER:                  -3.751
REMARK INTRA:                  -0.105
REMARK UNBOUND:                -0.016
REMARK SMILES CCCCC(=O)[O-]
REMARK SMILES IDX 4 1 5 2 6 3 7 4 3 5 2 6 1 7
REMARK H PARENT
REMARK Flexibility Score: inf
ROOT
ATOM      1  C   UNL     1       6.441 -30.240 -17.909  1.00  0.00     0.053 C 
ENDROOT
BRANCH   1   2
ATOM      2  C   UNL     1       5.010 -29.911 -18.193  1.00  0.00     0.041 C 
ATOM      3  O   UNL     1       4.137 -30.818 -18.178  1.00  0.00    -0.550 OA
ATOM      4  O   UNL     1       4.632 -28.594 -18.425  1.00  0.00    -0.550 OA
ENDBRANCH   1   2
BRANCH   1   5
ATOM      5  C   UNL     1       6.784 -29.923 -16.448  1.00  0.00     0.006 C 
BRANCH   5   6
ATOM      6  C   UNL     1       7.611 -28.637 -16.302  1.00  0.00    -0.003 C 
ATOM      7  C   UNL     1       8.276 -28.209 -17.610  1.00  0.00     0.004 C 
ENDBRANCH   5   6
ENDBRANCH   1   5
TORSDOF 3
ENDMDL
MODEL 5
REMARK VINA RESULT:    -3.245      9.554     10.374
REMARK INTER + INTRA:          -3.829
REMARK INTER:                  -3.739
REMARK INTRA:                  -0.091
REMARK UNBOUND:                -0.016
REMARK SMILES CCCCC(=O)[O-]
REMARK SMILES IDX 4 1 5 2 6 3 7 4 3 5 2 6 1 7
REMARK H PARENT
REMARK Flexibility Score: inf
ROOT
ATOM      1  C   UNL     1      10.215 -35.302 -25.607  1.00  0.00     0.053 C 
ENDROOT
BRANCH   1   2
ATOM      2  C   UNL     1      11.440 -34.470 -25.401  1.00  0.00     0.041 C 
ATOM      3  O   UNL     1      11.340 -33.292 -24.967  1.00  0.00    -0.550 OA
ATOM      4  O   UNL     1      12.698 -35.012 -25.640  1.00  0.00    -0.550 OA
ENDBRANCH   1   2
BRANCH   1   5
ATOM      5  C   UNL     1      10.587 -36.662 -26.212  1.00  0.00     0.006 C 
BRANCH   5   6
ATOM      6  C   UNL     1      10.459 -37.812 -25.202  1.00  0.00    -0.003 C 
ATOM      7  C   UNL     1      11.781 -38.139 -24.507  1.00  0.00     0.004 C 
ENDBRANCH   5   6
ENDBRANCH   1   5
TORSDOF 3
ENDMDL
MODEL 6
REMARK VINA RESULT:    -3.193     15.333     16.611
REMARK INTER + INTRA:          -3.769
REMARK INTER:                  -3.754
REMARK INTRA:                  -0.015
REMARK UNBOUND:                -0.016
REMARK SMILES CCCCC(=O)[O-]
REMARK SMILES IDX 4 1 5 2 6 3 7 4 3 5 2 6 1 7
REMARK H PARENT
REMARK Flexibility Score: inf
ROOT
ATOM      1  C   UNL     1      -1.015 -44.249 -17.798  1.00  0.00     0.053 C 
ENDROOT
BRANCH   1   2
ATOM      2  C   UNL     1      -2.098 -44.965 -17.056  1.00  0.00     0.041 C 
ATOM      3  O   UNL     1      -2.931 -45.674 -17.679  1.00  0.00    -0.550 OA
ATOM      4  O   UNL     1      -2.159 -44.889 -15.669  1.00  0.00    -0.550 OA
ENDBRANCH   1   2
BRANCH   1   5
ATOM      5  C   UNL     1      -1.292 -42.740 -17.825  1.00  0.00     0.006 C 
BRANCH   5   6
ATOM      6  C   UNL     1      -0.310 -41.976 -18.726  1.00  0.00    -0.003 C 
ATOM      7  C   UNL     1      -1.014 -41.170 -19.818  1.00  0.00     0.004 C 
ENDBRANCH   5   6
ENDBRANCH   1   5
TORSDOF 3
ENDMDL
MODEL 7
REMARK VINA RESULT:    -3.183     10.434     11.504
REMARK INTER + INTRA:          -3.756
REMARK INTER:                  -3.699
REMARK INTRA:                  -0.057
REMARK UNBOUND:                -0.016
REMARK SMILES CCCCC(=O)[O-]
REMARK SMILES IDX 4 1 5 2 6 3 7 4 3 5 2 6 1 7
REMARK H PARENT
REMARK Flexibility Score: inf
ROOT
ATOM      1  C   UNL     1      10.144 -35.637 -26.161  1.00  0.00     0.053 C 
ENDROOT
BRANCH   1   2
ATOM      2  C   UNL     1       9.708 -36.249 -27.455  1.00  0.00     0.041 C 
ATOM      3  O   UNL     1       8.601 -36.842 -27.534  1.00  0.00    -0.550 OA
ATOM      4  O   UNL     1      10.505 -36.122 -28.587  1.00  0.00    -0.550 OA
ENDBRANCH   1   2
BRANCH   1   5
ATOM      5  C   UNL     1      11.626 -35.934 -25.901  1.00  0.00     0.006 C 
BRANCH   5   6
ATOM      6  C   UNL     1      12.388 -34.710 -25.369  1.00  0.00    -0.003 C 
ATOM      7  C   UNL     1      11.460 -33.555 -24.990  1.00  0.00     0.004 C 
ENDBRANCH   5   6
ENDBRANCH   1   5
TORSDOF 3
ENDMDL
MODEL 8
REMARK VINA RESULT:    -3.171     10.074     11.095
REMARK INTER + INTRA:          -3.743
REMARK INTER:                  -3.642
REMARK INTRA:                  -0.101
REMARK UNBOUND:                -0.016
REMARK SMILES CCCCC(=O)[O-]
REMARK SMILES IDX 4 1 5 2 6 3 7 4 3 5 2 6 1 7
REMARK H PARENT
REMARK Flexibility Score: inf
ROOT
ATOM      1  C   UNL     1      10.754 -36.183 -25.712  1.00  0.00     0.053 C 
ENDROOT
BRANCH   1   2
ATOM      2  C   UNL     1      11.681 -35.010 -25.689  1.00  0.00     0.041 C 
ATOM      3  O   UNL     1      12.716 -35.006 -26.406  1.00  0.00    -0.550 OA
ATOM      4  O   UNL     1      11.377 -33.898 -24.912  1.00  0.00    -0.550 OA
ENDBRANCH   1   2
BRANCH   1   5
ATOM      5  C   UNL     1       9.608 -35.940 -26.703  1.00  0.00     0.006 C 
BRANCH   5   6
ATOM      6  C   UNL     1       9.695 -36.848 -27.939  1.00  0.00    -0.003 C 
ATOM      7  C   UNL     1      10.358 -36.161 -29.133  1.00  0.00     0.004 C 
ENDBRANCH   5   6
ENDBRANCH   1   5
TORSDOF 3
ENDMDL
MODEL 9
REMARK VINA RESULT:    -3.072     16.429     17.191
REMARK INTER + INTRA:          -3.626
REMARK INTER:                  -3.560
REMARK INTRA:                  -0.066
REMARK UNBOUND:                -0.016
REMARK SMILES CCCCC(=O)[O-]
REMARK SMILES IDX 4 1 5 2 6 3 7 4 3 5 2 6 1 7
REMARK H PARENT
REMARK Flexibility Score: inf
ROOT
ATOM      1  C   UNL     1      -1.285 -43.903 -17.814  1.00  0.00     0.053 C 
ENDROOT
BRANCH   1   2
ATOM      2  C   UNL     1      -2.136 -44.911 -17.108  1.00  0.00     0.041 C 
ATOM      3  O   UNL     1      -2.164 -44.946 -15.850  1.00  0.00    -0.550 OA
ATOM      4  O   UNL     1      -2.936 -45.781 -17.840  1.00  0.00    -0.550 OA
ENDBRANCH   1   2
BRANCH   1   5
ATOM      5  C   UNL     1       0.159 -43.967 -17.301  1.00  0.00     0.006 C 
BRANCH   5   6
ATOM      6  C   UNL     1       1.086 -44.750 -18.243  1.00  0.00    -0.003 C 
ATOM      7  C   UNL     1       1.161 -46.238 -17.897  1.00  0.00     0.004 C 
ENDBRANCH   5   6
ENDBRANCH   1   5
TORSDOF 3
ENDMDL
