MODEL 1
REMARK VINA RESULT:    -3.346      0.000      0.000
REMARK INTER + INTRA:          -4.151
REMARK INTER:                  -3.835
REMARK INTRA:                  -0.316
REMARK UNBOUND:                -0.316
REMARK SMILES COC(=O)c1ccccc1O
REMARK SMILES IDX 5 1 6 2 7 3 8 4 9 5 10 6 3 7 4 8 2 9 1 10 11 11
REMARK H PARENT 11 12
REMARK Flexibility Score: inf
ROOT
ATOM      1  C   UNL     1     131.706 142.949 130.790  1.00  0.00     0.101 A 
ATOM      2  C   UNL     1     130.584 142.301 131.341  1.00  0.00     0.019 A 
ATOM      3  C   UNL     1     129.757 142.961 132.253  1.00  0.00     0.001 A 
ATOM      4  C   UNL     1     130.039 144.275 132.628  1.00  0.00     0.004 A 
ATOM      5  C   UNL     1     131.160 144.924 132.107  1.00  0.00     0.047 A 
ATOM      6  C   UNL     1     132.010 144.269 131.208  1.00  0.00     0.130 A 
ENDROOT
BRANCH   1   7
ATOM      7  C   UNL     1     132.504 142.239 129.766  1.00  0.00     0.341 C 
ATOM      8  O   UNL     1     131.918 141.552 128.884  1.00  0.00    -0.246 OA
BRANCH   7   9
ATOM      9  O   UNL     1     133.895 142.377 129.739  1.00  0.00    -0.465 OA
ATOM     10  C   UNL     1     134.649 142.312 128.535  1.00  0.00     0.282 C 
ENDBRANCH   7   9
ENDBRANCH   1   7
BRANCH   6  11
ATOM     11  O   UNL     1     133.157 144.946 130.786  1.00  0.00    -0.507 OA
ATOM     12  H   UNL     1     133.720 145.521 131.399  1.00  0.00     0.293 HD
ENDBRANCH   6  11
TORSDOF 3
ENDMDL
MODEL 2
REMARK VINA RESULT:    -3.272     23.126     23.736
REMARK INTER + INTRA:          -4.065
REMARK INTER:                  -3.719
REMARK INTRA:                  -0.346
REMARK UNBOUND:                -0.316
REMARK SMILES COC(=O)c1ccccc1O
REMARK SMILES IDX 5 1 6 2 7 3 8 4 9 5 10 6 3 7 4 8 2 9 1 10 11 11
REMARK H PARENT 11 12
REMARK Flexibility Score: inf
ROOT
ATOM      1  C   UNL     1     144.105 128.601 144.365  1.00  0.00     0.101 A 
ATOM      2  C   UNL     1     143.830 129.343 143.201  1.00  0.00     0.019 A 
ATOM      3  C   UNL     1     142.523 129.458 142.722  1.00  0.00     0.001 A 
ATOM      4  C   UNL     1     141.474 128.834 143.398  1.00  0.00     0.004 A 
ATOM      5  C   UNL     1     141.732 128.077 144.542  1.00  0.00     0.047 A 
ATOM      6  C   UNL     1     143.040 127.935 145.022  1.00  0.00     0.130 A 
ENDROOT
BRANCH   1   7
ATOM      7  C   UNL     1     145.492 128.576 144.879  1.00  0.00     0.341 C 
ATOM      8  O   UNL     1     146.124 129.658 145.023  1.00  0.00    -0.246 OA
BRANCH   7   9
ATOM      9  O   UNL     1     146.078 127.364 145.260  1.00  0.00    -0.465 OA
ATOM     10  C   UNL     1     146.262 126.282 144.355  1.00  0.00     0.282 C 
ENDBRANCH   7   9
ENDBRANCH   1   7
BRANCH   6  11
ATOM     11  O   UNL     1     143.241 127.100 146.124  1.00  0.00    -0.507 OA
ATOM     12  H   UNL     1     142.692 126.269 146.299  1.00  0.00     0.293 HD
ENDBRANCH   6  11
TORSDOF 3
ENDMDL
MODEL 3
REMARK VINA RESULT:    -3.252     13.634     14.790
REMARK INTER + INTRA:          -4.043
REMARK INTER:                  -3.783
REMARK INTRA:                  -0.260
REMARK UNBOUND:                -0.316
REMARK SMILES COC(=O)c1ccccc1O
REMARK SMILES IDX 5 1 6 2 7 3 8 4 9 5 10 6 3 7 4 8 2 9 1 10 11 11
REMARK H PARENT 11 12
REMARK Flexibility Score: inf
ROOT
ATOM      1  C   UNL     1     131.099 136.628 143.155  1.00  0.00     0.101 A 
ATOM      2  C   UNL     1     131.080 137.595 142.132  1.00  0.00     0.019 A 
ATOM      3  C   UNL     1     131.190 137.218 140.792  1.00  0.00     0.001 A 
ATOM      4  C   UNL     1     131.322 135.871 140.455  1.00  0.00     0.004 A 
ATOM      5  C   UNL     1     131.364 134.900 141.457  1.00  0.00     0.047 A 
ATOM      6  C   UNL     1     131.276 135.265 142.806  1.00  0.00     0.130 A 
ENDROOT
BRANCH   1   7
ATOM      7  C   UNL     1     130.896 137.068 144.552  1.00  0.00     0.341 C 
ATOM      8  O   UNL     1     131.347 136.367 145.500  1.00  0.00    -0.246 OA
BRANCH   7   9
ATOM      9  O   UNL     1     130.261 138.285 144.820  1.00  0.00    -0.465 OA
ATOM     10  C   UNL     1     130.476 139.014 146.024  1.00  0.00     0.282 C 
ENDBRANCH   7   9
ENDBRANCH   1   7
BRANCH   6  11
ATOM     11  O   UNL     1     131.404 134.255 143.763  1.00  0.00    -0.507 OA
ATOM     12  H   UNL     1     132.061 134.297 144.530  1.00  0.00     0.293 HD
ENDBRANCH   6  11
TORSDOF 3
ENDMDL
MODEL 4
REMARK VINA RESULT:    -3.226      1.812      2.556
REMARK INTER + INTRA:          -4.013
REMARK INTER:                  -3.733
REMARK INTRA:                  -0.279
REMARK UNBOUND:                -0.316
REMARK SMILES COC(=O)c1ccccc1O
REMARK SMILES IDX 5 1 6 2 7 3 8 4 9 5 10 6 3 7 4 8 2 9 1 10 11 11
REMARK H PARENT 11 12
REMARK Flexibility Score: inf
ROOT
ATOM      1  C   UNL     1     130.827 143.685 131.352  1.00  0.00     0.101 A 
ATOM      2  C   UNL     1     131.482 144.929 131.280  1.00  0.00     0.019 A 
ATOM      3  C   UNL     1     131.272 145.902 132.260  1.00  0.00     0.001 A 
ATOM      4  C   UNL     1     130.407 145.647 133.324  1.00  0.00     0.004 A 
ATOM      5  C   UNL     1     129.733 144.427 133.399  1.00  0.00     0.047 A 
ATOM      6  C   UNL     1     129.916 143.450 132.413  1.00  0.00     0.130 A 
ENDROOT
BRANCH   1   7
ATOM      7  C   UNL     1     131.143 142.657 130.337  1.00  0.00     0.341 C 
ATOM      8  O   UNL     1     130.209 141.996 129.805  1.00  0.00    -0.246 OA
BRANCH   7   9
ATOM      9  O   UNL     1     132.465 142.459 129.925  1.00  0.00    -0.465 OA
ATOM     10  C   UNL     1     132.827 141.496 128.942  1.00  0.00     0.282 C 
ENDBRANCH   7   9
ENDBRANCH   1   7
BRANCH   6  11
ATOM     11  O   UNL     1     129.153 142.283 132.503  1.00  0.00    -0.507 OA
ATOM     12  H   UNL     1     129.461 141.389 132.147  1.00  0.00     0.293 HD
ENDBRANCH   6  11
TORSDOF 3
ENDMDL
MODEL 5
REMARK VINA RESULT:    -3.129     23.249     23.688
REMARK INTER + INTRA:          -3.902
REMARK INTER:                  -3.707
REMARK INTRA:                  -0.195
REMARK UNBOUND:                -0.316
REMARK SMILES COC(=O)c1ccccc1O
REMARK SMILES IDX 5 1 6 2 7 3 8 4 9 5 10 6 3 7 4 8 2 9 1 10 11 11
REMARK H PARENT 11 12
REMARK Flexibility Score: inf
ROOT
ATOM      1  C   UNL     1     143.512 128.834 145.385  1.00  0.00     0.101 A 
ATOM      2  C   UNL     1     144.202 130.019 145.700  1.00  0.00     0.019 A 
ATOM      3  C   UNL     1     143.504 131.197 145.976  1.00  0.00     0.001 A 
ATOM      4  C   UNL     1     142.110 131.208 145.941  1.00  0.00     0.004 A 
ATOM      5  C   UNL     1     141.411 130.046 145.610  1.00  0.00     0.047 A 
ATOM      6  C   UNL     1     142.097 128.863 145.310  1.00  0.00     0.130 A 
ENDROOT
BRANCH   1   7
ATOM      7  C   UNL     1     144.290 127.592 145.181  1.00  0.00     0.341 C 
ATOM      8  O   UNL     1     143.686 126.499 145.000  1.00  0.00    -0.246 OA
BRANCH   7   9
ATOM      9  O   UNL     1     145.687 127.639 145.128  1.00  0.00    -0.465 OA
ATOM     10  C   UNL     1     146.478 126.525 144.732  1.00  0.00     0.282 C 
ENDBRANCH   7   9
ENDBRANCH   1   7
BRANCH   6  11
ATOM     11  O   UNL     1     141.342 127.758 144.909  1.00  0.00    -0.507 OA
ATOM     12  H   UNL     1     141.596 126.803 145.126  1.00  0.00     0.293 HD
ENDBRANCH   6  11
TORSDOF 3
ENDMDL
MODEL 6
REMARK VINA RESULT:    -3.110      2.309      4.392
REMARK INTER + INTRA:          -3.880
REMARK INTER:                  -3.588
REMARK INTRA:                  -0.292
REMARK UNBOUND:                -0.316
REMARK SMILES COC(=O)c1ccccc1O
REMARK SMILES IDX 5 1 6 2 7 3 8 4 9 5 10 6 3 7 4 8 2 9 1 10 11 11
REMARK H PARENT 11 12
REMARK Flexibility Score: inf
ROOT
ATOM      1  C   UNL     1     130.787 144.562 132.643  1.00  0.00     0.101 A 
ATOM      2  C   UNL     1     129.767 143.595 132.723  1.00  0.00     0.019 A 
ATOM      3  C   UNL     1     129.730 142.523 131.829  1.00  0.00     0.001 A 
ATOM      4  C   UNL     1     130.709 142.401 130.843  1.00  0.00     0.004 A 
ATOM      5  C   UNL     1     131.715 143.363 130.736  1.00  0.00     0.047 A 
ATOM      6  C   UNL     1     131.754 144.455 131.612  1.00  0.00     0.130 A 
ENDROOT
BRANCH   1   7
ATOM      7  C   UNL     1     130.832 145.633 133.662  1.00  0.00     0.341 C 
ATOM      8  O   UNL     1     129.755 146.125 134.099  1.00  0.00    -0.246 OA
BRANCH   7   9
ATOM      9  O   UNL     1     132.059 146.055 134.184  1.00  0.00    -0.465 OA
ATOM     10  C   UNL     1     132.340 146.055 135.579  1.00  0.00     0.282 C 
ENDBRANCH   7   9
ENDBRANCH   1   7
BRANCH   6  11
ATOM     11  O   UNL     1     132.740 145.423 131.401  1.00  0.00    -0.507 OA
ATOM     12  H   UNL     1     132.891 145.876 130.511  1.00  0.00     0.293 HD
ENDBRANCH   6  11
TORSDOF 3
ENDMDL
MODEL 7
REMARK VINA RESULT:    -3.063     22.575     23.216
REMARK INTER + INTRA:          -3.827
REMARK INTER:                  -3.537
REMARK INTRA:                  -0.290
REMARK UNBOUND:                -0.316
REMARK SMILES COC(=O)c1ccccc1O
REMARK SMILES IDX 5 1 6 2 7 3 8 4 9 5 10 6 3 7 4 8 2 9 1 10 11 11
REMARK H PARENT 11 12
REMARK Flexibility Score: inf
ROOT
ATOM      1  C   UNL     1     143.176 129.349 144.991  1.00  0.00     0.101 A 
ATOM      2  C   UNL     1     144.551 129.626 145.112  1.00  0.00     0.019 A 
ATOM      3  C   UNL     1     145.489 128.592 145.110  1.00  0.00     0.001 A 
ATOM      4  C   UNL     1     145.068 127.267 144.989  1.00  0.00     0.004 A 
ATOM      5  C   UNL     1     143.707 126.973 144.890  1.00  0.00     0.047 A 
ATOM      6  C   UNL     1     142.753 127.998 144.911  1.00  0.00     0.130 A 
ENDROOT
BRANCH   1   7
ATOM      7  C   UNL     1     142.228 130.482 144.914  1.00  0.00     0.341 C 
ATOM      8  O   UNL     1     141.426 130.560 143.943  1.00  0.00    -0.246 OA
BRANCH   7   9
ATOM      9  O   UNL     1     142.178 131.427 145.944  1.00  0.00    -0.465 OA
ATOM     10  C   UNL     1     142.530 132.792 145.749  1.00  0.00     0.282 C 
ENDBRANCH   7   9
ENDBRANCH   1   7
BRANCH   6  11
ATOM     11  O   UNL     1     141.405 127.632 144.888  1.00  0.00    -0.507 OA
ATOM     12  H   UNL     1     140.688 128.124 145.404  1.00  0.00     0.293 HD
ENDBRANCH   6  11
TORSDOF 3
ENDMDL
