MODEL 1
REMARK VINA RESULT:    40.880      0.000      0.000
REMARK INTER + INTRA:          56.203
REMARK INTER:                  55.219
REMARK INTRA:                   0.983
REMARK UNBOUND:                 0.983
REMARK SMILES CC[C@H](CC[C@@H](C)[C@@H]1CC[C@@H]2[C@H]3CC(=O)C4=CC(=O)CC[C@@]4(C)[C@@H]3CC[C@]21C)C(C)C
REMARK SMILES IDX 4 1 3 2 2 3 1 4 29 5 30 6 31 7 5 8 6 9 7 10 8 11 9 12 27 13
REMARK SMILES IDX 10 14 11 15 26 16 28 17 12 18 25 19 24 20 13 21 22 22 14 23
REMARK SMILES IDX 16 24 21 25 23 26 15 27 17 28 20 29 18 30 19 31
REMARK H PARENT
REMARK Flexibility Score: inf
ROOT
ATOM      1  C   UNL     1       9.351  72.621  23.440  1.00  0.00     0.004 C 
ENDROOT
BRANCH   1   2
ATOM      2  C   UNL     1      10.454  71.566  23.733  1.00  0.00    -0.009 C 
BRANCH   2   3
ATOM      3  C   UNL     1      11.712  72.163  24.428  1.00  0.00     0.000 C 
ATOM      4  C   UNL     1      11.530  73.527  25.096  1.00  0.00     0.004 C 
ENDBRANCH   2   3
BRANCH   2   5
ATOM      5  C   UNL     1       9.867  70.264  24.379  1.00  0.00    -0.014 C 
ATOM      6  C   UNL     1      10.882  69.537  25.274  1.00  0.00     0.007 C 
ATOM      7  C   UNL     1       8.528  70.443  25.118  1.00  0.00     0.007 C 
ENDBRANCH   2   5
ENDBRANCH   1   2
BRANCH   1   8
ATOM      8  C   UNL     1       9.683  73.586  22.272  1.00  0.00     0.004 C 
BRANCH   8   9
ATOM      9  C   UNL     1      11.212  73.773  22.026  1.00  0.00    -0.011 C 
ATOM     10  C   UNL     1      11.672  72.971  20.799  1.00  0.00     0.008 C 
BRANCH   9  11
ATOM     11  C   UNL     1      11.756  75.251  22.015  1.00  0.00    -0.002 C 
ATOM     12  C   UNL     1      11.877  75.902  23.416  1.00  0.00     0.005 C 
ATOM     13  C   UNL     1      11.112  76.366  21.131  1.00  0.00    -0.026 C 
ATOM     14  C   UNL     1      11.838  77.423  23.203  1.00  0.00     0.005 C 
ATOM     15  C   UNL     1      11.851  77.596  21.689  1.00  0.00    -0.001 C 
ATOM     16  C   UNL     1      11.446  76.304  19.618  1.00  0.00     0.007 C 
ATOM     17  C   UNL     1       9.570  76.437  21.344  1.00  0.00     0.012 C 
ATOM     18  C   UNL     1      11.358  78.934  21.098  1.00  0.00     0.004 C 
ATOM     19  C   UNL     1      11.049  77.607  18.882  1.00  0.00     0.005 C 
ATOM     20  C   UNL     1      11.593  78.912  19.549  1.00  0.00     0.003 C 
ATOM     21  C   UNL     1      12.118  80.109  21.735  1.00  0.00     0.085 C 
ATOM     22  C   UNL     1      11.095  80.236  18.842  1.00  0.00    -0.000 C 
ATOM     23  C   UNL     1      11.810  81.405  21.055  1.00  0.00     0.159 C 
ATOM     24  C   UNL     1      11.655  81.458  19.584  1.00  0.00     0.005 C 
ATOM     25  C   UNL     1      11.599  80.250  17.364  1.00  0.00     0.020 C 
ATOM     26  C   UNL     1       9.546  80.348  18.855  1.00  0.00     0.017 C 
ATOM     27  O   UNL     1      11.768  82.462  21.742  1.00  0.00    -0.295 OA
ATOM     28  C   UNL     1      11.915  82.611  18.940  1.00  0.00     0.055 C 
ATOM     29  C   UNL     1      11.337  81.580  16.648  1.00  0.00     0.081 C 
ATOM     30  C   UNL     1      11.787  82.738  17.481  1.00  0.00     0.156 C 
ATOM     31  O   UNL     1      12.026  83.845  16.931  1.00  0.00    -0.295 OA
ENDBRANCH   9  11
ENDBRANCH   8   9
ENDBRANCH   1   8
TORSDOF 6
ENDMDL
