MODEL 1
REMARK VINA RESULT:    -3.818      0.000      0.000
REMARK INTER + INTRA:          -4.943
REMARK INTER:                  -4.823
REMARK INTRA:                  -0.120
REMARK UNBOUND:                -0.120
REMARK SMILES CSCC[C@H]([NH3+])C(=O)[O-]
REMARK SMILES IDX 4 1 5 2 6 3 7 7 8 8 9 9 3 10 2 11 1 12
REMARK H PARENT 6 4 6 5 6 6
REMARK Flexibility Score: inf
ROOT
ATOM      1  C   UNL     1     -48.739  -3.937  -6.037  1.00  0.00     0.082 C 
ENDROOT
BRANCH   1   2
ATOM      2  C   UNL     1     -48.533  -2.646  -6.862  1.00  0.00     0.228 C 
BRANCH   2   3
ATOM      3  N   UNL     1     -48.202  -2.933  -8.264  1.00  0.00    -0.350 N 
ATOM      4  H   UNL     1     -48.264  -2.074  -8.856  1.00  0.00     0.345 HD
ATOM      5  H   UNL     1     -47.235  -3.325  -8.329  1.00  0.00     0.345 HD
ATOM      6  H   UNL     1     -48.869  -3.646  -8.641  1.00  0.00     0.345 HD
ENDBRANCH   2   3
BRANCH   2   7
ATOM      7  C   UNL     1     -47.504  -1.743  -6.229  1.00  0.00     0.099 C 
ATOM      8  O   UNL     1     -46.371  -2.201  -5.924  1.00  0.00    -0.544 OA
ATOM      9  O   UNL     1     -47.773  -0.395  -6.022  1.00  0.00    -0.544 OA
ENDBRANCH   2   7
ENDBRANCH   1   2
BRANCH   1  10
ATOM     10  C   UNL     1     -48.349  -5.225  -6.774  1.00  0.00     0.076 C 
BRANCH  10  11
ATOM     11  S   UNL     1     -46.601  -5.622  -6.433  1.00  0.00    -0.165 SA
ATOM     12  C   UNL     1     -46.239  -6.173  -8.131  1.00  0.00     0.085 C 
ENDBRANCH  10  11
ENDBRANCH   1  10
TORSDOF 5
ENDMDL
MODEL 2
REMARK VINA RESULT:    -3.813      1.975      2.169
REMARK INTER + INTRA:          -4.937
REMARK INTER:                  -4.791
REMARK INTRA:                  -0.145
REMARK UNBOUND:                -0.120
REMARK SMILES CSCC[C@H]([NH3+])C(=O)[O-]
REMARK SMILES IDX 4 1 5 2 6 3 7 7 8 8 9 9 3 10 2 11 1 12
REMARK H PARENT 6 4 6 5 6 6
REMARK Flexibility Score: inf
ROOT
ATOM      1  C   UNL     1     -46.534  -4.090  -5.684  1.00  0.00     0.082 C 
ENDROOT
BRANCH   1   2
ATOM      2  C   UNL     1     -48.019  -3.664  -5.647  1.00  0.00     0.228 C 
BRANCH   2   3
ATOM      3  N   UNL     1     -48.926  -4.804  -5.836  1.00  0.00    -0.350 N 
ATOM      4  H   UNL     1     -48.660  -5.370  -6.673  1.00  0.00     0.345 HD
ATOM      5  H   UNL     1     -48.910  -5.416  -4.988  1.00  0.00     0.345 HD
ATOM      6  H   UNL     1     -49.904  -4.454  -5.966  1.00  0.00     0.345 HD
ENDBRANCH   2   3
BRANCH   2   7
ATOM      7  C   UNL     1     -48.305  -2.565  -6.639  1.00  0.00     0.099 C 
ATOM      8  O   UNL     1     -48.048  -1.368  -6.340  1.00  0.00    -0.544 OA
ATOM      9  O   UNL     1     -48.805  -2.860  -7.902  1.00  0.00    -0.544 OA
ENDBRANCH   2   7
ENDBRANCH   1   2
BRANCH   1  10
ATOM     10  C   UNL     1     -46.282  -5.440  -6.367  1.00  0.00     0.076 C 
BRANCH  10  11
ATOM     11  S   UNL     1     -46.005  -5.183  -8.152  1.00  0.00    -0.165 SA
ATOM     12  C   UNL     1     -46.381  -6.905  -8.611  1.00  0.00     0.085 C 
ENDBRANCH  10  11
ENDBRANCH   1  10
TORSDOF 5
ENDMDL
MODEL 3
REMARK VINA RESULT:    -3.772      2.571      3.673
REMARK INTER + INTRA:          -4.885
REMARK INTER:                  -4.658
REMARK INTRA:                  -0.227
REMARK UNBOUND:                -0.120
REMARK SMILES CSCC[C@H]([NH3+])C(=O)[O-]
REMARK SMILES IDX 4 1 5 2 6 3 7 7 8 8 9 9 3 10 2 11 1 12
REMARK H PARENT 6 4 6 5 6 6
REMARK Flexibility Score: inf
ROOT
ATOM      1  C   UNL     1     -47.255  -3.879  -7.787  1.00  0.00     0.082 C 
ENDROOT
BRANCH   1   2
ATOM      2  C   UNL     1     -46.079  -4.882  -7.739  1.00  0.00     0.228 C 
BRANCH   2   3
ATOM      3  N   UNL     1     -46.362  -6.102  -8.506  1.00  0.00    -0.350 N 
ATOM      4  H   UNL     1     -46.701  -5.879  -9.469  1.00  0.00     0.345 HD
ATOM      5  H   UNL     1     -45.499  -6.689  -8.574  1.00  0.00     0.345 HD
ATOM      6  H   UNL     1     -47.097  -6.661  -8.014  1.00  0.00     0.345 HD
ENDBRANCH   2   3
BRANCH   2   7
ATOM      7  C   UNL     1     -45.684  -5.205  -6.320  1.00  0.00     0.099 C 
ATOM      8  O   UNL     1     -45.629  -6.405  -5.942  1.00  0.00    -0.544 OA
ATOM      9  O   UNL     1     -45.331  -4.194  -5.433  1.00  0.00    -0.544 OA
ENDBRANCH   2   7
ENDBRANCH   1   2
BRANCH   1  10
ATOM     10  C   UNL     1     -48.519  -4.355  -7.061  1.00  0.00     0.076 C 
BRANCH  10  11
ATOM     11  S   UNL     1     -48.828  -3.295  -5.608  1.00  0.00    -0.165 SA
ATOM     12  C   UNL     1     -47.890  -1.875  -6.259  1.00  0.00     0.085 C 
ENDBRANCH  10  11
ENDBRANCH   1  10
TORSDOF 5
ENDMDL
MODEL 4
REMARK VINA RESULT:    -3.738      3.213      4.325
REMARK INTER + INTRA:          -4.841
REMARK INTER:                  -4.694
REMARK INTRA:                  -0.147
REMARK UNBOUND:                -0.120
REMARK SMILES CSCC[C@H]([NH3+])C(=O)[O-]
REMARK SMILES IDX 4 1 5 2 6 3 7 7 8 8 9 9 3 10 2 11 1 12
REMARK H PARENT 6 4 6 5 6 6
REMARK Flexibility Score: inf
ROOT
ATOM      1  C   UNL     1     -47.450  -4.817  -6.115  1.00  0.00     0.082 C 
ENDROOT
BRANCH   1   2
ATOM      2  C   UNL     1     -46.391  -5.876  -6.501  1.00  0.00     0.228 C 
BRANCH   2   3
ATOM      3  N   UNL     1     -45.116  -5.661  -5.805  1.00  0.00    -0.350 N 
ATOM      4  H   UNL     1     -45.046  -6.247  -4.943  1.00  0.00     0.345 HD
ATOM      5  H   UNL     1     -44.319  -5.892  -6.442  1.00  0.00     0.345 HD
ATOM      6  H   UNL     1     -45.033  -4.654  -5.533  1.00  0.00     0.345 HD
ENDBRANCH   2   3
BRANCH   2   7
ATOM      7  C   UNL     1     -46.196  -5.946  -7.995  1.00  0.00     0.099 C 
ATOM      8  O   UNL     1     -45.782  -4.934  -8.621  1.00  0.00    -0.544 OA
ATOM      9  O   UNL     1     -46.422  -7.130  -8.687  1.00  0.00    -0.544 OA
ENDBRANCH   2   7
ENDBRANCH   1   2
BRANCH   1  10
ATOM     10  C   UNL     1     -46.863  -3.464  -5.693  1.00  0.00     0.076 C 
BRANCH  10  11
ATOM     11  S   UNL     1     -47.920  -2.115  -6.319  1.00  0.00    -0.165 SA
ATOM     12  C   UNL     1     -48.619  -3.097  -7.685  1.00  0.00     0.085 C 
ENDBRANCH  10  11
ENDBRANCH   1  10
TORSDOF 5
ENDMDL
MODEL 5
REMARK VINA RESULT:    -3.728      2.995      4.086
REMARK INTER + INTRA:          -4.829
REMARK INTER:                  -4.752
REMARK INTRA:                  -0.077
REMARK UNBOUND:                -0.120
REMARK SMILES CSCC[C@H]([NH3+])C(=O)[O-]
REMARK SMILES IDX 4 1 5 2 6 3 7 7 8 8 9 9 3 10 2 11 1 12
REMARK H PARENT 6 4 6 5 6 6
REMARK Flexibility Score: inf
ROOT
ATOM      1  C   UNL     1     -48.377  -2.598  -6.868  1.00  0.00     0.082 C 
ENDROOT
BRANCH   1   2
ATOM      2  C   UNL     1     -48.288  -4.142  -6.897  1.00  0.00     0.228 C 
BRANCH   2   3
ATOM      3  N   UNL     1     -48.926  -4.754  -5.724  1.00  0.00    -0.350 N 
ATOM      4  H   UNL     1     -49.939  -4.947  -5.896  1.00  0.00     0.345 HD
ATOM      5  H   UNL     1     -48.443  -5.649  -5.483  1.00  0.00     0.345 HD
ATOM      6  H   UNL     1     -48.843  -4.108  -4.905  1.00  0.00     0.345 HD
ENDBRANCH   2   3
BRANCH   2   7
ATOM      7  C   UNL     1     -46.864  -4.611  -7.055  1.00  0.00     0.099 C 
ATOM      8  O   UNL     1     -46.328  -5.303  -6.149  1.00  0.00    -0.544 OA
ATOM      9  O   UNL     1     -46.147  -4.331  -8.213  1.00  0.00    -0.544 OA
ENDBRANCH   2   7
ENDBRANCH   1   2
BRANCH   1  10
ATOM     10  C   UNL     1     -47.296  -1.920  -6.017  1.00  0.00     0.076 C 
BRANCH  10  11
ATOM     11  S   UNL     1     -47.674  -0.143  -5.848  1.00  0.00    -0.165 SA
ATOM     12  C   UNL     1     -45.936   0.358  -5.629  1.00  0.00     0.085 C 
ENDBRANCH  10  11
ENDBRANCH   1  10
TORSDOF 5
ENDMDL
MODEL 6
REMARK VINA RESULT:    -3.469      2.562      2.885
REMARK INTER + INTRA:          -4.502
REMARK INTER:                  -4.446
REMARK INTRA:                  -0.056
REMARK UNBOUND:                -0.120
REMARK SMILES CSCC[C@H]([NH3+])C(=O)[O-]
REMARK SMILES IDX 4 1 5 2 6 3 7 7 8 8 9 9 3 10 2 11 1 12
REMARK H PARENT 6 4 6 5 6 6
REMARK Flexibility Score: inf
ROOT
ATOM      1  C   UNL     1     -46.578  -3.054  -6.370  1.00  0.00     0.082 C 
ENDROOT
BRANCH   1   2
ATOM      2  C   UNL     1     -48.108  -2.952  -6.171  1.00  0.00     0.228 C 
BRANCH   2   3
ATOM      3  N   UNL     1     -48.525  -3.421  -4.843  1.00  0.00    -0.350 N 
ATOM      4  H   UNL     1     -49.222  -2.774  -4.409  1.00  0.00     0.345 HD
ATOM      5  H   UNL     1     -48.943  -4.376  -4.918  1.00  0.00     0.345 HD
ATOM      6  H   UNL     1     -47.689  -3.479  -4.216  1.00  0.00     0.345 HD
ENDBRANCH   2   3
BRANCH   2   7
ATOM      7  C   UNL     1     -48.859  -3.668  -7.266  1.00  0.00     0.099 C 
ATOM      8  O   UNL     1     -49.121  -3.067  -8.342  1.00  0.00    -0.544 OA
ATOM      9  O   UNL     1     -49.224  -5.002  -7.123  1.00  0.00    -0.544 OA
ENDBRANCH   2   7
ENDBRANCH   1   2
BRANCH   1  10
ATOM     10  C   UNL     1     -45.899  -4.120  -5.501  1.00  0.00     0.076 C 
BRANCH  10  11
ATOM     11  S   UNL     1     -45.824  -5.699  -6.414  1.00  0.00    -0.165 SA
ATOM     12  C   UNL     1     -45.780  -4.917  -8.059  1.00  0.00     0.085 C 
ENDBRANCH  10  11
ENDBRANCH   1  10
TORSDOF 5
ENDMDL
MODEL 7
REMARK VINA RESULT:    -3.304     16.799     17.419
REMARK INTER + INTRA:          -4.293
REMARK INTER:                  -4.182
REMARK INTRA:                  -0.111
REMARK UNBOUND:                -0.120
REMARK SMILES CSCC[C@H]([NH3+])C(=O)[O-]
REMARK SMILES IDX 4 1 5 2 6 3 7 7 8 8 9 9 3 10 2 11 1 12
REMARK H PARENT 6 4 6 5 6 6
REMARK Flexibility Score: inf
ROOT
ATOM      1  C   UNL     1     -41.909 -18.337   1.646  1.00  0.00     0.082 C 
ENDROOT
BRANCH   1   2
ATOM      2  C   UNL     1     -43.171 -18.339   2.541  1.00  0.00     0.228 C 
BRANCH   2   3
ATOM      3  N   UNL     1     -44.372 -18.744   1.800  1.00  0.00    -0.350 N 
ATOM      4  H   UNL     1     -44.599 -19.752   1.960  1.00  0.00     0.345 HD
ATOM      5  H   UNL     1     -45.187 -18.159   2.094  1.00  0.00     0.345 HD
ATOM      6  H   UNL     1     -44.217 -18.595   0.775  1.00  0.00     0.345 HD
ENDBRANCH   2   3
BRANCH   2   7
ATOM      7  C   UNL     1     -43.369 -17.007   3.221  1.00  0.00     0.099 C 
ATOM      8  O   UNL     1     -42.920 -16.825   4.384  1.00  0.00    -0.544 OA
ATOM      9  O   UNL     1     -44.000 -15.959   2.562  1.00  0.00    -0.544 OA
ENDBRANCH   2   7
ENDBRANCH   1   2
BRANCH   1  10
ATOM     10  C   UNL     1     -42.150 -17.833   0.218  1.00  0.00     0.076 C 
BRANCH  10  11
ATOM     11  S   UNL     1     -41.668 -19.125  -0.977  1.00  0.00    -0.165 SA
ATOM     12  C   UNL     1     -42.995 -18.734  -2.162  1.00  0.00     0.085 C 
ENDBRANCH  10  11
ENDBRANCH   1  10
TORSDOF 5
ENDMDL
MODEL 8
REMARK VINA RESULT:    -3.139     17.811     18.402
REMARK INTER + INTRA:          -4.085
REMARK INTER:                  -4.039
REMARK INTRA:                  -0.046
REMARK UNBOUND:                -0.120
REMARK SMILES CSCC[C@H]([NH3+])C(=O)[O-]
REMARK SMILES IDX 4 1 5 2 6 3 7 7 8 8 9 9 3 10 2 11 1 12
REMARK H PARENT 6 4 6 5 6 6
REMARK Flexibility Score: inf
ROOT
ATOM      1  C   UNL     1     -44.390 -17.857   4.990  1.00  0.00     0.082 C 
ENDROOT
BRANCH   1   2
ATOM      2  C   UNL     1     -43.565 -16.857   4.148  1.00  0.00     0.228 C 
BRANCH   2   3
ATOM      3  N   UNL     1     -44.297 -15.608   3.901  1.00  0.00    -0.350 N 
ATOM      4  H   UNL     1     -43.809 -15.011   3.195  1.00  0.00     0.345 HD
ATOM      5  H   UNL     1     -45.262 -15.823   3.559  1.00  0.00     0.345 HD
ATOM      6  H   UNL     1     -44.380 -15.069   4.794  1.00  0.00     0.345 HD
ENDBRANCH   2   3
BRANCH   2   7
ATOM      7  C   UNL     1     -43.089 -17.479   2.859  1.00  0.00     0.099 C 
ATOM      8  O   UNL     1     -43.906 -17.678   1.920  1.00  0.00    -0.544 OA
ATOM      9  O   UNL     1     -41.748 -17.793   2.674  1.00  0.00    -0.544 OA
ENDBRANCH   2   7
ENDBRANCH   1   2
BRANCH   1  10
ATOM     10  C   UNL     1     -45.521 -17.215   5.804  1.00  0.00     0.076 C 
BRANCH  10  11
ATOM     11  S   UNL     1     -46.680 -18.505   6.369  1.00  0.00    -0.165 SA
ATOM     12  C   UNL     1     -48.176 -17.582   5.889  1.00  0.00     0.085 C 
ENDBRANCH  10  11
ENDBRANCH   1  10
TORSDOF 5
ENDMDL
MODEL 9
REMARK VINA RESULT:    -3.125     17.572     18.162
REMARK INTER + INTRA:          -4.067
REMARK INTER:                  -3.991
REMARK INTRA:                  -0.075
REMARK UNBOUND:                -0.120
REMARK SMILES CSCC[C@H]([NH3+])C(=O)[O-]
REMARK SMILES IDX 4 1 5 2 6 3 7 7 8 8 9 9 3 10 2 11 1 12
REMARK H PARENT 6 4 6 5 6 6
REMARK Flexibility Score: inf
ROOT
ATOM      1  C   UNL     1     -42.956 -17.320   3.416  1.00  0.00     0.082 C 
ENDROOT
BRANCH   1   2
ATOM      2  C   UNL     1     -43.210 -17.565   1.911  1.00  0.00     0.228 C 
BRANCH   2   3
ATOM      3  N   UNL     1     -44.274 -18.551   1.684  1.00  0.00    -0.350 N 
ATOM      4  H   UNL     1     -44.133 -19.068   0.786  1.00  0.00     0.345 HD
ATOM      5  H   UNL     1     -44.299 -19.236   2.474  1.00  0.00     0.345 HD
ATOM      6  H   UNL     1     -45.200 -18.064   1.646  1.00  0.00     0.345 HD
ENDBRANCH   2   3
BRANCH   2   7
ATOM      7  C   UNL     1     -41.942 -17.950   1.190  1.00  0.00     0.099 C 
ATOM      8  O   UNL     1     -40.919 -18.271   1.851  1.00  0.00    -0.544 OA
ATOM      9  O   UNL     1     -41.901 -18.003  -0.198  1.00  0.00    -0.544 OA
ENDBRANCH   2   7
ENDBRANCH   1   2
BRANCH   1  10
ATOM     10  C   UNL     1     -44.206 -16.922   4.210  1.00  0.00     0.076 C 
BRANCH  10  11
ATOM     11  S   UNL     1     -44.588 -18.214   5.441  1.00  0.00    -0.165 SA
ATOM     12  C   UNL     1     -46.113 -17.412   6.031  1.00  0.00     0.085 C 
ENDBRANCH  10  11
ENDBRANCH   1  10
TORSDOF 5
ENDMDL
