MODEL 1
REMARK VINA RESULT:    -4.639      0.000      0.000
REMARK INTER + INTRA:          -8.158
REMARK INTER:                  -7.351
REMARK INTRA:                  -0.807
REMARK UNBOUND:                -0.807
REMARK SMILES CCCCCCCCCCCC(=O)[O-]
REMARK SMILES IDX 7 1 8 2 9 3 10 4 11 5 12 6 13 7 14 8 6 9 5 10 4 11 3 12 2 13
REMARK SMILES IDX 1 14
REMARK H PARENT
REMARK Flexibility Score: inf
ROOT
ATOM      1  C   UNL     1      42.972  22.460  21.408  1.00  0.00     0.000 C 
ENDROOT
BRANCH   1   2
ATOM      2  C   UNL     1      43.493  21.089  20.938  1.00  0.00     0.000 C 
BRANCH   2   3
ATOM      3  C   UNL     1      44.958  20.839  21.327  1.00  0.00     0.000 C 
BRANCH   3   4
ATOM      4  C   UNL     1      45.703  22.161  21.542  1.00  0.00     0.006 C 
BRANCH   4   5
ATOM      5  C   UNL     1      46.832  22.327  20.521  1.00  0.00     0.053 C 
BRANCH   5   6
ATOM      6  C   UNL     1      46.627  23.568  19.710  1.00  0.00     0.041 C 
ATOM      7  O   UNL     1      45.596  23.696  18.998  1.00  0.00    -0.550 OA
ATOM      8  O   UNL     1      47.599  24.561  19.700  1.00  0.00    -0.550 OA
ENDBRANCH   5   6
ENDBRANCH   4   5
ENDBRANCH   3   4
ENDBRANCH   2   3
ENDBRANCH   1   2
BRANCH   1   9
ATOM      9  C   UNL     1      42.168  23.242  20.353  1.00  0.00     0.000 C 
BRANCH   9  10
ATOM     10  C   UNL     1      42.378  22.708  18.926  1.00  0.00    -0.000 C 
BRANCH  10  11
ATOM     11  C   UNL     1      41.106  22.795  18.067  1.00  0.00    -0.000 C 
BRANCH  11  12
ATOM     12  C   UNL     1      39.980  23.581  18.760  1.00  0.00    -0.000 C 
BRANCH  12  13
ATOM     13  C   UNL     1      38.913  24.076  17.771  1.00  0.00    -0.003 C 
ATOM     14  C   UNL     1      38.420  22.975  16.832  1.00  0.00     0.004 C 
ENDBRANCH  12  13
ENDBRANCH  11  12
ENDBRANCH  10  11
ENDBRANCH   9  10
ENDBRANCH   1   9
TORSDOF 10
ENDMDL
MODEL 2
REMARK VINA RESULT:    -4.621     14.999     16.633
REMARK INTER + INTRA:          -8.129
REMARK INTER:                  -7.613
REMARK INTRA:                  -0.516
REMARK UNBOUND:                -0.807
REMARK SMILES CCCCCCCCCCCC(=O)[O-]
REMARK SMILES IDX 7 1 8 2 9 3 10 4 11 5 12 6 13 7 14 8 6 9 5 10 4 11 3 12 2 13
REMARK SMILES IDX 1 14
REMARK H PARENT
REMARK Flexibility Score: inf
ROOT
ATOM      1  C   UNL     1      46.193  25.262   2.066  1.00  0.00     0.000 C 
ENDROOT
BRANCH   1   2
ATOM      2  C   UNL     1      46.075  26.279   3.216  1.00  0.00     0.000 C 
BRANCH   2   3
ATOM      3  C   UNL     1      44.743  27.043   3.208  1.00  0.00     0.000 C 
BRANCH   3   4
ATOM      4  C   UNL     1      43.926  26.737   4.468  1.00  0.00     0.006 C 
BRANCH   4   5
ATOM      5  C   UNL     1      44.489  27.481   5.682  1.00  0.00     0.053 C 
BRANCH   5   6
ATOM      6  C   UNL     1      44.794  26.523   6.790  1.00  0.00     0.041 C 
ATOM      7  O   UNL     1      43.864  26.062   7.504  1.00  0.00    -0.550 OA
ATOM      8  O   UNL     1      46.111  26.178   7.069  1.00  0.00    -0.550 OA
ENDBRANCH   5   6
ENDBRANCH   4   5
ENDBRANCH   3   4
ENDBRANCH   2   3
ENDBRANCH   1   2
BRANCH   1   9
ATOM      9  C   UNL     1      47.034  24.014   2.391  1.00  0.00     0.000 C 
BRANCH   9  10
ATOM     10  C   UNL     1      47.673  24.072   3.789  1.00  0.00    -0.000 C 
BRANCH  10  11
ATOM     11  C   UNL     1      48.585  22.868   4.074  1.00  0.00    -0.000 C 
BRANCH  11  12
ATOM     12  C   UNL     1      47.993  21.544   3.559  1.00  0.00    -0.000 C 
BRANCH  12  13
ATOM     13  C   UNL     1      48.692  20.314   4.156  1.00  0.00    -0.003 C 
ATOM     14  C   UNL     1      47.786  19.083   4.206  1.00  0.00     0.004 C 
ENDBRANCH  12  13
ENDBRANCH  11  12
ENDBRANCH  10  11
ENDBRANCH   9  10
ENDBRANCH   1   9
TORSDOF 10
ENDMDL
MODEL 3
REMARK VINA RESULT:    -4.618     14.895     16.696
REMARK INTER + INTRA:          -8.124
REMARK INTER:                  -7.537
REMARK INTRA:                  -0.588
REMARK UNBOUND:                -0.807
REMARK SMILES CCCCCCCCCCCC(=O)[O-]
REMARK SMILES IDX 7 1 8 2 9 3 10 4 11 5 12 6 13 7 14 8 6 9 5 10 4 11 3 12 2 13
REMARK SMILES IDX 1 14
REMARK H PARENT
REMARK Flexibility Score: inf
ROOT
ATOM      1  C   UNL     1      45.841  26.063   2.655  1.00  0.00     0.000 C 
ENDROOT
BRANCH   1   2
ATOM      2  C   UNL     1      44.345  26.205   2.989  1.00  0.00     0.000 C 
BRANCH   2   3
ATOM      3  C   UNL     1      44.092  26.934   4.316  1.00  0.00     0.000 C 
BRANCH   3   4
ATOM      4  C   UNL     1      45.369  26.994   5.162  1.00  0.00     0.006 C 
BRANCH   4   5
ATOM      5  C   UNL     1      45.083  27.574   6.550  1.00  0.00     0.053 C 
BRANCH   5   6
ATOM      6  C   UNL     1      44.254  26.623   7.354  1.00  0.00     0.041 C 
ATOM      7  O   UNL     1      44.786  25.614   7.888  1.00  0.00    -0.550 OA
ATOM      8  O   UNL     1      42.884  26.822   7.472  1.00  0.00    -0.550 OA
ENDBRANCH   5   6
ENDBRANCH   4   5
ENDBRANCH   3   4
ENDBRANCH   2   3
ENDBRANCH   1   2
BRANCH   1   9
ATOM      9  C   UNL     1      46.228  24.740   1.970  1.00  0.00     0.000 C 
BRANCH   9  10
ATOM     10  C   UNL     1      47.648  24.272   2.333  1.00  0.00    -0.000 C 
BRANCH  10  11
ATOM     11  C   UNL     1      47.665  23.294   3.519  1.00  0.00    -0.000 C 
BRANCH  11  12
ATOM     12  C   UNL     1      49.066  23.136   4.134  1.00  0.00    -0.000 C 
BRANCH  12  13
ATOM     13  C   UNL     1      49.983  24.328   3.822  1.00  0.00    -0.003 C 
ATOM     14  C   UNL     1      51.454  24.040   4.124  1.00  0.00     0.004 C 
ENDBRANCH  12  13
ENDBRANCH  11  12
ENDBRANCH  10  11
ENDBRANCH   9  10
ENDBRANCH   1   9
TORSDOF 10
ENDMDL
MODEL 4
REMARK VINA RESULT:    -4.601     15.271     16.437
REMARK INTER + INTRA:          -8.098
REMARK INTER:                  -7.285
REMARK INTRA:                  -0.813
REMARK UNBOUND:                -0.807
REMARK SMILES CCCCCCCCCCCC(=O)[O-]
REMARK SMILES IDX 7 1 8 2 9 3 10 4 11 5 12 6 13 7 14 8 6 9 5 10 4 11 3 12 2 13
REMARK SMILES IDX 1 14
REMARK H PARENT
REMARK Flexibility Score: inf
ROOT
ATOM      1  C   UNL     1      46.311  25.851   2.245  1.00  0.00     0.000 C 
ENDROOT
BRANCH   1   2
ATOM      2  C   UNL     1      46.832  24.870   3.312  1.00  0.00     0.000 C 
BRANCH   2   3
ATOM      3  C   UNL     1      47.050  23.451   2.769  1.00  0.00     0.000 C 
BRANCH   3   4
ATOM      4  C   UNL     1      48.165  22.733   3.538  1.00  0.00     0.006 C 
BRANCH   4   5
ATOM      5  C   UNL     1      49.031  23.733   4.310  1.00  0.00     0.053 C 
BRANCH   5   6
ATOM      6  C   UNL     1      50.437  23.713   3.798  1.00  0.00     0.041 C 
ATOM      7  O   UNL     1      50.876  22.701   3.191  1.00  0.00    -0.550 OA
ATOM      8  O   UNL     1      51.279  24.792   4.037  1.00  0.00    -0.550 OA
ENDBRANCH   5   6
ENDBRANCH   4   5
ENDBRANCH   3   4
ENDBRANCH   2   3
ENDBRANCH   1   2
BRANCH   1   9
ATOM      9  C   UNL     1      45.383  26.956   2.781  1.00  0.00     0.000 C 
BRANCH   9  10
ATOM     10  C   UNL     1      44.176  26.400   3.555  1.00  0.00    -0.000 C 
BRANCH  10  11
ATOM     11  C   UNL     1      43.941  27.126   4.890  1.00  0.00    -0.000 C 
BRANCH  11  12
ATOM     12  C   UNL     1      45.242  27.334   5.684  1.00  0.00    -0.000 C 
BRANCH  12  13
ATOM     13  C   UNL     1      45.439  26.274   6.779  1.00  0.00    -0.003 C 
ATOM     14  C   UNL     1      44.149  25.959   7.538  1.00  0.00     0.004 C 
ENDBRANCH  12  13
ENDBRANCH  11  12
ENDBRANCH  10  11
ENDBRANCH   9  10
ENDBRANCH   1   9
TORSDOF 10
ENDMDL
MODEL 5
REMARK VINA RESULT:    -4.585     15.271     16.435
REMARK INTER + INTRA:          -8.072
REMARK INTER:                  -7.512
REMARK INTRA:                  -0.560
REMARK UNBOUND:                -0.807
REMARK SMILES CCCCCCCCCCCC(=O)[O-]
REMARK SMILES IDX 7 1 8 2 9 3 10 4 11 5 12 6 13 7 14 8 6 9 5 10 4 11 3 12 2 13
REMARK SMILES IDX 1 14
REMARK H PARENT
REMARK Flexibility Score: inf
ROOT
ATOM      1  C   UNL     1      46.653  25.116   2.337  1.00  0.00     0.000 C 
ENDROOT
BRANCH   1   2
ATOM      2  C   UNL     1      48.026  24.781   2.947  1.00  0.00     0.000 C 
BRANCH   2   3
ATOM      3  C   UNL     1      47.929  23.867   4.178  1.00  0.00     0.000 C 
BRANCH   3   4
ATOM      4  C   UNL     1      48.639  22.531   3.927  1.00  0.00     0.006 C 
BRANCH   4   5
ATOM      5  C   UNL     1      47.691  21.520   3.277  1.00  0.00     0.053 C 
BRANCH   5   6
ATOM      6  C   UNL     1      48.035  20.128   3.706  1.00  0.00     0.041 C 
ATOM      7  O   UNL     1      47.334  19.155   3.321  1.00  0.00    -0.550 OA
ATOM      8  O   UNL     1      49.098  19.910   4.573  1.00  0.00    -0.550 OA
ENDBRANCH   5   6
ENDBRANCH   4   5
ENDBRANCH   3   4
ENDBRANCH   2   3
ENDBRANCH   1   2
BRANCH   1   9
ATOM      9  C   UNL     1      46.015  26.417   2.857  1.00  0.00     0.000 C 
BRANCH   9  10
ATOM     10  C   UNL     1      44.488  26.312   3.014  1.00  0.00    -0.000 C 
BRANCH  10  11
ATOM     11  C   UNL     1      43.990  26.878   4.354  1.00  0.00    -0.000 C 
BRANCH  11  12
ATOM     12  C   UNL     1      45.090  26.900   5.430  1.00  0.00    -0.000 C 
BRANCH  12  13
ATOM     13  C   UNL     1      44.547  27.270   6.819  1.00  0.00    -0.003 C 
ATOM     14  C   UNL     1      43.858  26.098   7.518  1.00  0.00     0.004 C 
ENDBRANCH  12  13
ENDBRANCH  11  12
ENDBRANCH  10  11
ENDBRANCH   9  10
ENDBRANCH   1   9
TORSDOF 10
ENDMDL
MODEL 6
REMARK VINA RESULT:    -4.504     10.712     11.843
REMARK INTER + INTRA:          -7.943
REMARK INTER:                  -6.560
REMARK INTRA:                  -1.384
REMARK UNBOUND:                -0.807
REMARK SMILES CCCCCCCCCCCC(=O)[O-]
REMARK SMILES IDX 7 1 8 2 9 3 10 4 11 5 12 6 13 7 14 8 6 9 5 10 4 11 3 12 2 13
REMARK SMILES IDX 1 14
REMARK H PARENT
REMARK Flexibility Score: inf
ROOT
ATOM      1  C   UNL     1      45.944  34.139  15.794  1.00  0.00     0.000 C 
ENDROOT
BRANCH   1   2
ATOM      2  C   UNL     1      45.777  34.143  14.264  1.00  0.00     0.000 C 
BRANCH   2   3
ATOM      3  C   UNL     1      46.279  32.852  13.602  1.00  0.00     0.000 C 
BRANCH   3   4
ATOM      4  C   UNL     1      45.364  32.435  12.445  1.00  0.00     0.006 C 
BRANCH   4   5
ATOM      5  C   UNL     1      46.016  31.339  11.597  1.00  0.00     0.053 C 
BRANCH   5   6
ATOM      6  C   UNL     1      47.072  31.920  10.710  1.00  0.00     0.041 C 
ATOM      7  O   UNL     1      46.871  33.014  10.118  1.00  0.00    -0.550 OA
ATOM      8  O   UNL     1      48.258  31.228  10.496  1.00  0.00    -0.550 OA
ENDBRANCH   5   6
ENDBRANCH   4   5
ENDBRANCH   3   4
ENDBRANCH   2   3
ENDBRANCH   1   2
BRANCH   1   9
ATOM      9  C   UNL     1      44.881  33.329  16.558  1.00  0.00     0.000 C 
BRANCH   9  10
ATOM     10  C   UNL     1      43.518  33.309  15.844  1.00  0.00    -0.000 C 
BRANCH  10  11
ATOM     11  C   UNL     1      43.069  31.889  15.464  1.00  0.00    -0.000 C 
BRANCH  11  12
ATOM     12  C   UNL     1      44.144  30.830  15.763  1.00  0.00    -0.000 C 
BRANCH  12  13
ATOM     13  C   UNL     1      44.182  29.715  14.709  1.00  0.00    -0.003 C 
ATOM     14  C   UNL     1      42.954  29.718  13.798  1.00  0.00     0.004 C 
ENDBRANCH  12  13
ENDBRANCH  11  12
ENDBRANCH  10  11
ENDBRANCH   9  10
ENDBRANCH   1   9
TORSDOF 10
ENDMDL
MODEL 7
REMARK VINA RESULT:    -4.496      3.164      6.365
REMARK INTER + INTRA:          -7.930
REMARK INTER:                  -7.105
REMARK INTRA:                  -0.825
REMARK UNBOUND:                -0.807
REMARK SMILES CCCCCCCCCCCC(=O)[O-]
REMARK SMILES IDX 7 1 8 2 9 3 10 4 11 5 12 6 13 7 14 8 6 9 5 10 4 11 3 12 2 13
REMARK SMILES IDX 1 14
REMARK H PARENT
REMARK Flexibility Score: inf
ROOT
ATOM      1  C   UNL     1      43.003  22.488  21.342  1.00  0.00     0.000 C 
ENDROOT
BRANCH   1   2
ATOM      2  C   UNL     1      43.221  23.526  20.225  1.00  0.00     0.000 C 
BRANCH   2   3
ATOM      3  C   UNL     1      42.024  24.468  20.039  1.00  0.00     0.000 C 
BRANCH   3   4
ATOM      4  C   UNL     1      40.748  23.680  19.721  1.00  0.00     0.006 C 
BRANCH   4   5
ATOM      5  C   UNL     1      40.754  23.187  18.271  1.00  0.00     0.053 C 
BRANCH   5   6
ATOM      6  C   UNL     1      39.417  23.405  17.637  1.00  0.00     0.041 C 
ATOM      7  O   UNL     1      38.756  24.446  17.893  1.00  0.00    -0.550 OA
ATOM      8  O   UNL     1      38.876  22.434  16.803  1.00  0.00    -0.550 OA
ENDBRANCH   5   6
ENDBRANCH   4   5
ENDBRANCH   3   4
ENDBRANCH   2   3
ENDBRANCH   1   2
BRANCH   1   9
ATOM      9  C   UNL     1      43.473  21.063  21.000  1.00  0.00     0.000 C 
BRANCH   9  10
ATOM     10  C   UNL     1      44.586  20.561  21.936  1.00  0.00    -0.000 C 
BRANCH  10  11
ATOM     11  C   UNL     1      45.778  21.529  22.012  1.00  0.00    -0.000 C 
BRANCH  11  12
ATOM     12  C   UNL     1      46.485  21.701  20.657  1.00  0.00    -0.000 C 
BRANCH  12  13
ATOM     13  C   UNL     1      47.273  23.017  20.567  1.00  0.00    -0.003 C 
ATOM     14  C   UNL     1      46.795  23.917  19.427  1.00  0.00     0.004 C 
ENDBRANCH  12  13
ENDBRANCH  11  12
ENDBRANCH  10  11
ENDBRANCH   9  10
ENDBRANCH   1   9
TORSDOF 10
ENDMDL
MODEL 8
REMARK VINA RESULT:    -4.427      2.014      2.769
REMARK INTER + INTRA:          -7.822
REMARK INTER:                  -7.082
REMARK INTRA:                  -0.740
REMARK UNBOUND:                -0.807
REMARK SMILES CCCCCCCCCCCC(=O)[O-]
REMARK SMILES IDX 7 1 8 2 9 3 10 4 11 5 12 6 13 7 14 8 6 9 5 10 4 11 3 12 2 13
REMARK SMILES IDX 1 14
REMARK H PARENT
REMARK Flexibility Score: inf
ROOT
ATOM      1  C   UNL     1      41.862  25.218  20.884  1.00  0.00     0.000 C 
ENDROOT
BRANCH   1   2
ATOM      2  C   UNL     1      42.729  26.473  20.676  1.00  0.00     0.000 C 
BRANCH   2   3
ATOM      3  C   UNL     1      43.994  26.199  19.850  1.00  0.00     0.000 C 
BRANCH   3   4
ATOM      4  C   UNL     1      44.843  25.097  20.493  1.00  0.00     0.006 C 
BRANCH   4   5
ATOM      5  C   UNL     1      45.340  24.102  19.441  1.00  0.00     0.053 C 
BRANCH   5   6
ATOM      6  C   UNL     1      46.836  24.045  19.437  1.00  0.00     0.041 C 
ATOM      7  O   UNL     1      47.505  24.997  18.954  1.00  0.00    -0.550 OA
ATOM      8  O   UNL     1      47.490  22.919  19.921  1.00  0.00    -0.550 OA
ENDBRANCH   5   6
ENDBRANCH   4   5
ENDBRANCH   3   4
ENDBRANCH   2   3
ENDBRANCH   1   2
BRANCH   1   9
ATOM      9  C   UNL     1      41.171  24.692  19.613  1.00  0.00     0.000 C 
BRANCH   9  10
ATOM     10  C   UNL     1      41.661  23.294  19.201  1.00  0.00    -0.000 C 
BRANCH  10  11
ATOM     11  C   UNL     1      41.036  22.810  17.883  1.00  0.00    -0.000 C 
BRANCH  11  12
ATOM     12  C   UNL     1      39.632  23.392  17.647  1.00  0.00    -0.000 C 
BRANCH  12  13
ATOM     13  C   UNL     1      38.722  22.436  16.862  1.00  0.00    -0.003 C 
ATOM     14  C   UNL     1      37.249  22.566  17.250  1.00  0.00     0.004 C 
ENDBRANCH  12  13
ENDBRANCH  11  12
ENDBRANCH  10  11
ENDBRANCH   9  10
ENDBRANCH   1   9
TORSDOF 10
ENDMDL
MODEL 9
REMARK VINA RESULT:    -4.423     10.071     11.293
REMARK INTER + INTRA:          -7.816
REMARK INTER:                  -6.441
REMARK INTRA:                  -1.374
REMARK UNBOUND:                -0.807
REMARK SMILES CCCCCCCCCCCC(=O)[O-]
REMARK SMILES IDX 7 1 8 2 9 3 10 4 11 5 12 6 13 7 14 8 6 9 5 10 4 11 3 12 2 13
REMARK SMILES IDX 1 14
REMARK H PARENT
REMARK Flexibility Score: inf
ROOT
ATOM      1  C   UNL     1      45.517  30.081  15.315  1.00  0.00     0.000 C 
ENDROOT
BRANCH   1   2
ATOM      2  C   UNL     1      44.602  29.526  14.208  1.00  0.00     0.000 C 
BRANCH   2   3
ATOM      3  C   UNL     1      43.728  30.606  13.554  1.00  0.00     0.000 C 
BRANCH   3   4
ATOM      4  C   UNL     1      44.586  31.754  13.012  1.00  0.00     0.006 C 
BRANCH   4   5
ATOM      5  C   UNL     1      45.036  31.473  11.575  1.00  0.00     0.053 C 
BRANCH   5   6
ATOM      6  C   UNL     1      46.455  31.904  11.376  1.00  0.00     0.041 C 
ATOM      7  O   UNL     1      47.329  31.625  12.239  1.00  0.00    -0.550 OA
ATOM      8  O   UNL     1      46.803  32.657  10.262  1.00  0.00    -0.550 OA
ENDBRANCH   5   6
ENDBRANCH   4   5
ENDBRANCH   3   4
ENDBRANCH   2   3
ENDBRANCH   1   2
BRANCH   1   9
ATOM      9  C   UNL     1      44.990  29.886  16.748  1.00  0.00     0.000 C 
BRANCH   9  10
ATOM     10  C   UNL     1      44.735  31.217  17.476  1.00  0.00    -0.000 C 
BRANCH  10  11
ATOM     11  C   UNL     1      43.469  31.933  16.977  1.00  0.00    -0.000 C 
BRANCH  11  12
ATOM     12  C   UNL     1      43.778  33.298  16.338  1.00  0.00    -0.000 C 
BRANCH  12  13
ATOM     13  C   UNL     1      45.185  33.807  16.686  1.00  0.00    -0.003 C 
ATOM     14  C   UNL     1      46.010  34.162  15.448  1.00  0.00     0.004 C 
ENDBRANCH  12  13
ENDBRANCH  11  12
ENDBRANCH  10  11
ENDBRANCH   9  10
ENDBRANCH   1   9
TORSDOF 10
ENDMDL
