MODEL 1
REMARK VINA RESULT:    -2.429      0.000      0.000
REMARK INTER + INTRA:          -7.456
REMARK INTER:                  -5.552
REMARK INTRA:                  -1.904
REMARK UNBOUND:                -1.904
REMARK SMILES CCCCCCCCCCCCCCCCCCCCCCCC(=O)[O-]
REMARK SMILES IDX 13 1 14 2 15 3 16 4 17 5 18 6 19 7 20 8 21 9 22 10 23 11
REMARK SMILES IDX 24 12 25 13 26 14 12 15 11 16 10 17 9 18 8 19 7 20 6 21 5 22
REMARK SMILES IDX 4 23 3 24 2 25 1 26
REMARK H PARENT
REMARK Flexibility Score: inf
ROOT
ATOM      1  C   UNL     1      32.659  -1.003  42.794  1.00  0.00     0.000 C 
ENDROOT
BRANCH   1   2
ATOM      2  C   UNL     1      31.295  -1.110  43.491  1.00  0.00     0.000 C 
BRANCH   2   3
ATOM      3  C   UNL     1      31.412  -0.762  44.983  1.00  0.00     0.000 C 
BRANCH   3   4
ATOM      4  C   UNL     1      31.167  -1.974  45.895  1.00  0.00     0.000 C 
BRANCH   4   5
ATOM      5  C   UNL     1      30.866  -3.258  45.107  1.00  0.00     0.000 C 
BRANCH   5   6
ATOM      6  C   UNL     1      29.426  -3.726  45.351  1.00  0.00     0.000 C 
BRANCH   6   7
ATOM      7  C   UNL     1      28.478  -3.175  44.276  1.00  0.00     0.000 C 
BRANCH   7   8
ATOM      8  C   UNL     1      27.886  -1.803  44.645  1.00  0.00     0.000 C 
BRANCH   8   9
ATOM      9  C   UNL     1      27.946  -1.447  46.144  1.00  0.00     0.000 C 
BRANCH   9  10
ATOM     10  C   UNL     1      26.617  -1.603  46.905  1.00  0.00     0.006 C 
BRANCH  10  11
ATOM     11  C   UNL     1      26.044  -3.022  46.819  1.00  0.00     0.053 C 
BRANCH  11  12
ATOM     12  C   UNL     1      26.724  -3.921  47.802  1.00  0.00     0.041 C 
ATOM     13  O   UNL     1      26.984  -3.510  48.963  1.00  0.00    -0.550 OA
ATOM     14  O   UNL     1      27.026  -5.231  47.451  1.00  0.00    -0.550 OA
ENDBRANCH  11  12
ENDBRANCH  10  11
ENDBRANCH   9  10
ENDBRANCH   8   9
ENDBRANCH   7   8
ENDBRANCH   6   7
ENDBRANCH   5   6
ENDBRANCH   4   5
ENDBRANCH   3   4
ENDBRANCH   2   3
ENDBRANCH   1   2
BRANCH   1  15
ATOM     15  C   UNL     1      33.314   0.379  42.968  1.00  0.00     0.000 C 
BRANCH  15  16
ATOM     16  C   UNL     1      34.730   0.512  42.372  1.00  0.00     0.000 C 
BRANCH  16  17
ATOM     17  C   UNL     1      35.367  -0.804  41.889  1.00  0.00     0.000 C 
BRANCH  17  18
ATOM     18  C   UNL     1      36.904  -0.774  41.935  1.00  0.00    -0.000 C 
BRANCH  18  19
ATOM     19  C   UNL     1      37.460  -1.137  43.323  1.00  0.00    -0.000 C 
BRANCH  19  20
ATOM     20  C   UNL     1      38.851  -1.784  43.255  1.00  0.00    -0.000 C 
BRANCH  20  21
ATOM     21  C   UNL     1      39.005  -2.616  41.973  1.00  0.00    -0.000 C 
BRANCH  21  22
ATOM     22  C   UNL     1      38.152  -3.899  41.982  1.00  0.00    -0.000 C 
BRANCH  22  23
ATOM     23  C   UNL     1      38.141  -4.661  43.319  1.00  0.00    -0.000 C 
BRANCH  23  24
ATOM     24  C   UNL     1      36.930  -4.306  44.200  1.00  0.00    -0.000 C 
BRANCH  24  25
ATOM     25  C   UNL     1      35.647  -4.103  43.381  1.00  0.00    -0.003 C 
ATOM     26  C   UNL     1      34.382  -4.422  44.176  1.00  0.00     0.004 C 
ENDBRANCH  24  25
ENDBRANCH  23  24
ENDBRANCH  22  23
ENDBRANCH  21  22
ENDBRANCH  20  21
ENDBRANCH  19  20
ENDBRANCH  18  19
ENDBRANCH  17  18
ENDBRANCH  16  17
ENDBRANCH  15  16
ENDBRANCH   1  15
TORSDOF 22
ENDMDL
MODEL 2
REMARK VINA RESULT:    -1.850      2.711      8.554
REMARK INTER + INTRA:          -6.133
REMARK INTER:                  -4.728
REMARK INTRA:                  -1.404
REMARK UNBOUND:                -1.904
REMARK SMILES CCCCCCCCCCCCCCCCCCCCCCCC(=O)[O-]
REMARK SMILES IDX 13 1 14 2 15 3 16 4 17 5 18 6 19 7 20 8 21 9 22 10 23 11
REMARK SMILES IDX 24 12 25 13 26 14 12 15 11 16 10 17 9 18 8 19 7 20 6 21 5 22
REMARK SMILES IDX 4 23 3 24 2 25 1 26
REMARK H PARENT
REMARK Flexibility Score: inf
ROOT
ATOM      1  C   UNL     1      30.792  -1.054  41.946  1.00  0.00     0.000 C 
ENDROOT
BRANCH   1   2
ATOM      2  C   UNL     1      31.433  -0.115  42.978  1.00  0.00     0.000 C 
BRANCH   2   3
ATOM      3  C   UNL     1      32.880  -0.533  43.276  1.00  0.00     0.000 C 
BRANCH   3   4
ATOM      4  C   UNL     1      33.868  -0.063  42.196  1.00  0.00     0.000 C 
BRANCH   4   5
ATOM      5  C   UNL     1      34.940  -1.115  41.875  1.00  0.00     0.000 C 
BRANCH   5   6
ATOM      6  C   UNL     1      36.347  -0.556  42.118  1.00  0.00     0.000 C 
BRANCH   6   7
ATOM      7  C   UNL     1      36.826  -0.869  43.543  1.00  0.00     0.000 C 
BRANCH   7   8
ATOM      8  C   UNL     1      38.111  -1.716  43.569  1.00  0.00     0.000 C 
BRANCH   8   9
ATOM      9  C   UNL     1      38.181  -2.832  42.507  1.00  0.00     0.000 C 
BRANCH   9  10
ATOM     10  C   UNL     1      37.811  -4.238  43.011  1.00  0.00     0.006 C 
BRANCH  10  11
ATOM     11  C   UNL     1      36.757  -4.214  44.124  1.00  0.00     0.053 C 
BRANCH  11  12
ATOM     12  C   UNL     1      35.382  -4.322  43.544  1.00  0.00     0.041 C 
ATOM     13  O   UNL     1      34.430  -4.746  44.250  1.00  0.00    -0.550 OA
ATOM     14  O   UNL     1      35.144  -3.909  42.240  1.00  0.00    -0.550 OA
ENDBRANCH  11  12
ENDBRANCH  10  11
ENDBRANCH   9  10
ENDBRANCH   8   9
ENDBRANCH   7   8
ENDBRANCH   6   7
ENDBRANCH   5   6
ENDBRANCH   4   5
ENDBRANCH   3   4
ENDBRANCH   2   3
ENDBRANCH   1   2
BRANCH   1  15
ATOM     15  C   UNL     1      29.256  -0.955  41.917  1.00  0.00     0.000 C 
BRANCH  15  16
ATOM     16  C   UNL     1      28.535  -1.613  43.111  1.00  0.00     0.000 C 
BRANCH  16  17
ATOM     17  C   UNL     1      27.731  -0.651  44.004  1.00  0.00     0.000 C 
BRANCH  17  18
ATOM     18  C   UNL     1      27.975  -0.887  45.504  1.00  0.00    -0.000 C 
BRANCH  18  19
ATOM     19  C   UNL     1      29.462  -0.786  45.883  1.00  0.00    -0.000 C 
BRANCH  19  20
ATOM     20  C   UNL     1      30.036  -2.116  46.392  1.00  0.00    -0.000 C 
BRANCH  20  21
ATOM     21  C   UNL     1      30.265  -3.094  45.230  1.00  0.00    -0.000 C 
BRANCH  21  22
ATOM     22  C   UNL     1      29.536  -4.437  45.422  1.00  0.00    -0.000 C 
BRANCH  22  23
ATOM     23  C   UNL     1      28.098  -4.323  45.959  1.00  0.00    -0.000 C 
BRANCH  23  24
ATOM     24  C   UNL     1      28.041  -4.190  47.491  1.00  0.00    -0.000 C 
BRANCH  24  25
ATOM     25  C   UNL     1      26.872  -3.312  47.963  1.00  0.00    -0.003 C 
ATOM     26  C   UNL     1      25.884  -2.994  46.842  1.00  0.00     0.004 C 
ENDBRANCH  24  25
ENDBRANCH  23  24
ENDBRANCH  22  23
ENDBRANCH  21  22
ENDBRANCH  20  21
ENDBRANCH  19  20
ENDBRANCH  18  19
ENDBRANCH  17  18
ENDBRANCH  16  17
ENDBRANCH  15  16
ENDBRANCH   1  15
TORSDOF 22
ENDMDL
MODEL 3
REMARK VINA RESULT:    -1.358      1.236      2.100
REMARK INTER + INTRA:          -5.009
REMARK INTER:                  -4.196
REMARK INTRA:                  -0.813
REMARK UNBOUND:                -1.904
REMARK SMILES CCCCCCCCCCCCCCCCCCCCCCCC(=O)[O-]
REMARK SMILES IDX 13 1 14 2 15 3 16 4 17 5 18 6 19 7 20 8 21 9 22 10 23 11
REMARK SMILES IDX 24 12 25 13 26 14 12 15 11 16 10 17 9 18 8 19 7 20 6 21 5 22
REMARK SMILES IDX 4 23 3 24 2 25 1 26
REMARK H PARENT
REMARK Flexibility Score: inf
ROOT
ATOM      1  C   UNL     1      32.985  -1.082  43.293  1.00  0.00     0.000 C 
ENDROOT
BRANCH   1   2
ATOM      2  C   UNL     1      31.458  -1.235  43.353  1.00  0.00     0.000 C 
BRANCH   2   3
ATOM      3  C   UNL     1      30.816  -0.858  42.009  1.00  0.00     0.000 C 
BRANCH   3   4
ATOM      4  C   UNL     1      29.373  -1.369  41.877  1.00  0.00     0.000 C 
BRANCH   4   5
ATOM      5  C   UNL     1      28.369  -0.524  42.676  1.00  0.00     0.000 C 
BRANCH   5   6
ATOM      6  C   UNL     1      27.664  -1.372  43.741  1.00  0.00     0.000 C 
BRANCH   6   7
ATOM      7  C   UNL     1      28.128  -0.984  45.152  1.00  0.00     0.000 C 
BRANCH   7   8
ATOM      8  C   UNL     1      29.534  -1.512  45.486  1.00  0.00     0.000 C 
BRANCH   8   9
ATOM      9  C   UNL     1      29.741  -3.021  45.242  1.00  0.00     0.000 C 
BRANCH   9  10
ATOM     10  C   UNL     1      28.632  -3.930  45.800  1.00  0.00     0.006 C 
BRANCH  10  11
ATOM     11  C   UNL     1      28.355  -3.687  47.288  1.00  0.00     0.053 C 
BRANCH  11  12
ATOM     12  C   UNL     1      26.882  -3.679  47.551  1.00  0.00     0.041 C 
ATOM     13  O   UNL     1      26.357  -4.594  48.238  1.00  0.00    -0.550 OA
ATOM     14  O   UNL     1      26.098  -2.634  47.081  1.00  0.00    -0.550 OA
ENDBRANCH  11  12
ENDBRANCH  10  11
ENDBRANCH   9  10
ENDBRANCH   8   9
ENDBRANCH   7   8
ENDBRANCH   6   7
ENDBRANCH   5   6
ENDBRANCH   4   5
ENDBRANCH   3   4
ENDBRANCH   2   3
ENDBRANCH   1   2
BRANCH   1  15
ATOM     15  C   UNL     1      33.488  -0.635  41.909  1.00  0.00     0.000 C 
BRANCH  15  16
ATOM     16  C   UNL     1      34.336   0.654  41.906  1.00  0.00     0.000 C 
BRANCH  16  17
ATOM     17  C   UNL     1      35.814   0.469  42.298  1.00  0.00     0.000 C 
BRANCH  17  18
ATOM     18  C   UNL     1      36.335  -0.948  42.007  1.00  0.00    -0.000 C 
BRANCH  18  19
ATOM     19  C   UNL     1      37.626  -1.272  42.777  1.00  0.00    -0.000 C 
BRANCH  19  20
ATOM     20  C   UNL     1      38.727  -1.848  41.875  1.00  0.00    -0.000 C 
BRANCH  20  21
ATOM     21  C   UNL     1      38.756  -3.382  41.958  1.00  0.00    -0.000 C 
BRANCH  21  22
ATOM     22  C   UNL     1      37.469  -3.976  42.561  1.00  0.00    -0.000 C 
BRANCH  22  23
ATOM     23  C   UNL     1      37.499  -4.172  44.088  1.00  0.00    -0.000 C 
BRANCH  23  24
ATOM     24  C   UNL     1      36.133  -4.588  44.663  1.00  0.00    -0.000 C 
BRANCH  24  25
ATOM     25  C   UNL     1      34.973  -4.283  43.704  1.00  0.00    -0.003 C 
ATOM     26  C   UNL     1      33.604  -4.459  44.359  1.00  0.00     0.004 C 
ENDBRANCH  24  25
ENDBRANCH  23  24
ENDBRANCH  22  23
ENDBRANCH  21  22
ENDBRANCH  20  21
ENDBRANCH  19  20
ENDBRANCH  18  19
ENDBRANCH  17  18
ENDBRANCH  16  17
ENDBRANCH  15  16
ENDBRANCH   1  15
TORSDOF 22
ENDMDL
MODEL 4
REMARK VINA RESULT:    -0.746      0.890      2.115
REMARK INTER + INTRA:          -3.608
REMARK INTER:                  -2.109
REMARK INTRA:                  -1.499
REMARK UNBOUND:                -1.904
REMARK SMILES CCCCCCCCCCCCCCCCCCCCCCCC(=O)[O-]
REMARK SMILES IDX 13 1 14 2 15 3 16 4 17 5 18 6 19 7 20 8 21 9 22 10 23 11
REMARK SMILES IDX 24 12 25 13 26 14 12 15 11 16 10 17 9 18 8 19 7 20 6 21 5 22
REMARK SMILES IDX 4 23 3 24 2 25 1 26
REMARK H PARENT
REMARK Flexibility Score: inf
ROOT
ATOM      1  C   UNL     1      31.313  -1.043  45.254  1.00  0.00     0.000 C 
ENDROOT
BRANCH   1   2
ATOM      2  C   UNL     1      31.461  -2.404  45.950  1.00  0.00     0.000 C 
BRANCH   2   3
ATOM      3  C   UNL     1      30.900  -3.533  45.072  1.00  0.00     0.000 C 
BRANCH   3   4
ATOM      4  C   UNL     1      29.384  -3.721  45.246  1.00  0.00     0.000 C 
BRANCH   4   5
ATOM      5  C   UNL     1      28.637  -3.780  43.905  1.00  0.00     0.000 C 
BRANCH   5   6
ATOM      6  C   UNL     1      27.698  -2.578  43.747  1.00  0.00     0.000 C 
BRANCH   6   7
ATOM      7  C   UNL     1      28.471  -1.256  43.852  1.00  0.00     0.000 C 
BRANCH   7   8
ATOM      8  C   UNL     1      28.006  -0.382  45.031  1.00  0.00     0.000 C 
BRANCH   8   9
ATOM      9  C   UNL     1      26.883  -0.992  45.894  1.00  0.00     0.000 C 
BRANCH   9  10
ATOM     10  C   UNL     1      27.343  -2.057  46.905  1.00  0.00     0.006 C 
BRANCH  10  11
ATOM     11  C   UNL     1      26.219  -3.014  47.315  1.00  0.00     0.053 C 
BRANCH  11  12
ATOM     12  C   UNL     1      26.776  -4.186  48.060  1.00  0.00     0.041 C 
ATOM     13  O   UNL     1      27.037  -5.257  47.452  1.00  0.00    -0.550 OA
ATOM     14  O   UNL     1      27.054  -4.078  49.417  1.00  0.00    -0.550 OA
ENDBRANCH  11  12
ENDBRANCH  10  11
ENDBRANCH   9  10
ENDBRANCH   8   9
ENDBRANCH   7   8
ENDBRANCH   6   7
ENDBRANCH   5   6
ENDBRANCH   4   5
ENDBRANCH   3   4
ENDBRANCH   2   3
ENDBRANCH   1   2
BRANCH   1  15
ATOM     15  C   UNL     1      31.610  -1.107  43.745  1.00  0.00     0.000 C 
BRANCH  15  16
ATOM     16  C   UNL     1      33.031  -0.669  43.338  1.00  0.00     0.000 C 
BRANCH  16  17
ATOM     17  C   UNL     1      33.100   0.532  42.378  1.00  0.00     0.000 C 
BRANCH  17  18
ATOM     18  C   UNL     1      34.540   0.888  41.971  1.00  0.00    -0.000 C 
BRANCH  18  19
ATOM     19  C   UNL     1      35.584  -0.029  42.630  1.00  0.00    -0.000 C 
BRANCH  19  20
ATOM     20  C   UNL     1      36.921  -0.046  41.875  1.00  0.00    -0.000 C 
BRANCH  20  21
ATOM     21  C   UNL     1      37.660  -1.375  42.100  1.00  0.00    -0.000 C 
BRANCH  21  22
ATOM     22  C   UNL     1      37.412  -1.971  43.498  1.00  0.00    -0.000 C 
BRANCH  22  23
ATOM     23  C   UNL     1      37.946  -3.400  43.698  1.00  0.00    -0.000 C 
BRANCH  23  24
ATOM     24  C   UNL     1      36.991  -4.477  43.152  1.00  0.00    -0.000 C 
BRANCH  24  25
ATOM     25  C   UNL     1      35.554  -3.960  42.990  1.00  0.00    -0.003 C 
ATOM     26  C   UNL     1      34.640  -4.389  44.137  1.00  0.00     0.004 C 
ENDBRANCH  24  25
ENDBRANCH  23  24
ENDBRANCH  22  23
ENDBRANCH  21  22
ENDBRANCH  20  21
ENDBRANCH  19  20
ENDBRANCH  18  19
ENDBRANCH  17  18
ENDBRANCH  16  17
ENDBRANCH  15  16
ENDBRANCH   1  15
TORSDOF 22
ENDMDL
MODEL 5
REMARK VINA RESULT:    -0.624      1.005      3.411
REMARK INTER + INTRA:          -3.331
REMARK INTER:                  -2.148
REMARK INTRA:                  -1.183
REMARK UNBOUND:                -1.904
REMARK SMILES CCCCCCCCCCCCCCCCCCCCCCCC(=O)[O-]
REMARK SMILES IDX 13 1 14 2 15 3 16 4 17 5 18 6 19 7 20 8 21 9 22 10 23 11
REMARK SMILES IDX 24 12 25 13 26 14 12 15 11 16 10 17 9 18 8 19 7 20 6 21 5 22
REMARK SMILES IDX 4 23 3 24 2 25 1 26
REMARK H PARENT
REMARK Flexibility Score: inf
ROOT
ATOM      1  C   UNL     1      33.646  -3.406  44.359  1.00  0.00     0.000 C 
ENDROOT
BRANCH   1   2
ATOM      2  C   UNL     1      32.632  -3.748  45.461  1.00  0.00     0.000 C 
BRANCH   2   3
ATOM      3  C   UNL     1      31.309  -4.240  44.856  1.00  0.00     0.000 C 
BRANCH   3   4
ATOM      4  C   UNL     1      30.095  -3.443  45.356  1.00  0.00     0.000 C 
BRANCH   4   5
ATOM      5  C   UNL     1      28.823  -3.725  44.542  1.00  0.00     0.000 C 
BRANCH   5   6
ATOM      6  C   UNL     1      28.340  -2.459  43.824  1.00  0.00     0.000 C 
BRANCH   6   7
ATOM      7  C   UNL     1      29.087  -1.218  44.332  1.00  0.00     0.000 C 
BRANCH   7   8
ATOM      8  C   UNL     1      28.599  -0.751  45.715  1.00  0.00     0.000 C 
BRANCH   8   9
ATOM      9  C   UNL     1      27.071  -0.795  45.919  1.00  0.00     0.000 C 
BRANCH   9  10
ATOM     10  C   UNL     1      26.568  -1.922  46.838  1.00  0.00     0.006 C 
BRANCH  10  11
ATOM     11  C   UNL     1      27.708  -2.712  47.491  1.00  0.00     0.053 C 
BRANCH  11  12
ATOM     12  C   UNL     1      27.194  -3.995  48.064  1.00  0.00     0.041 C 
ATOM     13  O   UNL     1      26.782  -4.038  49.252  1.00  0.00    -0.550 OA
ATOM     14  O   UNL     1      27.123  -5.131  47.268  1.00  0.00    -0.550 OA
ENDBRANCH  11  12
ENDBRANCH  10  11
ENDBRANCH   9  10
ENDBRANCH   8   9
ENDBRANCH   7   8
ENDBRANCH   6   7
ENDBRANCH   5   6
ENDBRANCH   4   5
ENDBRANCH   3   4
ENDBRANCH   2   3
ENDBRANCH   1   2
BRANCH   1  15
ATOM     15  C   UNL     1      34.666  -4.532  44.113  1.00  0.00     0.000 C 
BRANCH  15  16
ATOM     16  C   UNL     1      35.901  -4.126  43.283  1.00  0.00     0.000 C 
BRANCH  16  17
ATOM     17  C   UNL     1      37.255  -4.285  43.998  1.00  0.00     0.000 C 
BRANCH  17  18
ATOM     18  C   UNL     1      38.452  -4.180  43.037  1.00  0.00    -0.000 C 
BRANCH  18  19
ATOM     19  C   UNL     1      38.867  -2.723  42.770  1.00  0.00    -0.000 C 
BRANCH  19  20
ATOM     20  C   UNL     1      37.845  -1.962  41.913  1.00  0.00    -0.000 C 
BRANCH  20  21
ATOM     21  C   UNL     1      37.018  -0.996  42.776  1.00  0.00    -0.000 C 
BRANCH  21  22
ATOM     22  C   UNL     1      36.078  -0.102  41.945  1.00  0.00    -0.000 C 
BRANCH  22  23
ATOM     23  C   UNL     1      34.615  -0.575  41.890  1.00  0.00    -0.000 C 
BRANCH  23  24
ATOM     24  C   UNL     1      33.621   0.502  42.359  1.00  0.00    -0.000 C 
BRANCH  24  25
ATOM     25  C   UNL     1      32.332  -0.100  42.938  1.00  0.00    -0.003 C 
ATOM     26  C   UNL     1      31.465  -0.773  41.875  1.00  0.00     0.004 C 
ENDBRANCH  24  25
ENDBRANCH  23  24
ENDBRANCH  22  23
ENDBRANCH  21  22
ENDBRANCH  20  21
ENDBRANCH  19  20
ENDBRANCH  18  19
ENDBRANCH  17  18
ENDBRANCH  16  17
ENDBRANCH  15  16
ENDBRANCH   1  15
TORSDOF 22
ENDMDL
MODEL 6
REMARK VINA RESULT:    -0.441      4.721     10.942
REMARK INTER + INTRA:          -2.911
REMARK INTER:                  -1.499
REMARK INTRA:                  -1.412
REMARK UNBOUND:                -1.904
REMARK SMILES CCCCCCCCCCCCCCCCCCCCCCCC(=O)[O-]
REMARK SMILES IDX 13 1 14 2 15 3 16 4 17 5 18 6 19 7 20 8 21 9 22 10 23 11
REMARK SMILES IDX 24 12 25 13 26 14 12 15 11 16 10 17 9 18 8 19 7 20 6 21 5 22
REMARK SMILES IDX 4 23 3 24 2 25 1 26
REMARK H PARENT
REMARK Flexibility Score: inf
ROOT
ATOM      1  C   UNL     1      28.625  -3.663  45.626  1.00  0.00     0.000 C 
ENDROOT
BRANCH   1   2
ATOM      2  C   UNL     1      30.088  -3.412  45.233  1.00  0.00     0.000 C 
BRANCH   2   3
ATOM      3  C   UNL     1      30.673  -2.231  46.024  1.00  0.00     0.000 C 
BRANCH   3   4
ATOM      4  C   UNL     1      31.191  -1.107  45.114  1.00  0.00     0.000 C 
BRANCH   4   5
ATOM      5  C   UNL     1      30.600  -1.171  43.697  1.00  0.00     0.000 C 
BRANCH   5   6
ATOM      6  C   UNL     1      31.684  -0.930  42.640  1.00  0.00     0.000 C 
BRANCH   6   7
ATOM      7  C   UNL     1      32.864  -0.144  43.229  1.00  0.00     0.000 C 
BRANCH   7   8
ATOM      8  C   UNL     1      33.867   0.322  42.158  1.00  0.00     0.000 C 
BRANCH   8   9
ATOM      9  C   UNL     1      35.351   0.089  42.507  1.00  0.00     0.000 C 
BRANCH   9  10
ATOM     10  C   UNL     1      35.875  -1.328  42.217  1.00  0.00     0.006 C 
BRANCH  10  11
ATOM     11  C   UNL     1      36.541  -1.978  43.436  1.00  0.00     0.053 C 
BRANCH  11  12
ATOM     12  C   UNL     1      36.362  -3.463  43.399  1.00  0.00     0.041 C 
ATOM     13  O   UNL     1      35.216  -3.959  43.235  1.00  0.00    -0.550 OA
ATOM     14  O   UNL     1      37.467  -4.298  43.497  1.00  0.00    -0.550 OA
ENDBRANCH  11  12
ENDBRANCH  10  11
ENDBRANCH   9  10
ENDBRANCH   8   9
ENDBRANCH   7   8
ENDBRANCH   6   7
ENDBRANCH   5   6
ENDBRANCH   4   5
ENDBRANCH   3   4
ENDBRANCH   2   3
ENDBRANCH   1   2
BRANCH   1  15
ATOM     15  C   UNL     1      27.871  -2.371  45.987  1.00  0.00     0.000 C 
BRANCH  15  16
ATOM     16  C   UNL     1      26.742  -2.540  47.024  1.00  0.00     0.000 C 
BRANCH  16  17
ATOM     17  C   UNL     1      26.761  -3.866  47.806  1.00  0.00     0.000 C 
BRANCH  17  18
ATOM     18  C   UNL     1      27.448  -3.741  49.176  1.00  0.00    -0.000 C 
BRANCH  18  19
ATOM     19  C   UNL     1      26.462  -3.374  50.299  1.00  0.00    -0.000 C 
BRANCH  19  20
ATOM     20  C   UNL     1      27.169  -2.976  51.603  1.00  0.00    -0.000 C 
BRANCH  20  21
ATOM     21  C   UNL     1      26.705  -3.862  52.769  1.00  0.00    -0.000 C 
BRANCH  21  22
ATOM     22  C   UNL     1      26.812  -3.160  54.136  1.00  0.00    -0.000 C 
BRANCH  22  23
ATOM     23  C   UNL     1      27.169  -1.665  54.071  1.00  0.00    -0.000 C 
BRANCH  23  24
ATOM     24  C   UNL     1      26.889  -0.926  55.392  1.00  0.00    -0.000 C 
BRANCH  24  25
ATOM     25  C   UNL     1      25.960   0.283  55.204  1.00  0.00    -0.003 C 
ATOM     26  C   UNL     1      24.551   0.034  55.741  1.00  0.00     0.004 C 
ENDBRANCH  24  25
ENDBRANCH  23  24
ENDBRANCH  22  23
ENDBRANCH  21  22
ENDBRANCH  20  21
ENDBRANCH  19  20
ENDBRANCH  18  19
ENDBRANCH  17  18
ENDBRANCH  16  17
ENDBRANCH  15  16
ENDBRANCH   1  15
TORSDOF 22
ENDMDL
MODEL 7
REMARK VINA RESULT:    -0.413      3.513      9.993
REMARK INTER + INTRA:          -2.849
REMARK INTER:                  -2.282
REMARK INTRA:                  -0.567
REMARK UNBOUND:                -1.904
REMARK SMILES CCCCCCCCCCCCCCCCCCCCCCCC(=O)[O-]
REMARK SMILES IDX 13 1 14 2 15 3 16 4 17 5 18 6 19 7 20 8 21 9 22 10 23 11
REMARK SMILES IDX 24 12 25 13 26 14 12 15 11 16 10 17 9 18 8 19 7 20 6 21 5 22
REMARK SMILES IDX 4 23 3 24 2 25 1 26
REMARK H PARENT
REMARK Flexibility Score: inf
ROOT
ATOM      1  C   UNL     1      31.539  -2.471  44.865  1.00  0.00     0.000 C 
ENDROOT
BRANCH   1   2
ATOM      2  C   UNL     1      31.861  -1.024  44.464  1.00  0.00     0.000 C 
BRANCH   2   3
ATOM      3  C   UNL     1      32.015  -0.897  42.941  1.00  0.00     0.000 C 
BRANCH   3   4
ATOM      4  C   UNL     1      33.485  -0.837  42.496  1.00  0.00     0.000 C 
BRANCH   4   5
ATOM      5  C   UNL     1      34.004   0.602  42.359  1.00  0.00     0.000 C 
BRANCH   5   6
ATOM      6  C   UNL     1      35.526   0.620  42.176  1.00  0.00     0.000 C 
BRANCH   6   7
ATOM      7  C   UNL     1      36.193  -0.493  42.997  1.00  0.00     0.000 C 
BRANCH   7   8
ATOM      8  C   UNL     1      37.248  -1.278  42.195  1.00  0.00     0.000 C 
BRANCH   8   9
ATOM      9  C   UNL     1      38.150  -2.205  43.034  1.00  0.00     0.000 C 
BRANCH   9  10
ATOM     10  C   UNL     1      37.809  -3.703  42.944  1.00  0.00     0.006 C 
BRANCH  10  11
ATOM     11  C   UNL     1      36.803  -4.151  44.010  1.00  0.00     0.053 C 
BRANCH  11  12
ATOM     12  C   UNL     1      35.413  -4.135  43.458  1.00  0.00     0.041 C 
ATOM     13  O   UNL     1      34.429  -4.341  44.214  1.00  0.00    -0.550 OA
ATOM     14  O   UNL     1      35.202  -3.842  42.117  1.00  0.00    -0.550 OA
ENDBRANCH  11  12
ENDBRANCH  10  11
ENDBRANCH   9  10
ENDBRANCH   8   9
ENDBRANCH   7   8
ENDBRANCH   6   7
ENDBRANCH   5   6
ENDBRANCH   4   5
ENDBRANCH   3   4
ENDBRANCH   2   3
ENDBRANCH   1   2
BRANCH   1  15
ATOM     15  C   UNL     1      30.165  -2.613  45.544  1.00  0.00     0.000 C 
BRANCH  15  16
ATOM     16  C   UNL     1      28.990  -1.959  44.788  1.00  0.00     0.000 C 
BRANCH  16  17
ATOM     17  C   UNL     1      27.969  -1.221  45.671  1.00  0.00     0.000 C 
BRANCH  17  18
ATOM     18  C   UNL     1      27.110  -2.178  46.516  1.00  0.00    -0.000 C 
BRANCH  18  19
ATOM     19  C   UNL     1      27.877  -3.442  46.938  1.00  0.00    -0.000 C 
BRANCH  19  20
ATOM     20  C   UNL     1      27.038  -4.379  47.819  1.00  0.00    -0.000 C 
BRANCH  20  21
ATOM     21  C   UNL     1      26.394  -3.609  48.982  1.00  0.00    -0.000 C 
BRANCH  21  22
ATOM     22  C   UNL     1      27.381  -3.317  50.128  1.00  0.00    -0.000 C 
BRANCH  22  23
ATOM     23  C   UNL     1      26.762  -3.331  51.537  1.00  0.00    -0.000 C 
BRANCH  23  24
ATOM     24  C   UNL     1      27.492  -2.399  52.520  1.00  0.00    -0.000 C 
BRANCH  24  25
ATOM     25  C   UNL     1      26.750  -2.259  53.858  1.00  0.00    -0.003 C 
ATOM     26  C   UNL     1      27.699  -2.098  55.044  1.00  0.00     0.004 C 
ENDBRANCH  24  25
ENDBRANCH  23  24
ENDBRANCH  22  23
ENDBRANCH  21  22
ENDBRANCH  20  21
ENDBRANCH  19  20
ENDBRANCH  18  19
ENDBRANCH  17  18
ENDBRANCH  16  17
ENDBRANCH  15  16
ENDBRANCH   1  15
TORSDOF 22
ENDMDL
MODEL 8
REMARK VINA RESULT:    -0.403      2.843      4.470
REMARK INTER + INTRA:          -2.825
REMARK INTER:                  -2.460
REMARK INTRA:                  -0.365
REMARK UNBOUND:                -1.904
REMARK SMILES CCCCCCCCCCCCCCCCCCCCCCCC(=O)[O-]
REMARK SMILES IDX 13 1 14 2 15 3 16 4 17 5 18 6 19 7 20 8 21 9 22 10 23 11
REMARK SMILES IDX 24 12 25 13 26 14 12 15 11 16 10 17 9 18 8 19 7 20 6 21 5 22
REMARK SMILES IDX 4 23 3 24 2 25 1 26
REMARK H PARENT
REMARK Flexibility Score: inf
ROOT
ATOM      1  C   UNL     1      28.263  -1.818  43.554  1.00  0.00     0.000 C 
ENDROOT
BRANCH   1   2
ATOM      2  C   UNL     1      27.971  -1.290  44.967  1.00  0.00     0.000 C 
BRANCH   2   3
ATOM      3  C   UNL     1      29.273  -1.093  45.758  1.00  0.00     0.000 C 
BRANCH   3   4
ATOM      4  C   UNL     1      29.652  -2.327  46.592  1.00  0.00     0.000 C 
BRANCH   4   5
ATOM      5  C   UNL     1      28.684  -3.502  46.386  1.00  0.00     0.000 C 
BRANCH   5   6
ATOM      6  C   UNL     1      27.277  -3.147  46.880  1.00  0.00     0.000 C 
BRANCH   6   7
ATOM      7  C   UNL     1      26.894  -3.989  48.105  1.00  0.00     0.000 C 
BRANCH   7   8
ATOM      8  C   UNL     1      26.591  -3.134  49.349  1.00  0.00     0.000 C 
BRANCH   8   9
ATOM      9  C   UNL     1      27.204  -3.653  50.665  1.00  0.00     0.000 C 
BRANCH   9  10
ATOM     10  C   UNL     1      27.288  -2.616  51.799  1.00  0.00     0.006 C 
BRANCH  10  11
ATOM     11  C   UNL     1      26.822  -3.171  53.149  1.00  0.00     0.053 C 
BRANCH  11  12
ATOM     12  C   UNL     1      27.037  -2.162  54.232  1.00  0.00     0.041 C 
ATOM     13  O   UNL     1      26.818  -0.942  54.013  1.00  0.00    -0.550 OA
ATOM     14  O   UNL     1      27.433  -2.575  55.498  1.00  0.00    -0.550 OA
ENDBRANCH  11  12
ENDBRANCH  10  11
ENDBRANCH   9  10
ENDBRANCH   8   9
ENDBRANCH   7   8
ENDBRANCH   6   7
ENDBRANCH   5   6
ENDBRANCH   4   5
ENDBRANCH   3   4
ENDBRANCH   2   3
ENDBRANCH   1   2
BRANCH   1  15
ATOM     15  C   UNL     1      28.887  -0.753  42.635  1.00  0.00     0.000 C 
BRANCH  15  16
ATOM     16  C   UNL     1      30.226  -1.155  41.984  1.00  0.00     0.000 C 
BRANCH  16  17
ATOM     17  C   UNL     1      31.487  -0.760  42.774  1.00  0.00     0.000 C 
BRANCH  17  18
ATOM     18  C   UNL     1      32.492   0.042  41.931  1.00  0.00    -0.000 C 
BRANCH  18  19
ATOM     19  C   UNL     1      33.809   0.310  42.679  1.00  0.00    -0.000 C 
BRANCH  19  20
ATOM     20  C   UNL     1      35.040  -0.198  41.915  1.00  0.00    -0.000 C 
BRANCH  20  21
ATOM     21  C   UNL     1      35.853  -1.177  42.776  1.00  0.00    -0.000 C 
BRANCH  21  22
ATOM     22  C   UNL     1      35.346  -2.628  42.678  1.00  0.00    -0.000 C 
BRANCH  22  23
ATOM     23  C   UNL     1      36.433  -3.676  42.377  1.00  0.00    -0.000 C 
BRANCH  23  24
ATOM     24  C   UNL     1      37.271  -4.040  43.615  1.00  0.00    -0.000 C 
BRANCH  24  25
ATOM     25  C   UNL     1      38.765  -3.734  43.425  1.00  0.00    -0.003 C 
ATOM     26  C   UNL     1      39.125  -2.297  43.797  1.00  0.00     0.004 C 
ENDBRANCH  24  25
ENDBRANCH  23  24
ENDBRANCH  22  23
ENDBRANCH  21  22
ENDBRANCH  20  21
ENDBRANCH  19  20
ENDBRANCH  18  19
ENDBRANCH  17  18
ENDBRANCH  16  17
ENDBRANCH  15  16
ENDBRANCH   1  15
TORSDOF 22
ENDMDL
MODEL 9
REMARK VINA RESULT:    -0.306      3.098      8.294
REMARK INTER + INTRA:          -2.604
REMARK INTER:                  -0.378
REMARK INTRA:                  -2.226
REMARK UNBOUND:                -1.904
REMARK SMILES CCCCCCCCCCCCCCCCCCCCCCCC(=O)[O-]
REMARK SMILES IDX 13 1 14 2 15 3 16 4 17 5 18 6 19 7 20 8 21 9 22 10 23 11
REMARK SMILES IDX 24 12 25 13 26 14 12 15 11 16 10 17 9 18 8 19 7 20 6 21 5 22
REMARK SMILES IDX 4 23 3 24 2 25 1 26
REMARK H PARENT
REMARK Flexibility Score: inf
ROOT
ATOM      1  C   UNL     1      27.495  -1.380  43.251  1.00  0.00     0.000 C 
ENDROOT
BRANCH   1   2
ATOM      2  C   UNL     1      28.221  -1.175  41.913  1.00  0.00     0.000 C 
BRANCH   2   3
ATOM      3  C   UNL     1      29.721  -1.477  42.052  1.00  0.00     0.000 C 
BRANCH   3   4
ATOM      4  C   UNL     1      30.591  -0.213  41.969  1.00  0.00     0.000 C 
BRANCH   4   5
ATOM      5  C   UNL     1      32.091  -0.530  41.875  1.00  0.00     0.000 C 
BRANCH   5   6
ATOM      6  C   UNL     1      32.895   0.327  42.860  1.00  0.00     0.000 C 
BRANCH   6   7
ATOM      7  C   UNL     1      33.788   1.330  42.116  1.00  0.00     0.000 C 
BRANCH   7   8
ATOM      8  C   UNL     1      35.290   1.080  42.347  1.00  0.00     0.000 C 
BRANCH   8   9
ATOM      9  C   UNL     1      35.803  -0.296  41.879  1.00  0.00     0.000 C 
BRANCH   9  10
ATOM     10  C   UNL     1      36.157  -1.279  43.009  1.00  0.00     0.006 C 
BRANCH  10  11
ATOM     11  C   UNL     1      36.828  -2.559  42.498  1.00  0.00     0.053 C 
BRANCH  11  12
ATOM     12  C   UNL     1      36.556  -3.699  43.428  1.00  0.00     0.041 C 
ATOM     13  O   UNL     1      37.510  -4.368  43.905  1.00  0.00    -0.550 OA
ATOM     14  O   UNL     1      35.252  -3.992  43.806  1.00  0.00    -0.550 OA
ENDBRANCH  11  12
ENDBRANCH  10  11
ENDBRANCH   9  10
ENDBRANCH   8   9
ENDBRANCH   7   8
ENDBRANCH   6   7
ENDBRANCH   5   6
ENDBRANCH   4   5
ENDBRANCH   3   4
ENDBRANCH   2   3
ENDBRANCH   1   2
BRANCH   1  15
ATOM     15  C   UNL     1      27.958  -0.398  44.341  1.00  0.00     0.000 C 
BRANCH  15  16
ATOM     16  C   UNL     1      27.863  -0.931  45.786  1.00  0.00     0.000 C 
BRANCH  16  17
ATOM     17  C   UNL     1      28.996  -0.485  46.727  1.00  0.00     0.000 C 
BRANCH  17  18
ATOM     18  C   UNL     1      30.348  -0.342  46.007  1.00  0.00    -0.000 C 
BRANCH  18  19
ATOM     19  C   UNL     1      31.224  -1.599  46.143  1.00  0.00    -0.000 C 
BRANCH  19  20
ATOM     20  C   UNL     1      31.052  -2.572  44.967  1.00  0.00    -0.000 C 
BRANCH  20  21
ATOM     21  C   UNL     1      30.798  -4.001  45.472  1.00  0.00    -0.000 C 
BRANCH  21  22
ATOM     22  C   UNL     1      29.344  -4.464  45.261  1.00  0.00    -0.000 C 
BRANCH  22  23
ATOM     23  C   UNL     1      28.299  -3.729  46.119  1.00  0.00    -0.000 C 
BRANCH  23  24
ATOM     24  C   UNL     1      27.294  -4.686  46.784  1.00  0.00    -0.000 C 
BRANCH  24  25
ATOM     25  C   UNL     1      26.401  -3.978  47.815  1.00  0.00    -0.003 C 
ATOM     26  C   UNL     1      27.149  -3.628  49.101  1.00  0.00     0.004 C 
ENDBRANCH  24  25
ENDBRANCH  23  24
ENDBRANCH  22  23
ENDBRANCH  21  22
ENDBRANCH  20  21
ENDBRANCH  19  20
ENDBRANCH  18  19
ENDBRANCH  17  18
ENDBRANCH  16  17
ENDBRANCH  15  16
ENDBRANCH   1  15
TORSDOF 22
ENDMDL
