MODEL 1
REMARK VINA RESULT:    -3.898      0.000      0.000
REMARK INTER + INTRA:          -6.533
REMARK INTER:                  -5.720
REMARK INTRA:                  -0.812
REMARK UNBOUND:                -0.812
REMARK SMILES O=C([O-])CCCCCCCC(=O)[O-]
REMARK SMILES IDX 7 1 6 2 5 3 4 4 2 5 1 6 3 7 8 8 9 9 10 10 11 11 12 12 13 13
REMARK H PARENT
REMARK Flexibility Score: inf
ROOT
ATOM      1  C   UNL     1      43.099  61.162   8.439  1.00  0.00     0.000 C 
ENDROOT
BRANCH   1   2
ATOM      2  C   UNL     1      44.586  60.794   8.585  1.00  0.00     0.000 C 
BRANCH   2   3
ATOM      3  C   UNL     1      44.934  59.959   9.835  1.00  0.00     0.006 C 
BRANCH   3   4
ATOM      4  C   UNL     1      45.143  60.783  11.115  1.00  0.00     0.053 C 
BRANCH   4   5
ATOM      5  C   UNL     1      44.207  60.368  12.208  1.00  0.00     0.041 C 
ATOM      6  O   UNL     1      44.647  60.140  13.366  1.00  0.00    -0.550 OA
ATOM      7  O   UNL     1      42.854  60.200  11.941  1.00  0.00    -0.550 OA
ENDBRANCH   4   5
ENDBRANCH   3   4
ENDBRANCH   2   3
ENDBRANCH   1   2
BRANCH   1   8
ATOM      8  C   UNL     1      42.835  62.666   8.601  1.00  0.00     0.000 C 
BRANCH   8   9
ATOM      9  C   UNL     1      42.088  62.954   9.908  1.00  0.00     0.006 C 
BRANCH   9  10
ATOM     10  C   UNL     1      42.650  64.200  10.598  1.00  0.00     0.053 C 
BRANCH  10  11
ATOM     11  C   UNL     1      43.146  63.862  11.969  1.00  0.00     0.041 C 
ATOM     12  O   UNL     1      44.362  64.008  12.256  1.00  0.00    -0.550 OA
ATOM     13  O   UNL     1      42.255  63.433  12.945  1.00  0.00    -0.550 OA
ENDBRANCH  10  11
ENDBRANCH   9  10
ENDBRANCH   8   9
ENDBRANCH   1   8
TORSDOF 8
ENDMDL
MODEL 2
REMARK VINA RESULT:    -3.865      1.665      3.076
REMARK INTER + INTRA:          -6.485
REMARK INTER:                  -5.713
REMARK INTRA:                  -0.772
REMARK UNBOUND:                -0.812
REMARK SMILES O=C([O-])CCCCCCCC(=O)[O-]
REMARK SMILES IDX 7 1 6 2 5 3 4 4 2 5 1 6 3 7 8 8 9 9 10 10 11 11 12 12 13 13
REMARK H PARENT
REMARK Flexibility Score: inf
ROOT
ATOM      1  C   UNL     1      45.329  60.992  11.121  1.00  0.00     0.000 C 
ENDROOT
BRANCH   1   2
ATOM      2  C   UNL     1      45.047  60.059   9.930  1.00  0.00     0.000 C 
BRANCH   2   3
ATOM      3  C   UNL     1      44.406  60.739   8.703  1.00  0.00     0.006 C 
BRANCH   3   4
ATOM      4  C   UNL     1      43.279  61.728   9.037  1.00  0.00     0.053 C 
BRANCH   4   5
ATOM      5  C   UNL     1      42.023  61.027   9.455  1.00  0.00     0.041 C 
ATOM      6  O   UNL     1      41.307  61.505  10.374  1.00  0.00    -0.550 OA
ATOM      7  O   UNL     1      41.660  59.829   8.853  1.00  0.00    -0.550 OA
ENDBRANCH   4   5
ENDBRANCH   3   4
ENDBRANCH   2   3
ENDBRANCH   1   2
BRANCH   1   8
ATOM      8  C   UNL     1      44.593  60.571  12.401  1.00  0.00     0.000 C 
BRANCH   8   9
ATOM      9  C   UNL     1      44.339  61.777  13.311  1.00  0.00     0.006 C 
BRANCH   9  10
ATOM     10  C   UNL     1      44.586  63.091  12.565  1.00  0.00     0.053 C 
BRANCH  10  11
ATOM     11  C   UNL     1      43.288  63.743  12.207  1.00  0.00     0.041 C 
ATOM     12  O   UNL     1      43.220  64.516  11.216  1.00  0.00    -0.550 OA
ATOM     13  O   UNL     1      42.142  63.459  12.939  1.00  0.00    -0.550 OA
ENDBRANCH  10  11
ENDBRANCH   9  10
ENDBRANCH   8   9
ENDBRANCH   1   8
TORSDOF 8
ENDMDL
MODEL 3
REMARK VINA RESULT:    -3.863      2.370      3.555
REMARK INTER + INTRA:          -6.482
REMARK INTER:                  -5.576
REMARK INTRA:                  -0.906
REMARK UNBOUND:                -0.812
REMARK SMILES O=C([O-])CCCCCCCC(=O)[O-]
REMARK SMILES IDX 7 1 6 2 5 3 4 4 2 5 1 6 3 7 8 8 9 9 10 10 11 11 12 12 13 13
REMARK H PARENT
REMARK Flexibility Score: inf
ROOT
ATOM      1  C   UNL     1      44.981  62.628  13.002  1.00  0.00     0.000 C 
ENDROOT
BRANCH   1   2
ATOM      2  C   UNL     1      44.166  61.556  13.746  1.00  0.00     0.000 C 
BRANCH   2   3
ATOM      3  C   UNL     1      44.246  60.138  13.143  1.00  0.00     0.006 C 
BRANCH   3   4
ATOM      4  C   UNL     1      43.143  59.815  12.123  1.00  0.00     0.053 C 
BRANCH   4   5
ATOM      5  C   UNL     1      43.590  60.071  10.716  1.00  0.00     0.041 C 
ATOM      6  O   UNL     1      42.740  60.178   9.792  1.00  0.00    -0.550 OA
ATOM      7  O   UNL     1      44.944  60.158  10.419  1.00  0.00    -0.550 OA
ENDBRANCH   4   5
ENDBRANCH   3   4
ENDBRANCH   2   3
ENDBRANCH   1   2
BRANCH   1   8
ATOM      8  C   UNL     1      44.100  63.620  12.228  1.00  0.00     0.000 C 
BRANCH   8   9
ATOM      9  C   UNL     1      42.632  63.493  12.646  1.00  0.00     0.006 C 
BRANCH   9  10
ATOM     10  C   UNL     1      41.738  63.211  11.435  1.00  0.00     0.053 C 
BRANCH  10  11
ATOM     11  C   UNL     1      40.475  62.530  11.862  1.00  0.00     0.041 C 
ATOM     12  O   UNL     1      40.075  61.501  11.258  1.00  0.00    -0.550 OA
ATOM     13  O   UNL     1      39.767  63.004  12.959  1.00  0.00    -0.550 OA
ENDBRANCH  10  11
ENDBRANCH   9  10
ENDBRANCH   8   9
ENDBRANCH   1   8
TORSDOF 8
ENDMDL
MODEL 4
REMARK VINA RESULT:    -3.851      2.022      3.438
REMARK INTER + INTRA:          -6.464
REMARK INTER:                  -5.615
REMARK INTRA:                  -0.848
REMARK UNBOUND:                -0.812
REMARK SMILES O=C([O-])CCCCCCCC(=O)[O-]
REMARK SMILES IDX 7 1 6 2 5 3 4 4 2 5 1 6 3 7 8 8 9 9 10 10 11 11 12 12 13 13
REMARK H PARENT
REMARK Flexibility Score: inf
ROOT
ATOM      1  C   UNL     1      44.249  60.143  13.143  1.00  0.00     0.000 C 
ENDROOT
BRANCH   1   2
ATOM      2  C   UNL     1      42.777  60.132  12.696  1.00  0.00     0.000 C 
BRANCH   2   3
ATOM      3  C   UNL     1      42.508  59.433  11.346  1.00  0.00     0.006 C 
BRANCH   3   4
ATOM      4  C   UNL     1      42.455  60.380  10.137  1.00  0.00     0.053 C 
BRANCH   4   5
ATOM      5  C   UNL     1      43.732  60.358   9.352  1.00  0.00     0.041 C 
ATOM      6  O   UNL     1      44.626  59.514   9.622  1.00  0.00    -0.550 OA
ATOM      7  O   UNL     1      43.947  61.291   8.346  1.00  0.00    -0.550 OA
ENDBRANCH   4   5
ENDBRANCH   3   4
ENDBRANCH   2   3
ENDBRANCH   1   2
BRANCH   1   8
ATOM      8  C   UNL     1      44.774  61.554  13.444  1.00  0.00     0.000 C 
BRANCH   8   9
ATOM      9  C   UNL     1      44.892  62.382  12.160  1.00  0.00     0.006 C 
BRANCH   9  10
ATOM     10  C   UNL     1      44.273  63.770  12.342  1.00  0.00     0.053 C 
BRANCH  10  11
ATOM     11  C   UNL     1      42.843  63.769  11.902  1.00  0.00     0.041 C 
ATOM     12  O   UNL     1      42.558  63.865  10.680  1.00  0.00    -0.550 OA
ATOM     13  O   UNL     1      41.827  63.612  12.836  1.00  0.00    -0.550 OA
ENDBRANCH  10  11
ENDBRANCH   9  10
ENDBRANCH   8   9
ENDBRANCH   1   8
TORSDOF 8
ENDMDL
MODEL 5
REMARK VINA RESULT:    -3.850      0.213      3.611
REMARK INTER + INTRA:          -6.463
REMARK INTER:                  -5.640
REMARK INTRA:                  -0.823
REMARK UNBOUND:                -0.812
REMARK SMILES O=C([O-])CCCCCCCC(=O)[O-]
REMARK SMILES IDX 7 1 6 2 5 3 4 4 2 5 1 6 3 7 8 8 9 9 10 10 11 11 12 12 13 13
REMARK H PARENT
REMARK Flexibility Score: inf
ROOT
ATOM      1  C   UNL     1      43.055  61.234   8.156  1.00  0.00     0.000 C 
ENDROOT
BRANCH   1   2
ATOM      2  C   UNL     1      42.511  62.657   8.374  1.00  0.00     0.000 C 
BRANCH   2   3
ATOM      3  C   UNL     1      42.064  62.973   9.817  1.00  0.00     0.006 C 
BRANCH   3   4
ATOM      4  C   UNL     1      42.771  64.179  10.455  1.00  0.00     0.053 C 
BRANCH   4   5
ATOM      5  C   UNL     1      43.143  63.920  11.883  1.00  0.00     0.041 C 
ATOM      6  O   UNL     1      44.346  63.998  12.247  1.00  0.00    -0.550 OA
ATOM      7  O   UNL     1      42.167  63.560  12.803  1.00  0.00    -0.550 OA
ENDBRANCH   4   5
ENDBRANCH   3   4
ENDBRANCH   2   3
ENDBRANCH   1   2
BRANCH   1   8
ATOM      8  C   UNL     1      44.526  61.085   8.569  1.00  0.00     0.000 C 
BRANCH   8   9
ATOM      9  C   UNL     1      44.678  60.064   9.702  1.00  0.00     0.006 C 
BRANCH   9  10
ATOM     10  C   UNL     1      45.114  60.745  11.002  1.00  0.00     0.053 C 
BRANCH  10  11
ATOM     11  C   UNL     1      44.168  60.412  12.112  1.00  0.00     0.041 C 
ATOM     12  O   UNL     1      42.930  60.353  11.892  1.00  0.00    -0.550 OA
ATOM     13  O   UNL     1      44.657  60.118  13.378  1.00  0.00    -0.550 OA
ENDBRANCH  10  11
ENDBRANCH   9  10
ENDBRANCH   8   9
ENDBRANCH   1   8
TORSDOF 8
ENDMDL
MODEL 6
REMARK VINA RESULT:    -3.809      2.418      4.801
REMARK INTER + INTRA:          -6.403
REMARK INTER:                  -5.606
REMARK INTRA:                  -0.797
REMARK UNBOUND:                -0.812
REMARK SMILES O=C([O-])CCCCCCCC(=O)[O-]
REMARK SMILES IDX 7 1 6 2 5 3 4 4 2 5 1 6 3 7 8 8 9 9 10 10 11 11 12 12 13 13
REMARK H PARENT
REMARK Flexibility Score: inf
ROOT
ATOM      1  C   UNL     1      44.816  62.504  12.587  1.00  0.00     0.000 C 
ENDROOT
BRANCH   1   2
ATOM      2  C   UNL     1      43.996  63.755  12.225  1.00  0.00     0.000 C 
BRANCH   2   3
ATOM      3  C   UNL     1      42.475  63.630  12.455  1.00  0.00     0.006 C 
BRANCH   3   4
ATOM      4  C   UNL     1      41.684  63.124  11.239  1.00  0.00     0.053 C 
BRANCH   4   5
ATOM      5  C   UNL     1      42.276  63.602   9.948  1.00  0.00     0.041 C 
ATOM      6  O   UNL     1      42.812  62.783   9.156  1.00  0.00    -0.550 OA
ATOM      7  O   UNL     1      42.263  64.955   9.635  1.00  0.00    -0.550 OA
ENDBRANCH   4   5
ENDBRANCH   3   4
ENDBRANCH   2   3
ENDBRANCH   1   2
BRANCH   1   8
ATOM      8  C   UNL     1      44.107  61.595  13.601  1.00  0.00     0.000 C 
BRANCH   8   9
ATOM      9  C   UNL     1      44.132  60.134  13.141  1.00  0.00     0.006 C 
BRANCH   9  10
ATOM     10  C   UNL     1      42.753  59.689  12.647  1.00  0.00     0.053 C 
BRANCH  10  11
ATOM     11  C   UNL     1      42.701  59.705  11.151  1.00  0.00     0.041 C 
ATOM     12  O   UNL     1      43.760  59.830  10.482  1.00  0.00    -0.550 OA
ATOM     13  O   UNL     1      41.489  59.530  10.495  1.00  0.00    -0.550 OA
ENDBRANCH  10  11
ENDBRANCH   9  10
ENDBRANCH   8   9
ENDBRANCH   1   8
TORSDOF 8
ENDMDL
MODEL 7
REMARK VINA RESULT:    -3.802      2.753      4.828
REMARK INTER + INTRA:          -6.392
REMARK INTER:                  -5.464
REMARK INTRA:                  -0.928
REMARK UNBOUND:                -0.812
REMARK SMILES O=C([O-])CCCCCCCC(=O)[O-]
REMARK SMILES IDX 7 1 6 2 5 3 4 4 2 5 1 6 3 7 8 8 9 9 10 10 11 11 12 12 13 13
REMARK H PARENT
REMARK Flexibility Score: inf
ROOT
ATOM      1  C   UNL     1      44.018  63.893  11.883  1.00  0.00     0.000 C 
ENDROOT
BRANCH   1   2
ATOM      2  C   UNL     1      42.506  63.661  11.718  1.00  0.00     0.000 C 
BRANCH   2   3
ATOM      3  C   UNL     1      41.690  63.703  13.027  1.00  0.00     0.006 C 
BRANCH   3   4
ATOM      4  C   UNL     1      40.665  62.569  13.177  1.00  0.00     0.053 C 
BRANCH   4   5
ATOM      5  C   UNL     1      39.811  62.419  11.955  1.00  0.00     0.041 C 
ATOM      6  O   UNL     1      38.966  63.306  11.661  1.00  0.00    -0.550 OA
ATOM      7  O   UNL     1      39.926  61.287  11.159  1.00  0.00    -0.550 OA
ENDBRANCH   4   5
ENDBRANCH   3   4
ENDBRANCH   2   3
ENDBRANCH   1   2
BRANCH   1   8
ATOM      8  C   UNL     1      44.646  63.007  12.968  1.00  0.00     0.000 C 
BRANCH   8   9
ATOM      9  C   UNL     1      44.982  61.617  12.415  1.00  0.00     0.006 C 
BRANCH   9  10
ATOM     10  C   UNL     1      44.188  60.529  13.143  1.00  0.00     0.053 C 
BRANCH  10  11
ATOM     11  C   UNL     1      43.138  59.956  12.244  1.00  0.00     0.041 C 
ATOM     12  O   UNL     1      42.248  59.200  12.713  1.00  0.00    -0.550 OA
ATOM     13  O   UNL     1      43.114  60.296  10.897  1.00  0.00    -0.550 OA
ENDBRANCH  10  11
ENDBRANCH   9  10
ENDBRANCH   8   9
ENDBRANCH   1   8
TORSDOF 8
ENDMDL
MODEL 8
REMARK VINA RESULT:    -3.778      2.358      4.509
REMARK INTER + INTRA:          -6.358
REMARK INTER:                  -5.488
REMARK INTRA:                  -0.870
REMARK UNBOUND:                -0.812
REMARK SMILES O=C([O-])CCCCCCCC(=O)[O-]
REMARK SMILES IDX 7 1 6 2 5 3 4 4 2 5 1 6 3 7 8 8 9 9 10 10 11 11 12 12 13 13
REMARK H PARENT
REMARK Flexibility Score: inf
ROOT
ATOM      1  C   UNL     1      44.627  62.993  12.551  1.00  0.00     0.000 C 
ENDROOT
BRANCH   1   2
ATOM      2  C   UNL     1      43.351  63.789  12.224  1.00  0.00     0.000 C 
BRANCH   2   3
ATOM      3  C   UNL     1      42.050  63.213  12.822  1.00  0.00     0.006 C 
BRANCH   3   4
ATOM      4  C   UNL     1      40.925  62.981  11.801  1.00  0.00     0.053 C 
BRANCH   4   5
ATOM      5  C   UNL     1      41.105  61.695  11.052  1.00  0.00     0.041 C 
ATOM      6  O   UNL     1      41.155  60.603  11.675  1.00  0.00    -0.550 OA
ATOM      7  O   UNL     1      41.250  61.708   9.671  1.00  0.00    -0.550 OA
ENDBRANCH   4   5
ENDBRANCH   3   4
ENDBRANCH   2   3
ENDBRANCH   1   2
BRANCH   1   8
ATOM      8  C   UNL     1      44.338  61.655  13.247  1.00  0.00     0.000 C 
BRANCH   8   9
ATOM      9  C   UNL     1      44.602  60.477  12.303  1.00  0.00     0.006 C 
BRANCH   9  10
ATOM     10  C   UNL     1      45.276  60.947  11.011  1.00  0.00     0.053 C 
BRANCH  10  11
ATOM     11  C   UNL     1      44.536  60.433   9.816  1.00  0.00     0.041 C 
ATOM     12  O   UNL     1      44.712  60.961   8.688  1.00  0.00    -0.550 OA
ATOM     13  O   UNL     1      43.692  59.337   9.940  1.00  0.00    -0.550 OA
ENDBRANCH  10  11
ENDBRANCH   9  10
ENDBRANCH   8   9
ENDBRANCH   1   8
TORSDOF 8
ENDMDL
MODEL 9
REMARK VINA RESULT:    -3.717      2.004      4.553
REMARK INTER + INTRA:          -6.267
REMARK INTER:                  -5.353
REMARK INTRA:                  -0.914
REMARK UNBOUND:                -0.812
REMARK SMILES O=C([O-])CCCCCCCC(=O)[O-]
REMARK SMILES IDX 7 1 6 2 5 3 4 4 2 5 1 6 3 7 8 8 9 9 10 10 11 11 12 12 13 13
REMARK H PARENT
REMARK Flexibility Score: inf
ROOT
ATOM      1  C   UNL     1      44.548  61.518  13.118  1.00  0.00     0.000 C 
ENDROOT
BRANCH   1   2
ATOM      2  C   UNL     1      44.655  62.935  12.529  1.00  0.00     0.000 C 
BRANCH   2   3
ATOM      3  C   UNL     1      43.311  63.666  12.334  1.00  0.00     0.006 C 
BRANCH   3   4
ATOM      4  C   UNL     1      42.793  63.676  10.888  1.00  0.00     0.053 C 
BRANCH   4   5
ATOM      5  C   UNL     1      41.599  62.788  10.714  1.00  0.00     0.041 C 
ATOM      6  O   UNL     1      40.825  62.953   9.734  1.00  0.00    -0.550 OA
ATOM      7  O   UNL     1      41.323  61.801  11.650  1.00  0.00    -0.550 OA
ENDBRANCH   4   5
ENDBRANCH   3   4
ENDBRANCH   2   3
ENDBRANCH   1   2
BRANCH   1   8
ATOM      8  C   UNL     1      44.556  60.420  12.045  1.00  0.00     0.000 C 
BRANCH   8   9
ATOM      9  C   UNL     1      45.311  60.880  10.794  1.00  0.00     0.006 C 
BRANCH   9  10
ATOM     10  C   UNL     1      44.983  59.987   9.594  1.00  0.00     0.053 C 
BRANCH  10  11
ATOM     11  C   UNL     1      43.778  60.502   8.871  1.00  0.00     0.041 C 
ATOM     12  O   UNL     1      43.875  61.497   8.107  1.00  0.00    -0.550 OA
ATOM     13  O   UNL     1      42.558  59.851   9.003  1.00  0.00    -0.550 OA
ENDBRANCH  10  11
ENDBRANCH   9  10
ENDBRANCH   8   9
ENDBRANCH   1   8
TORSDOF 8
ENDMDL
