MODEL 1
REMARK VINA RESULT:    -4.328      0.000      0.000
REMARK INTER + INTRA:          -7.606
REMARK INTER:                  -6.605
REMARK INTRA:                  -1.001
REMARK UNBOUND:                -1.001
REMARK SMILES CCCCCCCCCCC(=O)[O-]
REMARK SMILES IDX 7 1 8 2 9 3 10 4 11 5 12 6 13 7 6 8 5 9 4 10 3 11 2 12 1 13
REMARK H PARENT
REMARK Flexibility Score: inf
ROOT
ATOM      1  C   UNL     1      52.048  41.971  47.534  1.00  0.00     0.000 C 
ENDROOT
BRANCH   1   2
ATOM      2  C   UNL     1      52.617  42.999  48.525  1.00  0.00     0.000 C 
BRANCH   2   3
ATOM      3  C   UNL     1      53.283  42.339  49.746  1.00  0.00     0.006 C 
BRANCH   3   4
ATOM      4  C   UNL     1      52.615  42.755  51.064  1.00  0.00     0.053 C 
BRANCH   4   5
ATOM      5  C   UNL     1      52.210  41.566  51.881  1.00  0.00     0.041 C 
ATOM      6  O   UNL     1      51.504  40.656  51.371  1.00  0.00    -0.550 OA
ATOM      7  O   UNL     1      52.587  41.478  53.215  1.00  0.00    -0.550 OA
ENDBRANCH   4   5
ENDBRANCH   3   4
ENDBRANCH   2   3
ENDBRANCH   1   2
BRANCH   1   8
ATOM      8  C   UNL     1      52.453  40.529  47.882  1.00  0.00     0.000 C 
BRANCH   8   9
ATOM      9  C   UNL     1      53.449  39.924  46.874  1.00  0.00    -0.000 C 
BRANCH   9  10
ATOM     10  C   UNL     1      54.465  38.932  47.468  1.00  0.00    -0.000 C 
BRANCH  10  11
ATOM     11  C   UNL     1      55.345  39.559  48.564  1.00  0.00    -0.000 C 
BRANCH  11  12
ATOM     12  C   UNL     1      55.518  38.633  49.779  1.00  0.00    -0.003 C 
ATOM     13  C   UNL     1      54.244  38.507  50.614  1.00  0.00     0.004 C 
ENDBRANCH  11  12
ENDBRANCH  10  11
ENDBRANCH   9  10
ENDBRANCH   8   9
ENDBRANCH   1   8
TORSDOF 9
ENDMDL
MODEL 2
REMARK VINA RESULT:    -4.313      0.749      3.400
REMARK INTER + INTRA:          -7.583
REMARK INTER:                  -6.425
REMARK INTRA:                  -1.158
REMARK UNBOUND:                -1.001
REMARK SMILES CCCCCCCCCCC(=O)[O-]
REMARK SMILES IDX 7 1 8 2 9 3 10 4 11 5 12 6 13 7 6 8 5 9 4 10 3 11 2 12 1 13
REMARK H PARENT
REMARK Flexibility Score: inf
ROOT
ATOM      1  C   UNL     1      55.164  39.496  48.707  1.00  0.00     0.000 C 
ENDROOT
BRANCH   1   2
ATOM      2  C   UNL     1      55.001  38.497  49.865  1.00  0.00     0.000 C 
BRANCH   2   3
ATOM      3  C   UNL     1      53.795  38.823  50.763  1.00  0.00     0.006 C 
BRANCH   3   4
ATOM      4  C   UNL     1      53.867  40.247  51.333  1.00  0.00     0.053 C 
BRANCH   4   5
ATOM      5  C   UNL     1      52.535  40.712  51.838  1.00  0.00     0.041 C 
ATOM      6  O   UNL     1      51.492  40.501  51.165  1.00  0.00    -0.550 OA
ATOM      7  O   UNL     1      52.451  41.406  53.039  1.00  0.00    -0.550 OA
ENDBRANCH   4   5
ENDBRANCH   3   4
ENDBRANCH   2   3
ENDBRANCH   1   2
BRANCH   1   8
ATOM      8  C   UNL     1      54.504  39.006  47.407  1.00  0.00     0.000 C 
BRANCH   8   9
ATOM      9  C   UNL     1      53.489  40.013  46.834  1.00  0.00    -0.000 C 
BRANCH   9  10
ATOM     10  C   UNL     1      52.316  40.368  47.766  1.00  0.00    -0.000 C 
BRANCH  10  11
ATOM     11  C   UNL     1      51.993  41.873  47.775  1.00  0.00    -0.000 C 
BRANCH  11  12
ATOM     12  C   UNL     1      53.191  42.729  48.215  1.00  0.00    -0.003 C 
ATOM     13  C   UNL     1      52.943  43.463  49.533  1.00  0.00     0.004 C 
ENDBRANCH  11  12
ENDBRANCH  10  11
ENDBRANCH   9  10
ENDBRANCH   8   9
ENDBRANCH   1   8
TORSDOF 9
ENDMDL
MODEL 3
REMARK VINA RESULT:    -4.278      1.056      3.490
REMARK INTER + INTRA:          -7.530
REMARK INTER:                  -6.586
REMARK INTRA:                  -0.944
REMARK UNBOUND:                -1.001
REMARK SMILES CCCCCCCCCCC(=O)[O-]
REMARK SMILES IDX 7 1 8 2 9 3 10 4 11 5 12 6 13 7 6 8 5 9 4 10 3 11 2 12 1 13
REMARK H PARENT
REMARK Flexibility Score: inf
ROOT
ATOM      1  C   UNL     1      55.200  38.443  49.532  1.00  0.00     0.000 C 
ENDROOT
BRANCH   1   2
ATOM      2  C   UNL     1      54.417  38.655  50.839  1.00  0.00     0.000 C 
BRANCH   2   3
ATOM      3  C   UNL     1      54.053  40.132  51.078  1.00  0.00     0.006 C 
BRANCH   3   4
ATOM      4  C   UNL     1      52.609  40.299  51.569  1.00  0.00     0.053 C 
BRANCH   4   5
ATOM      5  C   UNL     1      52.461  41.490  52.467  1.00  0.00     0.041 C 
ATOM      6  O   UNL     1      51.859  42.519  52.062  1.00  0.00    -0.550 OA
ATOM      7  O   UNL     1      53.015  41.473  53.741  1.00  0.00    -0.550 OA
ENDBRANCH   4   5
ENDBRANCH   3   4
ENDBRANCH   2   3
ENDBRANCH   1   2
BRANCH   1   8
ATOM      8  C   UNL     1      55.057  39.627  48.561  1.00  0.00     0.000 C 
BRANCH   8   9
ATOM      9  C   UNL     1      54.408  39.231  47.222  1.00  0.00    -0.000 C 
BRANCH   9  10
ATOM     10  C   UNL     1      53.261  40.143  46.751  1.00  0.00    -0.000 C 
BRANCH  10  11
ATOM     11  C   UNL     1      52.294  40.524  47.886  1.00  0.00    -0.000 C 
BRANCH  11  12
ATOM     12  C   UNL     1      52.266  42.038  48.151  1.00  0.00    -0.003 C 
ATOM     13  C   UNL     1      52.114  42.861  46.872  1.00  0.00     0.004 C 
ENDBRANCH  11  12
ENDBRANCH  10  11
ENDBRANCH   9  10
ENDBRANCH   8   9
ENDBRANCH   1   8
TORSDOF 9
ENDMDL
MODEL 4
REMARK VINA RESULT:    -4.251      2.045      4.182
REMARK INTER + INTRA:          -7.488
REMARK INTER:                  -6.487
REMARK INTRA:                  -1.001
REMARK UNBOUND:                -1.001
REMARK SMILES CCCCCCCCCCC(=O)[O-]
REMARK SMILES IDX 7 1 8 2 9 3 10 4 11 5 12 6 13 7 6 8 5 9 4 10 3 11 2 12 1 13
REMARK H PARENT
REMARK Flexibility Score: inf
ROOT
ATOM      1  C   UNL     1      52.468  40.442  48.086  1.00  0.00     0.000 C 
ENDROOT
BRANCH   1   2
ATOM      2  C   UNL     1      53.383  39.850  47.002  1.00  0.00     0.000 C 
BRANCH   2   3
ATOM      3  C   UNL     1      54.518  38.992  47.589  1.00  0.00     0.006 C 
BRANCH   3   4
ATOM      4  C   UNL     1      55.082  39.588  48.886  1.00  0.00     0.053 C 
BRANCH   4   5
ATOM      5  C   UNL     1      55.433  38.523  49.881  1.00  0.00     0.041 C 
ATOM      6  O   UNL     1      54.524  37.881  50.471  1.00  0.00    -0.550 OA
ATOM      7  O   UNL     1      56.764  38.262  50.179  1.00  0.00    -0.550 OA
ENDBRANCH   4   5
ENDBRANCH   3   4
ENDBRANCH   2   3
ENDBRANCH   1   2
BRANCH   1   8
ATOM      8  C   UNL     1      51.947  41.842  47.718  1.00  0.00     0.000 C 
BRANCH   8   9
ATOM      9  C   UNL     1      52.709  42.974  48.432  1.00  0.00    -0.000 C 
BRANCH   9  10
ATOM     10  C   UNL     1      53.420  42.567  49.736  1.00  0.00    -0.000 C 
BRANCH  10  11
ATOM     11  C   UNL     1      52.714  43.098  50.995  1.00  0.00    -0.000 C 
BRANCH  11  12
ATOM     12  C   UNL     1      51.983  41.991  51.772  1.00  0.00    -0.003 C 
ATOM     13  C   UNL     1      52.772  40.683  51.822  1.00  0.00     0.004 C 
ENDBRANCH  11  12
ENDBRANCH  10  11
ENDBRANCH   9  10
ENDBRANCH   8   9
ENDBRANCH   1   8
TORSDOF 9
ENDMDL
MODEL 5
REMARK VINA RESULT:    -4.173      0.958      2.134
REMARK INTER + INTRA:          -7.370
REMARK INTER:                  -6.290
REMARK INTRA:                  -1.080
REMARK UNBOUND:                -1.001
REMARK SMILES CCCCCCCCCCC(=O)[O-]
REMARK SMILES IDX 7 1 8 2 9 3 10 4 11 5 12 6 13 7 6 8 5 9 4 10 3 11 2 12 1 13
REMARK H PARENT
REMARK Flexibility Score: inf
ROOT
ATOM      1  C   UNL     1      53.966  42.887  48.995  1.00  0.00     0.000 C 
ENDROOT
BRANCH   1   2
ATOM      2  C   UNL     1      53.979  43.108  50.517  1.00  0.00     0.000 C 
BRANCH   2   3
ATOM      3  C   UNL     1      52.568  43.298  51.099  1.00  0.00     0.006 C 
BRANCH   3   4
ATOM      4  C   UNL     1      52.293  42.345  52.271  1.00  0.00     0.053 C 
BRANCH   4   5
ATOM      5  C   UNL     1      52.412  40.909  51.860  1.00  0.00     0.041 C 
ATOM      6  O   UNL     1      51.529  40.381  51.134  1.00  0.00    -0.550 OA
ATOM      7  O   UNL     1      53.485  40.146  52.304  1.00  0.00    -0.550 OA
ENDBRANCH   4   5
ENDBRANCH   3   4
ENDBRANCH   2   3
ENDBRANCH   1   2
BRANCH   1   8
ATOM      8  C   UNL     1      52.589  43.169  48.370  1.00  0.00     0.000 C 
BRANCH   8   9
ATOM      9  C   UNL     1      52.117  42.047  47.427  1.00  0.00    -0.000 C 
BRANCH   9  10
ATOM     10  C   UNL     1      52.466  40.617  47.879  1.00  0.00    -0.000 C 
BRANCH  10  11
ATOM     11  C   UNL     1      53.321  39.855  46.851  1.00  0.00    -0.000 C 
BRANCH  11  12
ATOM     12  C   UNL     1      54.562  39.206  47.484  1.00  0.00    -0.003 C 
ATOM     13  C   UNL     1      54.551  39.271  49.011  1.00  0.00     0.004 C 
ENDBRANCH  11  12
ENDBRANCH  10  11
ENDBRANCH   9  10
ENDBRANCH   8   9
ENDBRANCH   1   8
TORSDOF 9
ENDMDL
MODEL 6
REMARK VINA RESULT:    -4.156      1.346      3.699
REMARK INTER + INTRA:          -7.344
REMARK INTER:                  -6.116
REMARK INTRA:                  -1.227
REMARK UNBOUND:                -1.001
REMARK SMILES CCCCCCCCCCC(=O)[O-]
REMARK SMILES IDX 7 1 8 2 9 3 10 4 11 5 12 6 13 7 6 8 5 9 4 10 3 11 2 12 1 13
REMARK H PARENT
REMARK Flexibility Score: inf
ROOT
ATOM      1  C   UNL     1      54.583  40.506  47.386  1.00  0.00     0.000 C 
ENDROOT
BRANCH   1   2
ATOM      2  C   UNL     1      55.303  39.972  48.635  1.00  0.00     0.000 C 
BRANCH   2   3
ATOM      3  C   UNL     1      54.906  38.525  48.975  1.00  0.00     0.006 C 
BRANCH   3   4
ATOM      4  C   UNL     1      54.834  38.284  50.489  1.00  0.00     0.053 C 
BRANCH   4   5
ATOM      5  C   UNL     1      53.930  39.269  51.166  1.00  0.00     0.041 C 
ATOM      6  O   UNL     1      52.705  39.308  50.878  1.00  0.00    -0.550 OA
ATOM      7  O   UNL     1      54.447  40.164  52.094  1.00  0.00    -0.550 OA
ENDBRANCH   4   5
ENDBRANCH   3   4
ENDBRANCH   2   3
ENDBRANCH   1   2
BRANCH   1   8
ATOM      8  C   UNL     1      53.133  40.004  47.282  1.00  0.00     0.000 C 
BRANCH   8   9
ATOM      9  C   UNL     1      52.116  40.966  47.924  1.00  0.00    -0.000 C 
BRANCH   9  10
ATOM     10  C   UNL     1      52.137  42.406  47.379  1.00  0.00    -0.000 C 
BRANCH  10  11
ATOM     11  C   UNL     1      52.658  43.428  48.405  1.00  0.00    -0.000 C 
BRANCH  11  12
ATOM     12  C   UNL     1      52.909  42.800  49.785  1.00  0.00    -0.003 C 
ATOM     13  C   UNL     1      54.248  43.218  50.392  1.00  0.00     0.004 C 
ENDBRANCH  11  12
ENDBRANCH  10  11
ENDBRANCH   9  10
ENDBRANCH   8   9
ENDBRANCH   1   8
TORSDOF 9
ENDMDL
MODEL 7
REMARK VINA RESULT:    -4.149      1.796      3.126
REMARK INTER + INTRA:          -7.332
REMARK INTER:                  -6.053
REMARK INTRA:                  -1.279
REMARK UNBOUND:                -1.001
REMARK SMILES CCCCCCCCCCC(=O)[O-]
REMARK SMILES IDX 7 1 8 2 9 3 10 4 11 5 12 6 13 7 6 8 5 9 4 10 3 11 2 12 1 13
REMARK H PARENT
REMARK Flexibility Score: inf
ROOT
ATOM      1  C   UNL     1      53.447  40.041  46.807  1.00  0.00     0.000 C 
ENDROOT
BRANCH   1   2
ATOM      2  C   UNL     1      52.333  40.453  47.783  1.00  0.00     0.000 C 
BRANCH   2   3
ATOM      3  C   UNL     1      52.007  41.956  47.710  1.00  0.00     0.006 C 
BRANCH   3   4
ATOM      4  C   UNL     1      53.273  42.823  47.704  1.00  0.00     0.053 C 
BRANCH   4   5
ATOM      5  C   UNL     1      53.704  43.188  49.092  1.00  0.00     0.041 C 
ATOM      6  O   UNL     1      54.890  42.984  49.463  1.00  0.00    -0.550 OA
ATOM      7  O   UNL     1      52.786  43.727  49.985  1.00  0.00    -0.550 OA
ENDBRANCH   4   5
ENDBRANCH   3   4
ENDBRANCH   2   3
ENDBRANCH   1   2
BRANCH   1   8
ATOM      8  C   UNL     1      54.461  39.075  47.443  1.00  0.00     0.000 C 
BRANCH   8   9
ATOM      9  C   UNL     1      54.989  39.568  48.803  1.00  0.00    -0.000 C 
BRANCH   9  10
ATOM     10  C   UNL     1      54.855  38.565  49.964  1.00  0.00    -0.000 C 
BRANCH  10  11
ATOM     11  C   UNL     1      53.588  38.790  50.807  1.00  0.00    -0.000 C 
BRANCH  11  12
ATOM     12  C   UNL     1      53.470  40.234  51.319  1.00  0.00    -0.003 C 
ATOM     13  C   UNL     1      52.025  40.651  51.590  1.00  0.00     0.004 C 
ENDBRANCH  11  12
ENDBRANCH  10  11
ENDBRANCH   9  10
ENDBRANCH   8   9
ENDBRANCH   1   8
TORSDOF 9
ENDMDL
MODEL 8
REMARK VINA RESULT:    -4.022      2.509      4.239
REMARK INTER + INTRA:          -7.139
REMARK INTER:                  -6.237
REMARK INTRA:                  -0.902
REMARK UNBOUND:                -1.001
REMARK SMILES CCCCCCCCCCC(=O)[O-]
REMARK SMILES IDX 7 1 8 2 9 3 10 4 11 5 12 6 13 7 6 8 5 9 4 10 3 11 2 12 1 13
REMARK H PARENT
REMARK Flexibility Score: inf
ROOT
ATOM      1  C   UNL     1      53.196  42.646  49.589  1.00  0.00     0.000 C 
ENDROOT
BRANCH   1   2
ATOM      2  C   UNL     1      52.609  43.174  48.269  1.00  0.00     0.000 C 
BRANCH   2   3
ATOM      3  C   UNL     1      51.978  42.059  47.415  1.00  0.00     0.006 C 
BRANCH   3   4
ATOM      4  C   UNL     1      52.467  40.665  47.831  1.00  0.00     0.053 C 
BRANCH   4   5
ATOM      5  C   UNL     1      53.654  40.228  47.027  1.00  0.00     0.041 C 
ATOM      6  O   UNL     1      54.059  40.928  46.062  1.00  0.00    -0.550 OA
ATOM      7  O   UNL     1      54.294  39.032  47.327  1.00  0.00    -0.550 OA
ENDBRANCH   4   5
ENDBRANCH   3   4
ENDBRANCH   2   3
ENDBRANCH   1   2
BRANCH   1   8
ATOM      8  C   UNL     1      52.606  43.353  50.821  1.00  0.00     0.000 C 
BRANCH   8   9
ATOM      9  C   UNL     1      52.237  42.377  51.954  1.00  0.00    -0.000 C 
BRANCH   9  10
ATOM     10  C   UNL     1      51.978  40.925  51.513  1.00  0.00    -0.000 C 
BRANCH  10  11
ATOM     11  C   UNL     1      53.074  39.952  51.982  1.00  0.00    -0.000 C 
BRANCH  11  12
ATOM     12  C   UNL     1      53.424  38.902  50.915  1.00  0.00    -0.003 C 
ATOM     13  C   UNL     1      54.930  38.681  50.773  1.00  0.00     0.004 C 
ENDBRANCH  11  12
ENDBRANCH  10  11
ENDBRANCH   9  10
ENDBRANCH   8   9
ENDBRANCH   1   8
TORSDOF 9
ENDMDL
MODEL 9
REMARK VINA RESULT:    -4.001      1.828      3.592
REMARK INTER + INTRA:          -7.108
REMARK INTER:                  -5.932
REMARK INTRA:                  -1.176
REMARK UNBOUND:                -1.001
REMARK SMILES CCCCCCCCCCC(=O)[O-]
REMARK SMILES IDX 7 1 8 2 9 3 10 4 11 5 12 6 13 7 6 8 5 9 4 10 3 11 2 12 1 13
REMARK H PARENT
REMARK Flexibility Score: inf
ROOT
ATOM      1  C   UNL     1      53.309  40.653  47.567  1.00  0.00     0.000 C 
ENDROOT
BRANCH   1   2
ATOM      2  C   UNL     1      52.127  40.530  48.543  1.00  0.00     0.000 C 
BRANCH   2   3
ATOM      3  C   UNL     1      52.544  39.952  49.907  1.00  0.00     0.006 C 
BRANCH   3   4
ATOM      4  C   UNL     1      51.720  40.541  51.060  1.00  0.00     0.053 C 
BRANCH   4   5
ATOM      5  C   UNL     1      52.590  40.980  52.198  1.00  0.00     0.041 C 
ATOM      6  O   UNL     1      52.307  42.020  52.849  1.00  0.00    -0.550 OA
ATOM      7  O   UNL     1      53.732  40.256  52.520  1.00  0.00    -0.550 OA
ENDBRANCH   4   5
ENDBRANCH   3   4
ENDBRANCH   2   3
ENDBRANCH   1   2
BRANCH   1   8
ATOM      8  C   UNL     1      53.147  41.829  46.589  1.00  0.00     0.000 C 
BRANCH   8   9
ATOM      9  C   UNL     1      51.965  42.750  46.948  1.00  0.00    -0.000 C 
BRANCH   9  10
ATOM     10  C   UNL     1      52.287  44.255  46.973  1.00  0.00    -0.000 C 
BRANCH  10  11
ATOM     11  C   UNL     1      53.347  44.624  48.026  1.00  0.00    -0.000 C 
BRANCH  11  12
ATOM     12  C   UNL     1      53.028  44.042  49.412  1.00  0.00    -0.003 C 
ATOM     13  C   UNL     1      54.254  43.445  50.101  1.00  0.00     0.004 C 
ENDBRANCH  11  12
ENDBRANCH  10  11
ENDBRANCH   9  10
ENDBRANCH   8   9
ENDBRANCH   1   8
TORSDOF 9
ENDMDL
