MODEL 1
REMARK VINA RESULT:    -5.533      0.000      0.000
REMARK INTER + INTRA:          -9.063
REMARK INTER:                  -8.444
REMARK INTRA:                  -0.619
REMARK UNBOUND:                -0.619
REMARK SMILES CCCCCCCCCC=CC(=O)[O-]
REMARK SMILES IDX 7 1 8 2 9 3 10 4 11 5 12 6 13 7 14 8 6 9 5 10 4 11 3 12 2 13
REMARK SMILES IDX 1 14
REMARK H PARENT
REMARK Flexibility Score: inf
ROOT
ATOM      1  C   UNL     1      43.518  45.472  41.924  1.00  0.00     0.000 C 
ENDROOT
BRANCH   1   2
ATOM      2  C   UNL     1      44.391  45.503  43.192  1.00  0.00     0.004 C 
BRANCH   2   3
ATOM      3  C   UNL     1      43.616  45.945  44.441  1.00  0.00     0.027 C 
BRANCH   3   4
ATOM      4  C   UNL     1      44.491  45.911  45.661  1.00  0.00    -0.025 C 
ATOM      5  C   UNL     1      44.676  46.999  46.417  1.00  0.00     0.020 C 
BRANCH   5   6
ATOM      6  C   UNL     1      45.518  46.987  47.625  1.00  0.00     0.064 C 
ATOM      7  O   UNL     1      45.670  48.024  48.323  1.00  0.00    -0.545 OA
ATOM      8  O   UNL     1      46.155  45.812  48.000  1.00  0.00    -0.545 OA
ENDBRANCH   5   6
ENDBRANCH   3   4
ENDBRANCH   2   3
ENDBRANCH   1   2
BRANCH   1   9
ATOM      9  C   UNL     1      42.027  45.180  42.170  1.00  0.00     0.000 C 
BRANCH   9  10
ATOM     10  C   UNL     1      41.197  45.165  40.878  1.00  0.00     0.000 C 
BRANCH  10  11
ATOM     11  C   UNL     1      41.855  46.025  39.792  1.00  0.00    -0.000 C 
BRANCH  11  12
ATOM     12  C   UNL     1      41.923  45.272  38.458  1.00  0.00    -0.000 C 
BRANCH  12  13
ATOM     13  C   UNL     1      42.690  43.954  38.608  1.00  0.00    -0.003 C 
ATOM     14  C   UNL     1      44.088  44.058  38.004  1.00  0.00     0.004 C 
ENDBRANCH  12  13
ENDBRANCH  11  12
ENDBRANCH  10  11
ENDBRANCH   9  10
ENDBRANCH   1   9
TORSDOF 9
ENDMDL
MODEL 2
REMARK VINA RESULT:    -5.408      3.626      7.780
REMARK INTER + INTRA:          -8.872
REMARK INTER:                  -7.988
REMARK INTRA:                  -0.884
REMARK UNBOUND:                -0.619
REMARK SMILES CCCCCCCCCC=CC(=O)[O-]
REMARK SMILES IDX 7 1 8 2 9 3 10 4 11 5 12 6 13 7 14 8 6 9 5 10 4 11 3 12 2 13
REMARK SMILES IDX 1 14
REMARK H PARENT
REMARK Flexibility Score: inf
ROOT
ATOM      1  C   UNL     1      44.531  46.491  47.187  1.00  0.00     0.000 C 
ENDROOT
BRANCH   1   2
ATOM      2  C   UNL     1      44.844  46.717  45.696  1.00  0.00     0.004 C 
BRANCH   2   3
ATOM      3  C   UNL     1      45.404  45.465  45.006  1.00  0.00     0.027 C 
BRANCH   3   4
ATOM      4  C   UNL     1      44.825  45.301  43.630  1.00  0.00    -0.025 C 
ATOM      5  C   UNL     1      43.523  45.494  43.393  1.00  0.00     0.020 C 
BRANCH   5   6
ATOM      6  C   UNL     1      42.936  45.351  42.051  1.00  0.00     0.064 C 
ATOM      7  O   UNL     1      41.699  45.168  41.897  1.00  0.00    -0.545 OA
ATOM      8  O   UNL     1      43.760  45.420  40.935  1.00  0.00    -0.545 OA
ENDBRANCH   5   6
ENDBRANCH   3   4
ENDBRANCH   2   3
ENDBRANCH   1   2
BRANCH   1   9
ATOM      9  C   UNL     1      45.302  47.403  48.158  1.00  0.00     0.000 C 
BRANCH   9  10
ATOM     10  C   UNL     1      46.090  46.620  49.218  1.00  0.00     0.000 C 
BRANCH  10  11
ATOM     11  C   UNL     1      45.237  45.498  49.821  1.00  0.00    -0.000 C 
BRANCH  11  12
ATOM     12  C   UNL     1      45.962  44.150  49.739  1.00  0.00    -0.000 C 
BRANCH  12  13
ATOM     13  C   UNL     1      47.092  44.194  48.705  1.00  0.00    -0.003 C 
ATOM     14  C   UNL     1      46.899  43.125  47.632  1.00  0.00     0.004 C 
ENDBRANCH  12  13
ENDBRANCH  11  12
ENDBRANCH  10  11
ENDBRANCH   9  10
ENDBRANCH   1   9
TORSDOF 9
ENDMDL
MODEL 3
REMARK VINA RESULT:    -5.384      4.080      7.265
REMARK INTER + INTRA:          -8.836
REMARK INTER:                  -7.264
REMARK INTRA:                  -1.572
REMARK UNBOUND:                -0.619
REMARK SMILES CCCCCCCCCC=CC(=O)[O-]
REMARK SMILES IDX 7 1 8 2 9 3 10 4 11 5 12 6 13 7 14 8 6 9 5 10 4 11 3 12 2 13
REMARK SMILES IDX 1 14
REMARK H PARENT
REMARK Flexibility Score: inf
ROOT
ATOM      1  C   UNL     1      46.043  47.413  49.116  1.00  0.00     0.000 C 
ENDROOT
BRANCH   1   2
ATOM      2  C   UNL     1      45.505  47.415  47.674  1.00  0.00     0.004 C 
BRANCH   2   3
ATOM      3  C   UNL     1      46.615  47.281  46.621  1.00  0.00     0.027 C 
BRANCH   3   4
ATOM      4  C   UNL     1      46.110  46.595  45.385  1.00  0.00    -0.025 C 
ATOM      5  C   UNL     1      44.860  46.122  45.311  1.00  0.00     0.020 C 
BRANCH   5   6
ATOM      6  C   UNL     1      44.338  45.459  44.106  1.00  0.00     0.064 C 
ATOM      7  O   UNL     1      43.211  45.761  43.633  1.00  0.00    -0.545 OA
ATOM      8  O   UNL     1      45.102  44.483  43.479  1.00  0.00    -0.545 OA
ENDBRANCH   5   6
ENDBRANCH   3   4
ENDBRANCH   2   3
ENDBRANCH   1   2
BRANCH   1   9
ATOM      9  C   UNL     1      46.081  46.032  49.794  1.00  0.00     0.000 C 
BRANCH   9  10
ATOM     10  C   UNL     1      44.943  45.108  49.337  1.00  0.00     0.000 C 
BRANCH  10  11
ATOM     11  C   UNL     1      45.474  43.983  48.441  1.00  0.00    -0.000 C 
BRANCH  11  12
ATOM     12  C   UNL     1      46.991  43.825  48.595  1.00  0.00    -0.000 C 
BRANCH  12  13
ATOM     13  C   UNL     1      47.674  43.716  47.227  1.00  0.00    -0.003 C 
ATOM     14  C   UNL     1      46.792  42.972  46.228  1.00  0.00     0.004 C 
ENDBRANCH  12  13
ENDBRANCH  11  12
ENDBRANCH  10  11
ENDBRANCH   9  10
ENDBRANCH   1   9
TORSDOF 9
ENDMDL
MODEL 4
REMARK VINA RESULT:    -5.371      1.154      1.667
REMARK INTER + INTRA:          -8.816
REMARK INTER:                  -8.343
REMARK INTRA:                  -0.473
REMARK UNBOUND:                -0.619
REMARK SMILES CCCCCCCCCC=CC(=O)[O-]
REMARK SMILES IDX 7 1 8 2 9 3 10 4 11 5 12 6 13 7 14 8 6 9 5 10 4 11 3 12 2 13
REMARK SMILES IDX 1 14
REMARK H PARENT
REMARK Flexibility Score: inf
ROOT
ATOM      1  C   UNL     1      45.052  45.266  42.878  1.00  0.00     0.000 C 
ENDROOT
BRANCH   1   2
ATOM      2  C   UNL     1      44.580  45.799  44.243  1.00  0.00     0.004 C 
BRANCH   2   3
ATOM      3  C   UNL     1      45.722  46.391  45.081  1.00  0.00     0.027 C 
BRANCH   3   4
ATOM      4  C   UNL     1      45.317  46.544  46.519  1.00  0.00    -0.025 C 
ATOM      5  C   UNL     1      46.000  45.948  47.503  1.00  0.00     0.020 C 
BRANCH   5   6
ATOM      6  C   UNL     1      45.629  46.093  48.920  1.00  0.00     0.064 C 
ATOM      7  O   UNL     1      46.317  46.800  49.704  1.00  0.00    -0.545 OA
ATOM      8  O   UNL     1      44.502  45.441  49.401  1.00  0.00    -0.545 OA
ENDBRANCH   5   6
ENDBRANCH   3   4
ENDBRANCH   2   3
ENDBRANCH   1   2
BRANCH   1   9
ATOM      9  C   UNL     1      44.063  45.484  41.719  1.00  0.00     0.000 C 
BRANCH   9  10
ATOM     10  C   UNL     1      42.595  45.334  42.146  1.00  0.00     0.000 C 
BRANCH  10  11
ATOM     11  C   UNL     1      41.691  45.094  40.931  1.00  0.00    -0.000 C 
BRANCH  11  12
ATOM     12  C   UNL     1      42.368  45.564  39.638  1.00  0.00    -0.000 C 
BRANCH  12  13
ATOM     13  C   UNL     1      42.399  44.442  38.594  1.00  0.00    -0.003 C 
ATOM     14  C   UNL     1      43.832  44.112  38.183  1.00  0.00     0.004 C 
ENDBRANCH  12  13
ENDBRANCH  11  12
ENDBRANCH  10  11
ENDBRANCH   9  10
ENDBRANCH   1   9
TORSDOF 9
ENDMDL
MODEL 5
REMARK VINA RESULT:    -5.353      3.916      7.850
REMARK INTER + INTRA:          -8.788
REMARK INTER:                  -8.178
REMARK INTRA:                  -0.611
REMARK UNBOUND:                -0.619
REMARK SMILES CCCCCCCCCC=CC(=O)[O-]
REMARK SMILES IDX 7 1 8 2 9 3 10 4 11 5 12 6 13 7 14 8 6 9 5 10 4 11 3 12 2 13
REMARK SMILES IDX 1 14
REMARK H PARENT
REMARK Flexibility Score: inf
ROOT
ATOM      1  C   UNL     1      45.297  45.332  44.968  1.00  0.00     0.000 C 
ENDROOT
BRANCH   1   2
ATOM      2  C   UNL     1      44.297  45.494  43.808  1.00  0.00     0.004 C 
BRANCH   2   3
ATOM      3  C   UNL     1      44.968  45.432  42.428  1.00  0.00     0.027 C 
BRANCH   3   4
ATOM      4  C   UNL     1      43.950  45.250  41.339  1.00  0.00    -0.025 C 
ATOM      5  C   UNL     1      42.647  45.454  41.561  1.00  0.00     0.020 C 
BRANCH   5   6
ATOM      6  C   UNL     1      41.633  45.295  40.507  1.00  0.00     0.064 C 
ATOM      7  O   UNL     1      40.882  44.284  40.473  1.00  0.00    -0.545 OA
ATOM      8  O   UNL     1      41.501  46.276  39.533  1.00  0.00    -0.545 OA
ENDBRANCH   5   6
ENDBRANCH   3   4
ENDBRANCH   2   3
ENDBRANCH   1   2
BRANCH   1   9
ATOM      9  C   UNL     1      45.640  46.633  45.716  1.00  0.00     0.000 C 
BRANCH   9  10
ATOM     10  C   UNL     1      44.415  47.289  46.371  1.00  0.00     0.000 C 
BRANCH  10  11
ATOM     11  C   UNL     1      44.475  47.163  47.898  1.00  0.00    -0.000 C 
BRANCH  11  12
ATOM     12  C   UNL     1      45.914  47.304  48.407  1.00  0.00    -0.000 C 
BRANCH  12  13
ATOM     13  C   UNL     1      46.177  46.357  49.582  1.00  0.00    -0.003 C 
ATOM     14  C   UNL     1      46.463  44.939  49.094  1.00  0.00     0.004 C 
ENDBRANCH  12  13
ENDBRANCH  11  12
ENDBRANCH  10  11
ENDBRANCH   9  10
ENDBRANCH   1   9
TORSDOF 9
ENDMDL
MODEL 6
REMARK VINA RESULT:    -5.287      4.552      7.199
REMARK INTER + INTRA:          -8.687
REMARK INTER:                  -7.227
REMARK INTRA:                  -1.460
REMARK UNBOUND:                -0.619
REMARK SMILES CCCCCCCCCC=CC(=O)[O-]
REMARK SMILES IDX 7 1 8 2 9 3 10 4 11 5 12 6 13 7 14 8 6 9 5 10 4 11 3 12 2 13
REMARK SMILES IDX 1 14
REMARK H PARENT
REMARK Flexibility Score: inf
ROOT
ATOM      1  C   UNL     1      44.989  45.693  49.754  1.00  0.00     0.000 C 
ENDROOT
BRANCH   1   2
ATOM      2  C   UNL     1      45.927  46.774  49.187  1.00  0.00     0.004 C 
BRANCH   2   3
ATOM      3  C   UNL     1      45.236  47.688  48.164  1.00  0.00     0.027 C 
BRANCH   3   4
ATOM      4  C   UNL     1      44.225  46.928  47.355  1.00  0.00    -0.025 C 
ATOM      5  C   UNL     1      44.178  47.031  46.022  1.00  0.00     0.020 C 
BRANCH   5   6
ATOM      6  C   UNL     1      43.205  46.286  45.207  1.00  0.00     0.064 C 
ATOM      7  O   UNL     1      42.050  46.034  45.640  1.00  0.00    -0.545 OA
ATOM      8  O   UNL     1      43.568  45.854  43.937  1.00  0.00    -0.545 OA
ENDBRANCH   5   6
ENDBRANCH   3   4
ENDBRANCH   2   3
ENDBRANCH   1   2
BRANCH   1   9
ATOM      9  C   UNL     1      45.539  44.257  49.687  1.00  0.00     0.000 C 
BRANCH   9  10
ATOM     10  C   UNL     1      47.070  44.204  49.577  1.00  0.00     0.000 C 
BRANCH  10  11
ATOM     11  C   UNL     1      47.504  43.591  48.241  1.00  0.00    -0.000 C 
BRANCH  11  12
ATOM     12  C   UNL     1      46.291  43.284  47.355  1.00  0.00    -0.000 C 
BRANCH  12  13
ATOM     13  C   UNL     1      46.361  44.062  46.037  1.00  0.00    -0.003 C 
ATOM     14  C   UNL     1      47.315  45.249  46.148  1.00  0.00     0.004 C 
ENDBRANCH  12  13
ENDBRANCH  11  12
ENDBRANCH  10  11
ENDBRANCH   9  10
ENDBRANCH   1   9
TORSDOF 9
ENDMDL
MODEL 7
REMARK VINA RESULT:    -5.277      4.945      7.076
REMARK INTER + INTRA:          -8.672
REMARK INTER:                  -7.465
REMARK INTRA:                  -1.207
REMARK UNBOUND:                -0.619
REMARK SMILES CCCCCCCCCC=CC(=O)[O-]
REMARK SMILES IDX 7 1 8 2 9 3 10 4 11 5 12 6 13 7 14 8 6 9 5 10 4 11 3 12 2 13
REMARK SMILES IDX 1 14
REMARK H PARENT
REMARK Flexibility Score: inf
ROOT
ATOM      1  C   UNL     1      44.875  45.504  49.383  1.00  0.00     0.000 C 
ENDROOT
BRANCH   1   2
ATOM      2  C   UNL     1      45.517  44.108  49.286  1.00  0.00     0.004 C 
BRANCH   2   3
ATOM      3  C   UNL     1      47.022  44.162  48.984  1.00  0.00     0.027 C 
BRANCH   3   4
ATOM      4  C   UNL     1      47.396  43.172  47.919  1.00  0.00    -0.025 C 
ATOM      5  C   UNL     1      46.615  42.965  46.853  1.00  0.00     0.020 C 
BRANCH   5   6
ATOM      6  C   UNL     1      46.967  42.010  45.790  1.00  0.00     0.064 C 
ATOM      7  O   UNL     1      46.092  41.555  45.008  1.00  0.00    -0.545 OA
ATOM      8  O   UNL     1      48.288  41.605  45.648  1.00  0.00    -0.545 OA
ENDBRANCH   5   6
ENDBRANCH   3   4
ENDBRANCH   2   3
ENDBRANCH   1   2
BRANCH   1   9
ATOM      9  C   UNL     1      45.866  46.681  49.319  1.00  0.00     0.000 C 
BRANCH   9  10
ATOM     10  C   UNL     1      45.611  47.615  48.127  1.00  0.00     0.000 C 
BRANCH  10  11
ATOM     11  C   UNL     1      46.424  47.179  46.903  1.00  0.00    -0.000 C 
BRANCH  11  12
ATOM     12  C   UNL     1      45.505  46.700  45.773  1.00  0.00    -0.000 C 
BRANCH  12  13
ATOM     13  C   UNL     1      44.098  47.291  45.920  1.00  0.00    -0.003 C 
ATOM     14  C   UNL     1      43.034  46.306  45.444  1.00  0.00     0.004 C 
ENDBRANCH  12  13
ENDBRANCH  11  12
ENDBRANCH  10  11
ENDBRANCH   9  10
ENDBRANCH   1   9
TORSDOF 9
ENDMDL
MODEL 8
REMARK VINA RESULT:    -5.272      2.042      3.648
REMARK INTER + INTRA:          -8.665
REMARK INTER:                  -8.027
REMARK INTRA:                  -0.637
REMARK UNBOUND:                -0.619
REMARK SMILES CCCCCCCCCC=CC(=O)[O-]
REMARK SMILES IDX 7 1 8 2 9 3 10 4 11 5 12 6 13 7 14 8 6 9 5 10 4 11 3 12 2 13
REMARK SMILES IDX 1 14
REMARK H PARENT
REMARK Flexibility Score: inf
ROOT
ATOM      1  C   UNL     1      43.727  47.232  45.618  1.00  0.00     0.000 C 
ENDROOT
BRANCH   1   2
ATOM      2  C   UNL     1      44.224  47.010  47.058  1.00  0.00     0.004 C 
BRANCH   2   3
ATOM      3  C   UNL     1      43.502  45.857  47.769  1.00  0.00     0.027 C 
BRANCH   3   4
ATOM      4  C   UNL     1      44.472  44.988  48.516  1.00  0.00    -0.025 C 
ATOM      5  C   UNL     1      45.771  44.960  48.198  1.00  0.00     0.020 C 
BRANCH   5   6
ATOM      6  C   UNL     1      46.743  44.127  48.924  1.00  0.00     0.064 C 
ATOM      7  O   UNL     1      47.061  44.385  50.115  1.00  0.00    -0.545 OA
ATOM      8  O   UNL     1      47.319  43.037  48.285  1.00  0.00    -0.545 OA
ENDBRANCH   5   6
ENDBRANCH   3   4
ENDBRANCH   2   3
ENDBRANCH   1   2
BRANCH   1   9
ATOM      9  C   UNL     1      43.525  45.947  44.795  1.00  0.00     0.000 C 
BRANCH   9  10
ATOM     10  C   UNL     1      44.751  45.579  43.947  1.00  0.00     0.000 C 
BRANCH  10  11
ATOM     11  C   UNL     1      44.335  45.160  42.533  1.00  0.00    -0.000 C 
BRANCH  11  12
ATOM     12  C   UNL     1      42.840  45.407  42.302  1.00  0.00    -0.000 C 
BRANCH  12  13
ATOM     13  C   UNL     1      42.508  45.415  40.805  1.00  0.00    -0.003 C 
ATOM     14  C   UNL     1      41.134  44.804  40.542  1.00  0.00     0.004 C 
ENDBRANCH  12  13
ENDBRANCH  11  12
ENDBRANCH  10  11
ENDBRANCH   9  10
ENDBRANCH   1   9
TORSDOF 9
ENDMDL
MODEL 9
REMARK VINA RESULT:    -4.950      3.332      5.890
REMARK INTER + INTRA:          -8.172
REMARK INTER:                  -7.070
REMARK INTRA:                  -1.102
REMARK UNBOUND:                -0.619
REMARK SMILES CCCCCCCCCC=CC(=O)[O-]
REMARK SMILES IDX 7 1 8 2 9 3 10 4 11 5 12 6 13 7 14 8 6 9 5 10 4 11 3 12 2 13
REMARK SMILES IDX 1 14
REMARK H PARENT
REMARK Flexibility Score: inf
ROOT
ATOM      1  C   UNL     1      44.032  45.613  48.552  1.00  0.00     0.000 C 
ENDROOT
BRANCH   1   2
ATOM      2  C   UNL     1      44.837  44.370  48.971  1.00  0.00     0.004 C 
BRANCH   2   3
ATOM      3  C   UNL     1      46.351  44.624  49.014  1.00  0.00     0.027 C 
BRANCH   3   4
ATOM      4  C   UNL     1      47.091  43.631  48.166  1.00  0.00    -0.025 C 
ATOM      5  C   UNL     1      46.606  43.221  46.989  1.00  0.00     0.020 C 
BRANCH   5   6
ATOM      6  C   UNL     1      47.320  42.258  46.134  1.00  0.00     0.064 C 
ATOM      7  O   UNL     1      48.577  42.178  46.152  1.00  0.00    -0.545 OA
ATOM      8  O   UNL     1      46.595  41.425  45.292  1.00  0.00    -0.545 OA
ENDBRANCH   5   6
ENDBRANCH   3   4
ENDBRANCH   2   3
ENDBRANCH   1   2
BRANCH   1   9
ATOM      9  C   UNL     1      44.859  46.728  47.885  1.00  0.00     0.000 C 
BRANCH   9  10
ATOM     10  C   UNL     1      44.506  46.934  46.405  1.00  0.00     0.000 C 
BRANCH  10  11
ATOM     11  C   UNL     1      45.650  46.467  45.497  1.00  0.00    -0.000 C 
BRANCH  11  12
ATOM     12  C   UNL     1      45.134  45.538  44.393  1.00  0.00    -0.000 C 
BRANCH  12  13
ATOM     13  C   UNL     1      43.685  45.872  44.025  1.00  0.00    -0.003 C 
ATOM     14  C   UNL     1      43.381  45.489  42.578  1.00  0.00     0.004 C 
ENDBRANCH  12  13
ENDBRANCH  11  12
ENDBRANCH  10  11
ENDBRANCH   9  10
ENDBRANCH   1   9
TORSDOF 9
ENDMDL
