MODEL 1
REMARK VINA RESULT:    -3.531      0.000      0.000
REMARK INTER + INTRA:          -3.531
REMARK INTER:                  -3.531
REMARK INTRA:                   0.000
REMARK UNBOUND:                 0.000
REMARK SMILES CC1(C)C(=O)[C@]2(C)CC[C@H]1C2
REMARK SMILES IDX 1 1 2 2 10 3 9 4 8 5 6 6 11 7 4 8 5 9 7 10 3 11
REMARK H PARENT
REMARK Flexibility Score: inf
ROOT
ATOM      1  C   UNL     1      -1.071   7.150   2.422  1.00  0.00     0.020 C 
ATOM      2  C   UNL     1      -1.927   7.580   1.212  1.00  0.00     0.027 C 
ATOM      3  C   UNL     1      -3.337   8.111   1.658  1.00  0.00     0.003 C 
ATOM      4  C   UNL     1      -4.116   8.707   0.458  1.00  0.00     0.005 C 
ATOM      5  C   UNL     1      -4.424   7.466  -0.410  1.00  0.00     0.015 C 
ATOM      6  C   UNL     1      -3.874   6.310   0.449  1.00  0.00     0.027 C 
ATOM      7  C   UNL     1      -4.134   6.822   1.851  1.00  0.00     0.019 C 
ATOM      8  C   UNL     1      -2.372   6.389   0.412  1.00  0.00     0.144 C 
ATOM      9  O   UNL     1      -1.637   5.651  -0.227  1.00  0.00    -0.298 OA
ATOM     10  C   UNL     1      -4.465   4.931   0.150  1.00  0.00     0.020 C 
ATOM     11  C   UNL     1      -1.119   8.572   0.348  1.00  0.00     0.020 C 
ENDROOT
TORSDOF 0
ENDMDL
MODEL 2
REMARK VINA RESULT:    -3.388     10.894     12.546
REMARK INTER + INTRA:          -3.388
REMARK INTER:                  -3.388
REMARK INTRA:                   0.000
REMARK UNBOUND:                 0.000
REMARK SMILES CC1(C)C(=O)[C@]2(C)CC[C@H]1C2
REMARK SMILES IDX 1 1 2 2 10 3 9 4 8 5 6 6 11 7 4 8 5 9 7 10 3 11
REMARK H PARENT
REMARK Flexibility Score: inf
ROOT
ATOM      1  C   UNL     1       9.567   2.017   6.594  1.00  0.00     0.020 C 
ATOM      2  C   UNL     1       8.283   2.511   5.894  1.00  0.00     0.027 C 
ATOM      3  C   UNL     1       8.239   4.079   5.804  1.00  0.00     0.003 C 
ATOM      4  C   UNL     1       7.042   4.556   4.942  1.00  0.00     0.005 C 
ATOM      5  C   UNL     1       5.818   4.180   5.807  1.00  0.00     0.015 C 
ATOM      6  C   UNL     1       6.468   3.631   7.091  1.00  0.00     0.027 C 
ATOM      7  C   UNL     1       7.721   4.478   7.185  1.00  0.00     0.019 C 
ATOM      8  C   UNL     1       7.075   2.295   6.759  1.00  0.00     0.144 C 
ATOM      9  O   UNL     1       6.617   1.208   7.077  1.00  0.00    -0.298 OA
ATOM     10  C   UNL     1       5.582   3.656   8.339  1.00  0.00     0.020 C 
ATOM     11  C   UNL     1       8.141   1.793   4.534  1.00  0.00     0.020 C 
ENDROOT
TORSDOF 0
ENDMDL
MODEL 3
REMARK VINA RESULT:    -3.372     11.114     12.138
REMARK INTER + INTRA:          -3.372
REMARK INTER:                  -3.372
REMARK INTRA:                   0.000
REMARK UNBOUND:                 0.000
REMARK SMILES CC1(C)C(=O)[C@]2(C)CC[C@H]1C2
REMARK SMILES IDX 1 1 2 2 10 3 9 4 8 5 6 6 11 7 4 8 5 9 7 10 3 11
REMARK H PARENT
REMARK Flexibility Score: inf
ROOT
ATOM      1  C   UNL     1       5.759   5.132   8.734  1.00  0.00     0.020 C 
ATOM      2  C   UNL     1       6.726   4.906   7.554  1.00  0.00     0.027 C 
ATOM      3  C   UNL     1       5.958   4.806   6.186  1.00  0.00     0.003 C 
ATOM      4  C   UNL     1       6.946   4.762   4.992  1.00  0.00     0.005 C 
ATOM      5  C   UNL     1       7.632   3.387   5.156  1.00  0.00     0.015 C 
ATOM      6  C   UNL     1       6.883   2.778   6.357  1.00  0.00     0.027 C 
ATOM      7  C   UNL     1       5.492   3.351   6.171  1.00  0.00     0.019 C 
ATOM      8  C   UNL     1       7.315   3.525   7.590  1.00  0.00     0.144 C 
ATOM      9  O   UNL     1       8.081   3.104   8.444  1.00  0.00    -0.298 OA
ATOM     10  C   UNL     1       6.939   1.253   6.462  1.00  0.00     0.020 C 
ATOM     11  C   UNL     1       7.826   5.990   7.586  1.00  0.00     0.020 C 
ENDROOT
TORSDOF 0
ENDMDL
MODEL 4
REMARK VINA RESULT:    -3.302     14.437     15.400
REMARK INTER + INTRA:          -3.302
REMARK INTER:                  -3.302
REMARK INTRA:                   0.000
REMARK UNBOUND:                 0.000
REMARK SMILES CC1(C)C(=O)[C@]2(C)CC[C@H]1C2
REMARK SMILES IDX 1 1 2 2 10 3 9 4 8 5 6 6 11 7 4 8 5 9 7 10 3 11
REMARK H PARENT
REMARK Flexibility Score: inf
ROOT
ATOM      1  C   UNL     1       8.696  -3.507  -2.507  1.00  0.00     0.020 C 
ATOM      2  C   UNL     1       7.822  -2.878  -3.612  1.00  0.00     0.027 C 
ATOM      3  C   UNL     1       6.292  -2.973  -3.266  1.00  0.00     0.003 C 
ATOM      4  C   UNL     1       5.437  -2.181  -4.288  1.00  0.00     0.005 C 
ATOM      5  C   UNL     1       5.595  -3.003  -5.587  1.00  0.00     0.015 C 
ATOM      6  C   UNL     1       6.432  -4.210  -5.122  1.00  0.00     0.027 C 
ATOM      7  C   UNL     1       5.939  -4.395  -3.701  1.00  0.00     0.019 C 
ATOM      8  C   UNL     1       7.830  -3.719  -4.856  1.00  0.00     0.144 C 
ATOM      9  O   UNL     1       8.799  -3.911  -5.575  1.00  0.00    -0.298 OA
ATOM     10  C   UNL     1       6.333  -5.457  -6.003  1.00  0.00     0.020 C 
ATOM     11  C   UNL     1       8.321  -1.444  -3.896  1.00  0.00     0.020 C 
ENDROOT
TORSDOF 0
ENDMDL
MODEL 5
REMARK VINA RESULT:    -3.301     11.745     13.675
REMARK INTER + INTRA:          -3.301
REMARK INTER:                  -3.301
REMARK INTRA:                   0.000
REMARK UNBOUND:                 0.000
REMARK SMILES CC1(C)C(=O)[C@]2(C)CC[C@H]1C2
REMARK SMILES IDX 1 1 2 2 10 3 9 4 8 5 6 6 11 7 4 8 5 9 7 10 3 11
REMARK H PARENT
REMARK Flexibility Score: inf
ROOT
ATOM      1  C   UNL     1       5.828   3.017   6.977  1.00  0.00     0.020 C 
ATOM      2  C   UNL     1       7.125   2.960   6.142  1.00  0.00     0.027 C 
ATOM      3  C   UNL     1       7.346   1.537   5.512  1.00  0.00     0.003 C 
ATOM      4  C   UNL     1       8.547   1.539   4.532  1.00  0.00     0.005 C 
ATOM      5  C   UNL     1       9.760   1.745   5.468  1.00  0.00     0.015 C 
ATOM      6  C   UNL     1       9.113   1.732   6.866  1.00  0.00     0.027 C 
ATOM      7  C   UNL     1       7.973   0.755   6.666  1.00  0.00     0.019 C 
ATOM      8  C   UNL     1       8.340   3.013   7.022  1.00  0.00     0.144 C 
ATOM      9  O   UNL     1       8.684   3.973   7.697  1.00  0.00    -0.298 OA
ATOM     10  C   UNL     1      10.055   1.390   8.022  1.00  0.00     0.020 C 
ATOM     11  C   UNL     1       7.118   4.114   5.117  1.00  0.00     0.020 C 
ENDROOT
TORSDOF 0
ENDMDL
MODEL 6
REMARK VINA RESULT:    -3.295     12.730     14.114
REMARK INTER + INTRA:          -3.295
REMARK INTER:                  -3.295
REMARK INTRA:                   0.000
REMARK UNBOUND:                 0.000
REMARK SMILES CC1(C)C(=O)[C@]2(C)CC[C@H]1C2
REMARK SMILES IDX 1 1 2 2 10 3 9 4 8 5 6 6 11 7 4 8 5 9 7 10 3 11
REMARK H PARENT
REMARK Flexibility Score: inf
ROOT
ATOM      1  C   UNL     1      -1.208  -0.891  -9.036  1.00  0.00     0.020 C 
ATOM      2  C   UNL     1       0.321  -0.994  -9.218  1.00  0.00     0.027 C 
ATOM      3  C   UNL     1       0.705  -2.079 -10.289  1.00  0.00     0.003 C 
ATOM      4  C   UNL     1       2.224  -2.047 -10.597  1.00  0.00     0.005 C 
ATOM      5  C   UNL     1       2.857  -2.556  -9.282  1.00  0.00     0.015 C 
ATOM      6  C   UNL     1       1.623  -2.908  -8.429  1.00  0.00     0.027 C 
ATOM      7  C   UNL     1       0.645  -3.377  -9.486  1.00  0.00     0.019 C 
ATOM      8  C   UNL     1       0.971  -1.617  -8.016  1.00  0.00     0.144 C 
ATOM      9  O   UNL     1       1.025  -1.118  -6.902  1.00  0.00    -0.298 OA
ATOM     10  C   UNL     1       1.871  -3.907  -7.297  1.00  0.00     0.020 C 
ATOM     11  C   UNL     1       0.892   0.412  -9.505  1.00  0.00     0.020 C 
ENDROOT
TORSDOF 0
ENDMDL
MODEL 7
REMARK VINA RESULT:    -3.288      1.542      2.784
REMARK INTER + INTRA:          -3.288
REMARK INTER:                  -3.288
REMARK INTRA:                   0.000
REMARK UNBOUND:                 0.000
REMARK SMILES CC1(C)C(=O)[C@]2(C)CC[C@H]1C2
REMARK SMILES IDX 1 1 2 2 10 3 9 4 8 5 6 6 11 7 4 8 5 9 7 10 3 11
REMARK H PARENT
REMARK Flexibility Score: inf
ROOT
ATOM      1  C   UNL     1      -3.304   7.375   2.127  1.00  0.00     0.020 C 
ATOM      2  C   UNL     1      -1.958   7.552   1.393  1.00  0.00     0.027 C 
ATOM      3  C   UNL     1      -1.803   9.003   0.809  1.00  0.00     0.003 C 
ATOM      4  C   UNL     1      -0.380   9.226   0.236  1.00  0.00     0.005 C 
ATOM      5  C   UNL     1      -0.354   8.302  -1.003  1.00  0.00     0.015 C 
ATOM      6  C   UNL     1      -1.791   7.748  -1.040  1.00  0.00     0.027 C 
ATOM      7  C   UNL     1      -2.584   8.921  -0.501  1.00  0.00     0.019 C 
ATOM      8  C   UNL     1      -1.936   6.781   0.104  1.00  0.00     0.144 C 
ATOM      9  O   UNL     1      -1.957   5.564   0.008  1.00  0.00    -0.298 OA
ATOM     10  C   UNL     1      -2.260   7.227  -2.400  1.00  0.00     0.020 C 
ATOM     11  C   UNL     1      -0.810   7.119   2.331  1.00  0.00     0.020 C 
ENDROOT
TORSDOF 0
ENDMDL
MODEL 8
REMARK VINA RESULT:    -3.279      0.930      3.171
REMARK INTER + INTRA:          -3.279
REMARK INTER:                  -3.279
REMARK INTRA:                   0.000
REMARK UNBOUND:                 0.000
REMARK SMILES CC1(C)C(=O)[C@]2(C)CC[C@H]1C2
REMARK SMILES IDX 1 1 2 2 10 3 9 4 8 5 6 6 11 7 4 8 5 9 7 10 3 11
REMARK H PARENT
REMARK Flexibility Score: inf
ROOT
ATOM      1  C   UNL     1      -3.843   6.992  -1.618  1.00  0.00     0.020 C 
ATOM      2  C   UNL     1      -3.635   6.601  -0.140  1.00  0.00     0.027 C 
ATOM      3  C   UNL     1      -4.165   7.714   0.834  1.00  0.00     0.003 C 
ATOM      4  C   UNL     1      -4.119   7.236   2.308  1.00  0.00     0.005 C 
ATOM      5  C   UNL     1      -2.604   7.152   2.600  1.00  0.00     0.015 C 
ATOM      6  C   UNL     1      -1.979   7.687   1.297  1.00  0.00     0.027 C 
ATOM      7  C   UNL     1      -3.008   8.711   0.864  1.00  0.00     0.019 C 
ATOM      8  C   UNL     1      -2.181   6.642   0.233  1.00  0.00     0.144 C 
ATOM      9  O   UNL     1      -1.317   5.896  -0.202  1.00  0.00    -0.298 OA
ATOM     10  C   UNL     1      -0.553   8.225   1.425  1.00  0.00     0.020 C 
ATOM     11  C   UNL     1      -4.242   5.202   0.103  1.00  0.00     0.020 C 
ENDROOT
TORSDOF 0
ENDMDL
MODEL 9
REMARK VINA RESULT:    -3.215     10.939     12.873
REMARK INTER + INTRA:          -3.215
REMARK INTER:                  -3.215
REMARK INTRA:                   0.000
REMARK UNBOUND:                 0.000
REMARK SMILES CC1(C)C(=O)[C@]2(C)CC[C@H]1C2
REMARK SMILES IDX 1 1 2 2 10 3 9 4 8 5 6 6 11 7 4 8 5 9 7 10 3 11
REMARK H PARENT
REMARK Flexibility Score: inf
ROOT
ATOM      1  C   UNL     1       8.682   4.832   5.902  1.00  0.00     0.020 C 
ATOM      2  C   UNL     1       7.485   3.888   6.135  1.00  0.00     0.027 C 
ATOM      3  C   UNL     1       7.260   3.604   7.665  1.00  0.00     0.003 C 
ATOM      4  C   UNL     1       5.952   2.806   7.899  1.00  0.00     0.005 C 
ATOM      5  C   UNL     1       6.272   1.423   7.288  1.00  0.00     0.015 C 
ATOM      6  C   UNL     1       7.749   1.571   6.875  1.00  0.00     0.027 C 
ATOM      7  C   UNL     1       8.276   2.498   7.952  1.00  0.00     0.019 C 
ATOM      8  C   UNL     1       7.799   2.490   5.685  1.00  0.00     0.144 C 
ATOM      9  O   UNL     1       7.990   2.145   4.529  1.00  0.00    -0.298 OA
ATOM     10  C   UNL     1       8.523   0.260   6.724  1.00  0.00     0.020 C 
ATOM     11  C   UNL     1       6.246   4.452   5.406  1.00  0.00     0.020 C 
ENDROOT
TORSDOF 0
ENDMDL
