MODEL 1
REMARK VINA RESULT:    -3.475      0.000      0.000
REMARK INTER + INTRA:          -4.119
REMARK INTER:                  -4.085
REMARK INTRA:                  -0.035
REMARK UNBOUND:                -0.035
REMARK SMILES O=C([O-])CCC(=O)[O-]
REMARK SMILES IDX 4 1 2 2 1 3 3 4 5 5 6 6 7 7 8 8
REMARK H PARENT
REMARK Flexibility Score: inf
ROOT
ATOM      1  C   UNL     1      -6.884  27.979  -0.836  1.00  0.00     0.059 C 
ENDROOT
BRANCH   1   2
ATOM      2  C   UNL     1      -6.890  28.787   0.423  1.00  0.00     0.042 C 
ATOM      3  O   UNL     1      -5.825  29.305   0.849  1.00  0.00    -0.550 OA
ATOM      4  O   UNL     1      -8.083  29.010   1.100  1.00  0.00    -0.550 OA
ENDBRANCH   1   2
BRANCH   1   5
ATOM      5  C   UNL     1      -5.451  27.636  -1.244  1.00  0.00     0.059 C 
BRANCH   5   6
ATOM      6  C   UNL     1      -5.426  27.041  -2.617  1.00  0.00     0.042 C 
ATOM      7  O   UNL     1      -5.580  25.801  -2.773  1.00  0.00    -0.550 OA
ATOM      8  O   UNL     1      -5.281  27.863  -3.728  1.00  0.00    -0.550 OA
ENDBRANCH   5   6
ENDBRANCH   1   5
TORSDOF 3
ENDMDL
MODEL 2
REMARK VINA RESULT:    -3.390      0.102      4.224
REMARK INTER + INTRA:          -4.019
REMARK INTER:                  -3.987
REMARK INTRA:                  -0.032
REMARK UNBOUND:                -0.035
REMARK SMILES O=C([O-])CCC(=O)[O-]
REMARK SMILES IDX 4 1 2 2 1 3 3 4 5 5 6 6 7 7 8 8
REMARK H PARENT
REMARK Flexibility Score: inf
ROOT
ATOM      1  C   UNL     1      -5.444  27.768  -1.308  1.00  0.00     0.059 C 
ENDROOT
BRANCH   1   2
ATOM      2  C   UNL     1      -5.443  27.100  -2.646  1.00  0.00     0.042 C 
ATOM      3  O   UNL     1      -5.255  27.775  -3.692  1.00  0.00    -0.550 OA
ATOM      4  O   UNL     1      -5.600  25.722  -2.735  1.00  0.00    -0.550 OA
ENDBRANCH   1   2
BRANCH   1   5
ATOM      5  C   UNL     1      -6.874  27.930  -0.792  1.00  0.00     0.059 C 
BRANCH   5   6
ATOM      6  C   UNL     1      -6.898  28.813   0.416  1.00  0.00     0.042 C 
ATOM      7  O   UNL     1      -7.973  28.997   1.044  1.00  0.00    -0.550 OA
ATOM      8  O   UNL     1      -5.723  29.392   0.877  1.00  0.00    -0.550 OA
ENDBRANCH   5   6
ENDBRANCH   1   5
TORSDOF 3
ENDMDL
MODEL 3
REMARK VINA RESULT:    -3.264      9.600     10.760
REMARK INTER + INTRA:          -3.871
REMARK INTER:                  -3.949
REMARK INTRA:                   0.078
REMARK UNBOUND:                -0.035
REMARK SMILES O=C([O-])CCC(=O)[O-]
REMARK SMILES IDX 4 1 2 2 1 3 3 4 5 5 6 6 7 7 8 8
REMARK H PARENT
REMARK Flexibility Score: inf
ROOT
ATOM      1  C   UNL     1     -16.635  24.268  -1.386  1.00  0.00     0.059 C 
ENDROOT
BRANCH   1   2
ATOM      2  C   UNL     1     -15.491  24.833  -2.167  1.00  0.00     0.042 C 
ATOM      3  O   UNL     1     -14.365  24.269  -2.141  1.00  0.00    -0.550 OA
ATOM      4  O   UNL     1     -15.680  25.955  -2.966  1.00  0.00    -0.550 OA
ENDBRANCH   1   2
BRANCH   1   5
ATOM      5  C   UNL     1     -16.508  24.639   0.092  1.00  0.00     0.059 C 
BRANCH   5   6
ATOM      6  C   UNL     1     -16.390  26.122   0.251  1.00  0.00     0.042 C 
ATOM      7  O   UNL     1     -15.493  26.610   0.988  1.00  0.00    -0.550 OA
ATOM      8  O   UNL     1     -17.239  26.966  -0.453  1.00  0.00    -0.550 OA
ENDBRANCH   5   6
ENDBRANCH   1   5
TORSDOF 3
ENDMDL
MODEL 4
REMARK VINA RESULT:    -3.245      9.539     10.175
REMARK INTER + INTRA:          -3.849
REMARK INTER:                  -3.994
REMARK INTRA:                   0.145
REMARK UNBOUND:                -0.035
REMARK SMILES O=C([O-])CCC(=O)[O-]
REMARK SMILES IDX 4 1 2 2 1 3 3 4 5 5 6 6 7 7 8 8
REMARK H PARENT
REMARK Flexibility Score: inf
ROOT
ATOM      1  C   UNL     1     -16.485  24.629   0.015  1.00  0.00     0.059 C 
ENDROOT
BRANCH   1   2
ATOM      2  C   UNL     1     -16.396  26.114   0.173  1.00  0.00     0.042 C 
ATOM      3  O   UNL     1     -17.194  26.867  -0.445  1.00  0.00    -0.550 OA
ATOM      4  O   UNL     1     -15.462  26.666   1.041  1.00  0.00    -0.550 OA
ENDBRANCH   1   2
BRANCH   1   5
ATOM      5  C   UNL     1     -16.570  24.253  -1.465  1.00  0.00     0.059 C 
BRANCH   5   6
ATOM      6  C   UNL     1     -15.429  24.855  -2.224  1.00  0.00     0.042 C 
ATOM      7  O   UNL     1     -14.297  24.303  -2.210  1.00  0.00    -0.550 OA
ATOM      8  O   UNL     1     -15.629  25.998  -2.987  1.00  0.00    -0.550 OA
ENDBRANCH   5   6
ENDBRANCH   1   5
TORSDOF 3
ENDMDL
MODEL 5
REMARK VINA RESULT:    -2.936     15.656     16.795
REMARK INTER + INTRA:          -3.486
REMARK INTER:                  -3.447
REMARK INTRA:                  -0.039
REMARK UNBOUND:                -0.035
REMARK SMILES O=C([O-])CCC(=O)[O-]
REMARK SMILES IDX 4 1 2 2 1 3 3 4 5 5 6 6 7 7 8 8
REMARK H PARENT
REMARK Flexibility Score: inf
ROOT
ATOM      1  C   UNL     1     -16.985  16.344  -3.663  1.00  0.00     0.059 C 
ENDROOT
BRANCH   1   2
ATOM      2  C   UNL     1     -17.270  15.049  -4.354  1.00  0.00     0.042 C 
ATOM      3  O   UNL     1     -18.398  14.841  -4.873  1.00  0.00    -0.550 OA
ATOM      4  O   UNL     1     -16.273  14.087  -4.468  1.00  0.00    -0.550 OA
ENDBRANCH   1   2
BRANCH   1   5
ATOM      5  C   UNL     1     -18.232  16.848  -2.936  1.00  0.00     0.059 C 
BRANCH   5   6
ATOM      6  C   UNL     1     -17.932  18.115  -2.198  1.00  0.00     0.042 C 
ATOM      7  O   UNL     1     -16.817  18.682  -2.340  1.00  0.00    -0.550 OA
ATOM      8  O   UNL     1     -18.902  18.696  -1.391  1.00  0.00    -0.550 OA
ENDBRANCH   5   6
ENDBRANCH   1   5
TORSDOF 3
ENDMDL
MODEL 6
REMARK VINA RESULT:    -2.923     15.717     16.357
REMARK INTER + INTRA:          -3.470
REMARK INTER:                  -3.434
REMARK INTRA:                  -0.036
REMARK UNBOUND:                -0.035
REMARK SMILES O=C([O-])CCC(=O)[O-]
REMARK SMILES IDX 4 1 2 2 1 3 3 4 5 5 6 6 7 7 8 8
REMARK H PARENT
REMARK Flexibility Score: inf
ROOT
ATOM      1  C   UNL     1     -18.221  16.735  -2.796  1.00  0.00     0.059 C 
ENDROOT
BRANCH   1   2
ATOM      2  C   UNL     1     -17.984  18.061  -2.146  1.00  0.00     0.042 C 
ATOM      3  O   UNL     1     -16.892  18.665  -2.318  1.00  0.00    -0.550 OA
ATOM      4  O   UNL     1     -18.987  18.656  -1.390  1.00  0.00    -0.550 OA
ENDBRANCH   1   2
BRANCH   1   5
ATOM      5  C   UNL     1     -17.049  16.368  -3.706  1.00  0.00     0.059 C 
BRANCH   5   6
ATOM      6  C   UNL     1     -17.280  15.035  -4.345  1.00  0.00     0.042 C 
ATOM      7  O   UNL     1     -16.339  14.202  -4.432  1.00  0.00    -0.550 OA
ATOM      8  O   UNL     1     -18.547  14.692  -4.799  1.00  0.00    -0.550 OA
ENDBRANCH   5   6
ENDBRANCH   1   5
TORSDOF 3
ENDMDL
MODEL 7
REMARK VINA RESULT:    -2.826     16.351     17.341
REMARK INTER + INTRA:          -3.356
REMARK INTER:                  -3.261
REMARK INTRA:                  -0.095
REMARK UNBOUND:                -0.035
REMARK SMILES O=C([O-])CCC(=O)[O-]
REMARK SMILES IDX 4 1 2 2 1 3 3 4 5 5 6 6 7 7 8 8
REMARK H PARENT
REMARK Flexibility Score: inf
ROOT
ATOM      1  C   UNL     1     -21.019  20.974  -1.777  1.00  0.00     0.059 C 
ENDROOT
BRANCH   1   2
ATOM      2  C   UNL     1     -19.727  20.691  -1.079  1.00  0.00     0.042 C 
ATOM      3  O   UNL     1     -19.168  21.586  -0.392  1.00  0.00    -0.550 OA
ATOM      4  O   UNL     1     -19.163  19.423  -1.145  1.00  0.00    -0.550 OA
ENDBRANCH   1   2
BRANCH   1   5
ATOM      5  C   UNL     1     -22.131  21.233  -0.760  1.00  0.00     0.059 C 
BRANCH   5   6
ATOM      6  C   UNL     1     -23.138  20.127  -0.793  1.00  0.00     0.042 C 
ATOM      7  O   UNL     1     -22.782  18.953  -1.076  1.00  0.00    -0.550 OA
ATOM      8  O   UNL     1     -24.463  20.384  -0.463  1.00  0.00    -0.550 OA
ENDBRANCH   5   6
ENDBRANCH   1   5
TORSDOF 3
ENDMDL
MODEL 8
REMARK VINA RESULT:    -2.824     16.317     17.196
REMARK INTER + INTRA:          -3.353
REMARK INTER:                  -3.259
REMARK INTRA:                  -0.095
REMARK UNBOUND:                -0.035
REMARK SMILES O=C([O-])CCC(=O)[O-]
REMARK SMILES IDX 4 1 2 2 1 3 3 4 5 5 6 6 7 7 8 8
REMARK H PARENT
REMARK Flexibility Score: inf
ROOT
ATOM      1  C   UNL     1     -22.100  21.249  -0.738  1.00  0.00     0.059 C 
ENDROOT
BRANCH   1   2
ATOM      2  C   UNL     1     -23.099  20.136  -0.750  1.00  0.00     0.042 C 
ATOM      3  O   UNL     1     -22.747  18.970  -1.071  1.00  0.00    -0.550 OA
ATOM      4  O   UNL     1     -24.411  20.375  -0.359  1.00  0.00    -0.550 OA
ENDBRANCH   1   2
BRANCH   1   5
ATOM      5  C   UNL     1     -20.996  20.987  -1.763  1.00  0.00     0.059 C 
BRANCH   5   6
ATOM      6  C   UNL     1     -19.700  20.697  -1.073  1.00  0.00     0.042 C 
ATOM      7  O   UNL     1     -19.129  21.592  -0.395  1.00  0.00    -0.550 OA
ATOM      8  O   UNL     1     -19.146  19.425  -1.139  1.00  0.00    -0.550 OA
ENDBRANCH   5   6
ENDBRANCH   1   5
TORSDOF 3
ENDMDL
MODEL 9
REMARK VINA RESULT:    -2.795     16.489     17.278
REMARK INTER + INTRA:          -3.320
REMARK INTER:                  -3.201
REMARK INTRA:                  -0.119
REMARK UNBOUND:                -0.035
REMARK SMILES O=C([O-])CCC(=O)[O-]
REMARK SMILES IDX 4 1 2 2 1 3 3 4 5 5 6 6 7 7 8 8
REMARK H PARENT
REMARK Flexibility Score: inf
ROOT
ATOM      1  C   UNL     1     -20.032  19.536  -1.500  1.00  0.00     0.059 C 
ENDROOT
BRANCH   1   2
ATOM      2  C   UNL     1     -20.208  20.970  -1.111  1.00  0.00     0.042 C 
ATOM      3  O   UNL     1     -21.286  21.568  -1.365  1.00  0.00    -0.550 OA
ATOM      4  O   UNL     1     -19.199  21.633  -0.424  1.00  0.00    -0.550 OA
ENDBRANCH   1   2
BRANCH   1   5
ATOM      5  C   UNL     1     -20.961  19.179  -2.661  1.00  0.00     0.059 C 
BRANCH   5   6
ATOM      6  C   UNL     1     -22.013  18.213  -2.212  1.00  0.00     0.042 C 
ATOM      7  O   UNL     1     -21.978  17.015  -2.596  1.00  0.00    -0.550 OA
ATOM      8  O   UNL     1     -23.003  18.625  -1.328  1.00  0.00    -0.550 OA
ENDBRANCH   5   6
ENDBRANCH   1   5
TORSDOF 3
ENDMDL
