MODEL 1
REMARK VINA RESULT:    -2.278      0.000      0.000
REMARK INTER + INTRA:          -2.278
REMARK INTER:                  -2.278
REMARK INTRA:                   0.000
REMARK UNBOUND:                 0.000
REMARK SMILES CC(=O)[O-]
REMARK SMILES IDX 1 1 2 2 3 3 4 4
REMARK H PARENT
REMARK Flexibility Score: inf
ROOT
ATOM      1  C   UNL     1      41.516 -11.463 -44.357  1.00  0.00     0.063 C 
ATOM      2  C   UNL     1      42.731 -11.954 -45.067  1.00  0.00     0.038 C 
ATOM      3  O   UNL     1      42.739 -12.036 -46.324  1.00  0.00    -0.550 OA
ATOM      4  O   UNL     1      43.876 -12.271 -44.349  1.00  0.00    -0.550 OA
ENDROOT
TORSDOF 0
ENDMDL
MODEL 2
REMARK VINA RESULT:    -2.264      1.440      1.783
REMARK INTER + INTRA:          -2.264
REMARK INTER:                  -2.264
REMARK INTRA:                   0.000
REMARK UNBOUND:                 0.000
REMARK SMILES CC(=O)[O-]
REMARK SMILES IDX 1 1 2 2 3 3 4 4
REMARK H PARENT
REMARK Flexibility Score: inf
ROOT
ATOM      1  C   UNL     1      43.509 -12.326 -43.828  1.00  0.00     0.063 C 
ATOM      2  C   UNL     1      42.503 -11.959 -44.866  1.00  0.00     0.038 C 
ATOM      3  O   UNL     1      42.819 -11.974 -46.085  1.00  0.00    -0.550 OA
ATOM      4  O   UNL     1      41.201 -11.652 -44.495  1.00  0.00    -0.550 OA
ENDROOT
TORSDOF 0
ENDMDL
MODEL 3
REMARK VINA RESULT:    -2.234      0.102      1.623
REMARK INTER + INTRA:          -2.234
REMARK INTER:                  -2.234
REMARK INTRA:                   0.000
REMARK UNBOUND:                 0.000
REMARK SMILES CC(=O)[O-]
REMARK SMILES IDX 1 1 2 2 3 3 4 4
REMARK H PARENT
REMARK Flexibility Score: inf
ROOT
ATOM      1  C   UNL     1      41.536 -11.594 -44.282  1.00  0.00     0.063 C 
ATOM      2  C   UNL     1      42.770 -11.967 -45.032  1.00  0.00     0.038 C 
ATOM      3  O   UNL     1      43.823 -12.264 -44.408  1.00  0.00    -0.550 OA
ATOM      4  O   UNL     1      42.747 -12.039 -46.418  1.00  0.00    -0.550 OA
ENDROOT
TORSDOF 0
ENDMDL
MODEL 4
REMARK VINA RESULT:    -2.175      2.714      3.087
REMARK INTER + INTRA:          -2.175
REMARK INTER:                  -2.175
REMARK INTRA:                   0.000
REMARK UNBOUND:                 0.000
REMARK SMILES CC(=O)[O-]
REMARK SMILES IDX 1 1 2 2 3 3 4 4
REMARK H PARENT
REMARK Flexibility Score: inf
ROOT
ATOM      1  C   UNL     1      38.862 -12.329 -45.193  1.00  0.00     0.063 C 
ATOM      2  C   UNL     1      40.117 -11.763 -44.620  1.00  0.00     0.038 C 
ATOM      3  O   UNL     1      40.065 -10.989 -43.628  1.00  0.00    -0.550 OA
ATOM      4  O   UNL     1      41.349 -12.131 -45.144  1.00  0.00    -0.550 OA
ENDROOT
TORSDOF 0
ENDMDL
MODEL 5
REMARK VINA RESULT:    -2.138      6.142      6.451
REMARK INTER + INTRA:          -2.138
REMARK INTER:                  -2.138
REMARK INTRA:                   0.000
REMARK UNBOUND:                 0.000
REMARK SMILES CC(=O)[O-]
REMARK SMILES IDX 1 1 2 2 3 3 4 4
REMARK H PARENT
REMARK Flexibility Score: inf
ROOT
ATOM      1  C   UNL     1      44.811 -12.027 -40.204  1.00  0.00     0.063 C 
ATOM      2  C   UNL     1      45.940 -12.817 -39.634  1.00  0.00     0.038 C 
ATOM      3  O   UNL     1      45.712 -13.891 -39.018  1.00  0.00    -0.550 OA
ATOM      4  O   UNL     1      47.250 -12.398 -39.828  1.00  0.00    -0.550 OA
ENDROOT
TORSDOF 0
ENDMDL
MODEL 6
REMARK VINA RESULT:    -2.130      7.752      7.886
REMARK INTER + INTRA:          -2.130
REMARK INTER:                  -2.130
REMARK INTRA:                   0.000
REMARK UNBOUND:                 0.000
REMARK SMILES CC(=O)[O-]
REMARK SMILES IDX 1 1 2 2 3 3 4 4
REMARK H PARENT
REMARK Flexibility Score: inf
ROOT
ATOM      1  C   UNL     1      41.567 -11.296 -37.503  1.00  0.00     0.063 C 
ATOM      2  C   UNL     1      42.627 -10.247 -37.500  1.00  0.00     0.038 C 
ATOM      3  O   UNL     1      43.838 -10.574 -37.395  1.00  0.00    -0.550 OA
ATOM      4  O   UNL     1      42.285  -8.912 -37.668  1.00  0.00    -0.550 OA
ENDROOT
TORSDOF 0
ENDMDL
MODEL 7
REMARK VINA RESULT:    -2.117      2.999      3.482
REMARK INTER + INTRA:          -2.117
REMARK INTER:                  -2.117
REMARK INTRA:                   0.000
REMARK UNBOUND:                 0.000
REMARK SMILES CC(=O)[O-]
REMARK SMILES IDX 1 1 2 2 3 3 4 4
REMARK H PARENT
REMARK Flexibility Score: inf
ROOT
ATOM      1  C   UNL     1      43.508 -12.316 -43.675  1.00  0.00     0.063 C 
ATOM      2  C   UNL     1      43.552 -11.576 -42.382  1.00  0.00     0.038 C 
ATOM      3  O   UNL     1      44.309 -11.967 -41.455  1.00  0.00    -0.550 OA
ATOM      4  O   UNL     1      42.797 -10.423 -42.214  1.00  0.00    -0.550 OA
ENDROOT
TORSDOF 0
ENDMDL
MODEL 8
REMARK VINA RESULT:    -2.104     13.307     13.852
REMARK INTER + INTRA:          -2.104
REMARK INTER:                  -2.104
REMARK INTRA:                   0.000
REMARK UNBOUND:                 0.000
REMARK SMILES CC(=O)[O-]
REMARK SMILES IDX 1 1 2 2 3 3 4 4
REMARK H PARENT
REMARK Flexibility Score: inf
ROOT
ATOM      1  C   UNL     1      48.850 -14.596 -32.342  1.00  0.00     0.063 C 
ATOM      2  C   UNL     1      48.260 -13.242 -32.545  1.00  0.00     0.038 C 
ATOM      3  O   UNL     1      47.833 -12.903 -33.680  1.00  0.00    -0.550 OA
ATOM      4  O   UNL     1      48.130 -12.371 -31.472  1.00  0.00    -0.550 OA
ENDROOT
TORSDOF 0
ENDMDL
MODEL 9
REMARK VINA RESULT:    -2.092      3.327      3.627
REMARK INTER + INTRA:          -2.092
REMARK INTER:                  -2.092
REMARK INTRA:                   0.000
REMARK UNBOUND:                 0.000
REMARK SMILES CC(=O)[O-]
REMARK SMILES IDX 1 1 2 2 3 3 4 4
REMARK H PARENT
REMARK Flexibility Score: inf
ROOT
ATOM      1  C   UNL     1      43.504 -12.166 -43.286  1.00  0.00     0.063 C 
ATOM      2  C   UNL     1      43.908 -11.541 -41.994  1.00  0.00     0.038 C 
ATOM      3  O   UNL     1      43.679 -10.321 -41.784  1.00  0.00    -0.550 OA
ATOM      4  O   UNL     1      44.489 -12.316 -40.999  1.00  0.00    -0.550 OA
ENDROOT
TORSDOF 0
ENDMDL
