MODEL 1
REMARK VINA RESULT:    -4.266      0.000      0.000
REMARK INTER + INTRA:          -9.482
REMARK INTER:                  -8.006
REMARK INTRA:                  -1.475
REMARK UNBOUND:                -1.475
REMARK SMILES O=C([O-])CCCCCCCCCCCCCCC(=O)[O-]
REMARK SMILES IDX 10 1 9 2 8 3 7 4 6 5 5 6 4 7 2 8 1 9 3 10 11 11 12 12 13 13
REMARK SMILES IDX 14 14 15 15 16 16 17 17 18 18 19 19 20 20
REMARK H PARENT
REMARK Flexibility Score: inf
ROOT
ATOM      1  C   UNL     1      -2.093 -34.212  45.975  1.00  0.00     0.000 C 
ENDROOT
BRANCH   1   2
ATOM      2  C   UNL     1      -2.023 -33.802  47.456  1.00  0.00     0.000 C 
BRANCH   2   3
ATOM      3  C   UNL     1      -3.326 -34.100  48.222  1.00  0.00     0.000 C 
BRANCH   3   4
ATOM      4  C   UNL     1      -4.305 -32.917  48.328  1.00  0.00     0.000 C 
BRANCH   4   5
ATOM      5  C   UNL     1      -5.638 -33.175  47.604  1.00  0.00     0.000 C 
BRANCH   5   6
ATOM      6  C   UNL     1      -5.800 -34.641  47.170  1.00  0.00     0.006 C 
BRANCH   6   7
ATOM      7  C   UNL     1      -6.760 -34.804  45.984  1.00  0.00     0.053 C 
BRANCH   7   8
ATOM      8  C   UNL     1      -6.020 -34.670  44.691  1.00  0.00     0.041 C 
ATOM      9  O   UNL     1      -6.165 -33.640  43.982  1.00  0.00    -0.550 OA
ATOM     10  O   UNL     1      -5.129 -35.659  44.293  1.00  0.00    -0.550 OA
ENDBRANCH   7   8
ENDBRANCH   6   7
ENDBRANCH   5   6
ENDBRANCH   4   5
ENDBRANCH   3   4
ENDBRANCH   2   3
ENDBRANCH   1   2
BRANCH   1  11
ATOM     11  C   UNL     1      -1.819 -35.709  45.765  1.00  0.00     0.000 C 
BRANCH  11  12
ATOM     12  C   UNL     1      -0.551 -35.964  44.930  1.00  0.00     0.000 C 
BRANCH  12  13
ATOM     13  C   UNL     1       0.235 -34.676  44.636  1.00  0.00     0.000 C 
BRANCH  13  14
ATOM     14  C   UNL     1       1.716 -34.948  44.323  1.00  0.00     0.000 C 
BRANCH  14  15
ATOM     15  C   UNL     1       2.649 -34.531  45.473  1.00  0.00     0.000 C 
BRANCH  15  16
ATOM     16  C   UNL     1       1.920 -33.733  46.568  1.00  0.00     0.006 C 
BRANCH  16  17
ATOM     17  C   UNL     1       2.383 -34.128  47.977  1.00  0.00     0.053 C 
BRANCH  17  18
ATOM     18  C   UNL     1       3.592 -33.353  48.403  1.00  0.00     0.041 C 
ATOM     19  O   UNL     1       3.556 -32.095  48.444  1.00  0.00    -0.550 OA
ATOM     20  O   UNL     1       4.748 -34.022  48.783  1.00  0.00    -0.550 OA
ENDBRANCH  17  18
ENDBRANCH  16  17
ENDBRANCH  15  16
ENDBRANCH  14  15
ENDBRANCH  13  14
ENDBRANCH  12  13
ENDBRANCH  11  12
ENDBRANCH   1  11
TORSDOF 15
ENDMDL
MODEL 2
REMARK VINA RESULT:    -4.262      1.592      8.054
REMARK INTER + INTRA:          -9.475
REMARK INTER:                  -7.495
REMARK INTRA:                  -1.980
REMARK UNBOUND:                -1.475
REMARK SMILES O=C([O-])CCCCCCCCCCCCCCC(=O)[O-]
REMARK SMILES IDX 10 1 9 2 8 3 7 4 6 5 5 6 4 7 2 8 1 9 3 10 11 11 12 12 13 13
REMARK SMILES IDX 14 14 15 15 16 16 17 17 18 18 19 19 20 20
REMARK H PARENT
REMARK Flexibility Score: inf
ROOT
ATOM      1  C   UNL     1      -0.444 -34.163  45.696  1.00  0.00     0.000 C 
ENDROOT
BRANCH   1   2
ATOM      2  C   UNL     1      -0.062 -35.387  44.846  1.00  0.00     0.000 C 
BRANCH   2   3
ATOM      3  C   UNL     1       1.325 -35.252  44.190  1.00  0.00     0.000 C 
BRANCH   3   4
ATOM      4  C   UNL     1       2.381 -34.527  45.043  1.00  0.00     0.000 C 
BRANCH   4   5
ATOM      5  C   UNL     1       3.105 -35.465  46.025  1.00  0.00     0.000 C 
BRANCH   5   6
ATOM      6  C   UNL     1       3.387 -34.796  47.380  1.00  0.00     0.006 C 
BRANCH   6   7
ATOM      7  C   UNL     1       2.551 -33.528  47.600  1.00  0.00     0.053 C 
BRANCH   7   8
ATOM      8  C   UNL     1       3.325 -32.523  48.391  1.00  0.00     0.041 C 
ATOM      9  O   UNL     1       4.279 -32.893  49.125  1.00  0.00    -0.550 OA
ATOM     10  O   UNL     1       3.028 -31.171  48.280  1.00  0.00    -0.550 OA
ENDBRANCH   7   8
ENDBRANCH   6   7
ENDBRANCH   5   6
ENDBRANCH   4   5
ENDBRANCH   3   4
ENDBRANCH   2   3
ENDBRANCH   1   2
BRANCH   1  11
ATOM     11  C   UNL     1      -0.954 -34.551  47.092  1.00  0.00     0.000 C 
BRANCH  11  12
ATOM     12  C   UNL     1      -0.922 -36.071  47.329  1.00  0.00     0.000 C 
BRANCH  12  13
ATOM     13  C   UNL     1      -2.176 -36.587  48.052  1.00  0.00     0.000 C 
BRANCH  13  14
ATOM     14  C   UNL     1      -3.477 -36.175  47.340  1.00  0.00     0.000 C 
BRANCH  14  15
ATOM     15  C   UNL     1      -3.708 -36.953  46.034  1.00  0.00     0.000 C 
BRANCH  15  16
ATOM     16  C   UNL     1      -4.324 -36.082  44.925  1.00  0.00     0.006 C 
BRANCH  16  17
ATOM     17  C   UNL     1      -4.523 -34.628  45.376  1.00  0.00     0.053 C 
BRANCH  17  18
ATOM     18  C   UNL     1      -5.915 -34.147  45.104  1.00  0.00     0.041 C 
ATOM     19  O   UNL     1      -6.298 -33.949  43.921  1.00  0.00    -0.550 OA
ATOM     20  O   UNL     1      -6.798 -33.944  46.157  1.00  0.00    -0.550 OA
ENDBRANCH  17  18
ENDBRANCH  16  17
ENDBRANCH  15  16
ENDBRANCH  14  15
ENDBRANCH  13  14
ENDBRANCH  12  13
ENDBRANCH  11  12
ENDBRANCH   1  11
TORSDOF 15
ENDMDL
MODEL 3
REMARK VINA RESULT:    -4.213      1.777      2.636
REMARK INTER + INTRA:          -9.383
REMARK INTER:                  -7.946
REMARK INTRA:                  -1.437
REMARK UNBOUND:                -1.475
REMARK SMILES O=C([O-])CCCCCCCCCCCCCCC(=O)[O-]
REMARK SMILES IDX 10 1 9 2 8 3 7 4 6 5 5 6 4 7 2 8 1 9 3 10 11 11 12 12 13 13
REMARK SMILES IDX 14 14 15 15 16 16 17 17 18 18 19 19 20 20
REMARK H PARENT
REMARK Flexibility Score: inf
ROOT
ATOM      1  C   UNL     1      -1.460 -35.033  46.674  1.00  0.00     0.000 C 
ENDROOT
BRANCH   1   2
ATOM      2  C   UNL     1      -2.209 -35.721  45.519  1.00  0.00     0.000 C 
BRANCH   2   3
ATOM      3  C   UNL     1      -3.418 -36.545  45.998  1.00  0.00     0.000 C 
BRANCH   3   4
ATOM      4  C   UNL     1      -4.680 -36.417  45.125  1.00  0.00     0.000 C 
BRANCH   4   5
ATOM      5  C   UNL     1      -4.879 -34.998  44.564  1.00  0.00     0.000 C 
BRANCH   5   6
ATOM      6  C   UNL     1      -6.283 -34.443  44.851  1.00  0.00     0.006 C 
BRANCH   6   7
ATOM      7  C   UNL     1      -6.726 -34.673  46.302  1.00  0.00     0.053 C 
BRANCH   7   8
ATOM      8  C   UNL     1      -6.180 -33.601  47.191  1.00  0.00     0.041 C 
ATOM      9  O   UNL     1      -6.870 -32.579  47.448  1.00  0.00    -0.550 OA
ATOM     10  O   UNL     1      -4.930 -33.751  47.777  1.00  0.00    -0.550 OA
ENDBRANCH   7   8
ENDBRANCH   6   7
ENDBRANCH   5   6
ENDBRANCH   4   5
ENDBRANCH   3   4
ENDBRANCH   2   3
ENDBRANCH   1   2
BRANCH   1  11
ATOM     11  C   UNL     1      -0.116 -34.434  46.230  1.00  0.00     0.000 C 
BRANCH  11  12
ATOM     12  C   UNL     1       0.141 -34.617  44.724  1.00  0.00     0.000 C 
BRANCH  12  13
ATOM     13  C   UNL     1       1.545 -35.163  44.422  1.00  0.00     0.000 C 
BRANCH  13  14
ATOM     14  C   UNL     1       1.633 -36.689  44.593  1.00  0.00     0.000 C 
BRANCH  14  15
ATOM     15  C   UNL     1       2.588 -37.103  45.726  1.00  0.00     0.000 C 
BRANCH  15  16
ATOM     16  C   UNL     1       3.446 -35.932  46.235  1.00  0.00     0.006 C 
BRANCH  16  17
ATOM     17  C   UNL     1       3.136 -35.581  47.697  1.00  0.00     0.053 C 
BRANCH  17  18
ATOM     18  C   UNL     1       3.661 -34.228  48.068  1.00  0.00     0.041 C 
ATOM     19  O   UNL     1       4.727 -34.121  48.729  1.00  0.00    -0.550 OA
ATOM     20  O   UNL     1       2.987 -33.085  47.658  1.00  0.00    -0.550 OA
ENDBRANCH  17  18
ENDBRANCH  16  17
ENDBRANCH  15  16
ENDBRANCH  14  15
ENDBRANCH  13  14
ENDBRANCH  12  13
ENDBRANCH  11  12
ENDBRANCH   1  11
TORSDOF 15
ENDMDL
MODEL 4
REMARK VINA RESULT:    -4.208      2.289      3.845
REMARK INTER + INTRA:          -9.374
REMARK INTER:                  -7.639
REMARK INTRA:                  -1.735
REMARK UNBOUND:                -1.475
REMARK SMILES O=C([O-])CCCCCCCCCCCCCCC(=O)[O-]
REMARK SMILES IDX 10 1 9 2 8 3 7 4 6 5 5 6 4 7 2 8 1 9 3 10 11 11 12 12 13 13
REMARK SMILES IDX 14 14 15 15 16 16 17 17 18 18 19 19 20 20
REMARK H PARENT
REMARK Flexibility Score: inf
ROOT
ATOM      1  C   UNL     1      -5.138 -35.625  44.535  1.00  0.00     0.000 C 
ENDROOT
BRANCH   1   2
ATOM      2  C   UNL     1      -6.222 -34.594  44.894  1.00  0.00     0.000 C 
BRANCH   2   3
ATOM      3  C   UNL     1      -6.880 -34.867  46.259  1.00  0.00     0.000 C 
BRANCH   3   4
ATOM      4  C   UNL     1      -7.121 -33.619  47.128  1.00  0.00     0.000 C 
BRANCH   4   5
ATOM      5  C   UNL     1      -5.817 -32.913  47.537  1.00  0.00     0.000 C 
BRANCH   5   6
ATOM      6  C   UNL     1      -4.726 -33.900  47.983  1.00  0.00     0.006 C 
BRANCH   6   7
ATOM      7  C   UNL     1      -3.309 -33.341  47.792  1.00  0.00     0.053 C 
BRANCH   7   8
ATOM      8  C   UNL     1      -2.325 -34.128  48.599  1.00  0.00     0.041 C 
ATOM      9  O   UNL     1      -2.625 -35.277  49.018  1.00  0.00    -0.550 OA
ATOM     10  O   UNL     1      -1.058 -33.616  48.844  1.00  0.00    -0.550 OA
ENDBRANCH   7   8
ENDBRANCH   6   7
ENDBRANCH   5   6
ENDBRANCH   4   5
ENDBRANCH   3   4
ENDBRANCH   2   3
ENDBRANCH   1   2
BRANCH   1  11
ATOM     11  C   UNL     1      -4.995 -36.723  45.600  1.00  0.00     0.000 C 
BRANCH  11  12
ATOM     12  C   UNL     1      -3.527 -36.991  45.975  1.00  0.00     0.000 C 
BRANCH  12  13
ATOM     13  C   UNL     1      -2.556 -35.992  45.326  1.00  0.00     0.000 C 
BRANCH  13  14
ATOM     14  C   UNL     1      -1.104 -36.193  45.792  1.00  0.00     0.000 C 
BRANCH  14  15
ATOM     15  C   UNL     1      -0.084 -35.948  44.668  1.00  0.00     0.000 C 
BRANCH  15  16
ATOM     16  C   UNL     1       0.561 -34.553  44.746  1.00  0.00     0.006 C 
BRANCH  16  17
ATOM     17  C   UNL     1       2.090 -34.628  44.860  1.00  0.00     0.053 C 
BRANCH  17  18
ATOM     18  C   UNL     1       2.556 -34.373  46.261  1.00  0.00     0.041 C 
ATOM     19  O   UNL     1       3.420 -35.122  46.788  1.00  0.00    -0.550 OA
ATOM     20  O   UNL     1       2.058 -33.290  46.973  1.00  0.00    -0.550 OA
ENDBRANCH  17  18
ENDBRANCH  16  17
ENDBRANCH  15  16
ENDBRANCH  14  15
ENDBRANCH  13  14
ENDBRANCH  12  13
ENDBRANCH  11  12
ENDBRANCH   1  11
TORSDOF 15
ENDMDL
MODEL 5
REMARK VINA RESULT:    -4.149      1.890      7.599
REMARK INTER + INTRA:          -9.263
REMARK INTER:                  -7.232
REMARK INTRA:                  -2.032
REMARK UNBOUND:                -1.475
REMARK SMILES O=C([O-])CCCCCCCCCCCCCCC(=O)[O-]
REMARK SMILES IDX 10 1 9 2 8 3 7 4 6 5 5 6 4 7 2 8 1 9 3 10 11 11 12 12 13 13
REMARK SMILES IDX 14 14 15 15 16 16 17 17 18 18 19 19 20 20
REMARK H PARENT
REMARK Flexibility Score: inf
ROOT
ATOM      1  C   UNL     1      -1.328 -34.132  45.762  1.00  0.00     0.000 C 
ENDROOT
BRANCH   1   2
ATOM      2  C   UNL     1      -1.051 -35.603  45.406  1.00  0.00     0.000 C 
BRANCH   2   3
ATOM      3  C   UNL     1       0.314 -35.807  44.724  1.00  0.00     0.000 C 
BRANCH   3   4
ATOM      4  C   UNL     1       1.030 -34.513  44.299  1.00  0.00     0.000 C 
BRANCH   4   5
ATOM      5  C   UNL     1       2.531 -34.518  44.638  1.00  0.00     0.000 C 
BRANCH   5   6
ATOM      6  C   UNL     1       2.796 -34.739  46.136  1.00  0.00     0.006 C 
BRANCH   6   7
ATOM      7  C   UNL     1       2.195 -33.632  47.013  1.00  0.00     0.053 C 
BRANCH   7   8
ATOM      8  C   UNL     1       1.401 -34.226  48.132  1.00  0.00     0.041 C 
ATOM      9  O   UNL     1       0.860 -33.481  48.991  1.00  0.00    -0.550 OA
ATOM     10  O   UNL     1       1.215 -35.601  48.200  1.00  0.00    -0.550 OA
ENDBRANCH   7   8
ENDBRANCH   6   7
ENDBRANCH   5   6
ENDBRANCH   4   5
ENDBRANCH   3   4
ENDBRANCH   2   3
ENDBRANCH   1   2
BRANCH   1  11
ATOM     11  C   UNL     1      -2.323 -33.985  46.924  1.00  0.00     0.000 C 
BRANCH  11  12
ATOM     12  C   UNL     1      -2.222 -35.141  47.935  1.00  0.00     0.000 C 
BRANCH  12  13
ATOM     13  C   UNL     1      -3.582 -35.792  48.231  1.00  0.00     0.000 C 
BRANCH  13  14
ATOM     14  C   UNL     1      -3.915 -36.932  47.252  1.00  0.00     0.000 C 
BRANCH  14  15
ATOM     15  C   UNL     1      -5.233 -36.694  46.496  1.00  0.00     0.000 C 
BRANCH  15  16
ATOM     16  C   UNL     1      -5.017 -36.049  45.116  1.00  0.00     0.006 C 
BRANCH  16  17
ATOM     17  C   UNL     1      -5.390 -34.560  45.109  1.00  0.00     0.053 C 
BRANCH  17  18
ATOM     18  C   UNL     1      -6.351 -34.222  46.208  1.00  0.00     0.041 C 
ATOM     19  O   UNL     1      -7.518 -34.694  46.197  1.00  0.00    -0.550 OA
ATOM     20  O   UNL     1      -5.947 -33.410  47.259  1.00  0.00    -0.550 OA
ENDBRANCH  17  18
ENDBRANCH  16  17
ENDBRANCH  15  16
ENDBRANCH  14  15
ENDBRANCH  13  14
ENDBRANCH  12  13
ENDBRANCH  11  12
ENDBRANCH   1  11
TORSDOF 15
ENDMDL
MODEL 6
REMARK VINA RESULT:    -4.101      1.632      2.123
REMARK INTER + INTRA:          -9.172
REMARK INTER:                  -7.178
REMARK INTRA:                  -1.994
REMARK UNBOUND:                -1.475
REMARK SMILES O=C([O-])CCCCCCCCCCCCCCC(=O)[O-]
REMARK SMILES IDX 10 1 9 2 8 3 7 4 6 5 5 6 4 7 2 8 1 9 3 10 11 11 12 12 13 13
REMARK SMILES IDX 14 14 15 15 16 16 17 17 18 18 19 19 20 20
REMARK H PARENT
REMARK Flexibility Score: inf
ROOT
ATOM      1  C   UNL     1      -0.156 -34.464  47.693  1.00  0.00     0.000 C 
ENDROOT
BRANCH   1   2
ATOM      2  C   UNL     1      -0.914 -34.041  48.963  1.00  0.00     0.000 C 
BRANCH   2   3
ATOM      3  C   UNL     1      -2.231 -33.303  48.656  1.00  0.00     0.000 C 
BRANCH   3   4
ATOM      4  C   UNL     1      -2.717 -33.416  47.200  1.00  0.00     0.000 C 
BRANCH   4   5
ATOM      5  C   UNL     1      -3.763 -34.527  47.002  1.00  0.00     0.000 C 
BRANCH   5   6
ATOM      6  C   UNL     1      -3.927 -34.927  45.527  1.00  0.00     0.006 C 
BRANCH   6   7
ATOM      7  C   UNL     1      -5.287 -35.577  45.238  1.00  0.00     0.053 C 
BRANCH   7   8
ATOM      8  C   UNL     1      -6.345 -34.529  45.089  1.00  0.00     0.041 C 
ATOM      9  O   UNL     1      -7.122 -34.274  46.047  1.00  0.00    -0.550 OA
ATOM     10  O   UNL     1      -6.441 -33.799  43.912  1.00  0.00    -0.550 OA
ENDBRANCH   7   8
ENDBRANCH   6   7
ENDBRANCH   5   6
ENDBRANCH   4   5
ENDBRANCH   3   4
ENDBRANCH   2   3
ENDBRANCH   1   2
BRANCH   1  11
ATOM     11  C   UNL     1       0.025 -35.987  47.595  1.00  0.00     0.000 C 
BRANCH  11  12
ATOM     12  C   UNL     1      -0.679 -36.585  46.364  1.00  0.00     0.000 C 
BRANCH  12  13
ATOM     13  C   UNL     1      -0.483 -35.737  45.097  1.00  0.00     0.000 C 
BRANCH  13  14
ATOM     14  C   UNL     1       0.914 -35.917  44.479  1.00  0.00     0.000 C 
BRANCH  14  15
ATOM     15  C   UNL     1       1.655 -34.581  44.296  1.00  0.00     0.000 C 
BRANCH  15  16
ATOM     16  C   UNL     1       2.853 -34.431  45.250  1.00  0.00     0.006 C 
BRANCH  16  17
ATOM     17  C   UNL     1       3.285 -35.775  45.850  1.00  0.00     0.053 C 
BRANCH  17  18
ATOM     18  C   UNL     1       3.696 -35.638  47.284  1.00  0.00     0.041 C 
ATOM     19  O   UNL     1       3.490 -34.560  47.903  1.00  0.00    -0.550 OA
ATOM     20  O   UNL     1       4.281 -36.710  47.946  1.00  0.00    -0.550 OA
ENDBRANCH  17  18
ENDBRANCH  16  17
ENDBRANCH  15  16
ENDBRANCH  14  15
ENDBRANCH  13  14
ENDBRANCH  12  13
ENDBRANCH  11  12
ENDBRANCH   1  11
TORSDOF 15
ENDMDL
MODEL 7
REMARK VINA RESULT:    -4.071      1.932      7.860
REMARK INTER + INTRA:          -9.116
REMARK INTER:                  -7.552
REMARK INTRA:                  -1.564
REMARK UNBOUND:                -1.475
REMARK SMILES O=C([O-])CCCCCCCCCCCCCCC(=O)[O-]
REMARK SMILES IDX 10 1 9 2 8 3 7 4 6 5 5 6 4 7 2 8 1 9 3 10 11 11 12 12 13 13
REMARK SMILES IDX 14 14 15 15 16 16 17 17 18 18 19 19 20 20
REMARK H PARENT
REMARK Flexibility Score: inf
ROOT
ATOM      1  C   UNL     1      -0.407 -34.299  45.467  1.00  0.00     0.000 C 
ENDROOT
BRANCH   1   2
ATOM      2  C   UNL     1       0.262 -35.446  44.690  1.00  0.00     0.000 C 
BRANCH   2   3
ATOM      3  C   UNL     1       1.615 -35.044  44.075  1.00  0.00     0.000 C 
BRANCH   3   4
ATOM      4  C   UNL     1       2.622 -34.428  45.062  1.00  0.00     0.000 C 
BRANCH   4   5
ATOM      5  C   UNL     1       3.156 -35.444  46.086  1.00  0.00     0.000 C 
BRANCH   5   6
ATOM      6  C   UNL     1       2.982 -34.966  47.537  1.00  0.00     0.006 C 
BRANCH   6   7
ATOM      7  C   UNL     1       3.634 -33.601  47.792  1.00  0.00     0.053 C 
BRANCH   7   8
ATOM      8  C   UNL     1       2.628 -32.636  48.336  1.00  0.00     0.041 C 
ATOM      9  O   UNL     1       2.811 -31.396  48.215  1.00  0.00    -0.550 OA
ATOM     10  O   UNL     1       1.464 -33.105  48.929  1.00  0.00    -0.550 OA
ENDBRANCH   7   8
ENDBRANCH   6   7
ENDBRANCH   5   6
ENDBRANCH   4   5
ENDBRANCH   3   4
ENDBRANCH   2   3
ENDBRANCH   1   2
BRANCH   1  11
ATOM     11  C   UNL     1      -1.015 -34.765  46.799  1.00  0.00     0.000 C 
BRANCH  11  12
ATOM     12  C   UNL     1      -1.148 -36.296  46.881  1.00  0.00     0.000 C 
BRANCH  12  13
ATOM     13  C   UNL     1      -2.611 -36.765  46.904  1.00  0.00     0.000 C 
BRANCH  13  14
ATOM     14  C   UNL     1      -3.249 -36.775  45.504  1.00  0.00     0.000 C 
BRANCH  14  15
ATOM     15  C   UNL     1      -4.667 -36.180  45.496  1.00  0.00     0.000 C 
BRANCH  15  16
ATOM     16  C   UNL     1      -4.678 -34.675  45.177  1.00  0.00     0.006 C 
BRANCH  16  17
ATOM     17  C   UNL     1      -6.077 -34.062  45.326  1.00  0.00     0.053 C 
BRANCH  17  18
ATOM     18  C   UNL     1      -6.403 -33.762  46.756  1.00  0.00     0.041 C 
ATOM     19  O   UNL     1      -7.586 -33.872  47.174  1.00  0.00    -0.550 OA
ATOM     20  O   UNL     1      -5.395 -33.387  47.635  1.00  0.00    -0.550 OA
ENDBRANCH  17  18
ENDBRANCH  16  17
ENDBRANCH  15  16
ENDBRANCH  14  15
ENDBRANCH  13  14
ENDBRANCH  12  13
ENDBRANCH  11  12
ENDBRANCH   1  11
TORSDOF 15
ENDMDL
MODEL 8
REMARK VINA RESULT:    -4.061      1.408      2.413
REMARK INTER + INTRA:          -9.098
REMARK INTER:                  -7.120
REMARK INTRA:                  -1.977
REMARK UNBOUND:                -1.475
REMARK SMILES O=C([O-])CCCCCCCCCCCCCCC(=O)[O-]
REMARK SMILES IDX 10 1 9 2 8 3 7 4 6 5 5 6 4 7 2 8 1 9 3 10 11 11 12 12 13 13
REMARK SMILES IDX 14 14 15 15 16 16 17 17 18 18 19 19 20 20
REMARK H PARENT
REMARK Flexibility Score: inf
ROOT
ATOM      1  C   UNL     1      -0.740 -36.422  44.628  1.00  0.00     0.000 C 
ENDROOT
BRANCH   1   2
ATOM      2  C   UNL     1      -0.985 -36.953  46.050  1.00  0.00     0.000 C 
BRANCH   2   3
ATOM      3  C   UNL     1      -1.524 -35.874  47.008  1.00  0.00     0.000 C 
BRANCH   3   4
ATOM      4  C   UNL     1      -1.782 -34.501  46.362  1.00  0.00     0.000 C 
BRANCH   4   5
ATOM      5  C   UNL     1      -3.280 -34.178  46.218  1.00  0.00     0.000 C 
BRANCH   5   6
ATOM      6  C   UNL     1      -4.173 -35.404  46.464  1.00  0.00     0.006 C 
BRANCH   6   7
ATOM      7  C   UNL     1      -5.083 -35.723  45.270  1.00  0.00     0.053 C 
BRANCH   7   8
ATOM      8  C   UNL     1      -6.163 -34.695  45.148  1.00  0.00     0.041 C 
ATOM      9  O   UNL     1      -7.054 -34.606  46.033  1.00  0.00    -0.550 OA
ATOM     10  O   UNL     1      -6.159 -33.803  44.084  1.00  0.00    -0.550 OA
ENDBRANCH   7   8
ENDBRANCH   6   7
ENDBRANCH   5   6
ENDBRANCH   4   5
ENDBRANCH   3   4
ENDBRANCH   2   3
ENDBRANCH   1   2
BRANCH   1  11
ATOM     11  C   UNL     1       0.751 -36.404  44.255  1.00  0.00     0.000 C 
BRANCH  11  12
ATOM     12  C   UNL     1       1.344 -34.984  44.268  1.00  0.00     0.000 C 
BRANCH  12  13
ATOM     13  C   UNL     1       2.514 -34.837  45.253  1.00  0.00     0.000 C 
BRANCH  13  14
ATOM     14  C   UNL     1       2.932 -36.181  45.875  1.00  0.00     0.000 C 
BRANCH  14  15
ATOM     15  C   UNL     1       2.749 -36.208  47.401  1.00  0.00     0.000 C 
BRANCH  15  16
ATOM     16  C   UNL     1       1.946 -35.004  47.923  1.00  0.00     0.006 C 
BRANCH  16  17
ATOM     17  C   UNL     1       2.625 -34.333  49.125  1.00  0.00     0.053 C 
BRANCH  17  18
ATOM     18  C   UNL     1       3.745 -33.434  48.700  1.00  0.00     0.041 C 
ATOM     19  O   UNL     1       4.941 -33.771  48.904  1.00  0.00    -0.550 OA
ATOM     20  O   UNL     1       3.468 -32.237  48.052  1.00  0.00    -0.550 OA
ENDBRANCH  17  18
ENDBRANCH  16  17
ENDBRANCH  15  16
ENDBRANCH  14  15
ENDBRANCH  13  14
ENDBRANCH  12  13
ENDBRANCH  11  12
ENDBRANCH   1  11
TORSDOF 15
ENDMDL
MODEL 9
REMARK VINA RESULT:    -4.054      1.337      1.926
REMARK INTER + INTRA:          -9.084
REMARK INTER:                  -7.443
REMARK INTRA:                  -1.641
REMARK UNBOUND:                -1.475
REMARK SMILES O=C([O-])CCCCCCCCCCCCCCC(=O)[O-]
REMARK SMILES IDX 10 1 9 2 8 3 7 4 6 5 5 6 4 7 2 8 1 9 3 10 11 11 12 12 13 13
REMARK SMILES IDX 14 14 15 15 16 16 17 17 18 18 19 19 20 20
REMARK H PARENT
REMARK Flexibility Score: inf
ROOT
ATOM      1  C   UNL     1      -0.902 -34.438  47.196  1.00  0.00     0.000 C 
ENDROOT
BRANCH   1   2
ATOM      2  C   UNL     1      -0.986 -35.930  47.561  1.00  0.00     0.000 C 
BRANCH   2   3
ATOM      3  C   UNL     1      -2.349 -36.323  48.162  1.00  0.00     0.000 C 
BRANCH   3   4
ATOM      4  C   UNL     1      -3.568 -35.996  47.280  1.00  0.00     0.000 C 
BRANCH   4   5
ATOM      5  C   UNL     1      -4.533 -34.995  47.939  1.00  0.00     0.000 C 
BRANCH   5   6
ATOM      6  C   UNL     1      -5.224 -34.080  46.915  1.00  0.00     0.006 C 
BRANCH   6   7
ATOM      7  C   UNL     1      -6.265 -34.823  46.066  1.00  0.00     0.053 C 
BRANCH   7   8
ATOM      8  C   UNL     1      -5.910 -34.739  44.615  1.00  0.00     0.041 C 
ATOM      9  O   UNL     1      -5.167 -35.612  44.093  1.00  0.00    -0.550 OA
ATOM     10  O   UNL     1      -6.441 -33.728  43.826  1.00  0.00    -0.550 OA
ENDBRANCH   7   8
ENDBRANCH   6   7
ENDBRANCH   5   6
ENDBRANCH   4   5
ENDBRANCH   3   4
ENDBRANCH   2   3
ENDBRANCH   1   2
BRANCH   1  11
ATOM     11  C   UNL     1      -0.613 -34.213  45.703  1.00  0.00     0.000 C 
BRANCH  11  12
ATOM     12  C   UNL     1       0.146 -35.392  45.067  1.00  0.00     0.000 C 
BRANCH  12  13
ATOM     13  C   UNL     1       1.355 -34.939  44.233  1.00  0.00     0.000 C 
BRANCH  13  14
ATOM     14  C   UNL     1       2.539 -34.490  45.107  1.00  0.00     0.000 C 
BRANCH  14  15
ATOM     15  C   UNL     1       2.851 -35.488  46.236  1.00  0.00     0.000 C 
BRANCH  15  16
ATOM     16  C   UNL     1       2.842 -34.831  47.628  1.00  0.00     0.006 C 
BRANCH  16  17
ATOM     17  C   UNL     1       3.473 -33.432  47.610  1.00  0.00     0.053 C 
BRANCH  17  18
ATOM     18  C   UNL     1       2.631 -32.432  48.342  1.00  0.00     0.041 C 
ATOM     19  O   UNL     1       1.648 -32.814  49.029  1.00  0.00    -0.550 OA
ATOM     20  O   UNL     1       2.951 -31.082  48.287  1.00  0.00    -0.550 OA
ENDBRANCH  17  18
ENDBRANCH  16  17
ENDBRANCH  15  16
ENDBRANCH  14  15
ENDBRANCH  13  14
ENDBRANCH  12  13
ENDBRANCH  11  12
ENDBRANCH   1  11
TORSDOF 15
ENDMDL
