MODEL 1
REMARK VINA RESULT:    -4.116      0.000      0.000
REMARK INTER + INTRA:         -10.535
REMARK INTER:                  -7.967
REMARK INTRA:                  -2.568
REMARK UNBOUND:                -2.568
REMARK SMILES CCCCCCCCCCCCCCCCCC(=O)[O-]
REMARK SMILES IDX 10 1 11 2 12 3 13 4 14 5 15 6 16 7 17 8 18 9 19 10 20 11
REMARK SMILES IDX 9 12 8 13 7 14 6 15 5 16 4 17 3 18 2 19 1 20
REMARK H PARENT
REMARK Flexibility Score: inf
ROOT
ATOM      1  C   UNL     1     -22.858  10.324  19.115  1.00  0.00     0.000 C 
ENDROOT
BRANCH   1   2
ATOM      2  C   UNL     1     -23.219   8.889  18.690  1.00  0.00     0.000 C 
BRANCH   2   3
ATOM      3  C   UNL     1     -23.045   8.658  17.180  1.00  0.00     0.000 C 
BRANCH   3   4
ATOM      4  C   UNL     1     -22.070   7.508  16.867  1.00  0.00     0.000 C 
BRANCH   4   5
ATOM      5  C   UNL     1     -21.419   6.930  18.133  1.00  0.00     0.000 C 
BRANCH   5   6
ATOM      6  C   UNL     1     -19.971   6.467  17.893  1.00  0.00     0.000 C 
BRANCH   6   7
ATOM      7  C   UNL     1     -19.029   6.834  19.054  1.00  0.00     0.006 C 
BRANCH   7   8
ATOM      8  C   UNL     1     -18.889   5.738  20.123  1.00  0.00     0.053 C 
BRANCH   8   9
ATOM      9  C   UNL     1     -17.606   4.978  19.981  1.00  0.00     0.041 C 
ATOM     10  O   UNL     1     -16.545   5.425  20.491  1.00  0.00    -0.550 OA
ATOM     11  O   UNL     1     -17.576   3.795  19.253  1.00  0.00    -0.550 OA
ENDBRANCH   8   9
ENDBRANCH   7   8
ENDBRANCH   6   7
ENDBRANCH   5   6
ENDBRANCH   4   5
ENDBRANCH   3   4
ENDBRANCH   2   3
ENDBRANCH   1   2
BRANCH   1  12
ATOM     12  C   UNL     1     -21.853  10.986  18.150  1.00  0.00     0.000 C 
BRANCH  12  13
ATOM     13  C   UNL     1     -20.391  10.930  18.635  1.00  0.00    -0.000 C 
BRANCH  13  14
ATOM     14  C   UNL     1     -19.417  10.199  17.695  1.00  0.00    -0.000 C 
BRANCH  14  15
ATOM     15  C   UNL     1     -19.865  10.237  16.224  1.00  0.00    -0.000 C 
BRANCH  15  16
ATOM     16  C   UNL     1     -18.904  11.038  15.326  1.00  0.00    -0.000 C 
BRANCH  16  17
ATOM     17  C   UNL     1     -19.227  12.538  15.201  1.00  0.00    -0.000 C 
BRANCH  17  18
ATOM     18  C   UNL     1     -18.488  13.397  16.241  1.00  0.00    -0.000 C 
BRANCH  18  19
ATOM     19  C   UNL     1     -19.450  14.149  17.175  1.00  0.00    -0.003 C 
ATOM     20  C   UNL     1     -20.872  14.225  16.620  1.00  0.00     0.004 C 
ENDBRANCH  18  19
ENDBRANCH  17  18
ENDBRANCH  16  17
ENDBRANCH  15  16
ENDBRANCH  14  15
ENDBRANCH  13  14
ENDBRANCH  12  13
ENDBRANCH   1  12
TORSDOF 16
ENDMDL
MODEL 2
REMARK VINA RESULT:    -4.067      1.118      2.221
REMARK INTER + INTRA:         -10.439
REMARK INTER:                  -8.354
REMARK INTRA:                  -2.085
REMARK UNBOUND:                -2.568
REMARK SMILES CCCCCCCCCCCCCCCCCC(=O)[O-]
REMARK SMILES IDX 10 1 11 2 12 3 13 4 14 5 15 6 16 7 17 8 18 9 19 10 20 11
REMARK SMILES IDX 9 12 8 13 7 14 6 15 5 16 4 17 3 18 2 19 1 20
REMARK H PARENT
REMARK Flexibility Score: inf
ROOT
ATOM      1  C   UNL     1     -22.142  10.850  18.749  1.00  0.00     0.000 C 
ENDROOT
BRANCH   1   2
ATOM      2  C   UNL     1     -22.622   9.414  18.475  1.00  0.00     0.000 C 
BRANCH   2   3
ATOM      3  C   UNL     1     -21.771   8.698  17.413  1.00  0.00     0.000 C 
BRANCH   3   4
ATOM      4  C   UNL     1     -21.732   7.173  17.617  1.00  0.00     0.000 C 
BRANCH   4   5
ATOM      5  C   UNL     1     -20.299   6.640  17.784  1.00  0.00     0.000 C 
BRANCH   5   6
ATOM      6  C   UNL     1     -19.286   7.758  18.088  1.00  0.00     0.000 C 
BRANCH   6   7
ATOM      7  C   UNL     1     -18.389   7.435  19.297  1.00  0.00     0.006 C 
BRANCH   7   8
ATOM      8  C   UNL     1     -17.248   6.452  18.991  1.00  0.00     0.053 C 
BRANCH   8   9
ATOM      9  C   UNL     1     -17.166   5.355  20.008  1.00  0.00     0.041 C 
ATOM     10  O   UNL     1     -16.108   5.181  20.668  1.00  0.00    -0.550 OA
ATOM     11  O   UNL     1     -18.246   4.502  20.198  1.00  0.00    -0.550 OA
ENDBRANCH   8   9
ENDBRANCH   7   8
ENDBRANCH   6   7
ENDBRANCH   5   6
ENDBRANCH   4   5
ENDBRANCH   3   4
ENDBRANCH   2   3
ENDBRANCH   1   2
BRANCH   1  12
ATOM     12  C   UNL     1     -20.963  11.258  17.841  1.00  0.00     0.000 C 
BRANCH  12  13
ATOM     13  C   UNL     1     -19.612  11.352  18.576  1.00  0.00    -0.000 C 
BRANCH  13  14
ATOM     14  C   UNL     1     -18.852  12.676  18.383  1.00  0.00    -0.000 C 
BRANCH  14  15
ATOM     15  C   UNL     1     -19.440  13.542  17.256  1.00  0.00    -0.000 C 
BRANCH  15  16
ATOM     16  C   UNL     1     -18.554  13.565  15.996  1.00  0.00    -0.000 C 
BRANCH  16  17
ATOM     17  C   UNL     1     -19.280  13.216  14.684  1.00  0.00    -0.000 C 
BRANCH  17  18
ATOM     18  C   UNL     1     -18.715  11.957  14.004  1.00  0.00    -0.000 C 
BRANCH  18  19
ATOM     19  C   UNL     1     -19.667  10.755  14.104  1.00  0.00    -0.003 C 
ATOM     20  C   UNL     1     -19.128   9.650  15.011  1.00  0.00     0.004 C 
ENDBRANCH  18  19
ENDBRANCH  17  18
ENDBRANCH  16  17
ENDBRANCH  15  16
ENDBRANCH  14  15
ENDBRANCH  13  14
ENDBRANCH  12  13
ENDBRANCH   1  12
TORSDOF 16
ENDMDL
MODEL 3
REMARK VINA RESULT:    -3.999      1.339      2.822
REMARK INTER + INTRA:         -10.307
REMARK INTER:                  -7.557
REMARK INTRA:                  -2.750
REMARK UNBOUND:                -2.568
REMARK SMILES CCCCCCCCCCCCCCCCCC(=O)[O-]
REMARK SMILES IDX 10 1 11 2 12 3 13 4 14 5 15 6 16 7 17 8 18 9 19 10 20 11
REMARK SMILES IDX 9 12 8 13 7 14 6 15 5 16 4 17 3 18 2 19 1 20
REMARK H PARENT
REMARK Flexibility Score: inf
ROOT
ATOM      1  C   UNL     1     -21.488  11.230  17.807  1.00  0.00     0.000 C 
ENDROOT
BRANCH   1   2
ATOM      2  C   UNL     1     -22.439  10.773  18.928  1.00  0.00     0.000 C 
BRANCH   2   3
ATOM      3  C   UNL     1     -23.056   9.392  18.655  1.00  0.00     0.000 C 
BRANCH   3   4
ATOM      4  C   UNL     1     -23.078   9.040  17.157  1.00  0.00     0.000 C 
BRANCH   4   5
ATOM      5  C   UNL     1     -22.273   7.768  16.842  1.00  0.00     0.000 C 
BRANCH   5   6
ATOM      6  C   UNL     1     -21.393   7.320  18.023  1.00  0.00     0.000 C 
BRANCH   6   7
ATOM      7  C   UNL     1     -19.909   7.182  17.640  1.00  0.00     0.006 C 
BRANCH   7   8
ATOM      8  C   UNL     1     -18.930   7.691  18.711  1.00  0.00     0.053 C 
BRANCH   8   9
ATOM      9  C   UNL     1     -18.349   6.570  19.516  1.00  0.00     0.041 C 
ATOM     10  O   UNL     1     -19.098   5.837  20.215  1.00  0.00    -0.550 OA
ATOM     11  O   UNL     1     -16.976   6.359  19.523  1.00  0.00    -0.550 OA
ENDBRANCH   8   9
ENDBRANCH   7   8
ENDBRANCH   6   7
ENDBRANCH   5   6
ENDBRANCH   4   5
ENDBRANCH   3   4
ENDBRANCH   2   3
ENDBRANCH   1   2
BRANCH   1  12
ATOM     12  C   UNL     1     -20.008  11.187  18.241  1.00  0.00     0.000 C 
BRANCH  12  13
ATOM     13  C   UNL     1     -19.269  12.529  18.075  1.00  0.00    -0.000 C 
BRANCH  13  14
ATOM     14  C   UNL     1     -19.490  13.236  16.726  1.00  0.00    -0.000 C 
BRANCH  14  15
ATOM     15  C   UNL     1     -18.309  13.053  15.757  1.00  0.00    -0.000 C 
BRANCH  15  16
ATOM     16  C   UNL     1     -18.688  12.254  14.496  1.00  0.00    -0.000 C 
BRANCH  16  17
ATOM     17  C   UNL     1     -18.158  10.809  14.457  1.00  0.00    -0.000 C 
BRANCH  17  18
ATOM     18  C   UNL     1     -19.183   9.782  14.970  1.00  0.00    -0.000 C 
BRANCH  18  19
ATOM     19  C   UNL     1     -20.606  10.066  14.464  1.00  0.00    -0.003 C 
ATOM     20  C   UNL     1     -21.111   9.000  13.492  1.00  0.00     0.004 C 
ENDBRANCH  18  19
ENDBRANCH  17  18
ENDBRANCH  16  17
ENDBRANCH  15  16
ENDBRANCH  14  15
ENDBRANCH  13  14
ENDBRANCH  12  13
ENDBRANCH   1  12
TORSDOF 16
ENDMDL
MODEL 4
REMARK VINA RESULT:    -3.996      3.784      6.772
REMARK INTER + INTRA:         -10.303
REMARK INTER:                  -7.011
REMARK INTRA:                  -3.292
REMARK UNBOUND:                -2.568
REMARK SMILES CCCCCCCCCCCCCCCCCC(=O)[O-]
REMARK SMILES IDX 10 1 11 2 12 3 13 4 14 5 15 6 16 7 17 8 18 9 19 10 20 11
REMARK SMILES IDX 9 12 8 13 7 14 6 15 5 16 4 17 3 18 2 19 1 20
REMARK H PARENT
REMARK Flexibility Score: inf
ROOT
ATOM      1  C   UNL     1     -20.577   9.174  16.100  1.00  0.00     0.000 C 
ENDROOT
BRANCH   1   2
ATOM      2  C   UNL     1     -19.488  10.124  16.629  1.00  0.00     0.000 C 
BRANCH   2   3
ATOM      3  C   UNL     1     -19.485  10.228  18.162  1.00  0.00     0.000 C 
BRANCH   3   4
ATOM      4  C   UNL     1     -19.689  11.671  18.657  1.00  0.00     0.000 C 
BRANCH   4   5
ATOM      5  C   UNL     1     -18.845  12.686  17.869  1.00  0.00     0.000 C 
BRANCH   5   6
ATOM      6  C   UNL     1     -19.697  13.814  17.260  1.00  0.00     0.000 C 
BRANCH   6   7
ATOM      7  C   UNL     1     -19.179  14.274  15.885  1.00  0.00     0.006 C 
BRANCH   7   8
ATOM      8  C   UNL     1     -18.186  13.303  15.227  1.00  0.00     0.053 C 
BRANCH   8   9
ATOM      9  C   UNL     1     -18.743  12.694  13.976  1.00  0.00     0.041 C 
ATOM     10  O   UNL     1     -19.575  13.332  13.278  1.00  0.00    -0.550 OA
ATOM     11  O   UNL     1     -18.371  11.409  13.603  1.00  0.00    -0.550 OA
ENDBRANCH   8   9
ENDBRANCH   7   8
ENDBRANCH   6   7
ENDBRANCH   5   6
ENDBRANCH   4   5
ENDBRANCH   3   4
ENDBRANCH   2   3
ENDBRANCH   1   2
BRANCH   1  12
ATOM     12  C   UNL     1     -21.594   9.896  15.192  1.00  0.00     0.000 C 
BRANCH  12  13
ATOM     13  C   UNL     1     -21.721  11.406  15.474  1.00  0.00    -0.000 C 
BRANCH  13  14
ATOM     14  C   UNL     1     -23.113  11.873  15.933  1.00  0.00    -0.000 C 
BRANCH  14  15
ATOM     15  C   UNL     1     -23.122  12.386  17.383  1.00  0.00    -0.000 C 
BRANCH  15  16
ATOM     16  C   UNL     1     -23.891  11.458  18.342  1.00  0.00    -0.000 C 
BRANCH  16  17
ATOM     17  C   UNL     1     -23.012  10.508  19.174  1.00  0.00    -0.000 C 
BRANCH  17  18
ATOM     18  C   UNL     1     -23.104   9.045  18.707  1.00  0.00    -0.000 C 
BRANCH  18  19
ATOM     19  C   UNL     1     -24.215   8.827  17.668  1.00  0.00    -0.003 C 
ATOM     20  C   UNL     1     -24.776   7.405  17.693  1.00  0.00     0.004 C 
ENDBRANCH  18  19
ENDBRANCH  17  18
ENDBRANCH  16  17
ENDBRANCH  15  16
ENDBRANCH  14  15
ENDBRANCH  13  14
ENDBRANCH  12  13
ENDBRANCH   1  12
TORSDOF 16
ENDMDL
MODEL 5
REMARK VINA RESULT:    -3.987      1.369      3.660
REMARK INTER + INTRA:         -10.285
REMARK INTER:                  -8.509
REMARK INTRA:                  -1.776
REMARK UNBOUND:                -2.568
REMARK SMILES CCCCCCCCCCCCCCCCCC(=O)[O-]
REMARK SMILES IDX 10 1 11 2 12 3 13 4 14 5 15 6 16 7 17 8 18 9 19 10 20 11
REMARK SMILES IDX 9 12 8 13 7 14 6 15 5 16 4 17 3 18 2 19 1 20
REMARK H PARENT
REMARK Flexibility Score: inf
ROOT
ATOM      1  C   UNL     1     -19.632  10.524  13.176  1.00  0.00     0.000 C 
ENDROOT
BRANCH   1   2
ATOM      2  C   UNL     1     -20.263   9.251  13.770  1.00  0.00     0.000 C 
BRANCH   2   3
ATOM      3  C   UNL     1     -20.127   9.180  15.299  1.00  0.00     0.000 C 
BRANCH   3   4
ATOM      4  C   UNL     1     -20.864   7.971  15.903  1.00  0.00     0.000 C 
BRANCH   4   5
ATOM      5  C   UNL     1     -20.498   7.738  17.377  1.00  0.00     0.000 C 
BRANCH   5   6
ATOM      6  C   UNL     1     -20.298   6.247  17.706  1.00  0.00     0.000 C 
BRANCH   6   7
ATOM      7  C   UNL     1     -19.585   6.025  19.052  1.00  0.00     0.006 C 
BRANCH   7   8
ATOM      8  C   UNL     1     -18.398   6.970  19.302  1.00  0.00     0.053 C 
BRANCH   8   9
ATOM      9  C   UNL     1     -17.086   6.253  19.224  1.00  0.00     0.041 C 
ATOM     10  O   UNL     1     -16.408   6.287  18.162  1.00  0.00    -0.550 OA
ATOM     11  O   UNL     1     -16.630   5.517  20.310  1.00  0.00    -0.550 OA
ENDBRANCH   8   9
ENDBRANCH   7   8
ENDBRANCH   6   7
ENDBRANCH   5   6
ENDBRANCH   4   5
ENDBRANCH   3   4
ENDBRANCH   2   3
ENDBRANCH   1   2
BRANCH   1  12
ATOM     12  C   UNL     1     -18.604  11.167  14.130  1.00  0.00     0.000 C 
BRANCH  12  13
ATOM     13  C   UNL     1     -18.735  12.698  14.248  1.00  0.00    -0.000 C 
BRANCH  13  14
ATOM     14  C   UNL     1     -18.105  13.314  15.510  1.00  0.00    -0.000 C 
BRANCH  14  15
ATOM     15  C   UNL     1     -19.154  13.779  16.534  1.00  0.00    -0.000 C 
BRANCH  15  16
ATOM     16  C   UNL     1     -19.042  13.044  17.882  1.00  0.00    -0.000 C 
BRANCH  16  17
ATOM     17  C   UNL     1     -19.316  11.530  17.824  1.00  0.00    -0.000 C 
BRANCH  17  18
ATOM     18  C   UNL     1     -20.399  11.079  18.818  1.00  0.00    -0.000 C 
BRANCH  18  19
ATOM     19  C   UNL     1     -21.814  11.160  18.225  1.00  0.00    -0.003 C 
ATOM     20  C   UNL     1     -22.875  10.555  19.145  1.00  0.00     0.004 C 
ENDBRANCH  18  19
ENDBRANCH  17  18
ENDBRANCH  16  17
ENDBRANCH  15  16
ENDBRANCH  14  15
ENDBRANCH  13  14
ENDBRANCH  12  13
ENDBRANCH   1  12
TORSDOF 16
ENDMDL
MODEL 6
REMARK VINA RESULT:    -3.982      3.486      7.003
REMARK INTER + INTRA:         -10.275
REMARK INTER:                  -8.299
REMARK INTRA:                  -1.975
REMARK UNBOUND:                -2.568
REMARK SMILES CCCCCCCCCCCCCCCCCC(=O)[O-]
REMARK SMILES IDX 10 1 11 2 12 3 13 4 14 5 15 6 16 7 17 8 18 9 19 10 20 11
REMARK SMILES IDX 9 12 8 13 7 14 6 15 5 16 4 17 3 18 2 19 1 20
REMARK H PARENT
REMARK Flexibility Score: inf
ROOT
ATOM      1  C   UNL     1     -20.901  11.523  18.041  1.00  0.00     0.000 C 
ENDROOT
BRANCH   1   2
ATOM      2  C   UNL     1     -19.480  11.921  18.478  1.00  0.00     0.000 C 
BRANCH   2   3
ATOM      3  C   UNL     1     -19.032  13.265  17.883  1.00  0.00     0.000 C 
BRANCH   3   4
ATOM      4  C   UNL     1     -19.332  13.375  16.377  1.00  0.00     0.000 C 
BRANCH   4   5
ATOM      5  C   UNL     1     -18.060  13.292  15.518  1.00  0.00     0.000 C 
BRANCH   5   6
ATOM      6  C   UNL     1     -18.007  12.010  14.668  1.00  0.00     0.000 C 
BRANCH   6   7
ATOM      7  C   UNL     1     -19.324  11.215  14.706  1.00  0.00     0.006 C 
BRANCH   7   8
ATOM      8  C   UNL     1     -19.280   9.883  13.941  1.00  0.00     0.053 C 
BRANCH   8   9
ATOM      9  C   UNL     1     -19.951   9.982  12.605  1.00  0.00     0.041 C 
ATOM     10  O   UNL     1     -20.313   8.938  11.999  1.00  0.00    -0.550 OA
ATOM     11  O   UNL     1     -20.141  11.224  12.013  1.00  0.00    -0.550 OA
ENDBRANCH   8   9
ENDBRANCH   7   8
ENDBRANCH   6   7
ENDBRANCH   5   6
ENDBRANCH   4   5
ENDBRANCH   3   4
ENDBRANCH   2   3
ENDBRANCH   1   2
BRANCH   1  12
ATOM     12  C   UNL     1     -21.223  10.050  18.367  1.00  0.00     0.000 C 
BRANCH  12  13
ATOM     13  C   UNL     1     -21.095   9.100  17.160  1.00  0.00    -0.000 C 
BRANCH  13  14
ATOM     14  C   UNL     1     -20.019   8.008  17.296  1.00  0.00    -0.000 C 
BRANCH  14  15
ATOM     15  C   UNL     1     -18.751   8.506  18.010  1.00  0.00    -0.000 C 
BRANCH  15  16
ATOM     16  C   UNL     1     -18.232   7.515  19.070  1.00  0.00    -0.000 C 
BRANCH  16  17
ATOM     17  C   UNL     1     -18.691   6.059  18.878  1.00  0.00    -0.000 C 
BRANCH  17  18
ATOM     18  C   UNL     1     -18.837   5.298  20.207  1.00  0.00    -0.000 C 
BRANCH  18  19
ATOM     19  C   UNL     1     -20.188   4.576  20.328  1.00  0.00    -0.003 C 
ATOM     20  C   UNL     1     -21.268   5.193  19.439  1.00  0.00     0.004 C 
ENDBRANCH  18  19
ENDBRANCH  17  18
ENDBRANCH  16  17
ENDBRANCH  15  16
ENDBRANCH  14  15
ENDBRANCH  13  14
ENDBRANCH  12  13
ENDBRANCH   1  12
TORSDOF 16
ENDMDL
MODEL 7
REMARK VINA RESULT:    -3.950      1.750      3.428
REMARK INTER + INTRA:         -10.212
REMARK INTER:                  -8.616
REMARK INTRA:                  -1.596
REMARK UNBOUND:                -2.568
REMARK SMILES CCCCCCCCCCCCCCCCCC(=O)[O-]
REMARK SMILES IDX 10 1 11 2 12 3 13 4 14 5 15 6 16 7 17 8 18 9 19 10 20 11
REMARK SMILES IDX 9 12 8 13 7 14 6 15 5 16 4 17 3 18 2 19 1 20
REMARK H PARENT
REMARK Flexibility Score: inf
ROOT
ATOM      1  C   UNL     1     -19.540  11.851  18.729  1.00  0.00     0.000 C 
ENDROOT
BRANCH   1   2
ATOM      2  C   UNL     1     -20.187  10.832  17.775  1.00  0.00     0.000 C 
BRANCH   2   3
ATOM      3  C   UNL     1     -19.165   9.859  17.165  1.00  0.00     0.000 C 
BRANCH   3   4
ATOM      4  C   UNL     1     -19.102   8.518  17.917  1.00  0.00     0.000 C 
BRANCH   4   5
ATOM      5  C   UNL     1     -20.489   7.879  18.094  1.00  0.00     0.000 C 
BRANCH   5   6
ATOM      6  C   UNL     1     -20.410   6.429  18.601  1.00  0.00     0.000 C 
BRANCH   6   7
ATOM      7  C   UNL     1     -18.993   5.837  18.491  1.00  0.00     0.006 C 
BRANCH   7   8
ATOM      8  C   UNL     1     -18.335   5.517  19.843  1.00  0.00     0.053 C 
BRANCH   8   9
ATOM      9  C   UNL     1     -16.850   5.364  19.722  1.00  0.00     0.041 C 
ATOM     10  O   UNL     1     -16.303   5.375  18.587  1.00  0.00    -0.550 OA
ATOM     11  O   UNL     1     -16.076   5.171  20.859  1.00  0.00    -0.550 OA
ENDBRANCH   8   9
ENDBRANCH   7   8
ENDBRANCH   6   7
ENDBRANCH   5   6
ENDBRANCH   4   5
ENDBRANCH   3   4
ENDBRANCH   2   3
ENDBRANCH   1   2
BRANCH   1  12
ATOM     12  C   UNL     1     -18.813  12.982  17.972  1.00  0.00     0.000 C 
BRANCH  12  13
ATOM     13  C   UNL     1     -19.715  13.760  16.994  1.00  0.00    -0.000 C 
BRANCH  13  14
ATOM     14  C   UNL     1     -19.145  13.934  15.575  1.00  0.00    -0.000 C 
BRANCH  14  15
ATOM     15  C   UNL     1     -17.742  13.324  15.417  1.00  0.00    -0.000 C 
BRANCH  15  16
ATOM     16  C   UNL     1     -17.725  12.096  14.487  1.00  0.00    -0.000 C 
BRANCH  16  17
ATOM     17  C   UNL     1     -19.047  11.819  13.750  1.00  0.00    -0.000 C 
BRANCH  17  18
ATOM     18  C   UNL     1     -19.260  10.326  13.445  1.00  0.00    -0.000 C 
BRANCH  18  19
ATOM     19  C   UNL     1     -19.546  10.063  11.958  1.00  0.00    -0.003 C 
ATOM     20  C   UNL     1     -20.951  10.497  11.542  1.00  0.00     0.004 C 
ENDBRANCH  18  19
ENDBRANCH  17  18
ENDBRANCH  16  17
ENDBRANCH  15  16
ENDBRANCH  14  15
ENDBRANCH  13  14
ENDBRANCH  12  13
ENDBRANCH   1  12
TORSDOF 16
ENDMDL
MODEL 8
REMARK VINA RESULT:    -3.940      4.899      8.251
REMARK INTER + INTRA:         -10.194
REMARK INTER:                  -7.939
REMARK INTRA:                  -2.254
REMARK UNBOUND:                -2.568
REMARK SMILES CCCCCCCCCCCCCCCCCC(=O)[O-]
REMARK SMILES IDX 10 1 11 2 12 3 13 4 14 5 15 6 16 7 17 8 18 9 19 10 20 11
REMARK SMILES IDX 9 12 8 13 7 14 6 15 5 16 4 17 3 18 2 19 1 20
REMARK H PARENT
REMARK Flexibility Score: inf
ROOT
ATOM      1  C   UNL     1     -18.825  11.730  14.099  1.00  0.00     0.000 C 
ENDROOT
BRANCH   1   2
ATOM      2  C   UNL     1     -17.538  12.460  14.522  1.00  0.00     0.000 C 
BRANCH   2   3
ATOM      3  C   UNL     1     -17.805  13.607  15.510  1.00  0.00     0.000 C 
BRANCH   3   4
ATOM      4  C   UNL     1     -18.764  13.199  16.643  1.00  0.00     0.000 C 
BRANCH   4   5
ATOM      5  C   UNL     1     -19.502  14.405  17.248  1.00  0.00     0.000 C 
BRANCH   5   6
ATOM      6  C   UNL     1     -20.153  15.296  16.175  1.00  0.00     0.000 C 
BRANCH   6   7
ATOM      7  C   UNL     1     -19.746  16.775  16.304  1.00  0.00     0.006 C 
BRANCH   7   8
ATOM      8  C   UNL     1     -19.780  17.557  14.981  1.00  0.00     0.053 C 
BRANCH   8   9
ATOM      9  C   UNL     1     -18.437  17.595  14.318  1.00  0.00     0.041 C 
ATOM     10  O   UNL     1     -18.087  16.666  13.543  1.00  0.00    -0.550 OA
ATOM     11  O   UNL     1     -17.558  18.637  14.588  1.00  0.00    -0.550 OA
ENDBRANCH   8   9
ENDBRANCH   7   8
ENDBRANCH   6   7
ENDBRANCH   5   6
ENDBRANCH   4   5
ENDBRANCH   3   4
ENDBRANCH   2   3
ENDBRANCH   1   2
BRANCH   1  12
ATOM     12  C   UNL     1     -18.741  10.208  14.338  1.00  0.00     0.000 C 
BRANCH  12  13
ATOM     13  C   UNL     1     -20.102   9.544  14.627  1.00  0.00    -0.000 C 
BRANCH  13  14
ATOM     14  C   UNL     1     -20.232   8.896  16.016  1.00  0.00    -0.000 C 
BRANCH  14  15
ATOM     15  C   UNL     1     -19.161   9.385  17.006  1.00  0.00    -0.000 C 
BRANCH  15  16
ATOM     16  C   UNL     1     -19.735   9.706  18.399  1.00  0.00    -0.000 C 
BRANCH  16  17
ATOM     17  C   UNL     1     -20.601  10.977  18.470  1.00  0.00    -0.000 C 
BRANCH  17  18
ATOM     18  C   UNL     1     -22.084  10.675  18.741  1.00  0.00    -0.000 C 
BRANCH  18  19
ATOM     19  C   UNL     1     -23.007  11.208  17.634  1.00  0.00    -0.003 C 
ATOM     20  C   UNL     1     -22.255  12.023  16.582  1.00  0.00     0.004 C 
ENDBRANCH  18  19
ENDBRANCH  17  18
ENDBRANCH  16  17
ENDBRANCH  15  16
ENDBRANCH  14  15
ENDBRANCH  13  14
ENDBRANCH  12  13
ENDBRANCH   1  12
TORSDOF 16
ENDMDL
MODEL 9
REMARK VINA RESULT:    -3.904      5.853      9.022
REMARK INTER + INTRA:         -10.125
REMARK INTER:                  -7.269
REMARK INTRA:                  -2.856
REMARK UNBOUND:                -2.568
REMARK SMILES CCCCCCCCCCCCCCCCCC(=O)[O-]
REMARK SMILES IDX 10 1 11 2 12 3 13 4 14 5 15 6 16 7 17 8 18 9 19 10 20 11
REMARK SMILES IDX 9 12 8 13 7 14 6 15 5 16 4 17 3 18 2 19 1 20
REMARK H PARENT
REMARK Flexibility Score: inf
ROOT
ATOM      1  C   UNL     1     -21.671  14.798  14.108  1.00  0.00     0.000 C 
ENDROOT
BRANCH   1   2
ATOM      2  C   UNL     1     -22.345  14.010  15.245  1.00  0.00     0.000 C 
BRANCH   2   3
ATOM      3  C   UNL     1     -22.407  14.804  16.560  1.00  0.00     0.000 C 
BRANCH   3   4
ATOM      4  C   UNL     1     -21.972  16.270  16.386  1.00  0.00     0.000 C 
BRANCH   4   5
ATOM      5  C   UNL     1     -20.742  16.622  17.238  1.00  0.00     0.000 C 
BRANCH   5   6
ATOM      6  C   UNL     1     -19.904  17.756  16.622  1.00  0.00     0.000 C 
BRANCH   6   7
ATOM      7  C   UNL     1     -19.132  17.310  15.367  1.00  0.00     0.006 C 
BRANCH   7   8
ATOM      8  C   UNL     1     -19.370  18.193  14.131  1.00  0.00     0.053 C 
BRANCH   8   9
ATOM      9  C   UNL     1     -18.101  18.811  13.631  1.00  0.00     0.041 C 
ATOM     10  O   UNL     1     -17.784  18.710  12.416  1.00  0.00    -0.550 OA
ATOM     11  O   UNL     1     -17.251  19.466  14.513  1.00  0.00    -0.550 OA
ENDBRANCH   8   9
ENDBRANCH   7   8
ENDBRANCH   6   7
ENDBRANCH   5   6
ENDBRANCH   4   5
ENDBRANCH   3   4
ENDBRANCH   2   3
ENDBRANCH   1   2
BRANCH   1  12
ATOM     12  C   UNL     1     -20.285  14.227  13.741  1.00  0.00     0.000 C 
BRANCH  12  13
ATOM     13  C   UNL     1     -20.057  12.781  14.224  1.00  0.00    -0.000 C 
BRANCH  13  14
ATOM     14  C   UNL     1     -18.842  12.582  15.147  1.00  0.00    -0.000 C 
BRANCH  14  15
ATOM     15  C   UNL     1     -18.752  13.649  16.252  1.00  0.00    -0.000 C 
BRANCH  15  16
ATOM     16  C   UNL     1     -19.292  13.155  17.607  1.00  0.00    -0.000 C 
BRANCH  16  17
ATOM     17  C   UNL     1     -19.192  11.636  17.833  1.00  0.00    -0.000 C 
BRANCH  17  18
ATOM     18  C   UNL     1     -20.419  11.057  18.558  1.00  0.00    -0.000 C 
BRANCH  18  19
ATOM     19  C   UNL     1     -21.733  11.349  17.817  1.00  0.00    -0.003 C 
ATOM     20  C   UNL     1     -22.966  11.108  18.688  1.00  0.00     0.004 C 
ENDBRANCH  18  19
ENDBRANCH  17  18
ENDBRANCH  16  17
ENDBRANCH  15  16
ENDBRANCH  14  15
ENDBRANCH  13  14
ENDBRANCH  12  13
ENDBRANCH   1  12
TORSDOF 16
ENDMDL
