MODEL 1
REMARK VINA RESULT:    -5.867      0.000      0.000
REMARK INTER + INTRA:          -7.359
REMARK INTER:                  -7.068
REMARK INTRA:                  -0.292
REMARK UNBOUND:                -0.292
REMARK SMILES O=c1c(O)c(-c2ccc(O)c(O)c2)oc2cc(O)cc(O)c12
REMARK SMILES IDX 5 1 3 2 2 3 1 4 22 5 20 6 19 7 17 8 16 9 15 10 14 11 6 12
REMARK SMILES IDX 7 13 8 14 9 15 13 16 11 17 10 18 12 20 4 22 21 24 18 26
REMARK H PARENT 10 19 12 21 4 23 21 25 18 27
REMARK Flexibility Score: inf
ROOT
ATOM      1  C   UNL     1      80.617  25.736  46.425  1.00  0.00     0.180 A 
ATOM      2  C   UNL     1      81.968  26.124  46.465  1.00  0.00     0.208 A 
ATOM      3  C   UNL     1      82.864  25.568  45.538  1.00  0.00     0.238 A 
ATOM      4  O   UNL     1      84.060  25.959  45.543  1.00  0.00    -0.285 OA
ATOM      5  C   UNL     1      82.402  24.617  44.596  1.00  0.00     0.111 A 
ATOM      6  C   UNL     1      83.230  23.959  43.637  1.00  0.00     0.134 A 
ATOM      7  C   UNL     1      82.644  23.135  42.668  1.00  0.00     0.093 A 
ATOM      8  C   UNL     1      81.271  22.895  42.663  1.00  0.00     0.123 A 
ATOM      9  C   UNL     1      80.460  23.486  43.632  1.00  0.00     0.094 A 
ATOM     10  C   UNL     1      81.010  24.342  44.589  1.00  0.00     0.146 A 
ATOM     11  O   UNL     1      80.202  24.892  45.487  1.00  0.00    -0.452 OA
ENDROOT
BRANCH   1  12
ATOM     12  C   UNL     1      79.618  26.260  47.384  1.00  0.00     0.025 A 
ATOM     13  C   UNL     1      78.680  27.209  46.954  1.00  0.00     0.016 A 
ATOM     14  C   UNL     1      77.718  27.702  47.837  1.00  0.00     0.051 A 
ATOM     15  C   UNL     1      77.662  27.247  49.159  1.00  0.00     0.157 A 
ATOM     16  C   UNL     1      79.552  25.785  48.705  1.00  0.00     0.062 A 
ATOM     17  C   UNL     1      78.588  26.271  49.597  1.00  0.00     0.158 A 
BRANCH  15  18
ATOM     18  O   UNL     1      76.680  27.785  49.994  1.00  0.00    -0.504 OA
ATOM     19  H   UNL     1      76.113  27.238  50.624  1.00  0.00     0.293 HD
ENDBRANCH  15  18
BRANCH  17  20
ATOM     20  O   UNL     1      78.582  25.756  50.896  1.00  0.00    -0.504 OA
ATOM     21  H   UNL     1      79.386  25.753  51.507  1.00  0.00     0.293 HD
ENDBRANCH  17  20
ENDBRANCH   1  12
BRANCH   2  22
ATOM     22  O   UNL     1      82.397  27.081  47.389  1.00  0.00    -0.502 OA
ATOM     23  H   UNL     1      82.108  28.050  47.343  1.00  0.00     0.293 HD
ENDBRANCH   2  22
BRANCH   6  24
ATOM     24  O   UNL     1      84.625  24.058  43.612  1.00  0.00    -0.507 OA
ATOM     25  H   UNL     1      85.158  24.472  42.864  1.00  0.00     0.293 HD
ENDBRANCH   6  24
BRANCH   8  26
ATOM     26  O   UNL     1      80.724  22.057  41.693  1.00  0.00    -0.508 OA
ATOM     27  H   UNL     1      80.875  21.055  41.711  1.00  0.00     0.293 HD
ENDBRANCH   8  26
TORSDOF 6
ENDMDL
MODEL 2
REMARK VINA RESULT:    -5.804      2.430      3.664
REMARK INTER + INTRA:          -7.283
REMARK INTER:                  -7.031
REMARK INTRA:                  -0.252
REMARK UNBOUND:                -0.292
REMARK SMILES O=c1c(O)c(-c2ccc(O)c(O)c2)oc2cc(O)cc(O)c12
REMARK SMILES IDX 5 1 3 2 2 3 1 4 22 5 20 6 19 7 17 8 16 9 15 10 14 11 6 12
REMARK SMILES IDX 7 13 8 14 9 15 13 16 11 17 10 18 12 20 4 22 21 24 18 26
REMARK H PARENT 10 19 12 21 4 23 21 25 18 27
REMARK Flexibility Score: inf
ROOT
ATOM      1  C   UNL     1      81.273  25.037  45.014  1.00  0.00     0.180 A 
ATOM      2  C   UNL     1      80.185  25.591  44.318  1.00  0.00     0.208 A 
ATOM      3  C   UNL     1      79.922  25.158  43.008  1.00  0.00     0.238 A 
ATOM      4  O   UNL     1      78.915  25.616  42.410  1.00  0.00    -0.285 OA
ATOM      5  C   UNL     1      80.761  24.190  42.405  1.00  0.00     0.111 A 
ATOM      6  C   UNL     1      80.613  23.708  41.069  1.00  0.00     0.134 A 
ATOM      7  C   UNL     1      81.421  22.655  40.621  1.00  0.00     0.093 A 
ATOM      8  C   UNL     1      82.412  22.112  41.436  1.00  0.00     0.123 A 
ATOM      9  C   UNL     1      82.605  22.615  42.723  1.00  0.00     0.094 A 
ATOM     10  C   UNL     1      81.792  23.640  43.211  1.00  0.00     0.146 A 
ATOM     11  O   UNL     1      82.002  24.083  44.444  1.00  0.00    -0.452 OA
ENDROOT
BRANCH   1  12
ATOM     12  C   UNL     1      81.627  25.460  46.388  1.00  0.00     0.025 A 
ATOM     13  C   UNL     1      82.715  26.323  46.585  1.00  0.00     0.016 A 
ATOM     14  C   UNL     1      83.054  26.750  47.869  1.00  0.00     0.051 A 
ATOM     15  C   UNL     1      82.308  26.339  48.979  1.00  0.00     0.157 A 
ATOM     16  C   UNL     1      80.862  25.063  47.497  1.00  0.00     0.062 A 
ATOM     17  C   UNL     1      81.193  25.488  48.789  1.00  0.00     0.158 A 
BRANCH  15  18
ATOM     18  O   UNL     1      82.704  26.796  50.238  1.00  0.00    -0.504 OA
ATOM     19  H   UNL     1      82.455  26.345  51.106  1.00  0.00     0.293 HD
ENDBRANCH  15  18
BRANCH  17  20
ATOM     20  O   UNL     1      80.389  25.053  49.846  1.00  0.00    -0.504 OA
ATOM     21  H   UNL     1      80.256  24.083  50.091  1.00  0.00     0.293 HD
ENDBRANCH  17  20
ENDBRANCH   1  12
BRANCH   2  22
ATOM     22  O   UNL     1      79.356  26.528  44.940  1.00  0.00    -0.502 OA
ATOM     23  H   UNL     1      78.347  26.502  44.858  1.00  0.00     0.293 HD
ENDBRANCH   2  22
BRANCH   6  24
ATOM     24  O   UNL     1      79.714  24.245  40.141  1.00  0.00    -0.507 OA
ATOM     25  H   UNL     1      78.749  23.970  40.052  1.00  0.00     0.293 HD
ENDBRANCH   6  24
BRANCH   8  26
ATOM     26  O   UNL     1      83.207  21.075  40.951  1.00  0.00    -0.508 OA
ATOM     27  H   UNL     1      82.924  20.105  41.038  1.00  0.00     0.293 HD
ENDBRANCH   8  26
TORSDOF 6
ENDMDL
MODEL 3
REMARK VINA RESULT:    -5.770      2.078      6.359
REMARK INTER + INTRA:          -7.242
REMARK INTER:                  -6.919
REMARK INTRA:                  -0.323
REMARK UNBOUND:                -0.292
REMARK SMILES O=c1c(O)c(-c2ccc(O)c(O)c2)oc2cc(O)cc(O)c12
REMARK SMILES IDX 5 1 3 2 2 3 1 4 22 5 20 6 19 7 17 8 16 9 15 10 14 11 6 12
REMARK SMILES IDX 7 13 8 14 9 15 13 16 11 17 10 18 12 20 4 22 21 24 18 26
REMARK H PARENT 10 19 12 21 4 23 21 25 18 27
REMARK Flexibility Score: inf
ROOT
ATOM      1  C   UNL     1      80.693  25.126  44.802  1.00  0.00     0.180 A 
ATOM      2  C   UNL     1      81.837  25.791  45.275  1.00  0.00     0.208 A 
ATOM      3  C   UNL     1      81.998  25.969  46.658  1.00  0.00     0.238 A 
ATOM      4  O   UNL     1      83.051  26.516  47.079  1.00  0.00    -0.285 OA
ATOM      5  C   UNL     1      81.006  25.496  47.550  1.00  0.00     0.111 A 
ATOM      6  C   UNL     1      81.047  25.657  48.967  1.00  0.00     0.134 A 
ATOM      7  C   UNL     1      80.075  25.035  49.762  1.00  0.00     0.093 A 
ATOM      8  C   UNL     1      79.031  24.313  49.188  1.00  0.00     0.123 A 
ATOM      9  C   UNL     1      78.948  24.198  47.799  1.00  0.00     0.094 A 
ATOM     10  C   UNL     1      79.922  24.777  46.983  1.00  0.00     0.146 A 
ATOM     11  O   UNL     1      79.811  24.636  45.667  1.00  0.00    -0.452 OA
ENDROOT
BRANCH   1  12
ATOM     12  C   UNL     1      80.440  24.922  43.357  1.00  0.00     0.025 A 
ATOM     13  C   UNL     1      79.742  25.900  42.634  1.00  0.00     0.016 A 
ATOM     14  C   UNL     1      79.510  25.737  41.268  1.00  0.00     0.051 A 
ATOM     15  C   UNL     1      79.982  24.606  40.593  1.00  0.00     0.157 A 
ATOM     16  C   UNL     1      80.936  23.796  42.679  1.00  0.00     0.062 A 
ATOM     17  C   UNL     1      80.711  23.625  41.307  1.00  0.00     0.158 A 
BRANCH  15  18
ATOM     18  O   UNL     1      79.710  24.499  39.227  1.00  0.00    -0.504 OA
ATOM     19  H   UNL     1      79.086  23.814  38.827  1.00  0.00     0.293 HD
ENDBRANCH  15  18
BRANCH  17  20
ATOM     20  O   UNL     1      81.231  22.480  40.698  1.00  0.00    -0.504 OA
ATOM     21  H   UNL     1      82.213  22.245  40.684  1.00  0.00     0.293 HD
ENDBRANCH  17  20
ENDBRANCH   1  12
BRANCH   2  22
ATOM     22  O   UNL     1      82.815  26.230  44.379  1.00  0.00    -0.502 OA
ATOM     23  H   UNL     1      83.437  25.592  43.896  1.00  0.00     0.293 HD
ENDBRANCH   2  22
BRANCH   6  24
ATOM     24  O   UNL     1      81.996  26.436  49.637  1.00  0.00    -0.507 OA
ATOM     25  H   UNL     1      82.595  27.116  49.197  1.00  0.00     0.293 HD
ENDBRANCH   6  24
BRANCH   8  26
ATOM     26  O   UNL     1      78.073  23.719  50.008  1.00  0.00    -0.508 OA
ATOM     27  H   UNL     1      77.082  23.835  49.834  1.00  0.00     0.293 HD
ENDBRANCH   8  26
TORSDOF 6
ENDMDL
MODEL 4
REMARK VINA RESULT:    -5.766     11.116     12.324
REMARK INTER + INTRA:          -7.237
REMARK INTER:                  -6.910
REMARK INTRA:                  -0.327
REMARK UNBOUND:                -0.292
REMARK SMILES O=c1c(O)c(-c2ccc(O)c(O)c2)oc2cc(O)cc(O)c12
REMARK SMILES IDX 5 1 3 2 2 3 1 4 22 5 20 6 19 7 17 8 16 9 15 10 14 11 6 12
REMARK SMILES IDX 7 13 8 14 9 15 13 16 11 17 10 18 12 20 4 22 21 24 18 26
REMARK H PARENT 10 19 12 21 4 23 21 25 18 27
REMARK Flexibility Score: inf
ROOT
ATOM      1  C   UNL     1      76.156  15.149  49.933  1.00  0.00     0.180 A 
ATOM      2  C   UNL     1      76.333  16.496  50.297  1.00  0.00     0.208 A 
ATOM      3  C   UNL     1      76.320  17.479  49.294  1.00  0.00     0.238 A 
ATOM      4  O   UNL     1      76.424  18.687  49.630  1.00  0.00    -0.285 OA
ATOM      5  C   UNL     1      76.147  17.102  47.940  1.00  0.00     0.111 A 
ATOM      6  C   UNL     1      76.158  18.010  46.839  1.00  0.00     0.134 A 
ATOM      7  C   UNL     1      75.848  17.543  45.556  1.00  0.00     0.093 A 
ATOM      8  C   UNL     1      75.591  16.193  45.324  1.00  0.00     0.123 A 
ATOM      9  C   UNL     1      75.636  15.287  46.383  1.00  0.00     0.094 A 
ATOM     10  C   UNL     1      75.908  15.728  47.681  1.00  0.00     0.146 A 
ATOM     11  O   UNL     1      75.931  14.835  48.662  1.00  0.00    -0.452 OA
ENDROOT
BRANCH   1  12
ATOM     12  C   UNL     1      76.183  14.055  50.930  1.00  0.00     0.025 A 
ATOM     13  C   UNL     1      74.990  13.656  51.550  1.00  0.00     0.016 A 
ATOM     14  C   UNL     1      74.990  12.614  52.477  1.00  0.00     0.051 A 
ATOM     15  C   UNL     1      76.174  11.938  52.793  1.00  0.00     0.157 A 
ATOM     16  C   UNL     1      77.370  13.365  51.227  1.00  0.00     0.062 A 
ATOM     17  C   UNL     1      77.379  12.315  52.155  1.00  0.00     0.158 A 
BRANCH  15  18
ATOM     18  O   UNL     1      76.107  10.909  53.735  1.00  0.00    -0.504 OA
ATOM     19  H   UNL     1      76.253  11.039  54.725  1.00  0.00     0.293 HD
ENDBRANCH  15  18
BRANCH  17  20
ATOM     20  O   UNL     1      78.595  11.674  52.403  1.00  0.00    -0.504 OA
ATOM     21  H   UNL     1      79.229  11.365  51.681  1.00  0.00     0.293 HD
ENDBRANCH  17  20
ENDBRANCH   1  12
BRANCH   2  22
ATOM     22  O   UNL     1      76.479  16.848  51.641  1.00  0.00    -0.502 OA
ATOM     23  H   UNL     1      76.175  16.246  52.397  1.00  0.00     0.293 HD
ENDBRANCH   2  22
BRANCH   6  24
ATOM     24  O   UNL     1      76.492  19.364  46.947  1.00  0.00    -0.507 OA
ATOM     25  H   UNL     1      76.519  20.012  46.176  1.00  0.00     0.293 HD
ENDBRANCH   6  24
BRANCH   8  26
ATOM     26  O   UNL     1      75.300  15.761  44.031  1.00  0.00    -0.508 OA
ATOM     27  H   UNL     1      75.918  15.964  43.253  1.00  0.00     0.293 HD
ENDBRANCH   8  26
TORSDOF 6
ENDMDL
MODEL 5
REMARK VINA RESULT:    -5.678      1.103      1.830
REMARK INTER + INTRA:          -7.132
REMARK INTER:                  -6.808
REMARK INTRA:                  -0.324
REMARK UNBOUND:                -0.292
REMARK SMILES O=c1c(O)c(-c2ccc(O)c(O)c2)oc2cc(O)cc(O)c12
REMARK SMILES IDX 5 1 3 2 2 3 1 4 22 5 20 6 19 7 17 8 16 9 15 10 14 11 6 12
REMARK SMILES IDX 7 13 8 14 9 15 13 16 11 17 10 18 12 20 4 22 21 24 18 26
REMARK H PARENT 10 19 12 21 4 23 21 25 18 27
REMARK Flexibility Score: inf
ROOT
ATOM      1  C   UNL     1      80.332  25.280  47.395  1.00  0.00     0.180 A 
ATOM      2  C   UNL     1      81.623  25.833  47.345  1.00  0.00     0.208 A 
ATOM      3  C   UNL     1      82.402  25.640  46.192  1.00  0.00     0.238 A 
ATOM      4  O   UNL     1      83.535  26.184  46.130  1.00  0.00    -0.285 OA
ATOM      5  C   UNL     1      81.888  24.882  45.113  1.00  0.00     0.111 A 
ATOM      6  C   UNL     1      82.605  24.589  43.914  1.00  0.00     0.134 A 
ATOM      7  C   UNL     1      81.950  23.940  42.859  1.00  0.00     0.093 A 
ATOM      8  C   UNL     1      80.629  23.518  42.983  1.00  0.00     0.123 A 
ATOM      9  C   UNL     1      79.936  23.746  44.173  1.00  0.00     0.094 A 
ATOM     10  C   UNL     1      80.550  24.422  45.230  1.00  0.00     0.146 A 
ATOM     11  O   UNL     1      79.853  24.629  46.341  1.00  0.00    -0.452 OA
ENDROOT
BRANCH   1  12
ATOM     12  C   UNL     1      79.461  25.419  48.585  1.00  0.00     0.025 A 
ATOM     13  C   UNL     1      79.541  24.470  49.614  1.00  0.00     0.016 A 
ATOM     14  C   UNL     1      78.743  24.593  50.752  1.00  0.00     0.051 A 
ATOM     15  C   UNL     1      77.863  25.671  50.894  1.00  0.00     0.157 A 
ATOM     16  C   UNL     1      78.595  26.515  48.733  1.00  0.00     0.062 A 
ATOM     17  C   UNL     1      77.793  26.649  49.874  1.00  0.00     0.158 A 
BRANCH  15  18
ATOM     18  O   UNL     1      77.087  25.732  52.054  1.00  0.00    -0.504 OA
ATOM     19  H   UNL     1      76.799  26.593  52.496  1.00  0.00     0.293 HD
ENDBRANCH  15  18
BRANCH  17  20
ATOM     20  O   UNL     1      76.953  27.763  49.954  1.00  0.00    -0.504 OA
ATOM     21  H   UNL     1      76.306  28.036  49.229  1.00  0.00     0.293 HD
ENDBRANCH  17  20
ENDBRANCH   1  12
BRANCH   2  22
ATOM     22  O   UNL     1      82.103  26.598  48.412  1.00  0.00    -0.502 OA
ATOM     23  H   UNL     1      82.449  27.542  48.293  1.00  0.00     0.293 HD
ENDBRANCH   2  22
BRANCH   6  24
ATOM     24  O   UNL     1      83.958  24.886  43.722  1.00  0.00    -0.507 OA
ATOM     25  H   UNL     1      84.481  25.558  44.260  1.00  0.00     0.293 HD
ENDBRANCH   6  24
BRANCH   8  26
ATOM     26  O   UNL     1      80.014  22.862  41.918  1.00  0.00    -0.508 OA
ATOM     27  H   UNL     1      79.995  21.850  41.859  1.00  0.00     0.293 HD
ENDBRANCH   8  26
TORSDOF 6
ENDMDL
MODEL 6
REMARK VINA RESULT:    -5.540      1.536      2.110
REMARK INTER + INTRA:          -6.965
REMARK INTER:                  -6.717
REMARK INTRA:                  -0.248
REMARK UNBOUND:                -0.292
REMARK SMILES O=c1c(O)c(-c2ccc(O)c(O)c2)oc2cc(O)cc(O)c12
REMARK SMILES IDX 5 1 3 2 2 3 1 4 22 5 20 6 19 7 17 8 16 9 15 10 14 11 6 12
REMARK SMILES IDX 7 13 8 14 9 15 13 16 11 17 10 18 12 20 4 22 21 24 18 26
REMARK H PARENT 10 19 12 21 4 23 21 25 18 27
REMARK Flexibility Score: inf
ROOT
ATOM      1  C   UNL     1      80.130  24.697  45.800  1.00  0.00     0.180 A 
ATOM      2  C   UNL     1      81.454  24.829  45.346  1.00  0.00     0.208 A 
ATOM      3  C   UNL     1      81.808  24.268  44.109  1.00  0.00     0.238 A 
ATOM      4  O   UNL     1      82.980  24.437  43.682  1.00  0.00    -0.285 OA
ATOM      5  C   UNL     1      80.840  23.569  43.349  1.00  0.00     0.111 A 
ATOM      6  C   UNL     1      81.098  22.926  42.101  1.00  0.00     0.134 A 
ATOM      7  C   UNL     1      80.035  22.375  41.375  1.00  0.00     0.093 A 
ATOM      8  C   UNL     1      78.736  22.386  41.880  1.00  0.00     0.123 A 
ATOM      9  C   UNL     1      78.482  22.959  43.127  1.00  0.00     0.094 A 
ATOM     10  C   UNL     1      79.515  23.548  43.858  1.00  0.00     0.146 A 
ATOM     11  O   UNL     1      79.229  24.092  45.035  1.00  0.00    -0.452 OA
ENDROOT
BRANCH   1  12
ATOM     12  C   UNL     1      79.688  25.239  47.105  1.00  0.00     0.025 A 
ATOM     13  C   UNL     1      78.784  26.311  47.137  1.00  0.00     0.016 A 
ATOM     14  C   UNL     1      78.339  26.825  48.356  1.00  0.00     0.051 A 
ATOM     15  C   UNL     1      78.773  26.270  49.565  1.00  0.00     0.157 A 
ATOM     16  C   UNL     1      80.108  24.666  48.317  1.00  0.00     0.062 A 
ATOM     17  C   UNL     1      79.665  25.172  49.545  1.00  0.00     0.158 A 
BRANCH  15  18
ATOM     18  O   UNL     1      78.296  26.835  50.750  1.00  0.00    -0.504 OA
ATOM     19  H   UNL     1      77.670  26.365  51.388  1.00  0.00     0.293 HD
ENDBRANCH  15  18
BRANCH  17  20
ATOM     20  O   UNL     1      80.125  24.554  50.711  1.00  0.00    -0.504 OA
ATOM     21  H   UNL     1      79.989  24.927  51.639  1.00  0.00     0.293 HD
ENDBRANCH  17  20
ENDBRANCH   1  12
BRANCH   2  22
ATOM     22  O   UNL     1      82.389  25.543  46.101  1.00  0.00    -0.502 OA
ATOM     23  H   UNL     1      83.386  25.473  45.940  1.00  0.00     0.293 HD
ENDBRANCH   2  22
BRANCH   6  24
ATOM     24  O   UNL     1      82.375  22.778  41.549  1.00  0.00    -0.507 OA
ATOM     25  H   UNL     1      82.590  22.867  40.569  1.00  0.00     0.293 HD
ENDBRANCH   6  24
BRANCH   8  26
ATOM     26  O   UNL     1      77.705  21.815  41.136  1.00  0.00    -0.508 OA
ATOM     27  H   UNL     1      77.823  20.928  40.660  1.00  0.00     0.293 HD
ENDBRANCH   8  26
TORSDOF 6
ENDMDL
MODEL 7
REMARK VINA RESULT:    -5.426     10.510     12.695
REMARK INTER + INTRA:          -6.828
REMARK INTER:                  -6.495
REMARK INTRA:                  -0.333
REMARK UNBOUND:                -0.292
REMARK SMILES O=c1c(O)c(-c2ccc(O)c(O)c2)oc2cc(O)cc(O)c12
REMARK SMILES IDX 5 1 3 2 2 3 1 4 22 5 20 6 19 7 17 8 16 9 15 10 14 11 6 12
REMARK SMILES IDX 7 13 8 14 9 15 13 16 11 17 10 18 12 20 4 22 21 24 18 26
REMARK H PARENT 10 19 12 21 4 23 21 25 18 27
REMARK Flexibility Score: inf
ROOT
ATOM      1  C   UNL     1      75.796  16.035  48.656  1.00  0.00     0.180 A 
ATOM      2  C   UNL     1      75.952  17.253  49.340  1.00  0.00     0.208 A 
ATOM      3  C   UNL     1      76.274  17.229  50.707  1.00  0.00     0.238 A 
ATOM      4  O   UNL     1      76.466  18.321  51.302  1.00  0.00    -0.285 OA
ATOM      5  C   UNL     1      76.418  15.990  51.375  1.00  0.00     0.111 A 
ATOM      6  C   UNL     1      76.704  15.848  52.767  1.00  0.00     0.134 A 
ATOM      7  C   UNL     1      76.953  14.574  53.294  1.00  0.00     0.093 A 
ATOM      8  C   UNL     1      76.866  13.435  52.497  1.00  0.00     0.123 A 
ATOM      9  C   UNL     1      76.530  13.557  51.148  1.00  0.00     0.094 A 
ATOM     10  C   UNL     1      76.310  14.816  50.585  1.00  0.00     0.146 A 
ATOM     11  O   UNL     1      76.002  14.889  49.295  1.00  0.00    -0.452 OA
ENDROOT
BRANCH   1  12
ATOM     12  C   UNL     1      75.433  15.979  47.221  1.00  0.00     0.025 A 
ATOM     13  C   UNL     1      76.443  15.850  46.258  1.00  0.00     0.016 A 
ATOM     14  C   UNL     1      76.121  15.776  44.902  1.00  0.00     0.051 A 
ATOM     15  C   UNL     1      74.787  15.812  44.482  1.00  0.00     0.157 A 
ATOM     16  C   UNL     1      74.091  15.992  46.805  1.00  0.00     0.062 A 
ATOM     17  C   UNL     1      73.758  15.915  45.447  1.00  0.00     0.158 A 
BRANCH  15  18
ATOM     18  O   UNL     1      74.533  15.740  43.110  1.00  0.00    -0.504 OA
ATOM     19  H   UNL     1      73.621  15.874  42.697  1.00  0.00     0.293 HD
ENDBRANCH  15  18
BRANCH  17  20
ATOM     20  O   UNL     1      72.403  15.936  45.105  1.00  0.00    -0.504 OA
ATOM     21  H   UNL     1      71.670  16.257  45.720  1.00  0.00     0.293 HD
ENDBRANCH  17  20
ENDBRANCH   1  12
BRANCH   2  22
ATOM     22  O   UNL     1      75.827  18.465  48.656  1.00  0.00    -0.502 OA
ATOM     23  H   UNL     1      76.423  18.713  47.876  1.00  0.00     0.293 HD
ENDBRANCH   2  22
BRANCH   6  24
ATOM     24  O   UNL     1      76.724  16.914  53.672  1.00  0.00    -0.507 OA
ATOM     25  H   UNL     1      77.445  17.071  54.357  1.00  0.00     0.293 HD
ENDBRANCH   6  24
BRANCH   8  26
ATOM     26  O   UNL     1      77.107  12.183  53.059  1.00  0.00    -0.508 OA
ATOM     27  H   UNL     1      77.696  11.499  52.597  1.00  0.00     0.293 HD
ENDBRANCH   8  26
TORSDOF 6
ENDMDL
MODEL 8
REMARK VINA RESULT:    -5.341      2.388      4.046
REMARK INTER + INTRA:          -6.725
REMARK INTER:                  -6.609
REMARK INTRA:                  -0.116
REMARK UNBOUND:                -0.292
REMARK SMILES O=c1c(O)c(-c2ccc(O)c(O)c2)oc2cc(O)cc(O)c12
REMARK SMILES IDX 5 1 3 2 2 3 1 4 22 5 20 6 19 7 17 8 16 9 15 10 14 11 6 12
REMARK SMILES IDX 7 13 8 14 9 15 13 16 11 17 10 18 12 20 4 22 21 24 18 26
REMARK H PARENT 10 19 12 21 4 23 21 25 18 27
REMARK Flexibility Score: inf
ROOT
ATOM      1  C   UNL     1      80.704  24.888  45.111  1.00  0.00     0.180 A 
ATOM      2  C   UNL     1      81.528  24.204  44.200  1.00  0.00     0.208 A 
ATOM      3  C   UNL     1      80.977  23.752  42.990  1.00  0.00     0.238 A 
ATOM      4  O   UNL     1      81.731  23.189  42.155  1.00  0.00    -0.285 OA
ATOM      5  C   UNL     1      79.606  23.974  42.714  1.00  0.00     0.111 A 
ATOM      6  C   UNL     1      78.933  23.525  41.538  1.00  0.00     0.134 A 
ATOM      7  C   UNL     1      77.607  23.914  41.310  1.00  0.00     0.093 A 
ATOM      8  C   UNL     1      76.911  24.680  42.243  1.00  0.00     0.123 A 
ATOM      9  C   UNL     1      77.540  25.075  43.424  1.00  0.00     0.094 A 
ATOM     10  C   UNL     1      78.873  24.733  43.663  1.00  0.00     0.146 A 
ATOM     11  O   UNL     1      79.438  25.138  44.795  1.00  0.00    -0.452 OA
ENDROOT
BRANCH   1  12
ATOM     12  C   UNL     1      81.206  25.372  46.417  1.00  0.00     0.025 A 
ATOM     13  C   UNL     1      82.217  26.343  46.451  1.00  0.00     0.016 A 
ATOM     14  C   UNL     1      82.691  26.827  47.671  1.00  0.00     0.051 A 
ATOM     15  C   UNL     1      82.156  26.366  48.879  1.00  0.00     0.157 A 
ATOM     16  C   UNL     1      80.651  24.922  47.627  1.00  0.00     0.062 A 
ATOM     17  C   UNL     1      81.118  25.405  48.856  1.00  0.00     0.158 A 
BRANCH  15  18
ATOM     18  O   UNL     1      82.680  26.885  50.065  1.00  0.00    -0.504 OA
ATOM     19  H   UNL     1      83.578  27.340  50.134  1.00  0.00     0.293 HD
ENDBRANCH  15  18
BRANCH  17  20
ATOM     20  O   UNL     1      80.521  24.913  50.020  1.00  0.00    -0.504 OA
ATOM     21  H   UNL     1      79.552  25.059  50.263  1.00  0.00     0.293 HD
ENDBRANCH  17  20
ENDBRANCH   1  12
BRANCH   2  22
ATOM     22  O   UNL     1      82.883  24.015  44.483  1.00  0.00    -0.502 OA
ATOM     23  H   UNL     1      83.396  24.617  45.116  1.00  0.00     0.293 HD
ENDBRANCH   2  22
BRANCH   6  24
ATOM     24  O   UNL     1      79.509  22.678  40.585  1.00  0.00    -0.507 OA
ATOM     25  H   UNL     1      79.631  21.684  40.699  1.00  0.00     0.293 HD
ENDBRANCH   6  24
BRANCH   8  26
ATOM     26  O   UNL     1      75.588  25.036  41.989  1.00  0.00    -0.508 OA
ATOM     27  H   UNL     1      75.235  25.960  42.215  1.00  0.00     0.293 HD
ENDBRANCH   8  26
TORSDOF 6
ENDMDL
MODEL 9
REMARK VINA RESULT:    -5.318      8.568     11.371
REMARK INTER + INTRA:          -6.698
REMARK INTER:                  -6.368
REMARK INTRA:                  -0.330
REMARK UNBOUND:                -0.292
REMARK SMILES O=c1c(O)c(-c2ccc(O)c(O)c2)oc2cc(O)cc(O)c12
REMARK SMILES IDX 5 1 3 2 2 3 1 4 22 5 20 6 19 7 17 8 16 9 15 10 14 11 6 12
REMARK SMILES IDX 7 13 8 14 9 15 13 16 11 17 10 18 12 20 4 22 21 24 18 26
REMARK H PARENT 10 19 12 21 4 23 21 25 18 27
REMARK Flexibility Score: inf
ROOT
ATOM      1  C   UNL     1      74.057  18.411  43.950  1.00  0.00     0.180 A 
ATOM      2  C   UNL     1      73.682  17.089  44.250  1.00  0.00     0.208 A 
ATOM      3  C   UNL     1      74.096  16.524  45.467  1.00  0.00     0.238 A 
ATOM      4  O   UNL     1      73.712  15.360  45.755  1.00  0.00    -0.285 OA
ATOM      5  C   UNL     1      74.892  17.280  46.360  1.00  0.00     0.111 A 
ATOM      6  C   UNL     1      75.401  16.794  47.602  1.00  0.00     0.134 A 
ATOM      7  C   UNL     1      76.069  17.671  48.466  1.00  0.00     0.093 A 
ATOM      8  C   UNL     1      76.302  18.997  48.106  1.00  0.00     0.123 A 
ATOM      9  C   UNL     1      75.861  19.467  46.868  1.00  0.00     0.094 A 
ATOM     10  C   UNL     1      75.161  18.626  46.001  1.00  0.00     0.146 A 
ATOM     11  O   UNL     1      74.749  19.116  44.838  1.00  0.00    -0.452 OA
ENDROOT
BRANCH   1  12
ATOM     12  C   UNL     1      73.680  19.066  42.677  1.00  0.00     0.025 A 
ATOM     13  C   UNL     1      72.559  19.907  42.639  1.00  0.00     0.016 A 
ATOM     14  C   UNL     1      72.198  20.550  41.454  1.00  0.00     0.051 A 
ATOM     15  C   UNL     1      72.956  20.381  40.290  1.00  0.00     0.157 A 
ATOM     16  C   UNL     1      74.457  18.911  41.516  1.00  0.00     0.062 A 
ATOM     17  C   UNL     1      74.104  19.555  40.323  1.00  0.00     0.158 A 
BRANCH  15  18
ATOM     18  O   UNL     1      72.537  21.047  39.136  1.00  0.00    -0.504 OA
ATOM     19  H   UNL     1      72.020  20.608  38.387  1.00  0.00     0.293 HD
ENDBRANCH  15  18
BRANCH  17  20
ATOM     20  O   UNL     1      74.921  19.355  39.208  1.00  0.00    -0.504 OA
ATOM     21  H   UNL     1      75.462  18.517  39.047  1.00  0.00     0.293 HD
ENDBRANCH  17  20
ENDBRANCH   1  12
BRANCH   2  22
ATOM     22  O   UNL     1      72.877  16.369  43.364  1.00  0.00    -0.502 OA
ATOM     23  H   UNL     1      73.206  15.543  42.878  1.00  0.00     0.293 HD
ENDBRANCH   2  22
BRANCH   6  24
ATOM     24  O   UNL     1      75.303  15.462  48.018  1.00  0.00    -0.507 OA
ATOM     25  H   UNL     1      75.198  15.165  48.975  1.00  0.00     0.293 HD
ENDBRANCH   6  24
BRANCH   8  26
ATOM     26  O   UNL     1      76.983  19.838  48.984  1.00  0.00    -0.508 OA
ATOM     27  H   UNL     1      77.615  20.556  48.648  1.00  0.00     0.293 HD
ENDBRANCH   8  26
TORSDOF 6
ENDMDL
