MODEL 1
REMARK VINA RESULT:    -0.103      0.000      0.000
REMARK INTER + INTRA:          -0.639
REMARK INTER:                  -0.127
REMARK INTRA:                  -0.512
REMARK UNBOUND:                -0.512
REMARK SMILES C=CC[C@H](C)C(=O)CC
REMARK SMILES IDX 4 1 5 2 6 3 7 4 8 5 9 6 3 7 2 8 1 9
REMARK H PARENT
REMARK Flexibility Score: inf
ROOT
ATOM      1  C   UNL     1     138.542 121.204 123.829  1.00  0.00     0.057 C 
ATOM      2  C   UNL     1     137.274 120.895 123.021  1.00  0.00     0.016 C 
ENDROOT
BRANCH   1   3
ATOM      3  C   UNL     1     139.525 121.970 122.968  1.00  0.00     0.135 C 
ATOM      4  O   UNL     1     139.848 121.526 121.875  1.00  0.00    -0.299 OA
BRANCH   3   5
ATOM      5  C   UNL     1     140.124 123.271 123.437  1.00  0.00     0.072 C 
ATOM      6  C   UNL     1     139.181 123.983 124.402  1.00  0.00     0.012 C 
ENDBRANCH   3   5
ENDBRANCH   1   3
BRANCH   1   7
ATOM      7  C   UNL     1     139.204 119.919 124.367  1.00  0.00     0.038 C 
BRANCH   7   8
ATOM      8  C   UNL     1     139.936 120.150 125.663  1.00  0.00    -0.034 C 
ATOM      9  C   UNL     1     139.436 120.931 126.625  1.00  0.00     0.004 C 
ENDBRANCH   7   8
ENDBRANCH   1   7
TORSDOF 4
ENDMDL
MODEL 2
REMARK VINA RESULT:    -0.102     20.933     22.551
REMARK INTER + INTRA:          -0.637
REMARK INTER:                  -0.104
REMARK INTRA:                  -0.533
REMARK UNBOUND:                -0.512
REMARK SMILES C=CC[C@H](C)C(=O)CC
REMARK SMILES IDX 4 1 5 2 6 3 7 4 8 5 9 6 3 7 2 8 1 9
REMARK H PARENT
REMARK Flexibility Score: inf
ROOT
ATOM      1  C   UNL     1     140.064 136.391 139.951  1.00  0.00     0.057 C 
ATOM      2  C   UNL     1     139.687 136.007 138.514  1.00  0.00     0.016 C 
ENDROOT
BRANCH   1   3
ATOM      3  C   UNL     1     139.066 135.793 140.921  1.00  0.00     0.135 C 
ATOM      4  O   UNL     1     139.263 135.883 142.125  1.00  0.00    -0.299 OA
BRANCH   3   5
ATOM      5  C   UNL     1     137.836 135.075 140.430  1.00  0.00     0.072 C 
ATOM      6  C   UNL     1     136.583 135.900 140.707  1.00  0.00     0.012 C 
ENDBRANCH   3   5
ENDBRANCH   1   3
BRANCH   1   7
ATOM      7  C   UNL     1     140.125 137.922 140.135  1.00  0.00     0.038 C 
BRANCH   7   8
ATOM      8  C   UNL     1     138.958 138.625 139.492  1.00  0.00    -0.034 C 
ATOM      9  C   UNL     1     138.075 139.325 140.210  1.00  0.00     0.004 C 
ENDBRANCH   7   8
ENDBRANCH   1   7
TORSDOF 4
ENDMDL
MODEL 3
REMARK VINA RESULT:    -0.082     23.784     25.295
REMARK INTER + INTRA:          -0.613
REMARK INTER:                  -0.105
REMARK INTRA:                  -0.509
REMARK UNBOUND:                -0.512
REMARK SMILES C=CC[C@H](C)C(=O)CC
REMARK SMILES IDX 4 1 5 2 6 3 7 4 8 5 9 6 3 7 2 8 1 9
REMARK H PARENT
REMARK Flexibility Score: inf
ROOT
ATOM      1  C   UNL     1     120.690 138.270 125.270  1.00  0.00     0.057 C 
ATOM      2  C   UNL     1     119.875 137.103 125.844  1.00  0.00     0.016 C 
ENDROOT
BRANCH   1   3
ATOM      3  C   UNL     1     121.159 139.170 126.395  1.00  0.00     0.135 C 
ATOM      4  O   UNL     1     120.365 139.534 127.251  1.00  0.00    -0.299 OA
BRANCH   3   5
ATOM      5  C   UNL     1     122.589 139.638 126.475  1.00  0.00     0.072 C 
ATOM      6  C   UNL     1     123.534 138.590 125.896  1.00  0.00     0.012 C 
ENDBRANCH   3   5
ENDBRANCH   1   3
BRANCH   1   7
ATOM      7  C   UNL     1     119.875 139.087 124.246  1.00  0.00     0.038 C 
BRANCH   7   8
ATOM      8  C   UNL     1     120.737 139.660 123.152  1.00  0.00    -0.034 C 
ATOM      9  C   UNL     1     121.757 138.974 122.628  1.00  0.00     0.004 C 
ENDBRANCH   7   8
ENDBRANCH   1   7
TORSDOF 4
ENDMDL
MODEL 4
REMARK VINA RESULT:    -0.081      1.952      3.600
REMARK INTER + INTRA:          -0.612
REMARK INTER:                  -0.079
REMARK INTRA:                  -0.533
REMARK UNBOUND:                -0.512
REMARK SMILES C=CC[C@H](C)C(=O)CC
REMARK SMILES IDX 4 1 5 2 6 3 7 4 8 5 9 6 3 7 2 8 1 9
REMARK H PARENT
REMARK Flexibility Score: inf
ROOT
ATOM      1  C   UNL     1     136.904 122.089 124.783  1.00  0.00     0.057 C 
ATOM      2  C   UNL     1     137.012 122.602 126.225  1.00  0.00     0.016 C 
ENDROOT
BRANCH   1   3
ATOM      3  C   UNL     1     137.462 120.684 124.695  1.00  0.00     0.135 C 
ATOM      4  O   UNL     1     137.342 120.049 123.656  1.00  0.00    -0.299 OA
BRANCH   3   5
ATOM      5  C   UNL     1     138.155 120.044 125.869  1.00  0.00     0.072 C 
ATOM      6  C   UNL     1     139.646 119.881 125.594  1.00  0.00     0.012 C 
ENDBRANCH   3   5
ENDBRANCH   1   3
BRANCH   1   7
ATOM      7  C   UNL     1     137.643 123.012 123.791  1.00  0.00     0.038 C 
BRANCH   7   8
ATOM      8  C   UNL     1     139.004 123.419 124.291  1.00  0.00    -0.034 C 
ATOM      9  C   UNL     1     140.122 123.092 123.636  1.00  0.00     0.004 C 
ENDBRANCH   7   8
ENDBRANCH   1   7
TORSDOF 4
ENDMDL
MODEL 5
REMARK VINA RESULT:    -0.081     20.980     22.526
REMARK INTER + INTRA:          -0.612
REMARK INTER:                  -0.093
REMARK INTRA:                  -0.518
REMARK UNBOUND:                -0.512
REMARK SMILES C=CC[C@H](C)C(=O)CC
REMARK SMILES IDX 4 1 5 2 6 3 7 4 8 5 9 6 3 7 2 8 1 9
REMARK H PARENT
REMARK Flexibility Score: inf
ROOT
ATOM      1  C   UNL     1     137.991 137.387 139.208  1.00  0.00     0.057 C 
ATOM      2  C   UNL     1     137.660 137.700 137.742  1.00  0.00     0.016 C 
ENDROOT
BRANCH   1   3
ATOM      3  C   UNL     1     136.815 136.693 139.863  1.00  0.00     0.135 C 
ATOM      4  O   UNL     1     135.752 137.286 139.983  1.00  0.00    -0.299 OA
BRANCH   3   5
ATOM      5  C   UNL     1     136.931 135.284 140.383  1.00  0.00     0.072 C 
ATOM      6  C   UNL     1     138.238 134.646 139.925  1.00  0.00     0.012 C 
ENDBRANCH   3   5
ENDBRANCH   1   3
BRANCH   1   7
ATOM      7  C   UNL     1     138.357 138.662 139.996  1.00  0.00     0.038 C 
BRANCH   7   8
ATOM      8  C   UNL     1     139.029 138.353 141.308  1.00  0.00    -0.034 C 
ATOM      9  C   UNL     1     140.125 137.591 141.375  1.00  0.00     0.004 C 
ENDBRANCH   7   8
ENDBRANCH   1   7
TORSDOF 4
ENDMDL
MODEL 6
REMARK VINA RESULT:    -0.080     23.124     24.673
REMARK INTER + INTRA:          -0.611
REMARK INTER:                  -0.091
REMARK INTRA:                  -0.520
REMARK UNBOUND:                -0.512
REMARK SMILES C=CC[C@H](C)C(=O)CC
REMARK SMILES IDX 4 1 5 2 6 3 7 4 8 5 9 6 3 7 2 8 1 9
REMARK H PARENT
REMARK Flexibility Score: inf
ROOT
ATOM      1  C   UNL     1     122.268 138.163 124.542  1.00  0.00     0.057 C 
ATOM      2  C   UNL     1     123.390 137.573 125.408  1.00  0.00     0.016 C 
ENDROOT
BRANCH   1   3
ATOM      3  C   UNL     1     120.922 137.728 125.082  1.00  0.00     0.135 C 
ATOM      4  O   UNL     1     120.626 136.541 125.088  1.00  0.00    -0.299 OA
BRANCH   3   5
ATOM      5  C   UNL     1     119.929 138.734 125.604  1.00  0.00     0.072 C 
ATOM      6  C   UNL     1     120.556 140.122 125.681  1.00  0.00     0.012 C 
ENDBRANCH   3   5
ENDBRANCH   1   3
BRANCH   1   7
ATOM      7  C   UNL     1     122.405 137.741 123.064  1.00  0.00     0.038 C 
BRANCH   7   8
ATOM      8  C   UNL     1     121.625 138.636 122.138  1.00  0.00    -0.034 C 
ATOM      9  C   UNL     1     121.794 139.961 122.130  1.00  0.00     0.004 C 
ENDBRANCH   7   8
ENDBRANCH   1   7
TORSDOF 4
ENDMDL
MODEL 7
REMARK VINA RESULT:    -0.079      1.941      3.292
REMARK INTER + INTRA:          -0.610
REMARK INTER:                  -0.089
REMARK INTRA:                  -0.521
REMARK UNBOUND:                -0.512
REMARK SMILES C=CC[C@H](C)C(=O)CC
REMARK SMILES IDX 4 1 5 2 6 3 7 4 8 5 9 6 3 7 2 8 1 9
REMARK H PARENT
REMARK Flexibility Score: inf
ROOT
ATOM      1  C   UNL     1     138.795 121.874 125.391  1.00  0.00     0.057 C 
ATOM      2  C   UNL     1     138.904 121.329 126.821  1.00  0.00     0.016 C 
ENDROOT
BRANCH   1   3
ATOM      3  C   UNL     1     137.575 121.289 124.710  1.00  0.00     0.135 C 
ATOM      4  O   UNL     1     137.512 120.084 124.511  1.00  0.00    -0.299 OA
BRANCH   3   5
ATOM      5  C   UNL     1     136.436 122.167 124.260  1.00  0.00     0.072 C 
ATOM      6  C   UNL     1     136.638 123.601 124.738  1.00  0.00     0.012 C 
ENDBRANCH   3   5
ENDBRANCH   1   3
BRANCH   1   7
ATOM      7  C   UNL     1     140.060 121.564 124.563  1.00  0.00     0.038 C 
BRANCH   7   8
ATOM      8  C   UNL     1     140.124 122.368 123.291  1.00  0.00    -0.034 C 
ATOM      9  C   UNL     1     140.123 123.704 123.301  1.00  0.00     0.004 C 
ENDBRANCH   7   8
ENDBRANCH   1   7
TORSDOF 4
ENDMDL
MODEL 8
REMARK VINA RESULT:    -0.074     21.587     23.065
REMARK INTER + INTRA:          -0.603
REMARK INTER:                  -0.110
REMARK INTRA:                  -0.493
REMARK UNBOUND:                -0.512
REMARK SMILES C=CC[C@H](C)C(=O)CC
REMARK SMILES IDX 4 1 5 2 6 3 7 4 8 5 9 6 3 7 2 8 1 9
REMARK H PARENT
REMARK Flexibility Score: inf
ROOT
ATOM      1  C   UNL     1     137.121 137.303 139.739  1.00  0.00     0.057 C 
ATOM      2  C   UNL     1     137.399 137.058 138.249  1.00  0.00     0.016 C 
ENDROOT
BRANCH   1   3
ATOM      3  C   UNL     1     137.670 138.654 140.148  1.00  0.00     0.135 C 
ATOM      4  O   UNL     1     138.205 139.369 139.312  1.00  0.00    -0.299 OA
BRANCH   3   5
ATOM      5  C   UNL     1     137.580 139.133 141.573  1.00  0.00     0.072 C 
ATOM      6  C   UNL     1     138.965 139.469 142.118  1.00  0.00     0.012 C 
ENDBRANCH   3   5
ENDBRANCH   1   3
BRANCH   1   7
ATOM      7  C   UNL     1     137.731 136.196 140.624  1.00  0.00     0.038 C 
BRANCH   7   8
ATOM      8  C   UNL     1     139.183 135.947 140.312  1.00  0.00    -0.034 C 
ATOM      9  C   UNL     1     140.125 135.999 141.258  1.00  0.00     0.004 C 
ENDBRANCH   7   8
ENDBRANCH   1   7
TORSDOF 4
ENDMDL
MODEL 9
REMARK VINA RESULT:    -0.061      2.476      3.712
REMARK INTER + INTRA:          -0.587
REMARK INTER:                  -0.053
REMARK INTRA:                  -0.534
REMARK UNBOUND:                -0.512
REMARK SMILES C=CC[C@H](C)C(=O)CC
REMARK SMILES IDX 4 1 5 2 6 3 7 4 8 5 9 6 3 7 2 8 1 9
REMARK H PARENT
REMARK Flexibility Score: inf
ROOT
ATOM      1  C   UNL     1     139.052 123.481 125.927  1.00  0.00     0.057 C 
ATOM      2  C   UNL     1     139.298 123.347 127.436  1.00  0.00     0.016 C 
ENDROOT
BRANCH   1   3
ATOM      3  C   UNL     1     137.612 123.135 125.610  1.00  0.00     0.135 C 
ATOM      4  O   UNL     1     137.187 123.297 124.474  1.00  0.00    -0.299 OA
BRANCH   3   5
ATOM      5  C   UNL     1     136.685 122.604 126.671  1.00  0.00     0.072 C 
ATOM      6  C   UNL     1     136.390 121.125 126.440  1.00  0.00     0.012 C 
ENDBRANCH   3   5
ENDBRANCH   1   3
BRANCH   1   7
ATOM      7  C   UNL     1     140.003 122.581 125.111  1.00  0.00     0.038 C 
BRANCH   7   8
ATOM      8  C   UNL     1     140.124 121.197 125.694  1.00  0.00    -0.034 C 
ATOM      9  C   UNL     1     139.746 120.111 125.014  1.00  0.00     0.004 C 
ENDBRANCH   7   8
ENDBRANCH   1   7
TORSDOF 4
ENDMDL
