MODEL 1
REMARK VINA RESULT:    -4.713      0.000      0.000
REMARK INTER + INTRA:         -10.861
REMARK INTER:                  -8.846
REMARK INTRA:                  -2.015
REMARK UNBOUND:                -2.015
REMARK SMILES O=C([O-])CCCCCCCCCCCCCCC(=O)[O-]
REMARK SMILES IDX 10 1 9 2 8 3 7 4 6 5 5 6 4 7 2 8 1 9 3 10 11 11 12 12 13 13
REMARK SMILES IDX 14 14 15 15 16 16 17 17 18 18 19 19 20 20
REMARK H PARENT
REMARK Flexibility Score: inf
ROOT
ATOM      1  C   UNL     1      -8.977 -26.655  32.195  1.00  0.00     0.000 C 
ENDROOT
BRANCH   1   2
ATOM      2  C   UNL     1      -8.546 -28.008  31.599  1.00  0.00     0.000 C 
BRANCH   2   3
ATOM      3  C   UNL     1      -7.018 -28.136  31.477  1.00  0.00     0.000 C 
BRANCH   3   4
ATOM      4  C   UNL     1      -6.433 -27.190  30.415  1.00  0.00     0.000 C 
BRANCH   4   5
ATOM      5  C   UNL     1      -5.202 -26.414  30.917  1.00  0.00     0.000 C 
BRANCH   5   6
ATOM      6  C   UNL     1      -5.494 -24.994  31.437  1.00  0.00     0.006 C 
BRANCH   6   7
ATOM      7  C   UNL     1      -5.881 -24.970  32.921  1.00  0.00     0.053 C 
BRANCH   7   8
ATOM      8  C   UNL     1      -4.931 -25.805  33.721  1.00  0.00     0.041 C 
ATOM      9  O   UNL     1      -3.729 -25.453  33.848  1.00  0.00    -0.550 OA
ATOM     10  O   UNL     1      -5.384 -26.951  34.363  1.00  0.00    -0.550 OA
ENDBRANCH   7   8
ENDBRANCH   6   7
ENDBRANCH   5   6
ENDBRANCH   4   5
ENDBRANCH   3   4
ENDBRANCH   2   3
ENDBRANCH   1   2
BRANCH   1  11
ATOM     11  C   UNL     1     -10.040 -25.938  31.344  1.00  0.00     0.000 C 
BRANCH  11  12
ATOM     12  C   UNL     1      -9.483 -25.002  30.257  1.00  0.00     0.000 C 
BRANCH  12  13
ATOM     13  C   UNL     1     -10.064 -25.289  28.865  1.00  0.00     0.000 C 
BRANCH  13  14
ATOM     14  C   UNL     1      -8.997 -25.881  27.936  1.00  0.00     0.000 C 
BRANCH  14  15
ATOM     15  C   UNL     1      -8.980 -27.413  28.023  1.00  0.00     0.000 C 
BRANCH  15  16
ATOM     16  C   UNL     1      -9.708 -28.039  26.823  1.00  0.00     0.006 C 
BRANCH  16  17
ATOM     17  C   UNL     1     -11.030 -28.702  27.229  1.00  0.00     0.053 C 
BRANCH  17  18
ATOM     18  C   UNL     1     -12.159 -27.718  27.257  1.00  0.00     0.041 C 
ATOM     19  O   UNL     1     -12.238 -26.819  26.379  1.00  0.00    -0.550 OA
ATOM     20  O   UNL     1     -13.143 -27.814  28.233  1.00  0.00    -0.550 OA
ENDBRANCH  17  18
ENDBRANCH  16  17
ENDBRANCH  15  16
ENDBRANCH  14  15
ENDBRANCH  13  14
ENDBRANCH  12  13
ENDBRANCH  11  12
ENDBRANCH   1  11
TORSDOF 15
ENDMDL
MODEL 2
REMARK VINA RESULT:    -4.674      2.172      6.966
REMARK INTER + INTRA:         -10.788
REMARK INTER:                  -8.679
REMARK INTRA:                  -2.109
REMARK UNBOUND:                -2.015
REMARK SMILES O=C([O-])CCCCCCCCCCCCCCC(=O)[O-]
REMARK SMILES IDX 10 1 9 2 8 3 7 4 6 5 5 6 4 7 2 8 1 9 3 10 11 11 12 12 13 13
REMARK SMILES IDX 14 14 15 15 16 16 17 17 18 18 19 19 20 20
REMARK H PARENT
REMARK Flexibility Score: inf
ROOT
ATOM      1  C   UNL     1      -7.533 -26.629  29.727  1.00  0.00     0.000 C 
ENDROOT
BRANCH   1   2
ATOM      2  C   UNL     1      -8.274 -27.504  30.754  1.00  0.00     0.000 C 
BRANCH   2   3
ATOM      3  C   UNL     1      -9.596 -26.870  31.220  1.00  0.00     0.000 C 
BRANCH   3   4
ATOM      4  C   UNL     1     -10.153 -25.861  30.202  1.00  0.00     0.000 C 
BRANCH   4   5
ATOM      5  C   UNL     1     -11.115 -26.503  29.186  1.00  0.00     0.000 C 
BRANCH   5   6
ATOM      6  C   UNL     1     -10.674 -26.398  27.714  1.00  0.00     0.006 C 
BRANCH   6   7
ATOM      7  C   UNL     1      -9.871 -25.125  27.421  1.00  0.00     0.053 C 
BRANCH   7   8
ATOM      8  C   UNL     1     -10.625 -24.237  26.481  1.00  0.00     0.041 C 
ATOM      9  O   UNL     1     -10.858 -24.615  25.303  1.00  0.00    -0.550 OA
ATOM     10  O   UNL     1     -11.108 -23.012  26.920  1.00  0.00    -0.550 OA
ENDBRANCH   7   8
ENDBRANCH   6   7
ENDBRANCH   5   6
ENDBRANCH   4   5
ENDBRANCH   3   4
ENDBRANCH   2   3
ENDBRANCH   1   2
BRANCH   1  11
ATOM     11  C   UNL     1      -6.477 -27.411  28.926  1.00  0.00     0.000 C 
BRANCH  11  12
ATOM     12  C   UNL     1      -5.021 -27.193  29.377  1.00  0.00     0.000 C 
BRANCH  12  13
ATOM     13  C   UNL     1      -4.407 -28.435  30.040  1.00  0.00     0.000 C 
BRANCH  13  14
ATOM     14  C   UNL     1      -4.772 -28.500  31.528  1.00  0.00     0.000 C 
BRANCH  14  15
ATOM     15  C   UNL     1      -4.241 -27.273  32.280  1.00  0.00     0.000 C 
BRANCH  15  16
ATOM     16  C   UNL     1      -5.372 -26.564  33.042  1.00  0.00     0.006 C 
BRANCH  16  17
ATOM     17  C   UNL     1      -5.594 -25.129  32.547  1.00  0.00     0.053 C 
BRANCH  17  18
ATOM     18  C   UNL     1      -7.000 -24.671  32.786  1.00  0.00     0.041 C 
ATOM     19  O   UNL     1      -7.548 -23.869  31.985  1.00  0.00    -0.550 OA
ATOM     20  O   UNL     1      -7.715 -25.156  33.873  1.00  0.00    -0.550 OA
ENDBRANCH  17  18
ENDBRANCH  16  17
ENDBRANCH  15  16
ENDBRANCH  14  15
ENDBRANCH  13  14
ENDBRANCH  12  13
ENDBRANCH  11  12
ENDBRANCH   1  11
TORSDOF 15
ENDMDL
MODEL 3
REMARK VINA RESULT:    -4.669      2.866      3.748
REMARK INTER + INTRA:         -10.779
REMARK INTER:                  -9.153
REMARK INTRA:                  -1.626
REMARK UNBOUND:                -2.015
REMARK SMILES O=C([O-])CCCCCCCCCCCCCCC(=O)[O-]
REMARK SMILES IDX 10 1 9 2 8 3 7 4 6 5 5 6 4 7 2 8 1 9 3 10 11 11 12 12 13 13
REMARK SMILES IDX 14 14 15 15 16 16 17 17 18 18 19 19 20 20
REMARK H PARENT
REMARK Flexibility Score: inf
ROOT
ATOM      1  C   UNL     1      -9.242 -25.801  32.419  1.00  0.00     0.000 C 
ENDROOT
BRANCH   1   2
ATOM      2  C   UNL     1      -8.742 -24.585  31.617  1.00  0.00     0.000 C 
BRANCH   2   3
ATOM      3  C   UNL     1      -7.357 -24.824  30.992  1.00  0.00     0.000 C 
BRANCH   3   4
ATOM      4  C   UNL     1      -6.604 -25.987  31.659  1.00  0.00     0.000 C 
BRANCH   4   5
ATOM      5  C   UNL     1      -6.453 -27.211  30.737  1.00  0.00     0.000 C 
BRANCH   5   6
ATOM      6  C   UNL     1      -5.643 -26.962  29.452  1.00  0.00     0.006 C 
BRANCH   6   7
ATOM      7  C   UNL     1      -4.877 -28.204  28.979  1.00  0.00     0.053 C 
BRANCH   7   8
ATOM      8  C   UNL     1      -3.401 -27.978  29.086  1.00  0.00     0.041 C 
ATOM      9  O   UNL     1      -2.850 -27.916  30.217  1.00  0.00    -0.550 OA
ATOM     10  O   UNL     1      -2.628 -27.879  27.937  1.00  0.00    -0.550 OA
ENDBRANCH   7   8
ENDBRANCH   6   7
ENDBRANCH   5   6
ENDBRANCH   4   5
ENDBRANCH   3   4
ENDBRANCH   2   3
ENDBRANCH   1   2
BRANCH   1  11
ATOM     11  C   UNL     1     -10.442 -26.501  31.757  1.00  0.00     0.000 C 
BRANCH  11  12
ATOM     12  C   UNL     1     -10.662 -26.154  30.273  1.00  0.00     0.000 C 
BRANCH  12  13
ATOM     13  C   UNL     1      -9.863 -27.057  29.322  1.00  0.00     0.000 C 
BRANCH  13  14
ATOM     14  C   UNL     1      -9.454 -26.294  28.056  1.00  0.00     0.000 C 
BRANCH  14  15
ATOM     15  C   UNL     1     -10.244 -24.985  27.922  1.00  0.00     0.000 C 
BRANCH  15  16
ATOM     16  C   UNL     1     -10.025 -24.349  26.540  1.00  0.00     0.006 C 
BRANCH  16  17
ATOM     17  C   UNL     1     -11.119 -24.744  25.541  1.00  0.00     0.053 C 
BRANCH  17  18
ATOM     18  C   UNL     1     -12.055 -23.608  25.264  1.00  0.00     0.041 C 
ATOM     19  O   UNL     1     -13.098 -23.798  24.585  1.00  0.00    -0.550 OA
ATOM     20  O   UNL     1     -11.792 -22.347  25.783  1.00  0.00    -0.550 OA
ENDBRANCH  17  18
ENDBRANCH  16  17
ENDBRANCH  15  16
ENDBRANCH  14  15
ENDBRANCH  13  14
ENDBRANCH  12  13
ENDBRANCH  11  12
ENDBRANCH   1  11
TORSDOF 15
ENDMDL
MODEL 4
REMARK VINA RESULT:    -4.664      2.688      3.694
REMARK INTER + INTRA:         -10.769
REMARK INTER:                  -8.920
REMARK INTRA:                  -1.849
REMARK UNBOUND:                -2.015
REMARK SMILES O=C([O-])CCCCCCCCCCCCCCC(=O)[O-]
REMARK SMILES IDX 10 1 9 2 8 3 7 4 6 5 5 6 4 7 2 8 1 9 3 10 11 11 12 12 13 13
REMARK SMILES IDX 14 14 15 15 16 16 17 17 18 18 19 19 20 20
REMARK H PARENT
REMARK Flexibility Score: inf
ROOT
ATOM      1  C   UNL     1      -9.573 -25.029  29.942  1.00  0.00     0.000 C 
ENDROOT
BRANCH   1   2
ATOM      2  C   UNL     1      -9.160 -24.551  31.347  1.00  0.00     0.000 C 
BRANCH   2   3
ATOM      3  C   UNL     1      -8.941 -25.719  32.323  1.00  0.00     0.000 C 
BRANCH   3   4
ATOM      4  C   UNL     1      -7.528 -25.722  32.928  1.00  0.00     0.000 C 
BRANCH   4   5
ATOM      5  C   UNL     1      -6.542 -24.830  32.151  1.00  0.00     0.000 C 
BRANCH   5   6
ATOM      6  C   UNL     1      -5.307 -25.559  31.589  1.00  0.00     0.006 C 
BRANCH   6   7
ATOM      7  C   UNL     1      -5.592 -27.021  31.223  1.00  0.00     0.053 C 
BRANCH   7   8
ATOM      8  C   UNL     1      -4.832 -27.409  29.994  1.00  0.00     0.041 C 
ATOM      9  O   UNL     1      -3.574 -27.452  30.014  1.00  0.00    -0.550 OA
ATOM     10  O   UNL     1      -5.514 -27.765  28.838  1.00  0.00    -0.550 OA
ENDBRANCH   7   8
ENDBRANCH   6   7
ENDBRANCH   5   6
ENDBRANCH   4   5
ENDBRANCH   3   4
ENDBRANCH   2   3
ENDBRANCH   1   2
BRANCH   1  11
ATOM     11  C   UNL     1      -8.526 -25.952  29.293  1.00  0.00     0.000 C 
BRANCH  11  12
ATOM     12  C   UNL     1      -9.105 -27.111  28.461  1.00  0.00     0.000 C 
BRANCH  12  13
ATOM     13  C   UNL     1     -10.593 -27.365  28.743  1.00  0.00     0.000 C 
BRANCH  13  14
ATOM     14  C   UNL     1     -11.420 -27.265  27.455  1.00  0.00     0.000 C 
BRANCH  14  15
ATOM     15  C   UNL     1     -10.585 -26.681  26.308  1.00  0.00     0.000 C 
BRANCH  15  16
ATOM     16  C   UNL     1     -11.189 -25.362  25.803  1.00  0.00     0.006 C 
BRANCH  16  17
ATOM     17  C   UNL     1     -10.464 -24.136  26.373  1.00  0.00     0.053 C 
BRANCH  17  18
ATOM     18  C   UNL     1     -11.197 -22.866  26.068  1.00  0.00     0.041 C 
ATOM     19  O   UNL     1     -10.789 -21.771  26.538  1.00  0.00    -0.550 OA
ATOM     20  O   UNL     1     -12.311 -22.887  25.239  1.00  0.00    -0.550 OA
ENDBRANCH  17  18
ENDBRANCH  16  17
ENDBRANCH  15  16
ENDBRANCH  14  15
ENDBRANCH  13  14
ENDBRANCH  12  13
ENDBRANCH  11  12
ENDBRANCH   1  11
TORSDOF 15
ENDMDL
MODEL 5
REMARK VINA RESULT:    -4.656      2.241      7.108
REMARK INTER + INTRA:         -10.753
REMARK INTER:                  -8.669
REMARK INTRA:                  -2.084
REMARK UNBOUND:                -2.015
REMARK SMILES O=C([O-])CCCCCCCCCCCCCCC(=O)[O-]
REMARK SMILES IDX 10 1 9 2 8 3 7 4 6 5 5 6 4 7 2 8 1 9 3 10 11 11 12 12 13 13
REMARK SMILES IDX 14 14 15 15 16 16 17 17 18 18 19 19 20 20
REMARK H PARENT
REMARK Flexibility Score: inf
ROOT
ATOM      1  C   UNL     1      -9.948 -25.209  29.924  1.00  0.00     0.000 C 
ENDROOT
BRANCH   1   2
ATOM      2  C   UNL     1      -8.723 -25.648  29.099  1.00  0.00     0.000 C 
BRANCH   2   3
ATOM      3  C   UNL     1      -8.660 -27.173  28.909  1.00  0.00     0.000 C 
BRANCH   3   4
ATOM      4  C   UNL     1      -9.143 -27.611  27.516  1.00  0.00     0.000 C 
BRANCH   4   5
ATOM      5  C   UNL     1     -10.641 -27.964  27.484  1.00  0.00     0.000 C 
BRANCH   5   6
ATOM      6  C   UNL     1     -11.546 -26.907  26.823  1.00  0.00     0.006 C 
BRANCH   6   7
ATOM      7  C   UNL     1     -10.757 -25.854  26.036  1.00  0.00     0.053 C 
BRANCH   7   8
ATOM      8  C   UNL     1     -11.692 -24.937  25.311  1.00  0.00     0.041 C 
ATOM      9  O   UNL     1     -12.643 -25.408  24.633  1.00  0.00    -0.550 OA
ATOM     10  O   UNL     1     -11.539 -23.561  25.421  1.00  0.00    -0.550 OA
ENDBRANCH   7   8
ENDBRANCH   6   7
ENDBRANCH   5   6
ENDBRANCH   4   5
ENDBRANCH   3   4
ENDBRANCH   2   3
ENDBRANCH   1   2
BRANCH   1  11
ATOM     11  C   UNL     1     -10.304 -26.204  31.042  1.00  0.00     0.000 C 
BRANCH  11  12
ATOM     12  C   UNL     1      -9.935 -25.746  32.465  1.00  0.00     0.000 C 
BRANCH  12  13
ATOM     13  C   UNL     1      -8.479 -26.060  32.837  1.00  0.00     0.000 C 
BRANCH  13  14
ATOM     14  C   UNL     1      -7.638 -24.779  32.894  1.00  0.00     0.000 C 
BRANCH  14  15
ATOM     15  C   UNL     1      -6.458 -24.850  31.917  1.00  0.00     0.000 C 
BRANCH  15  16
ATOM     16  C   UNL     1      -6.043 -26.308  31.663  1.00  0.00     0.006 C 
BRANCH  16  17
ATOM     17  C   UNL     1      -5.274 -26.470  30.345  1.00  0.00     0.053 C 
BRANCH  17  18
ATOM     18  C   UNL     1      -4.973 -27.908  30.051  1.00  0.00     0.041 C 
ATOM     19  O   UNL     1      -4.778 -28.720  30.993  1.00  0.00    -0.550 OA
ATOM     20  O   UNL     1      -4.943 -28.358  28.737  1.00  0.00    -0.550 OA
ENDBRANCH  17  18
ENDBRANCH  16  17
ENDBRANCH  15  16
ENDBRANCH  14  15
ENDBRANCH  13  14
ENDBRANCH  12  13
ENDBRANCH  11  12
ENDBRANCH   1  11
TORSDOF 15
ENDMDL
MODEL 6
REMARK VINA RESULT:    -4.588      1.826      6.896
REMARK INTER + INTRA:         -10.626
REMARK INTER:                  -8.623
REMARK INTRA:                  -2.003
REMARK UNBOUND:                -2.015
REMARK SMILES O=C([O-])CCCCCCCCCCCCCCC(=O)[O-]
REMARK SMILES IDX 10 1 9 2 8 3 7 4 6 5 5 6 4 7 2 8 1 9 3 10 11 11 12 12 13 13
REMARK SMILES IDX 14 14 15 15 16 16 17 17 18 18 19 19 20 20
REMARK H PARENT
REMARK Flexibility Score: inf
ROOT
ATOM      1  C   UNL     1      -7.375 -27.976  31.486  1.00  0.00     0.000 C 
ENDROOT
BRANCH   1   2
ATOM      2  C   UNL     1      -8.899 -27.967  31.268  1.00  0.00     0.000 C 
BRANCH   2   3
ATOM      3  C   UNL     1      -9.584 -26.779  31.965  1.00  0.00     0.000 C 
BRANCH   3   4
ATOM      4  C   UNL     1     -10.411 -25.924  30.990  1.00  0.00     0.000 C 
BRANCH   4   5
ATOM      5  C   UNL     1      -9.538 -25.049  30.071  1.00  0.00     0.000 C 
BRANCH   5   6
ATOM      6  C   UNL     1      -9.548 -25.452  28.585  1.00  0.00     0.006 C 
BRANCH   6   7
ATOM      7  C   UNL     1     -10.613 -26.507  28.260  1.00  0.00     0.053 C 
BRANCH   7   8
ATOM      8  C   UNL     1      -9.992 -27.674  27.557  1.00  0.00     0.041 C 
ATOM      9  O   UNL     1      -8.746 -27.719  27.383  1.00  0.00    -0.550 OA
ATOM     10  O   UNL     1     -10.785 -28.732  27.133  1.00  0.00    -0.550 OA
ENDBRANCH   7   8
ENDBRANCH   6   7
ENDBRANCH   5   6
ENDBRANCH   4   5
ENDBRANCH   3   4
ENDBRANCH   2   3
ENDBRANCH   1   2
BRANCH   1  11
ATOM     11  C   UNL     1      -6.586 -27.618  30.214  1.00  0.00     0.000 C 
BRANCH  11  12
ATOM     12  C   UNL     1      -5.098 -28.013  30.236  1.00  0.00     0.000 C 
BRANCH  12  13
ATOM     13  C   UNL     1      -4.686 -28.722  31.535  1.00  0.00     0.000 C 
BRANCH  13  14
ATOM     14  C   UNL     1      -3.446 -28.060  32.151  1.00  0.00     0.000 C 
BRANCH  14  15
ATOM     15  C   UNL     1      -3.637 -27.827  33.655  1.00  0.00     0.000 C 
BRANCH  15  16
ATOM     16  C   UNL     1      -4.824 -26.886  33.918  1.00  0.00     0.006 C 
BRANCH  16  17
ATOM     17  C   UNL     1      -4.522 -25.441  33.504  1.00  0.00     0.053 C 
BRANCH  17  18
ATOM     18  C   UNL     1      -5.516 -24.930  32.507  1.00  0.00     0.041 C 
ATOM     19  O   UNL     1      -5.178 -24.758  31.306  1.00  0.00    -0.550 OA
ATOM     20  O   UNL     1      -6.825 -24.674  32.896  1.00  0.00    -0.550 OA
ENDBRANCH  17  18
ENDBRANCH  16  17
ENDBRANCH  15  16
ENDBRANCH  14  15
ENDBRANCH  13  14
ENDBRANCH  12  13
ENDBRANCH  11  12
ENDBRANCH   1  11
TORSDOF 15
ENDMDL
MODEL 7
REMARK VINA RESULT:    -4.581      1.488      3.178
REMARK INTER + INTRA:         -10.614
REMARK INTER:                  -8.532
REMARK INTRA:                  -2.082
REMARK UNBOUND:                -2.015
REMARK SMILES O=C([O-])CCCCCCCCCCCCCCC(=O)[O-]
REMARK SMILES IDX 10 1 9 2 8 3 7 4 6 5 5 6 4 7 2 8 1 9 3 10 11 11 12 12 13 13
REMARK SMILES IDX 14 14 15 15 16 16 17 17 18 18 19 19 20 20
REMARK H PARENT
REMARK Flexibility Score: inf
ROOT
ATOM      1  C   UNL     1      -6.631 -26.452  31.093  1.00  0.00     0.000 C 
ENDROOT
BRANCH   1   2
ATOM      2  C   UNL     1      -6.617 -24.945  31.409  1.00  0.00     0.000 C 
BRANCH   2   3
ATOM      3  C   UNL     1      -7.371 -24.611  32.708  1.00  0.00     0.000 C 
BRANCH   3   4
ATOM      4  C   UNL     1      -6.429 -24.146  33.831  1.00  0.00     0.000 C 
BRANCH   4   5
ATOM      5  C   UNL     1      -6.657 -24.899  35.154  1.00  0.00     0.000 C 
BRANCH   5   6
ATOM      6  C   UNL     1      -5.444 -25.695  35.669  1.00  0.00     0.006 C 
BRANCH   6   7
ATOM      7  C   UNL     1      -5.105 -26.903  34.787  1.00  0.00     0.053 C 
BRANCH   7   8
ATOM      8  C   UNL     1      -3.887 -26.622  33.964  1.00  0.00     0.041 C 
ATOM      9  O   UNL     1      -3.099 -25.697  34.293  1.00  0.00    -0.550 OA
ATOM     10  O   UNL     1      -3.599 -27.411  32.858  1.00  0.00    -0.550 OA
ENDBRANCH   7   8
ENDBRANCH   6   7
ENDBRANCH   5   6
ENDBRANCH   4   5
ENDBRANCH   3   4
ENDBRANCH   2   3
ENDBRANCH   1   2
BRANCH   1  11
ATOM     11  C   UNL     1      -7.490 -27.262  32.080  1.00  0.00     0.000 C 
BRANCH  11  12
ATOM     12  C   UNL     1      -8.807 -27.809  31.501  1.00  0.00     0.000 C 
BRANCH  12  13
ATOM     13  C   UNL     1      -9.971 -26.814  31.619  1.00  0.00     0.000 C 
BRANCH  13  14
ATOM     14  C   UNL     1     -10.526 -26.453  30.235  1.00  0.00     0.000 C 
BRANCH  14  15
ATOM     15  C   UNL     1      -9.861 -25.182  29.690  1.00  0.00     0.000 C 
BRANCH  15  16
ATOM     16  C   UNL     1      -9.150 -25.461  28.357  1.00  0.00     0.006 C 
BRANCH  16  17
ATOM     17  C   UNL     1      -8.953 -26.962  28.108  1.00  0.00     0.053 C 
BRANCH  17  18
ATOM     18  C   UNL     1      -9.724 -27.433  26.914  1.00  0.00     0.041 C 
ATOM     19  O   UNL     1      -9.549 -28.597  26.465  1.00  0.00    -0.550 OA
ATOM     20  O   UNL     1     -10.661 -26.600  26.317  1.00  0.00    -0.550 OA
ENDBRANCH  17  18
ENDBRANCH  16  17
ENDBRANCH  15  16
ENDBRANCH  14  15
ENDBRANCH  13  14
ENDBRANCH  12  13
ENDBRANCH  11  12
ENDBRANCH   1  11
TORSDOF 15
ENDMDL
MODEL 8
REMARK VINA RESULT:    -4.570      1.935      2.817
REMARK INTER + INTRA:         -10.593
REMARK INTER:                  -8.508
REMARK INTRA:                  -2.085
REMARK UNBOUND:                -2.015
REMARK SMILES O=C([O-])CCCCCCCCCCCCCCC(=O)[O-]
REMARK SMILES IDX 10 1 9 2 8 3 7 4 6 5 5 6 4 7 2 8 1 9 3 10 11 11 12 12 13 13
REMARK SMILES IDX 14 14 15 15 16 16 17 17 18 18 19 19 20 20
REMARK H PARENT
REMARK Flexibility Score: inf
ROOT
ATOM      1  C   UNL     1      -7.311 -25.409  31.808  1.00  0.00     0.000 C 
ENDROOT
BRANCH   1   2
ATOM      2  C   UNL     1      -7.312 -26.859  32.330  1.00  0.00     0.000 C 
BRANCH   2   3
ATOM      3  C   UNL     1      -7.130 -27.888  31.201  1.00  0.00     0.000 C 
BRANCH   3   4
ATOM      4  C   UNL     1      -6.510 -27.269  29.937  1.00  0.00     0.000 C 
BRANCH   4   5
ATOM      5  C   UNL     1      -5.219 -27.982  29.492  1.00  0.00     0.000 C 
BRANCH   5   6
ATOM      6  C   UNL     1      -3.938 -27.517  30.209  1.00  0.00     0.006 C 
BRANCH   6   7
ATOM      7  C   UNL     1      -3.418 -28.542  31.225  1.00  0.00     0.053 C 
BRANCH   7   8
ATOM      8  C   UNL     1      -3.730 -28.098  32.620  1.00  0.00     0.041 C 
ATOM      9  O   UNL     1      -3.822 -28.943  33.549  1.00  0.00    -0.550 OA
ATOM     10  O   UNL     1      -3.875 -26.746  32.903  1.00  0.00    -0.550 OA
ENDBRANCH   7   8
ENDBRANCH   6   7
ENDBRANCH   5   6
ENDBRANCH   4   5
ENDBRANCH   3   4
ENDBRANCH   2   3
ENDBRANCH   1   2
BRANCH   1  11
ATOM     11  C   UNL     1      -8.713 -24.775  31.801  1.00  0.00     0.000 C 
BRANCH  11  12
ATOM     12  C   UNL     1      -9.799 -25.585  32.532  1.00  0.00     0.000 C 
BRANCH  12  13
ATOM     13  C   UNL     1     -10.775 -26.281  31.572  1.00  0.00     0.000 C 
BRANCH  13  14
ATOM     14  C   UNL     1     -10.488 -25.887  30.117  1.00  0.00     0.000 C 
BRANCH  14  15
ATOM     15  C   UNL     1     -10.160 -27.121  29.267  1.00  0.00     0.000 C 
BRANCH  15  16
ATOM     16  C   UNL     1      -9.892 -26.727  27.806  1.00  0.00     0.006 C 
BRANCH  16  17
ATOM     17  C   UNL     1      -9.627 -25.224  27.650  1.00  0.00     0.053 C 
BRANCH  17  18
ATOM     18  C   UNL     1     -10.512 -24.609  26.611  1.00  0.00     0.041 C 
ATOM     19  O   UNL     1     -10.839 -25.267  25.588  1.00  0.00    -0.550 OA
ATOM     20  O   UNL     1     -11.003 -23.322  26.787  1.00  0.00    -0.550 OA
ENDBRANCH  17  18
ENDBRANCH  16  17
ENDBRANCH  15  16
ENDBRANCH  14  15
ENDBRANCH  13  14
ENDBRANCH  12  13
ENDBRANCH  11  12
ENDBRANCH   1  11
TORSDOF 15
ENDMDL
MODEL 9
REMARK VINA RESULT:    -4.544      2.541      6.923
REMARK INTER + INTRA:         -10.544
REMARK INTER:                  -8.702
REMARK INTRA:                  -1.842
REMARK UNBOUND:                -2.015
REMARK SMILES O=C([O-])CCCCCCCCCCCCCCC(=O)[O-]
REMARK SMILES IDX 10 1 9 2 8 3 7 4 6 5 5 6 4 7 2 8 1 9 3 10 11 11 12 12 13 13
REMARK SMILES IDX 14 14 15 15 16 16 17 17 18 18 19 19 20 20
REMARK H PARENT
REMARK Flexibility Score: inf
ROOT
ATOM      1  C   UNL     1      -9.444 -25.510  31.941  1.00  0.00     0.000 C 
ENDROOT
BRANCH   1   2
ATOM      2  C   UNL     1      -9.978 -26.458  30.851  1.00  0.00     0.000 C 
BRANCH   2   3
ATOM      3  C   UNL     1      -8.970 -27.562  30.489  1.00  0.00     0.000 C 
BRANCH   3   4
ATOM      4  C   UNL     1      -8.201 -27.253  29.194  1.00  0.00     0.000 C 
BRANCH   4   5
ATOM      5  C   UNL     1      -8.924 -26.232  28.297  1.00  0.00     0.000 C 
BRANCH   5   6
ATOM      6  C   UNL     1      -9.708 -26.839  27.118  1.00  0.00     0.006 C 
BRANCH   6   7
ATOM      7  C   UNL     1     -11.100 -26.218  26.945  1.00  0.00     0.053 C 
BRANCH   7   8
ATOM      8  C   UNL     1     -11.073 -25.171  25.875  1.00  0.00     0.041 C 
ATOM      9  O   UNL     1     -11.797 -25.292  24.852  1.00  0.00    -0.550 OA
ATOM     10  O   UNL     1     -10.282 -24.040  26.029  1.00  0.00    -0.550 OA
ENDBRANCH   7   8
ENDBRANCH   6   7
ENDBRANCH   5   6
ENDBRANCH   4   5
ENDBRANCH   3   4
ENDBRANCH   2   3
ENDBRANCH   1   2
BRANCH   1  11
ATOM     11  C   UNL     1      -8.794 -24.240  31.363  1.00  0.00     0.000 C 
BRANCH  11  12
ATOM     12  C   UNL     1      -7.256 -24.267  31.297  1.00  0.00     0.000 C 
BRANCH  12  13
ATOM     13  C   UNL     1      -6.633 -25.275  32.272  1.00  0.00     0.000 C 
BRANCH  13  14
ATOM     14  C   UNL     1      -5.139 -25.470  31.980  1.00  0.00     0.000 C 
BRANCH  14  15
ATOM     15  C   UNL     1      -4.711 -26.919  32.245  1.00  0.00     0.000 C 
BRANCH  15  16
ATOM     16  C   UNL     1      -5.118 -27.834  31.079  1.00  0.00     0.006 C 
BRANCH  16  17
ATOM     17  C   UNL     1      -4.639 -27.296  29.725  1.00  0.00     0.053 C 
BRANCH  17  18
ATOM     18  C   UNL     1      -3.523 -28.122  29.162  1.00  0.00     0.041 C 
ATOM     19  O   UNL     1      -3.728 -28.871  28.170  1.00  0.00    -0.550 OA
ATOM     20  O   UNL     1      -2.250 -28.040  29.711  1.00  0.00    -0.550 OA
ENDBRANCH  17  18
ENDBRANCH  16  17
ENDBRANCH  15  16
ENDBRANCH  14  15
ENDBRANCH  13  14
ENDBRANCH  12  13
ENDBRANCH  11  12
ENDBRANCH   1  11
TORSDOF 15
ENDMDL
