MODEL 1
REMARK VINA RESULT:    -3.271      0.000      0.000
REMARK INTER + INTRA:          -3.919
REMARK INTER:                  -3.749
REMARK INTRA:                  -0.171
REMARK UNBOUND:                -0.171
REMARK SMILES CC=Cc1ccc(O)c(OC)c1
REMARK SMILES IDX 4 1 12 2 9 3 7 4 6 5 5 6 3 7 1 8 2 9 10 10 11 11 8 12
REMARK H PARENT 8 13
REMARK Flexibility Score: inf
ROOT
ATOM      1  C   UNL     1     128.050 126.625 116.985  1.00  0.00    -0.022 A 
ATOM      2  C   UNL     1     128.609 125.529 117.663  1.00  0.00     0.058 A 
ATOM      3  C   UNL     1     129.007 124.373 116.963  1.00  0.00     0.161 A 
ATOM      4  C   UNL     1     128.831 124.317 115.573  1.00  0.00     0.157 A 
ATOM      5  C   UNL     1     128.262 125.400 114.893  1.00  0.00     0.051 A 
ATOM      6  C   UNL     1     127.870 126.544 115.590  1.00  0.00     0.012 A 
ENDROOT
BRANCH   1   7
ATOM      7  C   UNL     1     127.640 127.814 117.773  1.00  0.00     0.003 C 
ATOM      8  C   UNL     1     126.045 129.455 118.688  1.00  0.00     0.035 C 
ATOM      9  C   UNL     1     126.375 128.238 117.885  1.00  0.00    -0.030 C 
ENDBRANCH   1   7
BRANCH   3  10
ATOM     10  O   UNL     1     129.576 123.265 117.609  1.00  0.00    -0.493 OA
ATOM     11  C   UNL     1     128.833 122.254 118.284  1.00  0.00     0.278 C 
ENDBRANCH   3  10
BRANCH   4  12
ATOM     12  O   UNL     1     129.224 123.176 114.875  1.00  0.00    -0.504 OA
ATOM     13  H   UNL     1     130.108 123.135 114.381  1.00  0.00     0.293 HD
ENDBRANCH   4  12
TORSDOF 3
ENDMDL
MODEL 2
REMARK VINA RESULT:    -3.210     13.655     15.220
REMARK INTER + INTRA:          -3.850
REMARK INTER:                  -3.692
REMARK INTRA:                  -0.158
REMARK UNBOUND:                -0.171
REMARK SMILES CC=Cc1ccc(O)c(OC)c1
REMARK SMILES IDX 4 1 12 2 9 3 7 4 6 5 5 6 3 7 1 8 2 9 10 10 11 11 8 12
REMARK H PARENT 8 13
REMARK Flexibility Score: inf
ROOT
ATOM      1  C   UNL     1     112.483 127.839 116.988  1.00  0.00    -0.022 A 
ATOM      2  C   UNL     1     113.587 128.367 117.679  1.00  0.00     0.058 A 
ATOM      3  C   UNL     1     114.724 128.823 116.983  1.00  0.00     0.161 A 
ATOM      4  C   UNL     1     114.753 128.739 115.584  1.00  0.00     0.157 A 
ATOM      5  C   UNL     1     113.662 128.201 114.890  1.00  0.00     0.051 A 
ATOM      6  C   UNL     1     112.537 127.751 115.583  1.00  0.00     0.012 A 
ENDROOT
BRANCH   1   7
ATOM      7  C   UNL     1     111.315 127.365 117.771  1.00  0.00     0.003 C 
ATOM      8  C   UNL     1     109.875 125.681 118.849  1.00  0.00     0.035 C 
ATOM      9  C   UNL     1     111.084 126.080 118.065  1.00  0.00    -0.030 C 
ENDBRANCH   1   7
BRANCH   3  10
ATOM     10  O   UNL     1     115.839 129.363 117.643  1.00  0.00    -0.493 OA
ATOM     11  C   UNL     1     116.922 128.595 118.158  1.00  0.00     0.278 C 
ENDBRANCH   3  10
BRANCH   4  12
ATOM     12  O   UNL     1     115.875 129.190 114.890  1.00  0.00    -0.504 OA
ATOM     13  H   UNL     1     116.134 128.800 113.992  1.00  0.00     0.293 HD
ENDBRANCH   4  12
TORSDOF 3
ENDMDL
MODEL 3
REMARK VINA RESULT:    -2.879      8.818     10.186
REMARK INTER + INTRA:          -3.471
REMARK INTER:                  -3.319
REMARK INTRA:                  -0.152
REMARK UNBOUND:                -0.171
REMARK SMILES CC=Cc1ccc(O)c(OC)c1
REMARK SMILES IDX 4 1 12 2 9 3 7 4 6 5 5 6 3 7 1 8 2 9 10 10 11 11 8 12
REMARK H PARENT 8 13
REMARK Flexibility Score: inf
ROOT
ATOM      1  C   UNL     1     119.787 125.713 117.043  1.00  0.00    -0.022 A 
ATOM      2  C   UNL     1     118.707 126.342 117.686  1.00  0.00     0.058 A 
ATOM      3  C   UNL     1     117.816 127.162 116.966  1.00  0.00     0.161 A 
ATOM      4  C   UNL     1     118.019 127.358 115.593  1.00  0.00     0.157 A 
ATOM      5  C   UNL     1     119.101 126.747 114.949  1.00  0.00     0.051 A 
ATOM      6  C   UNL     1     119.982 125.934 115.665  1.00  0.00     0.012 A 
ENDROOT
BRANCH   1   7
ATOM      7  C   UNL     1     120.700 124.867 117.851  1.00  0.00     0.003 C 
ATOM      8  C   UNL     1     122.397 124.421 119.581  1.00  0.00     0.035 C 
ATOM      9  C   UNL     1     121.494 125.338 118.820  1.00  0.00    -0.030 C 
ENDBRANCH   1   7
BRANCH   3  10
ATOM     10  O   UNL     1     116.723 127.797 117.576  1.00  0.00    -0.493 OA
ATOM     11  C   UNL     1     116.718 128.286 118.914  1.00  0.00     0.278 C 
ENDBRANCH   3  10
BRANCH   4  12
ATOM     12  O   UNL     1     117.140 128.168 114.876  1.00  0.00    -0.504 OA
ATOM     13  H   UNL     1     116.579 127.799 114.117  1.00  0.00     0.293 HD
ENDBRANCH   4  12
TORSDOF 3
ENDMDL
MODEL 4
REMARK VINA RESULT:    -2.872     16.762     17.118
REMARK INTER + INTRA:          -3.462
REMARK INTER:                  -3.297
REMARK INTRA:                  -0.166
REMARK UNBOUND:                -0.171
REMARK SMILES CC=Cc1ccc(O)c(OC)c1
REMARK SMILES IDX 4 1 12 2 9 3 7 4 6 5 5 6 3 7 1 8 2 9 10 10 11 11 8 12
REMARK H PARENT 8 13
REMARK Flexibility Score: inf
ROOT
ATOM      1  C   UNL     1     113.385 119.804 117.191  1.00  0.00    -0.022 A 
ATOM      2  C   UNL     1     112.734 118.728 117.820  1.00  0.00     0.058 A 
ATOM      3  C   UNL     1     111.952 117.822 117.077  1.00  0.00     0.161 A 
ATOM      4  C   UNL     1     111.816 118.007 115.694  1.00  0.00     0.157 A 
ATOM      5  C   UNL     1     112.449 119.084 115.063  1.00  0.00     0.051 A 
ATOM      6  C   UNL     1     113.224 119.979 115.803  1.00  0.00     0.012 A 
ENDROOT
BRANCH   1   7
ATOM      7  C   UNL     1     114.189 120.733 118.023  1.00  0.00     0.003 C 
ATOM      8  C   UNL     1     114.541 122.537 119.664  1.00  0.00     0.035 C 
ATOM      9  C   UNL     1     113.662 121.626 118.870  1.00  0.00    -0.030 C 
ENDBRANCH   1   7
BRANCH   3  10
ATOM     10  O   UNL     1     111.298 116.734 117.673  1.00  0.00    -0.493 OA
ATOM     11  C   UNL     1     110.036 116.812 118.329  1.00  0.00     0.278 C 
ENDBRANCH   3  10
BRANCH   4  12
ATOM     12  O   UNL     1     111.044 117.113 114.953  1.00  0.00    -0.504 OA
ATOM     13  H   UNL     1     110.357 117.436 114.281  1.00  0.00     0.293 HD
ENDBRANCH   4  12
TORSDOF 3
ENDMDL
MODEL 5
REMARK VINA RESULT:    -2.857      3.707      5.774
REMARK INTER + INTRA:          -3.445
REMARK INTER:                  -3.271
REMARK INTRA:                  -0.174
REMARK UNBOUND:                -0.171
REMARK SMILES CC=Cc1ccc(O)c(OC)c1
REMARK SMILES IDX 4 1 12 2 9 3 7 4 6 5 5 6 3 7 1 8 2 9 10 10 11 11 8 12
REMARK H PARENT 8 13
REMARK Flexibility Score: inf
ROOT
ATOM      1  C   UNL     1     127.751 128.165 117.755  1.00  0.00    -0.022 A 
ATOM      2  C   UNL     1     126.391 127.808 117.737  1.00  0.00     0.058 A 
ATOM      3  C   UNL     1     125.470 128.428 118.606  1.00  0.00     0.161 A 
ATOM      4  C   UNL     1     125.923 129.403 119.504  1.00  0.00     0.157 A 
ATOM      5  C   UNL     1     127.278 129.753 119.537  1.00  0.00     0.051 A 
ATOM      6  C   UNL     1     128.188 129.138 118.675  1.00  0.00     0.012 A 
ENDROOT
BRANCH   1   7
ATOM      7  C   UNL     1     128.679 127.475 116.825  1.00  0.00     0.003 C 
ATOM      8  C   UNL     1     129.281 126.093 114.875  1.00  0.00     0.035 C 
ATOM      9  C   UNL     1     128.282 126.772 115.757  1.00  0.00    -0.030 C 
ENDBRANCH   1   7
BRANCH   3  10
ATOM     10  O   UNL     1     124.106 128.100 118.606  1.00  0.00    -0.493 OA
ATOM     11  C   UNL     1     123.566 126.891 119.130  1.00  0.00     0.278 C 
ENDBRANCH   3  10
BRANCH   4  12
ATOM     12  O   UNL     1     125.016 130.020 120.365  1.00  0.00    -0.504 OA
ATOM     13  H   UNL     1     124.859 129.675 121.305  1.00  0.00     0.293 HD
ENDBRANCH   4  12
TORSDOF 3
ENDMDL
MODEL 6
REMARK VINA RESULT:    -2.856     10.700     13.983
REMARK INTER + INTRA:          -3.444
REMARK INTER:                  -3.271
REMARK INTRA:                  -0.173
REMARK UNBOUND:                -0.171
REMARK SMILES CC=Cc1ccc(O)c(OC)c1
REMARK SMILES IDX 4 1 12 2 9 3 7 4 6 5 5 6 3 7 1 8 2 9 10 10 11 11 8 12
REMARK H PARENT 8 13
REMARK Flexibility Score: inf
ROOT
ATOM      1  C   UNL     1     128.153 111.432 117.813  1.00  0.00    -0.022 A 
ATOM      2  C   UNL     1     127.780 112.786 117.802  1.00  0.00     0.058 A 
ATOM      3  C   UNL     1     128.370 113.706 118.692  1.00  0.00     0.161 A 
ATOM      4  C   UNL     1     129.333 113.257 119.604  1.00  0.00     0.157 A 
ATOM      5  C   UNL     1     129.700 111.906 119.631  1.00  0.00     0.051 A 
ATOM      6  C   UNL     1     129.114 110.998 118.747  1.00  0.00     0.012 A 
ENDROOT
BRANCH   1   7
ATOM      7  C   UNL     1     127.493 110.505 116.861  1.00  0.00     0.003 C 
ATOM      8  C   UNL     1     126.161 109.905 114.876  1.00  0.00     0.035 C 
ATOM      9  C   UNL     1     126.810 110.903 115.781  1.00  0.00    -0.030 C 
ENDBRANCH   1   7
BRANCH   3  10
ATOM     10  O   UNL     1     128.025 115.066 118.699  1.00  0.00    -0.493 OA
ATOM     11  C   UNL     1     126.778 115.581 119.157  1.00  0.00     0.278 C 
ENDBRANCH   3  10
BRANCH   4  12
ATOM     12  O   UNL     1     129.922 114.163 120.486  1.00  0.00    -0.504 OA
ATOM     13  H   UNL     1     130.903 114.102 120.732  1.00  0.00     0.293 HD
ENDBRANCH   4  12
TORSDOF 3
ENDMDL
MODEL 7
REMARK VINA RESULT:    -2.849     15.232     15.522
REMARK INTER + INTRA:          -3.436
REMARK INTER:                  -3.267
REMARK INTRA:                  -0.169
REMARK UNBOUND:                -0.171
REMARK SMILES CC=Cc1ccc(O)c(OC)c1
REMARK SMILES IDX 4 1 12 2 9 3 7 4 6 5 5 6 3 7 1 8 2 9 10 10 11 11 8 12
REMARK H PARENT 8 13
REMARK Flexibility Score: inf
ROOT
ATOM      1  C   UNL     1     119.118 113.401 117.245  1.00  0.00    -0.022 A 
ATOM      2  C   UNL     1     120.233 112.771 117.822  1.00  0.00     0.058 A 
ATOM      3  C   UNL     1     121.124 112.015 117.035  1.00  0.00     0.161 A 
ATOM      4  C   UNL     1     120.884 111.884 115.660  1.00  0.00     0.157 A 
ATOM      5  C   UNL     1     119.767 112.498 115.081  1.00  0.00     0.051 A 
ATOM      6  C   UNL     1     118.887 113.247 115.864  1.00  0.00     0.012 A 
ENDROOT
BRANCH   1   7
ATOM      7  C   UNL     1     118.207 114.178 118.123  1.00  0.00     0.003 C 
ATOM      8  C   UNL     1     116.390 114.479 119.760  1.00  0.00     0.035 C 
ATOM      9  C   UNL     1     117.279 113.625 118.914  1.00  0.00    -0.030 C 
ENDBRANCH   1   7
BRANCH   3  10
ATOM     10  O   UNL     1     122.251 111.380 117.579  1.00  0.00    -0.493 OA
ATOM     11  C   UNL     1     122.202 110.246 118.438  1.00  0.00     0.278 C 
ENDBRANCH   3  10
BRANCH   4  12
ATOM     12  O   UNL     1     121.763 111.139 114.875  1.00  0.00    -0.504 OA
ATOM     13  H   UNL     1     121.435 110.589 114.089  1.00  0.00     0.293 HD
ENDBRANCH   4  12
TORSDOF 3
ENDMDL
MODEL 8
REMARK VINA RESULT:    -2.846     20.192     21.447
REMARK INTER + INTRA:          -3.432
REMARK INTER:                  -3.261
REMARK INTRA:                  -0.171
REMARK UNBOUND:                -0.171
REMARK SMILES CC=Cc1ccc(O)c(OC)c1
REMARK SMILES IDX 4 1 12 2 9 3 7 4 6 5 5 6 3 7 1 8 2 9 10 10 11 11 8 12
REMARK H PARENT 8 13
REMARK Flexibility Score: inf
ROOT
ATOM      1  C   UNL     1     110.656 112.921 116.914  1.00  0.00    -0.022 A 
ATOM      2  C   UNL     1     110.549 114.112 117.653  1.00  0.00     0.058 A 
ATOM      3  C   UNL     1     110.285 115.339 117.013  1.00  0.00     0.161 A 
ATOM      4  C   UNL     1     110.138 115.368 115.619  1.00  0.00     0.157 A 
ATOM      5  C   UNL     1     110.257 114.189 114.875  1.00  0.00     0.051 A 
ATOM      6  C   UNL     1     110.518 112.975 115.513  1.00  0.00     0.012 A 
ENDROOT
BRANCH   1   7
ATOM      7  C   UNL     1     110.944 111.658 117.638  1.00  0.00     0.003 C 
ATOM      8  C   UNL     1     112.381 109.877 118.551  1.00  0.00     0.035 C 
ATOM      9  C   UNL     1     112.174 111.164 117.820  1.00  0.00    -0.030 C 
ENDBRANCH   1   7
BRANCH   3  10
ATOM     10  O   UNL     1     110.164 116.543 117.723  1.00  0.00    -0.493 OA
ATOM     11  C   UNL     1     111.263 117.318 118.191  1.00  0.00     0.278 C 
ENDBRANCH   3  10
BRANCH   4  12
ATOM     12  O   UNL     1     109.875 116.579 114.980  1.00  0.00    -0.504 OA
ATOM     13  H   UNL     1     109.007 117.081 115.130  1.00  0.00     0.293 HD
ENDBRANCH   4  12
TORSDOF 3
ENDMDL
MODEL 9
REMARK VINA RESULT:    -2.843      2.935      4.774
REMARK INTER + INTRA:          -3.429
REMARK INTER:                  -3.269
REMARK INTRA:                  -0.160
REMARK UNBOUND:                -0.171
REMARK SMILES CC=Cc1ccc(O)c(OC)c1
REMARK SMILES IDX 4 1 12 2 9 3 7 4 6 5 5 6 3 7 1 8 2 9 10 10 11 11 8 12
REMARK H PARENT 8 13
REMARK Flexibility Score: inf
ROOT
ATOM      1  C   UNL     1     125.699 128.394 118.524  1.00  0.00    -0.022 A 
ATOM      2  C   UNL     1     126.673 127.614 117.876  1.00  0.00     0.058 A 
ATOM      3  C   UNL     1     127.997 128.077 117.740  1.00  0.00     0.161 A 
ATOM      4  C   UNL     1     128.340 129.336 118.250  1.00  0.00     0.157 A 
ATOM      5  C   UNL     1     127.372 130.125 118.884  1.00  0.00     0.051 A 
ATOM      6  C   UNL     1     126.061 129.663 119.018  1.00  0.00     0.012 A 
ENDROOT
BRANCH   1   7
ATOM      7  C   UNL     1     124.318 127.862 118.631  1.00  0.00     0.003 C 
ATOM      8  C   UNL     1     122.580 126.271 119.350  1.00  0.00     0.035 C 
ATOM      9  C   UNL     1     123.995 126.749 119.300  1.00  0.00    -0.030 C 
ENDBRANCH   1   7
BRANCH   3  10
ATOM     10  O   UNL     1     128.993 127.319 117.106  1.00  0.00    -0.493 OA
ATOM     11  C   UNL     1     128.887 126.785 115.790  1.00  0.00     0.278 C 
ENDBRANCH   3  10
BRANCH   4  12
ATOM     12  O   UNL     1     129.648 129.799 118.119  1.00  0.00    -0.504 OA
ATOM     13  H   UNL     1     130.184 130.108 118.922  1.00  0.00     0.293 HD
ENDBRANCH   4  12
TORSDOF 3
ENDMDL
