MODEL 1
REMARK VINA RESULT:    -5.433      0.000      0.000
REMARK INTER + INTRA:          -8.796
REMARK INTER:                  -7.498
REMARK INTRA:                  -1.298
REMARK UNBOUND:                -1.298
REMARK SMILES CCCCc1cccc(O)c1CCCC
REMARK SMILES IDX 5 1 11 2 9 3 8 4 7 5 6 6 4 7 3 8 2 9 1 10 12 11 13 12 14 13
REMARK SMILES IDX 15 14 10 15
REMARK H PARENT 10 16
REMARK Flexibility Score: inf
ROOT
ATOM      1  C   UNL     1       7.288 -12.236  -1.251  1.00  0.00    -0.041 A 
ATOM      2  C   UNL     1       6.876 -10.870  -1.236  1.00  0.00    -0.003 A 
ATOM      3  C   UNL     1       7.646  -9.933  -0.490  1.00  0.00     0.119 A 
ATOM      4  C   UNL     1       8.777 -10.356   0.213  1.00  0.00     0.046 A 
ATOM      5  C   UNL     1       9.174 -11.687   0.185  1.00  0.00     0.004 A 
ATOM      6  C   UNL     1       8.443 -12.619  -0.545  1.00  0.00     0.004 A 
ENDROOT
BRANCH   1   7
ATOM      7  C   UNL     1       6.581 -13.307  -2.056  1.00  0.00     0.036 C 
BRANCH   7   8
ATOM      8  C   UNL     1       7.214 -13.443  -3.449  1.00  0.00     0.004 C 
BRANCH   8   9
ATOM      9  C   UNL     1       6.245 -13.053  -4.576  1.00  0.00    -0.003 C 
ATOM     10  C   UNL     1       4.781 -13.281  -4.198  1.00  0.00     0.004 C 
ENDBRANCH   8   9
ENDBRANCH   7   8
ENDBRANCH   1   7
BRANCH   2  11
ATOM     11  C   UNL     1       5.631 -10.404  -1.978  1.00  0.00     0.040 C 
BRANCH  11  12
ATOM     12  C   UNL     1       4.396 -10.327  -1.062  1.00  0.00     0.005 C 
BRANCH  12  13
ATOM     13  C   UNL     1       3.358 -11.408  -1.385  1.00  0.00    -0.003 C 
ATOM     14  C   UNL     1       3.404 -12.538  -0.360  1.00  0.00     0.004 C 
ENDBRANCH  12  13
ENDBRANCH  11  12
ENDBRANCH   2  11
BRANCH   3  15
ATOM     15  O   UNL     1       7.328  -8.573  -0.424  1.00  0.00    -0.508 OA
ATOM     16  H   UNL     1       7.978  -7.826  -0.625  1.00  0.00     0.293 HD
ENDBRANCH   3  15
TORSDOF 7
ENDMDL
MODEL 2
REMARK VINA RESULT:    -5.276      1.449      3.649
REMARK INTER + INTRA:          -8.578
REMARK INTER:                  -7.406
REMARK INTRA:                  -1.172
REMARK UNBOUND:                -1.298
REMARK SMILES CCCCc1cccc(O)c1CCCC
REMARK SMILES IDX 5 1 11 2 9 3 8 4 7 5 6 6 4 7 3 8 2 9 1 10 12 11 13 12 14 13
REMARK SMILES IDX 15 14 10 15
REMARK H PARENT 10 16
REMARK Flexibility Score: inf
ROOT
ATOM      1  C   UNL     1       6.335 -10.852  -1.203  1.00  0.00    -0.041 A 
ATOM      2  C   UNL     1       7.150 -12.014  -1.047  1.00  0.00    -0.003 A 
ATOM      3  C   UNL     1       8.366 -11.901  -0.314  1.00  0.00     0.119 A 
ATOM      4  C   UNL     1       8.744 -10.671   0.231  1.00  0.00     0.046 A 
ATOM      5  C   UNL     1       7.940  -9.549   0.080  1.00  0.00     0.004 A 
ATOM      6  C   UNL     1       6.743  -9.637  -0.623  1.00  0.00     0.004 A 
ENDROOT
BRANCH   1   7
ATOM      7  C   UNL     1       4.997 -10.868  -1.911  1.00  0.00     0.036 C 
BRANCH   7   8
ATOM      8  C   UNL     1       3.846 -10.824  -0.894  1.00  0.00     0.004 C 
BRANCH   8   9
ATOM      9  C   UNL     1       3.261 -12.216  -0.608  1.00  0.00    -0.003 C 
ATOM     10  C   UNL     1       3.129 -13.069  -1.870  1.00  0.00     0.004 C 
ENDBRANCH   8   9
ENDBRANCH   7   8
ENDBRANCH   1   7
BRANCH   2  11
ATOM     11  C   UNL     1       6.758 -13.351  -1.658  1.00  0.00     0.040 C 
BRANCH  11  12
ATOM     12  C   UNL     1       7.605 -13.701  -2.896  1.00  0.00     0.005 C 
BRANCH  12  13
ATOM     13  C   UNL     1       7.195 -12.895  -4.134  1.00  0.00    -0.003 C 
ATOM     14  C   UNL     1       5.759 -13.209  -4.545  1.00  0.00     0.004 C 
ENDBRANCH  12  13
ENDBRANCH  11  12
ENDBRANCH   2  11
BRANCH   3  15
ATOM     15  O   UNL     1       9.223 -12.984  -0.099  1.00  0.00    -0.508 OA
ATOM     16  H   UNL     1       9.466 -13.345   0.813  1.00  0.00     0.293 HD
ENDBRANCH   3  15
TORSDOF 7
ENDMDL
MODEL 3
REMARK VINA RESULT:    -5.177      1.183      1.739
REMARK INTER + INTRA:          -8.443
REMARK INTER:                  -7.152
REMARK INTRA:                  -1.291
REMARK UNBOUND:                -1.298
REMARK SMILES CCCCc1cccc(O)c1CCCC
REMARK SMILES IDX 5 1 11 2 9 3 8 4 7 5 6 6 4 7 3 8 2 9 1 10 12 11 13 12 14 13
REMARK SMILES IDX 15 14 10 15
REMARK H PARENT 10 16
REMARK Flexibility Score: inf
ROOT
ATOM      1  C   UNL     1       7.067 -12.419  -1.274  1.00  0.00    -0.041 A 
ATOM      2  C   UNL     1       6.566 -11.127  -0.929  1.00  0.00    -0.003 A 
ATOM      3  C   UNL     1       7.355 -10.292  -0.087  1.00  0.00     0.119 A 
ATOM      4  C   UNL     1       8.589 -10.743   0.389  1.00  0.00     0.046 A 
ATOM      5  C   UNL     1       9.070 -11.999   0.041  1.00  0.00     0.004 A 
ATOM      6  C   UNL     1       8.322 -12.827  -0.789  1.00  0.00     0.004 A 
ENDROOT
BRANCH   1   7
ATOM      7  C   UNL     1       6.342 -13.366  -2.207  1.00  0.00     0.036 C 
BRANCH   7   8
ATOM      8  C   UNL     1       6.966 -13.326  -3.611  1.00  0.00     0.004 C 
BRANCH   8   9
ATOM      9  C   UNL     1       5.944 -12.959  -4.698  1.00  0.00    -0.003 C 
ATOM     10  C   UNL     1       4.512 -13.327  -4.308  1.00  0.00     0.004 C 
ENDBRANCH   8   9
ENDBRANCH   7   8
ENDBRANCH   1   7
BRANCH   2  11
ATOM     11  C   UNL     1       5.212 -10.638  -1.423  1.00  0.00     0.040 C 
BRANCH  11  12
ATOM     12  C   UNL     1       5.323  -9.818  -2.722  1.00  0.00     0.005 C 
BRANCH  12  13
ATOM     13  C   UNL     1       4.001  -9.766  -3.497  1.00  0.00    -0.003 C 
ATOM     14  C   UNL     1       4.247  -9.563  -4.990  1.00  0.00     0.004 C 
ENDBRANCH  12  13
ENDBRANCH  11  12
ENDBRANCH   2  11
BRANCH   3  15
ATOM     15  O   UNL     1       6.955  -9.009   0.296  1.00  0.00    -0.508 OA
ATOM     16  H   UNL     1       6.634  -8.767   1.224  1.00  0.00     0.293 HD
ENDBRANCH   3  15
TORSDOF 7
ENDMDL
MODEL 4
REMARK VINA RESULT:    -5.173      3.019      4.627
REMARK INTER + INTRA:          -8.437
REMARK INTER:                  -7.154
REMARK INTRA:                  -1.283
REMARK UNBOUND:                -1.298
REMARK SMILES CCCCc1cccc(O)c1CCCC
REMARK SMILES IDX 5 1 11 2 9 3 8 4 7 5 6 6 4 7 3 8 2 9 1 10 12 11 13 12 14 13
REMARK SMILES IDX 15 14 10 15
REMARK H PARENT 10 16
REMARK Flexibility Score: inf
ROOT
ATOM      1  C   UNL     1       5.315 -13.174  -4.416  1.00  0.00    -0.041 A 
ATOM      2  C   UNL     1       4.544 -13.386  -3.234  1.00  0.00    -0.003 A 
ATOM      3  C   UNL     1       5.227 -13.531  -1.992  1.00  0.00     0.119 A 
ATOM      4  C   UNL     1       6.622 -13.471  -1.947  1.00  0.00     0.046 A 
ATOM      5  C   UNL     1       7.362 -13.256  -3.103  1.00  0.00     0.004 A 
ATOM      6  C   UNL     1       6.717 -13.102  -4.326  1.00  0.00     0.004 A 
ENDROOT
BRANCH   1   7
ATOM      7  C   UNL     1       4.695 -12.949  -5.780  1.00  0.00     0.036 C 
BRANCH   7   8
ATOM      8  C   UNL     1       4.765 -11.464  -6.168  1.00  0.00     0.004 C 
BRANCH   8   9
ATOM      9  C   UNL     1       3.432 -10.734  -5.943  1.00  0.00    -0.003 C 
ATOM     10  C   UNL     1       2.223 -11.586  -6.329  1.00  0.00     0.004 C 
ENDBRANCH   8   9
ENDBRANCH   7   8
ENDBRANCH   1   7
BRANCH   2  11
ATOM     11  C   UNL     1       3.026 -13.477  -3.276  1.00  0.00     0.040 C 
BRANCH  11  12
ATOM     12  C   UNL     1       2.533 -14.899  -3.605  1.00  0.00     0.005 C 
BRANCH  12  13
ATOM     13  C   UNL     1       1.475 -14.911  -4.715  1.00  0.00    -0.003 C 
ATOM     14  C   UNL     1       2.047 -15.475  -6.013  1.00  0.00     0.004 C 
ENDBRANCH  12  13
ENDBRANCH  11  12
ENDBRANCH   2  11
BRANCH   3  15
ATOM     15  O   UNL     1       4.559 -13.730  -0.780  1.00  0.00    -0.508 OA
ATOM     16  H   UNL     1       4.926 -13.462   0.123  1.00  0.00     0.293 HD
ENDBRANCH   3  15
TORSDOF 7
ENDMDL
MODEL 5
REMARK VINA RESULT:    -5.022      2.278      4.627
REMARK INTER + INTRA:          -8.228
REMARK INTER:                  -7.407
REMARK INTRA:                  -0.822
REMARK UNBOUND:                -1.298
REMARK SMILES CCCCc1cccc(O)c1CCCC
REMARK SMILES IDX 5 1 11 2 9 3 8 4 7 5 6 6 4 7 3 8 2 9 1 10 12 11 13 12 14 13
REMARK SMILES IDX 15 14 10 15
REMARK H PARENT 10 16
REMARK Flexibility Score: inf
ROOT
ATOM      1  C   UNL     1       7.077 -10.210  -0.721  1.00  0.00    -0.041 A 
ATOM      2  C   UNL     1       6.805 -11.542  -1.158  1.00  0.00    -0.003 A 
ATOM      3  C   UNL     1       7.742 -12.568  -0.842  1.00  0.00     0.119 A 
ATOM      4  C   UNL     1       8.900 -12.262  -0.124  1.00  0.00     0.046 A 
ATOM      5  C   UNL     1       9.151 -10.964   0.303  1.00  0.00     0.004 A 
ATOM      6  C   UNL     1       8.245  -9.948   0.016  1.00  0.00     0.004 A 
ENDROOT
BRANCH   1   7
ATOM      7  C   UNL     1       6.125  -9.054  -0.949  1.00  0.00     0.036 C 
BRANCH   7   8
ATOM      8  C   UNL     1       5.902  -8.272   0.356  1.00  0.00     0.004 C 
BRANCH   8   9
ATOM      9  C   UNL     1       5.973  -6.751   0.148  1.00  0.00    -0.003 C 
ATOM     10  C   UNL     1       7.266  -6.143   0.692  1.00  0.00     0.004 C 
ENDBRANCH   8   9
ENDBRANCH   7   8
ENDBRANCH   1   7
BRANCH   2  11
ATOM     11  C   UNL     1       5.558 -11.880  -1.962  1.00  0.00     0.040 C 
BRANCH  11  12
ATOM     12  C   UNL     1       5.770 -11.701  -3.477  1.00  0.00     0.005 C 
BRANCH  12  13
ATOM     13  C   UNL     1       5.895 -13.039  -4.215  1.00  0.00    -0.003 C 
ATOM     14  C   UNL     1       7.350 -13.341  -4.564  1.00  0.00     0.004 C 
ENDBRANCH  12  13
ENDBRANCH  11  12
ENDBRANCH   2  11
BRANCH   3  15
ATOM     15  O   UNL     1       7.558 -13.902  -1.218  1.00  0.00    -0.508 OA
ATOM     16  H   UNL     1       6.854 -14.511  -0.825  1.00  0.00     0.293 HD
ENDBRANCH   3  15
TORSDOF 7
ENDMDL
MODEL 6
REMARK VINA RESULT:    -4.910      2.284      5.271
REMARK INTER + INTRA:          -8.074
REMARK INTER:                  -7.511
REMARK INTRA:                  -0.563
REMARK UNBOUND:                -1.298
REMARK SMILES CCCCc1cccc(O)c1CCCC
REMARK SMILES IDX 5 1 11 2 9 3 8 4 7 5 6 6 4 7 3 8 2 9 1 10 12 11 13 12 14 13
REMARK SMILES IDX 15 14 10 15
REMARK H PARENT 10 16
REMARK Flexibility Score: inf
ROOT
ATOM      1  C   UNL     1       4.607 -13.570  -2.349  1.00  0.00    -0.041 A 
ATOM      2  C   UNL     1       5.972 -13.381  -2.720  1.00  0.00    -0.003 A 
ATOM      3  C   UNL     1       6.277 -13.111  -4.085  1.00  0.00     0.119 A 
ATOM      4  C   UNL     1       5.252 -13.041  -5.031  1.00  0.00     0.046 A 
ATOM      5  C   UNL     1       3.926 -13.219  -4.658  1.00  0.00     0.004 A 
ATOM      6  C   UNL     1       3.603 -13.473  -3.329  1.00  0.00     0.004 A 
ENDROOT
BRANCH   1   7
ATOM      7  C   UNL     1       4.162 -13.804  -0.920  1.00  0.00     0.036 C 
BRANCH   7   8
ATOM      8  C   UNL     1       3.280 -15.060  -0.826  1.00  0.00     0.004 C 
BRANCH   8   9
ATOM      9  C   UNL     1       2.175 -14.924   0.231  1.00  0.00    -0.003 C 
ATOM     10  C   UNL     1       0.878 -15.622  -0.181  1.00  0.00     0.004 C 
ENDBRANCH   8   9
ENDBRANCH   7   8
ENDBRANCH   1   7
BRANCH   2  11
ATOM     11  C   UNL     1       7.098 -13.480  -1.700  1.00  0.00     0.040 C 
BRANCH  11  12
ATOM     12  C   UNL     1       7.532 -12.101  -1.170  1.00  0.00     0.005 C 
BRANCH  12  13
ATOM     13  C   UNL     1       8.703 -12.193  -0.184  1.00  0.00    -0.003 C 
ATOM     14  C   UNL     1       9.167 -10.805   0.249  1.00  0.00     0.004 C 
ENDBRANCH  12  13
ENDBRANCH  11  12
ENDBRANCH   2  11
BRANCH   3  15
ATOM     15  O   UNL     1       7.582 -12.901  -4.542  1.00  0.00    -0.508 OA
ATOM     16  H   UNL     1       8.031 -13.460  -5.254  1.00  0.00     0.293 HD
ENDBRANCH   3  15
TORSDOF 7
ENDMDL
MODEL 7
REMARK VINA RESULT:    -4.824      2.869      4.572
REMARK INTER + INTRA:          -7.955
REMARK INTER:                  -6.839
REMARK INTRA:                  -1.116
REMARK UNBOUND:                -1.298
REMARK SMILES CCCCc1cccc(O)c1CCCC
REMARK SMILES IDX 5 1 11 2 9 3 8 4 7 5 6 6 4 7 3 8 2 9 1 10 12 11 13 12 14 13
REMARK SMILES IDX 15 14 10 15
REMARK H PARENT 10 16
REMARK Flexibility Score: inf
ROOT
ATOM      1  C   UNL     1       4.497 -13.219  -3.948  1.00  0.00    -0.041 A 
ATOM      2  C   UNL     1       4.880 -13.310  -2.576  1.00  0.00    -0.003 A 
ATOM      3  C   UNL     1       6.268 -13.317  -2.254  1.00  0.00     0.119 A 
ATOM      4  C   UNL     1       7.224 -13.242  -3.271  1.00  0.00     0.046 A 
ATOM      5  C   UNL     1       6.839 -13.146  -4.602  1.00  0.00     0.004 A 
ATOM      6  C   UNL     1       5.490 -13.126  -4.939  1.00  0.00     0.004 A 
ENDROOT
BRANCH   1   7
ATOM      7  C   UNL     1       3.054 -13.144  -4.401  1.00  0.00     0.036 C 
BRANCH   7   8
ATOM      8  C   UNL     1       2.773 -14.194  -5.488  1.00  0.00     0.004 C 
BRANCH   8   9
ATOM      9  C   UNL     1       1.521 -15.031  -5.187  1.00  0.00    -0.003 C 
ATOM     10  C   UNL     1       1.620 -16.456  -5.733  1.00  0.00     0.004 C 
ENDBRANCH   8   9
ENDBRANCH   7   8
ENDBRANCH   1   7
BRANCH   2  11
ATOM     11  C   UNL     1       3.847 -13.417  -1.464  1.00  0.00     0.040 C 
BRANCH  11  12
ATOM     12  C   UNL     1       3.535 -14.879  -1.092  1.00  0.00     0.005 C 
BRANCH  12  13
ATOM     13  C   UNL     1       2.089 -15.272  -1.419  1.00  0.00    -0.003 C 
ATOM     14  C   UNL     1       2.021 -16.682  -1.998  1.00  0.00     0.004 C 
ENDBRANCH  12  13
ENDBRANCH  11  12
ENDBRANCH   2  11
BRANCH   3  15
ATOM     15  O   UNL     1       6.740 -13.393  -0.941  1.00  0.00    -0.508 OA
ATOM     16  H   UNL     1       7.232 -12.646  -0.469  1.00  0.00     0.293 HD
ENDBRANCH   3  15
TORSDOF 7
ENDMDL
MODEL 8
REMARK VINA RESULT:    -4.660      2.762      4.080
REMARK INTER + INTRA:          -7.729
REMARK INTER:                  -6.452
REMARK INTRA:                  -1.277
REMARK UNBOUND:                -1.298
REMARK SMILES CCCCc1cccc(O)c1CCCC
REMARK SMILES IDX 5 1 11 2 9 3 8 4 7 5 6 6 4 7 3 8 2 9 1 10 12 11 13 12 14 13
REMARK SMILES IDX 15 14 10 15
REMARK H PARENT 10 16
REMARK Flexibility Score: inf
ROOT
ATOM      1  C   UNL     1       5.240 -12.949  -4.444  1.00  0.00    -0.041 A 
ATOM      2  C   UNL     1       4.538 -13.140  -3.216  1.00  0.00    -0.003 A 
ATOM      3  C   UNL     1       5.291 -13.397  -2.034  1.00  0.00     0.119 A 
ATOM      4  C   UNL     1       6.685 -13.464  -2.091  1.00  0.00     0.046 A 
ATOM      5  C   UNL     1       7.358 -13.268  -3.290  1.00  0.00     0.004 A 
ATOM      6  C   UNL     1       6.645 -13.005  -4.455  1.00  0.00     0.004 A 
ENDROOT
BRANCH   1   7
ATOM      7  C   UNL     1       4.548 -12.612  -5.749  1.00  0.00     0.036 C 
BRANCH   7   8
ATOM      8  C   UNL     1       4.980 -11.223  -6.247  1.00  0.00     0.004 C 
BRANCH   8   9
ATOM      9  C   UNL     1       3.783 -10.332  -6.611  1.00  0.00    -0.003 C 
ATOM     10  C   UNL     1       2.471 -11.113  -6.695  1.00  0.00     0.004 C 
ENDBRANCH   8   9
ENDBRANCH   7   8
ENDBRANCH   1   7
BRANCH   2  11
ATOM     11  C   UNL     1       3.019 -13.094  -3.149  1.00  0.00     0.040 C 
BRANCH  11  12
ATOM     12  C   UNL     1       2.473 -11.654  -3.185  1.00  0.00     0.005 C 
BRANCH  12  13
ATOM     13  C   UNL     1       3.212 -10.722  -2.217  1.00  0.00    -0.003 C 
ATOM     14  C   UNL     1       3.917  -9.597  -2.968  1.00  0.00     0.004 C 
ENDBRANCH  12  13
ENDBRANCH  11  12
ENDBRANCH   2  11
BRANCH   3  15
ATOM     15  O   UNL     1       4.694 -13.587  -0.784  1.00  0.00    -0.508 OA
ATOM     16  H   UNL     1       3.994 -14.290  -0.589  1.00  0.00     0.293 HD
ENDBRANCH   3  15
TORSDOF 7
ENDMDL
MODEL 9
REMARK VINA RESULT:    -4.643      3.067      6.159
REMARK INTER + INTRA:          -7.706
REMARK INTER:                  -6.602
REMARK INTRA:                  -1.104
REMARK UNBOUND:                -1.298
REMARK SMILES CCCCc1cccc(O)c1CCCC
REMARK SMILES IDX 5 1 11 2 9 3 8 4 7 5 6 6 4 7 3 8 2 9 1 10 12 11 13 12 14 13
REMARK SMILES IDX 15 14 10 15
REMARK H PARENT 10 16
REMARK Flexibility Score: inf
ROOT
ATOM      1  C   UNL     1       2.879 -12.891  -5.370  1.00  0.00    -0.041 A 
ATOM      2  C   UNL     1       4.151 -12.351  -5.729  1.00  0.00    -0.003 A 
ATOM      3  C   UNL     1       4.192 -11.130  -6.461  1.00  0.00     0.119 A 
ATOM      4  C   UNL     1       3.004 -10.488  -6.820  1.00  0.00     0.046 A 
ATOM      5  C   UNL     1       1.772 -11.018  -6.458  1.00  0.00     0.004 A 
ATOM      6  C   UNL     1       1.708 -12.203  -5.734  1.00  0.00     0.004 A 
ENDROOT
BRANCH   1   7
ATOM      7  C   UNL     1       2.717 -14.149  -4.543  1.00  0.00     0.036 C 
BRANCH   7   8
ATOM      8  C   UNL     1       2.505 -13.799  -3.061  1.00  0.00     0.004 C 
BRANCH   8   9
ATOM      9  C   UNL     1       3.486 -14.535  -2.137  1.00  0.00    -0.003 C 
ATOM     10  C   UNL     1       3.838 -13.726  -0.888  1.00  0.00     0.004 C 
ENDBRANCH   8   9
ENDBRANCH   7   8
ENDBRANCH   1   7
BRANCH   2  11
ATOM     11  C   UNL     1       5.449 -13.056  -5.364  1.00  0.00     0.040 C 
BRANCH  11  12
ATOM     12  C   UNL     1       6.040 -12.549  -4.036  1.00  0.00     0.005 C 
BRANCH  12  13
ATOM     13  C   UNL     1       7.240 -13.382  -3.570  1.00  0.00    -0.003 C 
ATOM     14  C   UNL     1       7.322 -13.423  -2.047  1.00  0.00     0.004 C 
ENDBRANCH  12  13
ENDBRANCH  11  12
ENDBRANCH   2  11
BRANCH   3  15
ATOM     15  O   UNL     1       5.388 -10.519  -6.848  1.00  0.00    -0.508 OA
ATOM     16  H   UNL     1       5.534  -9.519  -6.874  1.00  0.00     0.293 HD
ENDBRANCH   3  15
TORSDOF 7
ENDMDL
