MODEL 1
REMARK VINA RESULT:    -6.093      0.000      0.000
REMARK INTER + INTRA:          -7.713
REMARK INTER:                  -7.339
REMARK INTRA:                  -0.373
REMARK UNBOUND:                -0.373
REMARK SMILES Oc1cc(O)c2c(c1)O[C@H](c1ccc(O)c(O)c1)[C@@H](O)C2
REMARK SMILES IDX 21 1 19 2 10 3 9 4 7 5 8 6 2 7 3 8 4 9 6 10 20 11 11 13
REMARK SMILES IDX 18 14 12 15 16 16 13 17 14 18 17 19 15 21 5 23 1 25
REMARK H PARENT 20 12 17 20 15 22 5 24 1 26
REMARK Flexibility Score: inf
ROOT
ATOM      1  C   UNL     1     306.559 225.098 205.210  1.00  0.00     0.079 C 
ATOM      2  C   UNL     1     307.038 226.542 204.976  1.00  0.00     0.164 C 
ATOM      3  C   UNL     1     307.465 226.714 203.506  1.00  0.00     0.232 C 
ATOM      4  O   UNL     1     308.467 225.752 203.169  1.00  0.00    -0.482 OA
ATOM      5  C   UNL     1     308.454 224.447 203.674  1.00  0.00     0.131 A 
ATOM      6  C   UNL     1     309.363 223.510 203.174  1.00  0.00     0.093 A 
ATOM      7  C   UNL     1     309.366 222.198 203.664  1.00  0.00     0.122 A 
ATOM      8  C   UNL     1     308.455 221.826 204.657  1.00  0.00     0.092 A 
ATOM      9  C   UNL     1     307.542 222.759 205.171  1.00  0.00     0.126 A 
ATOM     10  C   UNL     1     307.551 224.084 204.693  1.00  0.00     0.039 A 
ENDROOT
BRANCH   2  11
ATOM     11  O   UNL     1     306.001 227.441 205.276  1.00  0.00    -0.389 OA
ATOM     12  H   UNL     1     305.992 228.118 204.551  1.00  0.00     0.211 HD
ENDBRANCH   2  11
BRANCH   3  13
ATOM     13  C   UNL     1     307.995 228.106 203.252  1.00  0.00    -0.001 A 
ATOM     14  C   UNL     1     307.335 228.969 202.359  1.00  0.00     0.057 A 
ATOM     15  C   UNL     1     309.179 228.536 203.870  1.00  0.00     0.012 A 
ATOM     16  C   UNL     1     307.841 230.251 202.101  1.00  0.00     0.157 A 
ATOM     17  C   UNL     1     309.685 229.814 203.615  1.00  0.00     0.050 A 
ATOM     18  C   UNL     1     309.022 230.675 202.734  1.00  0.00     0.157 A 
BRANCH  16  19
ATOM     19  O   UNL     1     307.177 231.102 201.219  1.00  0.00    -0.504 OA
ATOM     20  H   UNL     1     307.002 230.837 200.257  1.00  0.00     0.293 HD
ENDBRANCH  16  19
BRANCH  18  21
ATOM     21  O   UNL     1     309.550 231.944 202.501  1.00  0.00    -0.504 OA
ATOM     22  H   UNL     1     309.541 232.669 203.207  1.00  0.00     0.293 HD
ENDBRANCH  18  21
ENDBRANCH   3  13
BRANCH   9  23
ATOM     23  O   UNL     1     306.629 222.375 206.152  1.00  0.00    -0.507 OA
ATOM     24  H   UNL     1     306.908 221.805 206.943  1.00  0.00     0.293 HD
ENDBRANCH   9  23
BRANCH   7  25
ATOM     25  O   UNL     1     310.266 221.257 203.170  1.00  0.00    -0.508 OA
ATOM     26  H   UNL     1     310.089 220.262 203.248  1.00  0.00     0.293 HD
ENDBRANCH   7  25
TORSDOF 6
ENDMDL
MODEL 2
REMARK VINA RESULT:    -5.987      1.315      6.873
REMARK INTER + INTRA:          -7.585
REMARK INTER:                  -7.490
REMARK INTRA:                  -0.095
REMARK UNBOUND:                -0.373
REMARK SMILES Oc1cc(O)c2c(c1)O[C@H](c1ccc(O)c(O)c1)[C@@H](O)C2
REMARK SMILES IDX 21 1 19 2 10 3 9 4 7 5 8 6 2 7 3 8 4 9 6 10 20 11 11 13
REMARK SMILES IDX 18 14 12 15 16 16 13 17 14 18 17 19 15 21 5 23 1 25
REMARK H PARENT 20 12 17 20 15 22 5 24 1 26
REMARK Flexibility Score: inf
ROOT
ATOM      1  C   UNL     1     306.542 227.825 203.797  1.00  0.00     0.079 C 
ATOM      2  C   UNL     1     306.948 226.360 203.562  1.00  0.00     0.164 C 
ATOM      3  C   UNL     1     308.168 226.013 204.435  1.00  0.00     0.232 C 
ATOM      4  O   UNL     1     309.240 226.919 204.165  1.00  0.00    -0.482 OA
ATOM      5  C   UNL     1     309.025 228.274 203.891  1.00  0.00     0.131 A 
ATOM      6  C   UNL     1     310.121 229.138 203.803  1.00  0.00     0.093 A 
ATOM      7  C   UNL     1     309.928 230.498 203.530  1.00  0.00     0.122 A 
ATOM      8  C   UNL     1     308.634 230.992 203.344  1.00  0.00     0.092 A 
ATOM      9  C   UNL     1     307.527 230.134 203.423  1.00  0.00     0.126 A 
ATOM     10  C   UNL     1     307.720 228.763 203.678  1.00  0.00     0.039 A 
ENDROOT
BRANCH   2  11
ATOM     11  O   UNL     1     305.876 225.512 203.887  1.00  0.00    -0.389 OA
ATOM     12  H   UNL     1     305.951 224.717 203.298  1.00  0.00     0.211 HD
ENDBRANCH   2  11
BRANCH   3  13
ATOM     13  C   UNL     1     308.630 224.595 204.189  1.00  0.00    -0.001 A 
ATOM     14  C   UNL     1     307.987 223.516 204.820  1.00  0.00     0.057 A 
ATOM     15  C   UNL     1     309.737 224.346 203.363  1.00  0.00     0.012 A 
ATOM     16  C   UNL     1     308.432 222.202 204.614  1.00  0.00     0.157 A 
ATOM     17  C   UNL     1     310.182 223.037 203.156  1.00  0.00     0.050 A 
ATOM     18  C   UNL     1     309.535 221.963 203.776  1.00  0.00     0.157 A 
BRANCH  16  19
ATOM     19  O   UNL     1     307.786 221.138 205.239  1.00  0.00    -0.504 OA
ATOM     20  H   UNL     1     307.287 221.258 206.112  1.00  0.00     0.293 HD
ENDBRANCH  16  19
BRANCH  18  21
ATOM     21  O   UNL     1     310.002 220.668 203.550  1.00  0.00    -0.504 OA
ATOM     22  H   UNL     1     309.378 219.903 203.327  1.00  0.00     0.293 HD
ENDBRANCH  18  21
ENDBRANCH   3  13
BRANCH   9  23
ATOM     23  O   UNL     1     306.239 230.640 203.250  1.00  0.00    -0.507 OA
ATOM     24  H   UNL     1     305.665 230.912 204.039  1.00  0.00     0.293 HD
ENDBRANCH   9  23
BRANCH   7  25
ATOM     25  O   UNL     1     311.014 231.365 203.443  1.00  0.00    -0.508 OA
ATOM     26  H   UNL     1     311.872 231.194 203.956  1.00  0.00     0.293 HD
ENDBRANCH   7  25
TORSDOF 6
ENDMDL
MODEL 3
REMARK VINA RESULT:    -5.777      1.450      2.952
REMARK INTER + INTRA:          -7.332
REMARK INTER:                  -7.073
REMARK INTRA:                  -0.259
REMARK UNBOUND:                -0.373
REMARK SMILES Oc1cc(O)c2c(c1)O[C@H](c1ccc(O)c(O)c1)[C@@H](O)C2
REMARK SMILES IDX 21 1 19 2 10 3 9 4 7 5 8 6 2 7 3 8 4 9 6 10 20 11 11 13
REMARK SMILES IDX 18 14 12 15 16 16 13 17 14 18 17 19 15 21 5 23 1 25
REMARK H PARENT 20 12 17 20 15 22 5 24 1 26
REMARK Flexibility Score: inf
ROOT
ATOM      1  C   UNL     1     310.247 223.502 203.522  1.00  0.00     0.079 C 
ATOM      2  C   UNL     1     309.886 224.933 203.087  1.00  0.00     0.164 C 
ATOM      3  C   UNL     1     309.239 225.686 204.265  1.00  0.00     0.232 C 
ATOM      4  O   UNL     1     308.102 224.964 204.745  1.00  0.00    -0.482 OA
ATOM      5  C   UNL     1     308.066 223.566 204.792  1.00  0.00     0.131 A 
ATOM      6  C   UNL     1     306.995 222.930 205.427  1.00  0.00     0.093 A 
ATOM      7  C   UNL     1     306.940 221.532 205.487  1.00  0.00     0.122 A 
ATOM      8  C   UNL     1     307.960 220.772 204.909  1.00  0.00     0.092 A 
ATOM      9  C   UNL     1     309.037 221.399 204.264  1.00  0.00     0.126 A 
ATOM     10  C   UNL     1     309.084 222.803 204.186  1.00  0.00     0.039 A 
ENDROOT
BRANCH   2  11
ATOM     11  O   UNL     1     311.044 225.610 202.671  1.00  0.00    -0.389 OA
ATOM     12  H   UNL     1     311.738 224.918 202.512  1.00  0.00     0.211 HD
ENDBRANCH   2  11
BRANCH   3  13
ATOM     13  C   UNL     1     308.820 227.079 203.858  1.00  0.00    -0.001 A 
ATOM     14  C   UNL     1     307.602 227.291 203.190  1.00  0.00     0.057 A 
ATOM     15  C   UNL     1     309.667 228.171 204.101  1.00  0.00     0.012 A 
ATOM     16  C   UNL     1     307.224 228.580 202.788  1.00  0.00     0.157 A 
ATOM     17  C   UNL     1     309.294 229.457 203.700  1.00  0.00     0.050 A 
ATOM     18  C   UNL     1     308.076 229.669 203.046  1.00  0.00     0.157 A 
BRANCH  16  19
ATOM     19  O   UNL     1     306.012 228.783 202.131  1.00  0.00    -0.504 OA
ATOM     20  H   UNL     1     305.706 228.174 201.382  1.00  0.00     0.293 HD
ENDBRANCH  16  19
BRANCH  18  21
ATOM     21  O   UNL     1     307.729 230.963 202.659  1.00  0.00    -0.504 OA
ATOM     22  H   UNL     1     307.320 231.163 201.755  1.00  0.00     0.293 HD
ENDBRANCH  18  21
ENDBRANCH   3  13
BRANCH   9  23
ATOM     23  O   UNL     1     310.057 220.631 203.703  1.00  0.00    -0.507 OA
ATOM     24  H   UNL     1     310.849 221.059 203.237  1.00  0.00     0.293 HD
ENDBRANCH   9  23
BRANCH   7  25
ATOM     25  O   UNL     1     305.879 220.890 206.120  1.00  0.00    -0.508 OA
ATOM     26  H   UNL     1     305.652 219.921 205.924  1.00  0.00     0.293 HD
ENDBRANCH   7  25
TORSDOF 6
ENDMDL
MODEL 4
REMARK VINA RESULT:    -5.756      1.639      6.881
REMARK INTER + INTRA:          -7.307
REMARK INTER:                  -7.468
REMARK INTRA:                   0.160
REMARK UNBOUND:                -0.373
REMARK SMILES Oc1cc(O)c2c(c1)O[C@H](c1ccc(O)c(O)c1)[C@@H](O)C2
REMARK SMILES IDX 21 1 19 2 10 3 9 4 7 5 8 6 2 7 3 8 4 9 6 10 20 11 11 13
REMARK SMILES IDX 18 14 12 15 16 16 13 17 14 18 17 19 15 21 5 23 1 25
REMARK H PARENT 20 12 17 20 15 22 5 24 1 26
REMARK Flexibility Score: inf
ROOT
ATOM      1  C   UNL     1     306.551 228.473 203.386  1.00  0.00     0.079 C 
ATOM      2  C   UNL     1     307.046 227.027 203.204  1.00  0.00     0.164 C 
ATOM      3  C   UNL     1     308.234 226.763 204.148  1.00  0.00     0.232 C 
ATOM      4  O   UNL     1     309.269 227.721 203.916  1.00  0.00    -0.482 OA
ATOM      5  C   UNL     1     308.999 229.057 203.601  1.00  0.00     0.131 A 
ATOM      6  C   UNL     1     310.050 229.977 203.553  1.00  0.00     0.093 A 
ATOM      7  C   UNL     1     309.801 231.319 203.241  1.00  0.00     0.122 A 
ATOM      8  C   UNL     1     308.494 231.739 202.976  1.00  0.00     0.092 A 
ATOM      9  C   UNL     1     307.431 230.824 203.015  1.00  0.00     0.126 A 
ATOM     10  C   UNL     1     307.683 229.471 203.310  1.00  0.00     0.039 A 
ENDROOT
BRANCH   2  11
ATOM     11  O   UNL     1     306.005 226.129 203.491  1.00  0.00    -0.389 OA
ATOM     12  H   UNL     1     306.394 225.217 203.445  1.00  0.00     0.211 HD
ENDBRANCH   2  11
BRANCH   3  13
ATOM     13  C   UNL     1     308.783 225.369 203.958  1.00  0.00    -0.001 A 
ATOM     14  C   UNL     1     310.095 225.175 203.492  1.00  0.00     0.057 A 
ATOM     15  C   UNL     1     307.970 224.250 204.198  1.00  0.00     0.012 A 
ATOM     16  C   UNL     1     310.596 223.882 203.289  1.00  0.00     0.157 A 
ATOM     17  C   UNL     1     308.467 222.960 203.996  1.00  0.00     0.050 A 
ATOM     18  C   UNL     1     309.777 222.768 203.543  1.00  0.00     0.157 A 
BRANCH  16  19
ATOM     19  O   UNL     1     311.900 223.699 202.833  1.00  0.00    -0.504 OA
ATOM     20  H   UNL     1     312.629 224.375 203.025  1.00  0.00     0.293 HD
ENDBRANCH  16  19
BRANCH  18  21
ATOM     21  O   UNL     1     310.245 221.469 203.352  1.00  0.00    -0.504 OA
ATOM     22  H   UNL     1     310.358 220.819 204.120  1.00  0.00     0.293 HD
ENDBRANCH  18  21
ENDBRANCH   3  13
BRANCH   9  23
ATOM     23  O   UNL     1     306.130 231.256 202.763  1.00  0.00    -0.507 OA
ATOM     24  H   UNL     1     305.545 230.804 202.069  1.00  0.00     0.293 HD
ENDBRANCH   9  23
BRANCH   7  25
ATOM     25  O   UNL     1     310.842 232.242 203.193  1.00  0.00    -0.508 OA
ATOM     26  H   UNL     1     311.292 232.578 204.038  1.00  0.00     0.293 HD
ENDBRANCH   7  25
TORSDOF 6
ENDMDL
MODEL 5
REMARK VINA RESULT:    -5.568      1.374      7.234
REMARK INTER + INTRA:          -7.081
REMARK INTER:                  -6.880
REMARK INTRA:                  -0.201
REMARK UNBOUND:                -0.373
REMARK SMILES Oc1cc(O)c2c(c1)O[C@H](c1ccc(O)c(O)c1)[C@@H](O)C2
REMARK SMILES IDX 21 1 19 2 10 3 9 4 7 5 8 6 2 7 3 8 4 9 6 10 20 11 11 13
REMARK SMILES IDX 18 14 12 15 16 16 13 17 14 18 17 19 15 21 5 23 1 25
REMARK H PARENT 20 12 17 20 15 22 5 24 1 26
REMARK Flexibility Score: inf
ROOT
ATOM      1  C   UNL     1     310.414 227.683 204.072  1.00  0.00     0.079 C 
ATOM      2  C   UNL     1     310.022 226.283 204.576  1.00  0.00     0.164 C 
ATOM      3  C   UNL     1     309.111 225.596 203.541  1.00  0.00     0.232 C 
ATOM      4  O   UNL     1     307.969 226.413 203.271  1.00  0.00    -0.482 OA
ATOM      5  C   UNL     1     308.040 227.809 203.221  1.00  0.00     0.131 A 
ATOM      6  C   UNL     1     306.928 228.537 202.787  1.00  0.00     0.093 A 
ATOM      7  C   UNL     1     306.979 229.935 202.729  1.00  0.00     0.122 A 
ATOM      8  C   UNL     1     308.146 230.604 203.105  1.00  0.00     0.092 A 
ATOM      9  C   UNL     1     309.267 229.885 203.548  1.00  0.00     0.126 A 
ATOM     10  C   UNL     1     309.211 228.481 203.627  1.00  0.00     0.039 A 
ENDROOT
BRANCH   2  11
ATOM     11  O   UNL     1     311.176 225.510 204.778  1.00  0.00    -0.389 OA
ATOM     12  H   UNL     1     311.926 225.997 204.347  1.00  0.00     0.211 HD
ENDBRANCH   2  11
BRANCH   3  13
ATOM     13  C   UNL     1     308.660 224.239 204.028  1.00  0.00    -0.001 A 
ATOM     14  C   UNL     1     309.413 223.089 203.735  1.00  0.00     0.057 A 
ATOM     15  C   UNL     1     307.456 224.107 204.737  1.00  0.00     0.012 A 
ATOM     16  C   UNL     1     308.981 221.826 204.163  1.00  0.00     0.157 A 
ATOM     17  C   UNL     1     307.023 222.848 205.164  1.00  0.00     0.050 A 
ATOM     18  C   UNL     1     307.780 221.706 204.882  1.00  0.00     0.157 A 
BRANCH  16  19
ATOM     19  O   UNL     1     309.738 220.692 203.874  1.00  0.00    -0.504 OA
ATOM     20  H   UNL     1     309.588 219.816 204.360  1.00  0.00     0.293 HD
ENDBRANCH  16  19
BRANCH  18  21
ATOM     21  O   UNL     1     307.323 220.464 205.322  1.00  0.00    -0.504 OA
ATOM     22  H   UNL     1     307.382 220.182 206.292  1.00  0.00     0.293 HD
ENDBRANCH  18  21
ENDBRANCH   3  13
BRANCH   9  23
ATOM     23  O   UNL     1     310.432 230.561 203.908  1.00  0.00    -0.507 OA
ATOM     24  H   UNL     1     310.521 231.565 203.793  1.00  0.00     0.293 HD
ENDBRANCH   9  23
BRANCH   7  25
ATOM     25  O   UNL     1     305.876 230.668 202.296  1.00  0.00    -0.508 OA
ATOM     26  H   UNL     1     305.123 230.234 201.774  1.00  0.00     0.293 HD
ENDBRANCH   7  25
TORSDOF 6
ENDMDL
MODEL 6
REMARK VINA RESULT:    -5.565     11.442     14.499
REMARK INTER + INTRA:          -7.077
REMARK INTER:                  -6.774
REMARK INTRA:                  -0.303
REMARK UNBOUND:                -0.373
REMARK SMILES Oc1cc(O)c2c(c1)O[C@H](c1ccc(O)c(O)c1)[C@@H](O)C2
REMARK SMILES IDX 21 1 19 2 10 3 9 4 7 5 8 6 2 7 3 8 4 9 6 10 20 11 11 13
REMARK SMILES IDX 18 14 12 15 16 16 13 17 14 18 17 19 15 21 5 23 1 25
REMARK H PARENT 20 12 17 20 15 22 5 24 1 26
REMARK Flexibility Score: inf
ROOT
ATOM      1  C   UNL     1     317.082 234.589 202.477  1.00  0.00     0.079 C 
ATOM      2  C   UNL     1     318.449 233.945 202.189  1.00  0.00     0.164 C 
ATOM      3  C   UNL     1     319.095 234.623 200.965  1.00  0.00     0.232 C 
ATOM      4  O   UNL     1     318.215 234.549 199.841  1.00  0.00    -0.482 OA
ATOM      5  C   UNL     1     316.826 234.662 199.966  1.00  0.00     0.131 A 
ATOM      6  C   UNL     1     316.040 234.750 198.813  1.00  0.00     0.093 A 
ATOM      7  C   UNL     1     314.648 234.864 198.916  1.00  0.00     0.122 A 
ATOM      8  C   UNL     1     314.045 234.891 200.176  1.00  0.00     0.092 A 
ATOM      9  C   UNL     1     314.823 234.797 201.340  1.00  0.00     0.126 A 
ATOM     10  C   UNL     1     316.220 234.662 201.238  1.00  0.00     0.039 A 
ENDROOT
BRANCH   2  11
ATOM     11  O   UNL     1     319.287 234.089 203.306  1.00  0.00    -0.389 OA
ATOM     12  H   UNL     1     318.722 234.435 204.045  1.00  0.00     0.211 HD
ENDBRANCH   2  11
BRANCH   3  13
ATOM     13  C   UNL     1     320.416 233.978 200.618  1.00  0.00    -0.001 A 
ATOM     14  C   UNL     1     321.627 234.583 200.999  1.00  0.00     0.057 A 
ATOM     15  C   UNL     1     320.449 232.792 199.869  1.00  0.00     0.012 A 
ATOM     16  C   UNL     1     322.854 234.000 200.654  1.00  0.00     0.157 A 
ATOM     17  C   UNL     1     321.671 232.209 199.524  1.00  0.00     0.050 A 
ATOM     18  C   UNL     1     322.875 232.805 199.913  1.00  0.00     0.157 A 
BRANCH  16  19
ATOM     19  O   UNL     1     324.050 234.602 201.040  1.00  0.00    -0.504 OA
ATOM     20  H   UNL     1     324.242 235.577 200.842  1.00  0.00     0.293 HD
ENDBRANCH  16  19
BRANCH  18  21
ATOM     21  O   UNL     1     324.079 232.200 199.554  1.00  0.00    -0.504 OA
ATOM     22  H   UNL     1     324.679 232.580 198.833  1.00  0.00     0.293 HD
ENDBRANCH  18  21
ENDBRANCH   3  13
BRANCH   9  23
ATOM     23  O   UNL     1     314.212 234.839 202.593  1.00  0.00    -0.507 OA
ATOM     24  H   UNL     1     314.476 235.526 203.290  1.00  0.00     0.293 HD
ENDBRANCH   9  23
BRANCH   7  25
ATOM     25  O   UNL     1     313.857 234.955 197.773  1.00  0.00    -0.508 OA
ATOM     26  H   UNL     1     313.568 234.129 197.262  1.00  0.00     0.293 HD
ENDBRANCH   7  25
TORSDOF 6
ENDMDL
MODEL 7
REMARK VINA RESULT:    -5.562     11.588     14.241
REMARK INTER + INTRA:          -7.073
REMARK INTER:                  -6.815
REMARK INTRA:                  -0.258
REMARK UNBOUND:                -0.373
REMARK SMILES Oc1cc(O)c2c(c1)O[C@H](c1ccc(O)c(O)c1)[C@@H](O)C2
REMARK SMILES IDX 21 1 19 2 10 3 9 4 7 5 8 6 2 7 3 8 4 9 6 10 20 11 11 13
REMARK SMILES IDX 18 14 12 15 16 16 13 17 14 18 17 19 15 21 5 23 1 25
REMARK H PARENT 20 12 17 20 15 22 5 24 1 26
REMARK Flexibility Score: inf
ROOT
ATOM      1  C   UNL     1     315.992 234.616 201.209  1.00  0.00     0.079 C 
ATOM      2  C   UNL     1     317.307 234.793 200.430  1.00  0.00     0.164 C 
ATOM      3  C   UNL     1     318.391 233.876 201.026  1.00  0.00     0.232 C 
ATOM      4  O   UNL     1     318.550 234.145 202.421  1.00  0.00    -0.482 OA
ATOM      5  C   UNL     1     317.472 234.469 203.251  1.00  0.00     0.131 A 
ATOM      6  C   UNL     1     317.671 234.555 204.632  1.00  0.00     0.093 A 
ATOM      7  C   UNL     1     316.604 234.877 205.480  1.00  0.00     0.122 A 
ATOM      8  C   UNL     1     315.336 235.113 204.942  1.00  0.00     0.092 A 
ATOM      9  C   UNL     1     315.125 235.037 203.557  1.00  0.00     0.126 A 
ATOM     10  C   UNL     1     316.201 234.733 202.701  1.00  0.00     0.039 A 
ENDROOT
BRANCH   2  11
ATOM     11  O   UNL     1     317.104 234.469 199.078  1.00  0.00    -0.389 OA
ATOM     12  H   UNL     1     316.620 235.234 198.670  1.00  0.00     0.211 HD
ENDBRANCH   2  11
BRANCH   3  13
ATOM     13  C   UNL     1     319.713 234.064 200.320  1.00  0.00    -0.001 A 
ATOM     14  C   UNL     1     320.554 232.964 200.075  1.00  0.00     0.057 A 
ATOM     15  C   UNL     1     320.137 235.347 199.943  1.00  0.00     0.012 A 
ATOM     16  C   UNL     1     321.794 233.141 199.444  1.00  0.00     0.157 A 
ATOM     17  C   UNL     1     321.372 235.526 199.314  1.00  0.00     0.050 A 
ATOM     18  C   UNL     1     322.203 234.430 199.060  1.00  0.00     0.157 A 
BRANCH  16  19
ATOM     19  O   UNL     1     322.619 232.045 199.200  1.00  0.00    -0.504 OA
ATOM     20  H   UNL     1     322.737 231.307 199.883  1.00  0.00     0.293 HD
ENDBRANCH  16  19
BRANCH  18  21
ATOM     21  O   UNL     1     323.430 234.640 198.430  1.00  0.00    -0.504 OA
ATOM     22  H   UNL     1     323.533 235.281 197.654  1.00  0.00     0.293 HD
ENDBRANCH  18  21
ENDBRANCH   3  13
BRANCH   9  23
ATOM     23  O   UNL     1     313.853 235.261 203.032  1.00  0.00    -0.507 OA
ATOM     24  H   UNL     1     313.084 234.628 203.215  1.00  0.00     0.293 HD
ENDBRANCH   9  23
BRANCH   7  25
ATOM     25  O   UNL     1     316.793 234.961 206.857  1.00  0.00    -0.508 OA
ATOM     26  H   UNL     1     317.630 234.600 207.301  1.00  0.00     0.293 HD
ENDBRANCH   7  25
TORSDOF 6
ENDMDL
MODEL 8
REMARK VINA RESULT:    -5.556      8.598     12.172
REMARK INTER + INTRA:          -7.066
REMARK INTER:                  -6.899
REMARK INTRA:                  -0.167
REMARK UNBOUND:                -0.373
REMARK SMILES Oc1cc(O)c2c(c1)O[C@H](c1ccc(O)c(O)c1)[C@@H](O)C2
REMARK SMILES IDX 21 1 19 2 10 3 9 4 7 5 8 6 2 7 3 8 4 9 6 10 20 11 11 13
REMARK SMILES IDX 18 14 12 15 16 16 13 17 14 18 17 19 15 21 5 23 1 25
REMARK H PARENT 20 12 17 20 15 22 5 24 1 26
REMARK Flexibility Score: inf
ROOT
ATOM      1  C   UNL     1     314.297 231.979 194.652  1.00  0.00     0.079 C 
ATOM      2  C   UNL     1     314.592 232.325 196.123  1.00  0.00     0.164 C 
ATOM      3  C   UNL     1     313.380 231.950 196.997  1.00  0.00     0.232 C 
ATOM      4  O   UNL     1     312.204 232.603 196.514  1.00  0.00    -0.482 OA
ATOM      5  C   UNL     1     311.962 232.801 195.150  1.00  0.00     0.131 A 
ATOM      6  C   UNL     1     310.719 233.293 194.739  1.00  0.00     0.093 A 
ATOM      7  C   UNL     1     310.456 233.497 193.379  1.00  0.00     0.122 A 
ATOM      8  C   UNL     1     311.440 233.208 192.430  1.00  0.00     0.092 A 
ATOM      9  C   UNL     1     312.693 232.719 192.831  1.00  0.00     0.126 A 
ATOM     10  C   UNL     1     312.966 232.532 194.199  1.00  0.00     0.039 A 
ENDROOT
BRANCH   2  11
ATOM     11  O   UNL     1     315.726 231.620 196.558  1.00  0.00    -0.389 OA
ATOM     12  H   UNL     1     316.296 231.474 195.759  1.00  0.00     0.211 HD
ENDBRANCH   2  11
BRANCH   3  13
ATOM     13  C   UNL     1     313.612 232.326 198.441  1.00  0.00    -0.001 A 
ATOM     14  C   UNL     1     312.995 231.601 199.476  1.00  0.00     0.057 A 
ATOM     15  C   UNL     1     314.409 233.436 198.764  1.00  0.00     0.012 A 
ATOM     16  C   UNL     1     313.188 231.966 200.816  1.00  0.00     0.157 A 
ATOM     17  C   UNL     1     314.602 233.802 200.098  1.00  0.00     0.050 A 
ATOM     18  C   UNL     1     313.997 233.073 201.127  1.00  0.00     0.157 A 
BRANCH  16  19
ATOM     19  O   UNL     1     312.578 231.238 201.835  1.00  0.00    -0.504 OA
ATOM     20  H   UNL     1     313.028 231.101 202.732  1.00  0.00     0.293 HD
ENDBRANCH  16  19
BRANCH  18  21
ATOM     21  O   UNL     1     314.209 233.461 202.450  1.00  0.00    -0.504 OA
ATOM     22  H   UNL     1     314.887 233.001 203.043  1.00  0.00     0.293 HD
ENDBRANCH  18  21
ENDBRANCH   3  13
BRANCH   9  23
ATOM     23  O   UNL     1     313.663 232.420 191.875  1.00  0.00    -0.507 OA
ATOM     24  H   UNL     1     314.013 231.477 191.750  1.00  0.00     0.293 HD
ENDBRANCH   9  23
BRANCH   7  25
ATOM     25  O   UNL     1     309.220 233.985 192.961  1.00  0.00    -0.508 OA
ATOM     26  H   UNL     1     308.467 233.361 192.695  1.00  0.00     0.293 HD
ENDBRANCH   7  25
TORSDOF 6
ENDMDL
MODEL 9
REMARK VINA RESULT:    -5.196      9.194     11.614
REMARK INTER + INTRA:          -6.633
REMARK INTER:                  -6.338
REMARK INTRA:                  -0.295
REMARK UNBOUND:                -0.373
REMARK SMILES Oc1cc(O)c2c(c1)O[C@H](c1ccc(O)c(O)c1)[C@@H](O)C2
REMARK SMILES IDX 21 1 19 2 10 3 9 4 7 5 8 6 2 7 3 8 4 9 6 10 20 11 11 13
REMARK SMILES IDX 18 14 12 15 16 16 13 17 14 18 17 19 15 21 5 23 1 25
REMARK H PARENT 20 12 17 20 15 22 5 24 1 26
REMARK Flexibility Score: inf
ROOT
ATOM      1  C   UNL     1     312.936 232.432 200.053  1.00  0.00     0.079 C 
ATOM      2  C   UNL     1     313.788 232.744 201.295  1.00  0.00     0.164 C 
ATOM      3  C   UNL     1     314.315 234.189 201.213  1.00  0.00     0.232 C 
ATOM      4  O   UNL     1     315.044 234.379 199.998  1.00  0.00    -0.482 OA
ATOM      5  C   UNL     1     314.664 233.776 198.794  1.00  0.00     0.131 A 
ATOM      6  C   UNL     1     315.318 234.136 197.612  1.00  0.00     0.093 A 
ATOM      7  C   UNL     1     314.953 233.544 196.395  1.00  0.00     0.122 A 
ATOM      8  C   UNL     1     313.931 232.592 196.366  1.00  0.00     0.092 A 
ATOM      9  C   UNL     1     313.272 232.218 197.546  1.00  0.00     0.126 A 
ATOM     10  C   UNL     1     313.651 232.796 198.773  1.00  0.00     0.039 A 
ENDROOT
BRANCH   2  11
ATOM     11  O   UNL     1     313.011 232.589 202.455  1.00  0.00    -0.389 OA
ATOM     12  H   UNL     1     313.615 232.233 203.158  1.00  0.00     0.211 HD
ENDBRANCH   2  11
BRANCH   3  13
ATOM     13  C   UNL     1     315.203 234.514 202.392  1.00  0.00    -0.001 A 
ATOM     14  C   UNL     1     316.534 234.063 202.429  1.00  0.00     0.057 A 
ATOM     15  C   UNL     1     314.692 235.230 203.486  1.00  0.00     0.012 A 
ATOM     16  C   UNL     1     317.350 234.340 203.534  1.00  0.00     0.157 A 
ATOM     17  C   UNL     1     315.504 235.507 204.589  1.00  0.00     0.050 A 
ATOM     18  C   UNL     1     316.831 235.068 204.619  1.00  0.00     0.157 A 
BRANCH  16  19
ATOM     19  O   UNL     1     318.670 233.894 203.560  1.00  0.00    -0.504 OA
ATOM     20  H   UNL     1     318.921 232.959 203.261  1.00  0.00     0.293 HD
ENDBRANCH  16  19
BRANCH  18  21
ATOM     21  O   UNL     1     317.617 235.361 205.733  1.00  0.00    -0.504 OA
ATOM     22  H   UNL     1     318.486 235.874 205.658  1.00  0.00     0.293 HD
ENDBRANCH  18  21
ENDBRANCH   3  13
BRANCH   9  23
ATOM     23  O   UNL     1     312.244 231.277 197.504  1.00  0.00    -0.507 OA
ATOM     24  H   UNL     1     311.525 231.243 198.217  1.00  0.00     0.293 HD
ENDBRANCH   9  23
BRANCH   7  25
ATOM     25  O   UNL     1     315.597 233.899 195.212  1.00  0.00    -0.508 OA
ATOM     26  H   UNL     1     315.371 233.452 194.331  1.00  0.00     0.293 HD
ENDBRANCH   7  25
TORSDOF 6
ENDMDL
