MODEL 1
REMARK VINA RESULT:    -3.393      0.000      0.000
REMARK INTER + INTRA:          -6.499
REMARK INTER:                  -5.178
REMARK INTRA:                  -1.322
REMARK UNBOUND:                -1.322
REMARK SMILES CCCCCCCCCC=CC(=O)[O-]
REMARK SMILES IDX 7 1 8 2 9 3 10 4 11 5 12 6 13 7 14 8 6 9 5 10 4 11 3 12 2 13
REMARK SMILES IDX 1 14
REMARK H PARENT
REMARK Flexibility Score: inf
ROOT
ATOM      1  C   UNL     1      56.957  27.748  51.915  1.00  0.00     0.000 C 
ENDROOT
BRANCH   1   2
ATOM      2  C   UNL     1      56.881  28.891  50.893  1.00  0.00     0.004 C 
BRANCH   2   3
ATOM      3  C   UNL     1      58.255  29.533  50.641  1.00  0.00     0.027 C 
BRANCH   3   4
ATOM      4  C   UNL     1      58.776  29.248  49.256  1.00  0.00    -0.025 C 
ATOM      5  C   UNL     1      59.578  28.227  48.910  1.00  0.00     0.020 C 
BRANCH   5   6
ATOM      6  C   UNL     1      60.070  27.152  49.797  1.00  0.00     0.064 C 
ATOM      7  O   UNL     1      61.000  27.339  50.623  1.00  0.00    -0.545 OA
ATOM      8  O   UNL     1      59.468  25.902  49.732  1.00  0.00    -0.545 OA
ENDBRANCH   5   6
ENDBRANCH   3   4
ENDBRANCH   2   3
ENDBRANCH   1   2
BRANCH   1   9
ATOM      9  C   UNL     1      56.228  26.500  51.402  1.00  0.00     0.000 C 
BRANCH   9  10
ATOM     10  C   UNL     1      56.052  26.554  49.878  1.00  0.00     0.000 C 
BRANCH  10  11
ATOM     11  C   UNL     1      54.594  26.335  49.435  1.00  0.00    -0.000 C 
BRANCH  11  12
ATOM     12  C   UNL     1      53.542  27.128  50.237  1.00  0.00    -0.000 C 
BRANCH  12  13
ATOM     13  C   UNL     1      53.126  28.471  49.613  1.00  0.00    -0.003 C 
ATOM     14  C   UNL     1      53.369  29.661  50.542  1.00  0.00     0.004 C 
ENDBRANCH  12  13
ENDBRANCH  11  12
ENDBRANCH  10  11
ENDBRANCH   9  10
ENDBRANCH   1   9
TORSDOF 9
ENDMDL
MODEL 2
REMARK VINA RESULT:    -3.356     11.774     13.493
REMARK INTER + INTRA:          -6.443
REMARK INTER:                  -5.271
REMARK INTRA:                  -1.172
REMARK UNBOUND:                -1.322
REMARK SMILES CCCCCCCCCC=CC(=O)[O-]
REMARK SMILES IDX 7 1 8 2 9 3 10 4 11 5 12 6 13 7 14 8 6 9 5 10 4 11 3 12 2 13
REMARK SMILES IDX 1 14
REMARK H PARENT
REMARK Flexibility Score: inf
ROOT
ATOM      1  C   UNL     1      61.062  31.293  61.467  1.00  0.00     0.000 C 
ENDROOT
BRANCH   1   2
ATOM      2  C   UNL     1      62.153  30.213  61.464  1.00  0.00     0.004 C 
BRANCH   2   3
ATOM      3  C   UNL     1      63.554  30.806  61.680  1.00  0.00     0.027 C 
BRANCH   3   4
ATOM      4  C   UNL     1      64.366  30.837  60.411  1.00  0.00    -0.025 C 
ATOM      5  C   UNL     1      65.348  29.982  60.081  1.00  0.00     0.020 C 
BRANCH   5   6
ATOM      6  C   UNL     1      65.798  28.812  60.864  1.00  0.00     0.064 C 
ATOM      7  O   UNL     1      65.156  27.731  60.882  1.00  0.00    -0.545 OA
ATOM      8  O   UNL     1      66.984  28.903  61.582  1.00  0.00    -0.545 OA
ENDBRANCH   5   6
ENDBRANCH   3   4
ENDBRANCH   2   3
ENDBRANCH   1   2
BRANCH   1   9
ATOM      9  C   UNL     1      60.538  31.552  60.049  1.00  0.00     0.000 C 
BRANCH   9  10
ATOM     10  C   UNL     1      61.009  32.917  59.528  1.00  0.00     0.000 C 
BRANCH  10  11
ATOM     11  C   UNL     1      61.550  33.829  60.643  1.00  0.00    -0.000 C 
BRANCH  11  12
ATOM     12  C   UNL     1      62.834  34.606  60.286  1.00  0.00    -0.000 C 
BRANCH  12  13
ATOM     13  C   UNL     1      63.992  34.443  61.286  1.00  0.00    -0.003 C 
ATOM     14  C   UNL     1      64.480  35.775  61.855  1.00  0.00     0.004 C 
ENDBRANCH  12  13
ENDBRANCH  11  12
ENDBRANCH  10  11
ENDBRANCH   9  10
ENDBRANCH   1   9
TORSDOF 9
ENDMDL
MODEL 3
REMARK VINA RESULT:    -3.246     11.543     13.338
REMARK INTER + INTRA:          -6.276
REMARK INTER:                  -5.158
REMARK INTRA:                  -1.117
REMARK UNBOUND:                -1.322
REMARK SMILES CCCCCCCCCC=CC(=O)[O-]
REMARK SMILES IDX 7 1 8 2 9 3 10 4 11 5 12 6 13 7 14 8 6 9 5 10 4 11 3 12 2 13
REMARK SMILES IDX 1 14
REMARK H PARENT
REMARK Flexibility Score: inf
ROOT
ATOM      1  C   UNL     1      60.766  31.907  61.193  1.00  0.00     0.000 C 
ENDROOT
BRANCH   1   2
ATOM      2  C   UNL     1      60.897  30.381  61.292  1.00  0.00     0.004 C 
BRANCH   2   3
ATOM      3  C   UNL     1      62.335  29.906  61.033  1.00  0.00     0.027 C 
BRANCH   3   4
ATOM      4  C   UNL     1      63.362  30.838  61.623  1.00  0.00    -0.025 C 
ATOM      5  C   UNL     1      64.332  31.474  60.945  1.00  0.00     0.020 C 
BRANCH   5   6
ATOM      6  C   UNL     1      64.562  31.431  59.486  1.00  0.00     0.064 C 
ATOM      7  O   UNL     1      64.191  32.359  58.722  1.00  0.00    -0.545 OA
ATOM      8  O   UNL     1      65.233  30.341  58.945  1.00  0.00    -0.545 OA
ENDBRANCH   5   6
ENDBRANCH   3   4
ENDBRANCH   2   3
ENDBRANCH   1   2
BRANCH   1   9
ATOM      9  C   UNL     1      60.743  32.364  59.728  1.00  0.00     0.000 C 
BRANCH   9  10
ATOM     10  C   UNL     1      61.034  33.867  59.616  1.00  0.00     0.000 C 
BRANCH  10  11
ATOM     11  C   UNL     1      62.028  34.366  60.679  1.00  0.00    -0.000 C 
BRANCH  11  12
ATOM     12  C   UNL     1      62.008  35.888  60.930  1.00  0.00    -0.000 C 
BRANCH  12  13
ATOM     13  C   UNL     1      63.319  36.474  61.481  1.00  0.00    -0.003 C 
ATOM     14  C   UNL     1      64.349  35.401  61.833  1.00  0.00     0.004 C 
ENDBRANCH  12  13
ENDBRANCH  11  12
ENDBRANCH  10  11
ENDBRANCH   9  10
ENDBRANCH   1   9
TORSDOF 9
ENDMDL
MODEL 4
REMARK VINA RESULT:    -3.210      1.492      2.660
REMARK INTER + INTRA:          -6.221
REMARK INTER:                  -5.087
REMARK INTRA:                  -1.134
REMARK UNBOUND:                -1.322
REMARK SMILES CCCCCCCCCC=CC(=O)[O-]
REMARK SMILES IDX 7 1 8 2 9 3 10 4 11 5 12 6 13 7 14 8 6 9 5 10 4 11 3 12 2 13
REMARK SMILES IDX 1 14
REMARK H PARENT
REMARK Flexibility Score: inf
ROOT
ATOM      1  C   UNL     1      57.961  28.809  52.394  1.00  0.00     0.000 C 
ENDROOT
BRANCH   1   2
ATOM      2  C   UNL     1      57.627  27.310  52.377  1.00  0.00     0.004 C 
BRANCH   2   3
ATOM      3  C   UNL     1      58.817  26.459  51.907  1.00  0.00     0.027 C 
BRANCH   3   4
ATOM      4  C   UNL     1      58.611  25.899  50.523  1.00  0.00    -0.025 C 
ATOM      5  C   UNL     1      58.993  26.478  49.372  1.00  0.00     0.020 C 
BRANCH   5   6
ATOM      6  C   UNL     1      59.734  27.749  49.228  1.00  0.00     0.064 C 
ATOM      7  O   UNL     1      59.165  28.822  48.899  1.00  0.00    -0.545 OA
ATOM      8  O   UNL     1      61.098  27.762  49.489  1.00  0.00    -0.545 OA
ENDBRANCH   5   6
ENDBRANCH   3   4
ENDBRANCH   2   3
ENDBRANCH   1   2
BRANCH   1   9
ATOM      9  C   UNL     1      56.942  29.609  51.573  1.00  0.00     0.000 C 
BRANCH   9  10
ATOM     10  C   UNL     1      56.145  28.689  50.637  1.00  0.00     0.000 C 
BRANCH  10  11
ATOM     11  C   UNL     1      54.706  29.181  50.396  1.00  0.00    -0.000 C 
BRANCH  11  12
ATOM     12  C   UNL     1      53.727  28.107  49.879  1.00  0.00    -0.000 C 
BRANCH  12  13
ATOM     13  C   UNL     1      54.293  26.677  49.836  1.00  0.00    -0.003 C 
ATOM     14  C   UNL     1      53.493  25.747  48.924  1.00  0.00     0.004 C 
ENDBRANCH  12  13
ENDBRANCH  11  12
ENDBRANCH  10  11
ENDBRANCH   9  10
ENDBRANCH   1   9
TORSDOF 9
ENDMDL
MODEL 5
REMARK VINA RESULT:    -3.205      1.236      2.209
REMARK INTER + INTRA:          -6.213
REMARK INTER:                  -4.994
REMARK INTRA:                  -1.220
REMARK UNBOUND:                -1.322
REMARK SMILES CCCCCCCCCC=CC(=O)[O-]
REMARK SMILES IDX 7 1 8 2 9 3 10 4 11 5 12 6 13 7 14 8 6 9 5 10 4 11 3 12 2 13
REMARK SMILES IDX 1 14
REMARK H PARENT
REMARK Flexibility Score: inf
ROOT
ATOM      1  C   UNL     1      56.279  29.421  53.202  1.00  0.00     0.000 C 
ENDROOT
BRANCH   1   2
ATOM      2  C   UNL     1      57.159  30.073  52.126  1.00  0.00     0.004 C 
BRANCH   2   3
ATOM      3  C   UNL     1      57.945  29.033  51.313  1.00  0.00     0.027 C 
BRANCH   3   4
ATOM      4  C   UNL     1      58.020  29.384  49.850  1.00  0.00    -0.025 C 
ATOM      5  C   UNL     1      58.915  28.909  48.969  1.00  0.00     0.020 C 
BRANCH   5   6
ATOM      6  C   UNL     1      59.974  27.913  49.237  1.00  0.00     0.064 C 
ATOM      7  O   UNL     1      61.169  28.246  49.446  1.00  0.00    -0.545 OA
ATOM      8  O   UNL     1      59.631  26.568  49.285  1.00  0.00    -0.545 OA
ENDBRANCH   5   6
ENDBRANCH   3   4
ENDBRANCH   2   3
ENDBRANCH   1   2
BRANCH   1   9
ATOM      9  C   UNL     1      55.118  28.644  52.567  1.00  0.00     0.000 C 
BRANCH   9  10
ATOM     10  C   UNL     1      54.371  29.510  51.543  1.00  0.00     0.000 C 
BRANCH  10  11
ATOM     11  C   UNL     1      54.271  28.847  50.158  1.00  0.00    -0.000 C 
BRANCH  11  12
ATOM     12  C   UNL     1      53.714  27.409  50.161  1.00  0.00    -0.000 C 
BRANCH  12  13
ATOM     13  C   UNL     1      54.586  26.372  49.432  1.00  0.00    -0.003 C 
ATOM     14  C   UNL     1      55.986  26.243  50.033  1.00  0.00     0.004 C 
ENDBRANCH  12  13
ENDBRANCH  11  12
ENDBRANCH  10  11
ENDBRANCH   9  10
ENDBRANCH   1   9
TORSDOF 9
ENDMDL
MODEL 6
REMARK VINA RESULT:    -3.187      1.102      1.729
REMARK INTER + INTRA:          -6.186
REMARK INTER:                  -5.221
REMARK INTRA:                  -0.965
REMARK UNBOUND:                -1.322
REMARK SMILES CCCCCCCCCC=CC(=O)[O-]
REMARK SMILES IDX 7 1 8 2 9 3 10 4 11 5 12 6 13 7 14 8 6 9 5 10 4 11 3 12 2 13
REMARK SMILES IDX 1 14
REMARK H PARENT
REMARK Flexibility Score: inf
ROOT
ATOM      1  C   UNL     1      56.994  28.692  50.192  1.00  0.00     0.000 C 
ENDROOT
BRANCH   1   2
ATOM      2  C   UNL     1      58.398  29.225  49.874  1.00  0.00     0.004 C 
BRANCH   2   3
ATOM      3  C   UNL     1      59.204  28.247  49.004  1.00  0.00     0.027 C 
BRANCH   3   4
ATOM      4  C   UNL     1      60.637  28.125  49.455  1.00  0.00    -0.025 C 
ATOM      5  C   UNL     1      61.162  27.102  50.149  1.00  0.00     0.020 C 
BRANCH   5   6
ATOM      6  C   UNL     1      60.461  25.869  50.568  1.00  0.00     0.064 C 
ATOM      7  O   UNL     1      60.398  24.851  49.832  1.00  0.00    -0.545 OA
ATOM      8  O   UNL     1      59.877  25.827  51.827  1.00  0.00    -0.545 OA
ENDBRANCH   5   6
ENDBRANCH   3   4
ENDBRANCH   2   3
ENDBRANCH   1   2
BRANCH   1   9
ATOM      9  C   UNL     1      56.988  27.160  50.256  1.00  0.00     0.000 C 
BRANCH   9  10
ATOM     10  C   UNL     1      55.616  26.632  50.700  1.00  0.00     0.000 C 
BRANCH  10  11
ATOM     11  C   UNL     1      54.666  26.367  49.518  1.00  0.00    -0.000 C 
BRANCH  11  12
ATOM     12  C   UNL     1      53.408  27.259  49.478  1.00  0.00    -0.000 C 
BRANCH  12  13
ATOM     13  C   UNL     1      53.266  28.235  50.658  1.00  0.00    -0.003 C 
ATOM     14  C   UNL     1      53.364  29.701  50.235  1.00  0.00     0.004 C 
ENDBRANCH  12  13
ENDBRANCH  11  12
ENDBRANCH  10  11
ENDBRANCH   9  10
ENDBRANCH   1   9
TORSDOF 9
ENDMDL
MODEL 7
REMARK VINA RESULT:    -3.167     11.463     13.219
REMARK INTER + INTRA:          -6.155
REMARK INTER:                  -4.906
REMARK INTRA:                  -1.249
REMARK UNBOUND:                -1.322
REMARK SMILES CCCCCCCCCC=CC(=O)[O-]
REMARK SMILES IDX 7 1 8 2 9 3 10 4 11 5 12 6 13 7 14 8 6 9 5 10 4 11 3 12 2 13
REMARK SMILES IDX 1 14
REMARK H PARENT
REMARK Flexibility Score: inf
ROOT
ATOM      1  C   UNL     1      61.085  32.624  59.608  1.00  0.00     0.000 C 
ENDROOT
BRANCH   1   2
ATOM      2  C   UNL     1      60.842  32.333  61.096  1.00  0.00     0.004 C 
BRANCH   2   3
ATOM      3  C   UNL     1      60.745  30.826  61.382  1.00  0.00     0.027 C 
BRANCH   3   4
ATOM      4  C   UNL     1      62.009  30.275  61.991  1.00  0.00    -0.025 C 
ATOM      5  C   UNL     1      62.954  29.571  61.347  1.00  0.00     0.020 C 
BRANCH   5   6
ATOM      6  C   UNL     1      62.977  29.235  59.908  1.00  0.00     0.064 C 
ATOM      7  O   UNL     1      62.431  28.197  59.454  1.00  0.00    -0.545 OA
ATOM      8  O   UNL     1      63.600  30.109  59.027  1.00  0.00    -0.545 OA
ENDBRANCH   5   6
ENDBRANCH   3   4
ENDBRANCH   2   3
ENDBRANCH   1   2
BRANCH   1   9
ATOM      9  C   UNL     1      62.313  33.523  59.416  1.00  0.00     0.000 C 
BRANCH   9  10
ATOM     10  C   UNL     1      63.340  33.298  60.535  1.00  0.00     0.000 C 
BRANCH  10  11
ATOM     11  C   UNL     1      63.884  34.613  61.121  1.00  0.00    -0.000 C 
BRANCH  11  12
ATOM     12  C   UNL     1      63.323  35.897  60.476  1.00  0.00    -0.000 C 
BRANCH  12  13
ATOM     13  C   UNL     1      62.322  36.678  61.345  1.00  0.00    -0.003 C 
ATOM     14  C   UNL     1      60.957  36.845  60.677  1.00  0.00     0.004 C 
ENDBRANCH  12  13
ENDBRANCH  11  12
ENDBRANCH  10  11
ENDBRANCH   9  10
ENDBRANCH   1   9
TORSDOF 9
ENDMDL
MODEL 8
REMARK VINA RESULT:    -3.163     12.067     13.823
REMARK INTER + INTRA:          -6.149
REMARK INTER:                  -4.735
REMARK INTRA:                  -1.413
REMARK UNBOUND:                -1.322
REMARK SMILES CCCCCCCCCC=CC(=O)[O-]
REMARK SMILES IDX 7 1 8 2 9 3 10 4 11 5 12 6 13 7 14 8 6 9 5 10 4 11 3 12 2 13
REMARK SMILES IDX 1 14
REMARK H PARENT
REMARK Flexibility Score: inf
ROOT
ATOM      1  C   UNL     1      63.718  33.102  59.238  1.00  0.00     0.000 C 
ENDROOT
BRANCH   1   2
ATOM      2  C   UNL     1      62.416  33.915  59.197  1.00  0.00     0.004 C 
BRANCH   2   3
ATOM      3  C   UNL     1      61.926  34.292  60.604  1.00  0.00     0.027 C 
BRANCH   3   4
ATOM      4  C   UNL     1      61.799  35.782  60.787  1.00  0.00    -0.025 C 
ATOM      5  C   UNL     1      62.798  36.628  61.089  1.00  0.00     0.020 C 
BRANCH   5   6
ATOM      6  C   UNL     1      64.226  36.284  61.252  1.00  0.00     0.064 C 
ATOM      7  O   UNL     1      64.682  35.809  62.324  1.00  0.00    -0.545 OA
ATOM      8  O   UNL     1      65.087  36.468  60.178  1.00  0.00    -0.545 OA
ENDBRANCH   5   6
ENDBRANCH   3   4
ENDBRANCH   2   3
ENDBRANCH   1   2
BRANCH   1   9
ATOM      9  C   UNL     1      64.003  32.590  60.655  1.00  0.00     0.000 C 
BRANCH   9  10
ATOM     10  C   UNL     1      64.290  31.081  60.648  1.00  0.00     0.000 C 
BRANCH  10  11
ATOM     11  C   UNL     1      63.409  30.300  61.640  1.00  0.00    -0.000 C 
BRANCH  11  12
ATOM     12  C   UNL     1      61.932  30.743  61.691  1.00  0.00    -0.000 C 
BRANCH  12  13
ATOM     13  C   UNL     1      61.003  30.023  60.700  1.00  0.00    -0.003 C 
ATOM     14  C   UNL     1      60.326  30.978  59.717  1.00  0.00     0.004 C 
ENDBRANCH  12  13
ENDBRANCH  11  12
ENDBRANCH  10  11
ENDBRANCH   9  10
ENDBRANCH   1   9
TORSDOF 9
ENDMDL
MODEL 9
REMARK VINA RESULT:    -3.136     11.081     13.075
REMARK INTER + INTRA:          -6.108
REMARK INTER:                  -4.467
REMARK INTRA:                  -1.640
REMARK UNBOUND:                -1.322
REMARK SMILES CCCCCCCCCC=CC(=O)[O-]
REMARK SMILES IDX 7 1 8 2 9 3 10 4 11 5 12 6 13 7 14 8 6 9 5 10 4 11 3 12 2 13
REMARK SMILES IDX 1 14
REMARK H PARENT
REMARK Flexibility Score: inf
ROOT
ATOM      1  C   UNL     1      62.288  33.069  57.675  1.00  0.00     0.000 C 
ENDROOT
BRANCH   1   2
ATOM      2  C   UNL     1      60.950  32.811  58.382  1.00  0.00     0.004 C 
BRANCH   2   3
ATOM      3  C   UNL     1      61.006  31.575  59.294  1.00  0.00     0.027 C 
BRANCH   3   4
ATOM      4  C   UNL     1      60.693  31.906  60.730  1.00  0.00    -0.025 C 
ATOM      5  C   UNL     1      61.191  31.283  61.811  1.00  0.00     0.020 C 
BRANCH   5   6
ATOM      6  C   UNL     1      62.180  30.184  61.818  1.00  0.00     0.064 C 
ATOM      7  O   UNL     1      63.418  30.398  61.877  1.00  0.00    -0.545 OA
ATOM      8  O   UNL     1      61.724  28.873  61.783  1.00  0.00    -0.545 OA
ENDBRANCH   5   6
ENDBRANCH   3   4
ENDBRANCH   2   3
ENDBRANCH   1   2
BRANCH   1   9
ATOM      9  C   UNL     1      63.455  32.472  58.471  1.00  0.00     0.000 C 
BRANCH   9  10
ATOM     10  C   UNL     1      64.262  33.572  59.175  1.00  0.00     0.000 C 
BRANCH  10  11
ATOM     11  C   UNL     1      64.019  33.615  60.694  1.00  0.00    -0.000 C 
BRANCH  11  12
ATOM     12  C   UNL     1      63.538  34.975  61.240  1.00  0.00    -0.000 C 
BRANCH  12  13
ATOM     13  C   UNL     1      62.693  35.807  60.261  1.00  0.00    -0.003 C 
ATOM     14  C   UNL     1      61.193  35.718  60.545  1.00  0.00     0.004 C 
ENDBRANCH  12  13
ENDBRANCH  11  12
ENDBRANCH  10  11
ENDBRANCH   9  10
ENDBRANCH   1   9
TORSDOF 9
ENDMDL
