MODEL 1
REMARK VINA RESULT:    -5.577      0.000      0.000
REMARK INTER + INTRA:          -6.127
REMARK INTER:                  -5.903
REMARK INTRA:                  -0.224
REMARK UNBOUND:                -0.224
REMARK SMILES CC(C)[C@@H]1CC[C@H](C)[C@H]2C=C[C@@H](C)C[C@H]21
REMARK SMILES IDX 8 1 7 2 6 3 5 4 4 5 15 6 9 7 10 8 11 9 12 10 14 11 13 12
REMARK SMILES IDX 2 13 1 14 3 15
REMARK H PARENT
REMARK Flexibility Score: inf
ROOT
ATOM      1  C   UNL     1      13.026   7.793  21.335  1.00  0.00     0.008 C 
ATOM      2  C   UNL     1      13.366   8.995  22.235  1.00  0.00    -0.007 C 
ATOM      3  C   UNL     1      12.245   9.300  23.237  1.00  0.00     0.004 C 
ATOM      4  C   UNL     1      12.136   8.218  24.309  1.00  0.00     0.004 C 
ATOM      5  C   UNL     1      13.452   8.069  25.110  1.00  0.00    -0.005 C 
ATOM      6  C   UNL     1      14.688   7.823  24.175  1.00  0.00    -0.000 C 
ATOM      7  C   UNL     1      14.727   8.803  22.951  1.00  0.00     0.018 C 
ATOM      8  C   UNL     1      15.343  10.125  23.355  1.00  0.00    -0.027 C 
ATOM      9  C   UNL     1      16.505  10.114  24.018  1.00  0.00    -0.028 C 
ATOM     10  C   UNL     1      17.121   8.785  24.378  1.00  0.00     0.008 C 
ATOM     11  C   UNL     1      16.033   7.875  24.995  1.00  0.00     0.012 C 
ATOM     12  C   UNL     1      18.303   8.967  25.335  1.00  0.00     0.012 C 
ENDROOT
BRANCH   5  13
ATOM     13  C   UNL     1      13.318   6.989  26.243  1.00  0.00    -0.014 C 
ATOM     14  C   UNL     1      13.483   5.537  25.756  1.00  0.00     0.007 C 
ATOM     15  C   UNL     1      11.998   7.133  27.015  1.00  0.00     0.007 C 
ENDBRANCH   5  13
TORSDOF 1
ENDMDL
MODEL 2
REMARK VINA RESULT:    -5.356      1.254      3.624
REMARK INTER + INTRA:          -5.894
REMARK INTER:                  -5.726
REMARK INTRA:                  -0.168
REMARK UNBOUND:                -0.224
REMARK SMILES CC(C)[C@@H]1CC[C@H](C)[C@H]2C=C[C@@H](C)C[C@H]21
REMARK SMILES IDX 8 1 7 2 6 3 5 4 4 5 15 6 9 7 10 8 11 9 12 10 14 11 13 12
REMARK SMILES IDX 2 13 1 14 3 15
REMARK H PARENT
REMARK Flexibility Score: inf
ROOT
ATOM      1  C   UNL     1      11.248   8.942  26.013  1.00  0.00     0.008 C 
ATOM      2  C   UNL     1      12.387   7.916  25.877  1.00  0.00    -0.007 C 
ATOM      3  C   UNL     1      12.036   6.791  24.894  1.00  0.00     0.004 C 
ATOM      4  C   UNL     1      11.989   7.295  23.454  1.00  0.00     0.004 C 
ATOM      5  C   UNL     1      13.344   7.894  23.011  1.00  0.00    -0.005 C 
ATOM      6  C   UNL     1      13.842   9.015  23.990  1.00  0.00    -0.000 C 
ATOM      7  C   UNL     1      13.726   8.599  25.499  1.00  0.00     0.018 C 
ATOM      8  C   UNL     1      14.920   7.763  25.907  1.00  0.00    -0.027 C 
ATOM      9  C   UNL     1      16.146   8.210  25.610  1.00  0.00    -0.028 C 
ATOM     10  C   UNL     1      16.279   9.498  24.835  1.00  0.00     0.008 C 
ATOM     11  C   UNL     1      15.309   9.466  23.631  1.00  0.00     0.012 C 
ATOM     12  C   UNL     1      17.725   9.720  24.379  1.00  0.00     0.012 C 
ENDROOT
BRANCH   5  13
ATOM     13  C   UNL     1      13.306   8.366  21.512  1.00  0.00    -0.014 C 
ATOM     14  C   UNL     1      12.790   9.803  21.315  1.00  0.00     0.007 C 
ATOM     15  C   UNL     1      12.501   7.397  20.632  1.00  0.00     0.007 C 
ENDBRANCH   5  13
TORSDOF 1
ENDMDL
MODEL 3
REMARK VINA RESULT:    -5.322      1.466      4.399
REMARK INTER + INTRA:          -5.858
REMARK INTER:                  -5.615
REMARK INTRA:                  -0.243
REMARK UNBOUND:                -0.224
REMARK SMILES CC(C)[C@@H]1CC[C@H](C)[C@H]2C=C[C@@H](C)C[C@H]21
REMARK SMILES IDX 8 1 7 2 6 3 5 4 4 5 15 6 9 7 10 8 11 9 12 10 14 11 13 12
REMARK SMILES IDX 2 13 1 14 3 15
REMARK H PARENT
REMARK Flexibility Score: inf
ROOT
ATOM      1  C   UNL     1      14.808  10.124  23.848  1.00  0.00     0.008 C 
ATOM      2  C   UNL     1      14.694   8.773  23.118  1.00  0.00    -0.007 C 
ATOM      3  C   UNL     1      15.294   7.622  23.936  1.00  0.00     0.004 C 
ATOM      4  C   UNL     1      14.448   7.305  25.167  1.00  0.00     0.004 C 
ATOM      5  C   UNL     1      13.005   6.902  24.783  1.00  0.00    -0.005 C 
ATOM      6  C   UNL     1      12.311   7.981  23.878  1.00  0.00    -0.000 C 
ATOM      7  C   UNL     1      13.231   8.471  22.705  1.00  0.00     0.018 C 
ATOM      8  C   UNL     1      13.161   7.505  21.543  1.00  0.00    -0.027 C 
ATOM      9  C   UNL     1      11.958   7.121  21.101  1.00  0.00    -0.028 C 
ATOM     10  C   UNL     1      10.729   7.626  21.815  1.00  0.00     0.008 C 
ATOM     11  C   UNL     1      10.926   7.458  23.339  1.00  0.00     0.012 C 
ATOM     12  C   UNL     1       9.472   6.897  21.331  1.00  0.00     0.012 C 
ENDROOT
BRANCH   5  13
ATOM     13  C   UNL     1      12.152   6.529  26.050  1.00  0.00    -0.014 C 
ATOM     14  C   UNL     1      11.635   7.743  26.844  1.00  0.00     0.007 C 
ATOM     15  C   UNL     1      12.913   5.578  26.987  1.00  0.00     0.007 C 
ENDBRANCH   5  13
TORSDOF 1
ENDMDL
MODEL 4
REMARK VINA RESULT:    -5.248      1.078      4.188
REMARK INTER + INTRA:          -5.779
REMARK INTER:                  -5.509
REMARK INTRA:                  -0.270
REMARK UNBOUND:                -0.224
REMARK SMILES CC(C)[C@@H]1CC[C@H](C)[C@H]2C=C[C@@H](C)C[C@H]21
REMARK SMILES IDX 8 1 7 2 6 3 5 4 4 5 15 6 9 7 10 8 11 9 12 10 14 11 13 12
REMARK SMILES IDX 2 13 1 14 3 15
REMARK H PARENT
REMARK Flexibility Score: inf
ROOT
ATOM      1  C   UNL     1      12.116  10.125  23.462  1.00  0.00     0.008 C 
ATOM      2  C   UNL     1      12.477   8.635  23.322  1.00  0.00    -0.007 C 
ATOM      3  C   UNL     1      13.629   8.411  22.333  1.00  0.00     0.004 C 
ATOM      4  C   UNL     1      14.954   8.931  22.886  1.00  0.00     0.004 C 
ATOM      5  C   UNL     1      15.335   8.234  24.213  1.00  0.00    -0.005 C 
ATOM      6  C   UNL     1      14.193   8.337  25.284  1.00  0.00    -0.000 C 
ATOM      7  C   UNL     1      12.779   7.990  24.698  1.00  0.00     0.018 C 
ATOM      8  C   UNL     1      12.573   6.491  24.676  1.00  0.00    -0.027 C 
ATOM      9  C   UNL     1      12.833   5.792  25.787  1.00  0.00    -0.028 C 
ATOM     10  C   UNL     1      13.371   6.523  26.993  1.00  0.00     0.008 C 
ATOM     11  C   UNL     1      14.523   7.453  26.546  1.00  0.00     0.012 C 
ATOM     12  C   UNL     1      13.836   5.539  28.071  1.00  0.00     0.012 C 
ENDROOT
BRANCH   5  13
ATOM     13  C   UNL     1      16.724   8.737  24.752  1.00  0.00    -0.014 C 
ATOM     14  C   UNL     1      17.139  10.125  24.231  1.00  0.00     0.007 C 
ATOM     15  C   UNL     1      17.843   7.720  24.476  1.00  0.00     0.007 C 
ENDBRANCH   5  13
TORSDOF 1
ENDMDL
MODEL 5
REMARK VINA RESULT:    -5.218      9.099     11.622
REMARK INTER + INTRA:          -5.747
REMARK INTER:                  -5.543
REMARK INTRA:                  -0.204
REMARK UNBOUND:                -0.224
REMARK SMILES CC(C)[C@@H]1CC[C@H](C)[C@H]2C=C[C@@H](C)C[C@H]21
REMARK SMILES IDX 8 1 7 2 6 3 5 4 4 5 15 6 9 7 10 8 11 9 12 10 14 11 13 12
REMARK SMILES IDX 2 13 1 14 3 15
REMARK H PARENT
REMARK Flexibility Score: inf
ROOT
ATOM      1  C   UNL     1       1.261   7.890  18.758  1.00  0.00     0.008 C 
ATOM      2  C   UNL     1       2.297   8.999  18.504  1.00  0.00    -0.007 C 
ATOM      3  C   UNL     1       2.775   9.652  19.808  1.00  0.00     0.004 C 
ATOM      4  C   UNL     1       3.637   8.698  20.633  1.00  0.00     0.004 C 
ATOM      5  C   UNL     1       4.891   8.240  19.853  1.00  0.00    -0.005 C 
ATOM      6  C   UNL     1       4.526   7.616  18.460  1.00  0.00    -0.000 C 
ATOM      7  C   UNL     1       3.490   8.482  17.661  1.00  0.00     0.018 C 
ATOM      8  C   UNL     1       4.194   9.605  16.932  1.00  0.00    -0.027 C 
ATOM      9  C   UNL     1       5.270   9.313  16.192  1.00  0.00    -0.028 C 
ATOM     10  C   UNL     1       5.763   7.887  16.161  1.00  0.00     0.008 C 
ATOM     11  C   UNL     1       5.823   7.343  17.608  1.00  0.00     0.012 C 
ATOM     12  C   UNL     1       7.127   7.790  15.472  1.00  0.00     0.012 C 
ENDROOT
BRANCH   5  13
ATOM     13  C   UNL     1       5.800   7.298  20.724  1.00  0.00    -0.014 C 
ATOM     14  C   UNL     1       5.242   7.003  22.128  1.00  0.00     0.007 C 
ATOM     15  C   UNL     1       7.235   7.836  20.835  1.00  0.00     0.007 C 
ENDBRANCH   5  13
TORSDOF 1
ENDMDL
MODEL 6
REMARK VINA RESULT:    -5.163     10.789     13.334
REMARK INTER + INTRA:          -5.690
REMARK INTER:                  -5.490
REMARK INTRA:                  -0.200
REMARK UNBOUND:                -0.224
REMARK SMILES CC(C)[C@@H]1CC[C@H](C)[C@H]2C=C[C@@H](C)C[C@H]21
REMARK SMILES IDX 8 1 7 2 6 3 5 4 4 5 15 6 9 7 10 8 11 9 12 10 14 11 13 12
REMARK SMILES IDX 2 13 1 14 3 15
REMARK H PARENT
REMARK Flexibility Score: inf
ROOT
ATOM      1  C   UNL     1       3.750   5.982  16.449  1.00  0.00     0.008 C 
ATOM      2  C   UNL     1       4.280   7.420  16.597  1.00  0.00    -0.007 C 
ATOM      3  C   UNL     1       3.583   8.392  15.636  1.00  0.00     0.004 C 
ATOM      4  C   UNL     1       2.127   8.628  16.030  1.00  0.00     0.004 C 
ATOM      5  C   UNL     1       2.007   9.214  17.457  1.00  0.00    -0.005 C 
ATOM      6  C   UNL     1       2.750   8.334  18.522  1.00  0.00    -0.000 C 
ATOM      7  C   UNL     1       4.190   7.912  18.063  1.00  0.00     0.018 C 
ATOM      8  C   UNL     1       5.178   9.022  18.347  1.00  0.00    -0.027 C 
ATOM      9  C   UNL     1       5.188   9.575  19.566  1.00  0.00    -0.028 C 
ATOM     10  C   UNL     1       4.180   9.102  20.584  1.00  0.00     0.008 C 
ATOM     11  C   UNL     1       2.782   9.053  19.924  1.00  0.00     0.012 C 
ATOM     12  C   UNL     1       4.181  10.005  21.821  1.00  0.00     0.012 C 
ENDROOT
BRANCH   5  13
ATOM     13  C   UNL     1       0.510   9.502  17.839  1.00  0.00    -0.014 C 
ATOM     14  C   UNL     1      -0.251   8.277  18.378  1.00  0.00     0.007 C 
ATOM     15  C   UNL     1      -0.267  10.125  16.669  1.00  0.00     0.007 C 
ENDBRANCH   5  13
TORSDOF 1
ENDMDL
MODEL 7
REMARK VINA RESULT:    -5.098      1.048      4.319
REMARK INTER + INTRA:          -5.620
REMARK INTER:                  -5.337
REMARK INTRA:                  -0.283
REMARK UNBOUND:                -0.224
REMARK SMILES CC(C)[C@@H]1CC[C@H](C)[C@H]2C=C[C@@H](C)C[C@H]21
REMARK SMILES IDX 8 1 7 2 6 3 5 4 4 5 15 6 9 7 10 8 11 9 12 10 14 11 13 12
REMARK SMILES IDX 2 13 1 14 3 15
REMARK H PARENT
REMARK Flexibility Score: inf
ROOT
ATOM      1  C   UNL     1      13.550   4.987  25.575  1.00  0.00     0.008 C 
ATOM      2  C   UNL     1      12.981   6.412  25.695  1.00  0.00    -0.007 C 
ATOM      3  C   UNL     1      13.660   7.213  26.814  1.00  0.00     0.004 C 
ATOM      4  C   UNL     1      15.105   7.558  26.463  1.00  0.00     0.004 C 
ATOM      5  C   UNL     1      15.195   8.398  25.166  1.00  0.00    -0.005 C 
ATOM      6  C   UNL     1      14.466   7.705  23.962  1.00  0.00    -0.000 C 
ATOM      7  C   UNL     1      13.043   7.166  24.343  1.00  0.00     0.018 C 
ATOM      8  C   UNL     1      12.022   8.281  24.272  1.00  0.00    -0.027 C 
ATOM      9  C   UNL     1      11.985   9.046  23.174  1.00  0.00    -0.028 C 
ATOM     10  C   UNL     1      12.996   8.795  22.082  1.00  0.00     0.008 C 
ATOM     11  C   UNL     1      14.400   8.666  22.715  1.00  0.00     0.012 C 
ATOM     12  C   UNL     1      12.958   9.909  21.031  1.00  0.00     0.012 C 
ENDROOT
BRANCH   5  13
ATOM     13  C   UNL     1      16.680   8.792  24.836  1.00  0.00    -0.014 C 
ATOM     14  C   UNL     1      17.583   7.602  24.463  1.00  0.00     0.007 C 
ATOM     15  C   UNL     1      17.323   9.596  25.977  1.00  0.00     0.007 C 
ENDBRANCH   5  13
TORSDOF 1
ENDMDL
MODEL 8
REMARK VINA RESULT:    -5.073      1.496      2.099
REMARK INTER + INTRA:          -5.594
REMARK INTER:                  -5.373
REMARK INTRA:                  -0.221
REMARK UNBOUND:                -0.224
REMARK SMILES CC(C)[C@@H]1CC[C@H](C)[C@H]2C=C[C@@H](C)C[C@H]21
REMARK SMILES IDX 8 1 7 2 6 3 5 4 4 5 15 6 9 7 10 8 11 9 12 10 14 11 13 12
REMARK SMILES IDX 2 13 1 14 3 15
REMARK H PARENT
REMARK Flexibility Score: inf
ROOT
ATOM      1  C   UNL     1      10.738   8.871  23.419  1.00  0.00     0.008 C 
ATOM      2  C   UNL     1      11.742   9.501  24.402  1.00  0.00    -0.007 C 
ATOM      3  C   UNL     1      11.281   9.370  25.860  1.00  0.00     0.004 C 
ATOM      4  C   UNL     1      11.343   7.923  26.343  1.00  0.00     0.004 C 
ATOM      5  C   UNL     1      12.777   7.350  26.254  1.00  0.00    -0.005 C 
ATOM      6  C   UNL     1      13.382   7.495  24.814  1.00  0.00    -0.000 C 
ATOM      7  C   UNL     1      13.168   8.926  24.207  1.00  0.00     0.018 C 
ATOM      8  C   UNL     1      14.232   9.876  24.710  1.00  0.00    -0.027 C 
ATOM      9  C   UNL     1      15.514   9.497  24.641  1.00  0.00    -0.028 C 
ATOM     10  C   UNL     1      15.834   8.119  24.115  1.00  0.00     0.008 C 
ATOM     11  C   UNL     1      14.905   7.089  24.799  1.00  0.00     0.012 C 
ATOM     12  C   UNL     1      17.309   7.773  24.337  1.00  0.00     0.012 C 
ENDROOT
BRANCH   5  13
ATOM     13  C   UNL     1      12.845   5.877  26.799  1.00  0.00    -0.014 C 
ATOM     14  C   UNL     1      11.482   5.294  27.215  1.00  0.00     0.007 C 
ATOM     15  C   UNL     1      13.845   5.745  27.958  1.00  0.00     0.007 C 
ENDBRANCH   5  13
TORSDOF 1
ENDMDL
MODEL 9
REMARK VINA RESULT:    -4.991      9.263     12.476
REMARK INTER + INTRA:          -5.507
REMARK INTER:                  -5.229
REMARK INTRA:                  -0.279
REMARK UNBOUND:                -0.224
REMARK SMILES CC(C)[C@@H]1CC[C@H](C)[C@H]2C=C[C@@H](C)C[C@H]21
REMARK SMILES IDX 8 1 7 2 6 3 5 4 4 5 15 6 9 7 10 8 11 9 12 10 14 11 13 12
REMARK SMILES IDX 2 13 1 14 3 15
REMARK H PARENT
REMARK Flexibility Score: inf
ROOT
ATOM      1  C   UNL     1       6.004   6.759  20.920  1.00  0.00     0.008 C 
ATOM      2  C   UNL     1       5.546   8.208  20.674  1.00  0.00    -0.007 C 
ATOM      3  C   UNL     1       6.599   9.023  19.911  1.00  0.00     0.004 C 
ATOM      4  C   UNL     1       6.731   8.560  18.462  1.00  0.00     0.004 C 
ATOM      5  C   UNL     1       5.394   8.690  17.695  1.00  0.00    -0.005 C 
ATOM      6  C   UNL     1       4.219   7.949  18.425  1.00  0.00    -0.000 C 
ATOM      7  C   UNL     1       4.170   8.257  19.963  1.00  0.00     0.018 C 
ATOM      8  C   UNL     1       3.453   9.565  20.215  1.00  0.00    -0.027 C 
ATOM      9  C   UNL     1       2.265   9.767  19.632  1.00  0.00    -0.028 C 
ATOM     10  C   UNL     1       1.722   8.704  18.708  1.00  0.00     0.008 C 
ATOM     11  C   UNL     1       2.839   8.264  17.734  1.00  0.00     0.012 C 
ATOM     12  C   UNL     1       0.489   9.209  17.952  1.00  0.00     0.012 C 
ENDROOT
BRANCH   5  13
ATOM     13  C   UNL     1       5.547   8.259  16.191  1.00  0.00    -0.014 C 
ATOM     14  C   UNL     1       6.424   7.012  15.977  1.00  0.00     0.007 C 
ATOM     15  C   UNL     1       6.060   9.414  15.317  1.00  0.00     0.007 C 
ENDBRANCH   5  13
TORSDOF 1
ENDMDL
