MODEL 1
REMARK VINA RESULT:    -3.195      0.000      0.000
REMARK INTER + INTRA:          -5.198
REMARK INTER:                  -4.502
REMARK INTRA:                  -0.696
REMARK UNBOUND:                -0.696
REMARK SMILES CCCCCCCCC(=O)[O-]
REMARK SMILES IDX 6 1 7 2 8 3 9 4 10 5 11 6 5 7 4 8 3 9 2 10 1 11
REMARK H PARENT
REMARK Flexibility Score: inf
ROOT
ATOM      1  C   UNL     1     -94.969 148.168 240.091  1.00  0.00     0.000 C 
ENDROOT
BRANCH   1   2
ATOM      2  C   UNL     1     -96.413 148.671 240.228  1.00  0.00     0.006 C 
BRANCH   2   3
ATOM      3  C   UNL     1     -96.486 150.199 240.358  1.00  0.00     0.053 C 
BRANCH   3   4
ATOM      4  C   UNL     1     -97.889 150.670 240.590  1.00  0.00     0.041 C 
ATOM      5  O   UNL     1     -98.556 151.164 239.642  1.00  0.00    -0.550 OA
ATOM      6  O   UNL     1     -98.447 150.597 241.860  1.00  0.00    -0.550 OA
ENDBRANCH   3   4
ENDBRANCH   2   3
ENDBRANCH   1   2
BRANCH   1   7
ATOM      7  C   UNL     1     -94.223 148.927 238.986  1.00  0.00     0.000 C 
BRANCH   7   8
ATOM      8  C   UNL     1     -93.824 148.025 237.804  1.00  0.00    -0.000 C 
BRANCH   8   9
ATOM      9  C   UNL     1     -94.665 148.267 236.532  1.00  0.00    -0.000 C 
BRANCH   9  10
ATOM     10  C   UNL     1     -95.475 149.570 236.611  1.00  0.00    -0.003 C 
ATOM     11  C   UNL     1     -96.974 149.291 236.555  1.00  0.00     0.004 C 
ENDBRANCH   9  10
ENDBRANCH   8   9
ENDBRANCH   7   8
ENDBRANCH   1   7
TORSDOF 7
ENDMDL
MODEL 2
REMARK VINA RESULT:    -3.194      0.963      1.635
REMARK INTER + INTRA:          -5.197
REMARK INTER:                  -4.503
REMARK INTRA:                  -0.694
REMARK UNBOUND:                -0.696
REMARK SMILES CCCCCCCCC(=O)[O-]
REMARK SMILES IDX 6 1 7 2 8 3 9 4 10 5 11 6 5 7 4 8 3 9 2 10 1 11
REMARK H PARENT
REMARK Flexibility Score: inf
ROOT
ATOM      1  C   UNL     1     -96.454 148.728 240.499  1.00  0.00     0.000 C 
ENDROOT
BRANCH   1   2
ATOM      2  C   UNL     1     -96.486 150.260 240.400  1.00  0.00     0.006 C 
BRANCH   2   3
ATOM      3  C   UNL     1     -97.918 150.808 240.328  1.00  0.00     0.053 C 
BRANCH   3   4
ATOM      4  C   UNL     1     -98.770 150.284 241.444  1.00  0.00     0.041 C 
ATOM      5  O   UNL     1     -98.526 150.613 242.635  1.00  0.00    -0.550 OA
ATOM      6  O   UNL     1     -99.811 149.406 241.172  1.00  0.00    -0.550 OA
ENDBRANCH   3   4
ENDBRANCH   2   3
ENDBRANCH   1   2
BRANCH   1   7
ATOM      7  C   UNL     1     -95.101 148.174 240.035  1.00  0.00     0.000 C 
BRANCH   7   8
ATOM      8  C   UNL     1     -94.364 149.121 239.071  1.00  0.00    -0.000 C 
BRANCH   8   9
ATOM      9  C   UNL     1     -94.413 148.663 237.597  1.00  0.00    -0.000 C 
BRANCH   9  10
ATOM     10  C   UNL     1     -95.287 149.585 236.733  1.00  0.00    -0.003 C 
ATOM     11  C   UNL     1     -96.757 149.184 236.812  1.00  0.00     0.004 C 
ENDBRANCH   9  10
ENDBRANCH   8   9
ENDBRANCH   7   8
ENDBRANCH   1   7
TORSDOF 7
ENDMDL
MODEL 3
REMARK VINA RESULT:    -3.183      1.581      2.282
REMARK INTER + INTRA:          -5.181
REMARK INTER:                  -4.801
REMARK INTRA:                  -0.380
REMARK UNBOUND:                -0.696
REMARK SMILES CCCCCCCCC(=O)[O-]
REMARK SMILES IDX 6 1 7 2 8 3 9 4 10 5 11 6 5 7 4 8 3 9 2 10 1 11
REMARK H PARENT
REMARK Flexibility Score: inf
ROOT
ATOM      1  C   UNL     1     -96.610 149.277 239.655  1.00  0.00     0.000 C 
ENDROOT
BRANCH   1   2
ATOM      2  C   UNL     1     -96.902 150.539 240.479  1.00  0.00     0.006 C 
BRANCH   2   3
ATOM      3  C   UNL     1     -98.329 150.548 241.043  1.00  0.00     0.053 C 
BRANCH   3   4
ATOM      4  C   UNL     1     -98.375 150.029 242.447  1.00  0.00     0.041 C 
ATOM      5  O   UNL     1     -98.092 148.825 242.688  1.00  0.00    -0.550 OA
ATOM      6  O   UNL     1     -98.764 150.865 243.486  1.00  0.00    -0.550 OA
ENDBRANCH   3   4
ENDBRANCH   2   3
ENDBRANCH   1   2
BRANCH   1   7
ATOM      7  C   UNL     1     -95.204 148.738 239.950  1.00  0.00     0.000 C 
BRANCH   7   8
ATOM      8  C   UNL     1     -94.211 148.998 238.804  1.00  0.00    -0.000 C 
BRANCH   8   9
ATOM      9  C   UNL     1     -94.891 149.353 237.464  1.00  0.00    -0.000 C 
BRANCH   9  10
ATOM     10  C   UNL     1     -94.764 148.223 236.432  1.00  0.00    -0.003 C 
ATOM     11  C   UNL     1     -93.726 147.193 236.867  1.00  0.00     0.004 C 
ENDBRANCH   9  10
ENDBRANCH   8   9
ENDBRANCH   7   8
ENDBRANCH   1   7
TORSDOF 7
ENDMDL
MODEL 4
REMARK VINA RESULT:    -3.180      2.313      3.560
REMARK INTER + INTRA:          -5.178
REMARK INTER:                  -4.817
REMARK INTRA:                  -0.361
REMARK UNBOUND:                -0.696
REMARK SMILES CCCCCCCCC(=O)[O-]
REMARK SMILES IDX 6 1 7 2 8 3 9 4 10 5 11 6 5 7 4 8 3 9 2 10 1 11
REMARK H PARENT
REMARK Flexibility Score: inf
ROOT
ATOM      1  C   UNL     1     -97.493 148.828 241.511  1.00  0.00     0.000 C 
ENDROOT
BRANCH   1   2
ATOM      2  C   UNL     1     -98.260 149.108 242.811  1.00  0.00     0.006 C 
BRANCH   2   3
ATOM      3  C   UNL     1     -98.676 150.580 242.935  1.00  0.00     0.053 C 
BRANCH   3   4
ATOM      4  C   UNL     1     -99.093 150.925 244.332  1.00  0.00     0.041 C 
ATOM      5  O   UNL     1     -98.579 151.912 244.922  1.00  0.00    -0.550 OA
ATOM      6  O   UNL     1    -100.023 150.134 244.995  1.00  0.00    -0.550 OA
ENDBRANCH   3   4
ENDBRANCH   2   3
ENDBRANCH   1   2
BRANCH   1   7
ATOM      7  C   UNL     1     -97.220 150.127 240.741  1.00  0.00     0.000 C 
BRANCH   7   8
ATOM      8  C   UNL     1     -95.849 150.132 240.042  1.00  0.00    -0.000 C 
BRANCH   8   9
ATOM      9  C   UNL     1     -95.162 148.750 240.018  1.00  0.00    -0.000 C 
BRANCH   9  10
ATOM     10  C   UNL     1     -94.328 148.538 238.745  1.00  0.00    -0.003 C 
ATOM     11  C   UNL     1     -94.840 149.408 237.601  1.00  0.00     0.004 C 
ENDBRANCH   9  10
ENDBRANCH   8   9
ENDBRANCH   7   8
ENDBRANCH   1   7
TORSDOF 7
ENDMDL
MODEL 5
REMARK VINA RESULT:    -3.138      1.928      3.724
REMARK INTER + INTRA:          -5.118
REMARK INTER:                  -4.295
REMARK INTRA:                  -0.823
REMARK UNBOUND:                -0.696
REMARK SMILES CCCCCCCCC(=O)[O-]
REMARK SMILES IDX 6 1 7 2 8 3 9 4 10 5 11 6 5 7 4 8 3 9 2 10 1 11
REMARK H PARENT
REMARK Flexibility Score: inf
ROOT
ATOM      1  C   UNL     1     -93.886 148.431 238.174  1.00  0.00     0.000 C 
ENDROOT
BRANCH   1   2
ATOM      2  C   UNL     1     -94.855 148.271 236.994  1.00  0.00     0.006 C 
BRANCH   2   3
ATOM      3  C   UNL     1     -95.629 149.563 236.699  1.00  0.00     0.053 C 
BRANCH   3   4
ATOM      4  C   UNL     1     -97.111 149.351 236.772  1.00  0.00     0.041 C 
ATOM      5  O   UNL     1     -97.898 150.211 236.297  1.00  0.00    -0.550 OA
ATOM      6  O   UNL     1     -97.622 148.222 237.398  1.00  0.00    -0.550 OA
ENDBRANCH   3   4
ENDBRANCH   2   3
ENDBRANCH   1   2
BRANCH   1   7
ATOM      7  C   UNL     1     -94.566 149.140 239.353  1.00  0.00     0.000 C 
BRANCH   7   8
ATOM      8  C   UNL     1     -95.459 148.201 240.183  1.00  0.00    -0.000 C 
BRANCH   8   9
ATOM      9  C   UNL     1     -96.696 148.898 240.787  1.00  0.00    -0.000 C 
BRANCH   9  10
ATOM     10  C   UNL     1     -96.745 150.394 240.440  1.00  0.00    -0.003 C 
ATOM     11  C   UNL     1     -98.160 150.828 240.070  1.00  0.00     0.004 C 
ENDBRANCH   9  10
ENDBRANCH   8   9
ENDBRANCH   7   8
ENDBRANCH   1   7
TORSDOF 7
ENDMDL
MODEL 6
REMARK VINA RESULT:    -3.102      3.082      4.698
REMARK INTER + INTRA:          -5.067
REMARK INTER:                  -4.438
REMARK INTRA:                  -0.629
REMARK UNBOUND:                -0.696
REMARK SMILES CCCCCCCCC(=O)[O-]
REMARK SMILES IDX 6 1 7 2 8 3 9 4 10 5 11 6 5 7 4 8 3 9 2 10 1 11
REMARK H PARENT
REMARK Flexibility Score: inf
ROOT
ATOM      1  C   UNL     1     -94.625 149.224 239.630  1.00  0.00     0.000 C 
ENDROOT
BRANCH   1   2
ATOM      2  C   UNL     1     -94.225 148.803 238.209  1.00  0.00     0.006 C 
BRANCH   2   3
ATOM      3  C   UNL     1     -95.171 149.378 237.145  1.00  0.00     0.053 C 
BRANCH   3   4
ATOM      4  C   UNL     1     -95.032 148.665 235.835  1.00  0.00     0.041 C 
ATOM      5  O   UNL     1     -94.226 147.703 235.718  1.00  0.00    -0.550 OA
ATOM      6  O   UNL     1     -95.766 149.085 234.733  1.00  0.00    -0.550 OA
ENDBRANCH   3   4
ENDBRANCH   2   3
ENDBRANCH   1   2
BRANCH   1   7
ATOM      7  C   UNL     1     -95.562 148.189 240.268  1.00  0.00     0.000 C 
BRANCH   7   8
ATOM      8  C   UNL     1     -96.875 148.807 240.781  1.00  0.00    -0.000 C 
BRANCH   8   9
ATOM      9  C   UNL     1     -96.901 150.349 240.714  1.00  0.00    -0.000 C 
BRANCH   9  10
ATOM     10  C   UNL     1     -98.184 150.879 240.055  1.00  0.00    -0.003 C 
ATOM     11  C   UNL     1     -98.513 150.101 238.785  1.00  0.00     0.004 C 
ENDBRANCH   9  10
ENDBRANCH   8   9
ENDBRANCH   7   8
ENDBRANCH   1   7
TORSDOF 7
ENDMDL
MODEL 7
REMARK VINA RESULT:    -3.091      3.212      5.848
REMARK INTER + INTRA:          -5.052
REMARK INTER:                  -4.745
REMARK INTRA:                  -0.307
REMARK UNBOUND:                -0.696
REMARK SMILES CCCCCCCCC(=O)[O-]
REMARK SMILES IDX 6 1 7 2 8 3 9 4 10 5 11 6 5 7 4 8 3 9 2 10 1 11
REMARK H PARENT
REMARK Flexibility Score: inf
ROOT
ATOM      1  C   UNL     1     -97.145 150.002 240.513  1.00  0.00     0.000 C 
ENDROOT
BRANCH   1   2
ATOM      2  C   UNL     1     -95.687 150.140 240.052  1.00  0.00     0.006 C 
BRANCH   2   3
ATOM      3  C   UNL     1     -95.047 148.781 239.736  1.00  0.00     0.053 C 
BRANCH   3   4
ATOM      4  C   UNL     1     -94.375 148.782 238.396  1.00  0.00     0.041 C 
ATOM      5  O   UNL     1     -94.744 149.589 237.503  1.00  0.00    -0.550 OA
ATOM      6  O   UNL     1     -93.367 147.866 238.123  1.00  0.00    -0.550 OA
ENDBRANCH   3   4
ENDBRANCH   2   3
ENDBRANCH   1   2
BRANCH   1   7
ATOM      7  C   UNL     1     -97.326 148.768 241.407  1.00  0.00     0.000 C 
BRANCH   7   8
ATOM      8  C   UNL     1     -98.322 149.003 242.557  1.00  0.00    -0.000 C 
BRANCH   8   9
ATOM      9  C   UNL     1     -98.726 150.482 242.732  1.00  0.00    -0.000 C 
BRANCH   9  10
ATOM     10  C   UNL     1     -99.498 150.722 244.039  1.00  0.00    -0.003 C 
ATOM     11  C   UNL     1     -98.753 151.695 244.948  1.00  0.00     0.004 C 
ENDBRANCH   9  10
ENDBRANCH   8   9
ENDBRANCH   7   8
ENDBRANCH   1   7
TORSDOF 7
ENDMDL
MODEL 8
REMARK VINA RESULT:    -3.059      3.253      5.517
REMARK INTER + INTRA:          -5.007
REMARK INTER:                  -4.688
REMARK INTRA:                  -0.320
REMARK UNBOUND:                -0.696
REMARK SMILES CCCCCCCCC(=O)[O-]
REMARK SMILES IDX 6 1 7 2 8 3 9 4 10 5 11 6 5 7 4 8 3 9 2 10 1 11
REMARK H PARENT
REMARK Flexibility Score: inf
ROOT
ATOM      1  C   UNL     1     -95.403 148.875 239.996  1.00  0.00     0.000 C 
ENDROOT
BRANCH   1   2
ATOM      2  C   UNL     1     -94.246 148.884 238.988  1.00  0.00     0.006 C 
BRANCH   2   3
ATOM      3  C   UNL     1     -94.732 149.102 237.548  1.00  0.00     0.053 C 
BRANCH   3   4
ATOM      4  C   UNL     1     -94.253 148.019 236.631  1.00  0.00     0.041 C 
ATOM      5  O   UNL     1     -93.371 147.205 237.015  1.00  0.00    -0.550 OA
ATOM      6  O   UNL     1     -94.754 147.930 235.338  1.00  0.00    -0.550 OA
ENDBRANCH   3   4
ENDBRANCH   2   3
ENDBRANCH   1   2
BRANCH   1   7
ATOM      7  C   UNL     1     -96.137 150.223 240.007  1.00  0.00     0.000 C 
BRANCH   7   8
ATOM      8  C   UNL     1     -97.328 150.249 240.980  1.00  0.00    -0.000 C 
BRANCH   8   9
ATOM      9  C   UNL     1     -97.621 148.882 241.635  1.00  0.00    -0.000 C 
BRANCH   9  10
ATOM     10  C   UNL     1     -98.428 149.023 242.935  1.00  0.00    -0.003 C 
ATOM     11  C   UNL     1     -98.750 150.485 243.228  1.00  0.00     0.004 C 
ENDBRANCH   9  10
ENDBRANCH   8   9
ENDBRANCH   7   8
ENDBRANCH   1   7
TORSDOF 7
ENDMDL
MODEL 9
REMARK VINA RESULT:    -2.925      1.948      2.883
REMARK INTER + INTRA:          -4.817
REMARK INTER:                  -4.422
REMARK INTRA:                  -0.395
REMARK UNBOUND:                -0.696
REMARK SMILES CCCCCCCCC(=O)[O-]
REMARK SMILES IDX 6 1 7 2 8 3 9 4 10 5 11 6 5 7 4 8 3 9 2 10 1 11
REMARK H PARENT
REMARK Flexibility Score: inf
ROOT
ATOM      1  C   UNL     1     -97.030 148.819 241.132  1.00  0.00     0.000 C 
ENDROOT
BRANCH   1   2
ATOM      2  C   UNL     1     -97.187 150.285 240.704  1.00  0.00     0.006 C 
BRANCH   2   3
ATOM      3  C   UNL     1     -98.630 150.621 240.300  1.00  0.00     0.053 C 
BRANCH   3   4
ATOM      4  C   UNL     1     -98.794 150.663 238.811  1.00  0.00     0.041 C 
ATOM      5  O   UNL     1     -98.211 149.815 238.085  1.00  0.00    -0.550 OA
ATOM      6  O   UNL     1     -99.561 151.661 238.224  1.00  0.00    -0.550 OA
ENDBRANCH   3   4
ENDBRANCH   2   3
ENDBRANCH   1   2
BRANCH   1   7
ATOM      7  C   UNL     1     -95.972 148.106 240.281  1.00  0.00     0.000 C 
BRANCH   7   8
ATOM      8  C   UNL     1     -94.922 149.070 239.700  1.00  0.00    -0.000 C 
BRANCH   8   9
ATOM      9  C   UNL     1     -94.290 148.574 238.382  1.00  0.00    -0.000 C 
BRANCH   9  10
ATOM     10  C   UNL     1     -93.828 147.112 238.474  1.00  0.00    -0.003 C 
ATOM     11  C   UNL     1     -92.577 146.875 237.635  1.00  0.00     0.004 C 
ENDBRANCH   9  10
ENDBRANCH   8   9
ENDBRANCH   7   8
ENDBRANCH   1   7
TORSDOF 7
ENDMDL
