MODEL 1
REMARK VINA RESULT:    -3.525      0.000      0.000
REMARK INTER + INTRA:          -5.475
REMARK INTER:                  -5.380
REMARK INTRA:                  -0.095
REMARK UNBOUND:                -0.095
REMARK SMILES CC1=CCC[C@@H](C)C(=O)C[C@H](C(C)C)C(=O)C1
REMARK SMILES IDX 8 1 9 2 6 3 7 4 5 5 4 6 3 7 2 8 1 9 10 11 11 12 15 13 16 14
REMARK SMILES IDX 17 15 12 17 13 18 14 19
REMARK H PARENT
REMARK Flexibility Score: 70.00
ROOT
ATOM      1  C   UNL     1       5.371  13.952  -5.980  1.00  0.00     0.136 C 
ATOM      2  O   UNL     1       6.143  14.866  -5.731  1.00  0.00    -0.299 OA
ENDROOT
BRANCH   1   3
ATOM      3  C   UNL     1       5.944  12.623  -6.440  1.00  0.00     0.053 C 
ATOM      4  C   UNL     1       6.878  12.025  -5.380  1.00  0.00     0.016 C 
BRANCH   3   5
ATOM      5  C   UNL     1       6.656  12.744  -7.801  1.00  0.00     0.015 C 
BRANCH   5   6
ATOM      6  C   UNL     1       5.669  13.002  -8.962  1.00  0.00     0.028 C 
BRANCH   6   7
ATOM      7  C   UNL     1       4.533  12.008  -8.937  1.00  0.00    -0.028 C 
ATOM      8  C   UNL     1       3.219  12.316  -9.055  1.00  0.00    -0.070 CG0
ATOM      9  C   UNL     1       2.229  11.179  -9.083  1.00  0.00     0.039 C 
ATOM     10  G   UNL     1       2.698  13.744  -9.129  1.00  0.00     0.000 G0
ENDBRANCH   6   7
ENDBRANCH   5   6
ENDBRANCH   3   5
ENDBRANCH   1   3
BRANCH   1  11
ATOM     11  C   UNL     1       3.882  14.199  -5.830  1.00  0.00     0.087 C 
BRANCH  11  12
ATOM     12  C   UNL     1       3.281  15.154  -6.901  1.00  0.00     0.066 C 
BRANCH  12  13
ATOM     13  C   UNL     1       2.308  14.411  -7.811  1.00  0.00     0.140 C 
ATOM     14  O   UNL     1       1.130  14.360  -7.484  1.00  0.00    -0.299 OA
BRANCH  13  15
ATOM     15  C   UNL     1       2.698  13.752  -9.121  1.00  0.00     0.106 CG0
ATOM     16  G   UNL     1       3.204  12.320  -9.017  1.00  0.00     0.000 G0
ENDBRANCH  13  15
ENDBRANCH  12  13
BRANCH  12  17
ATOM     17  C   UNL     1       2.570  16.379  -6.240  1.00  0.00    -0.006 C 
ATOM     18  C   UNL     1       3.582  17.462  -5.826  1.00  0.00     0.008 C 
ATOM     19  C   UNL     1       1.745  15.974  -5.005  1.00  0.00     0.008 C 
ENDBRANCH  12  17
ENDBRANCH  11  12
ENDBRANCH   1  11
TORSDOF 1
ENDMDL
MODEL 2
REMARK VINA RESULT:    -3.248      1.514      2.128
REMARK INTER + INTRA:          -5.053
REMARK INTER:                  -6.333
REMARK INTRA:                   1.280
REMARK UNBOUND:                -0.095
REMARK SMILES CC1=CCC[C@@H](C)C(=O)C[C@H](C(C)C)C(=O)C1
REMARK SMILES IDX 8 1 9 2 6 3 7 4 5 5 4 6 3 7 2 8 1 9 10 11 11 12 15 13 16 14
REMARK SMILES IDX 17 15 12 17 13 18 14 19
REMARK H PARENT
REMARK Flexibility Score: 70.00
ROOT
ATOM      1  C   UNL     1       5.630  12.861  -6.317  1.00  0.00     0.136 C 
ATOM      2  O   UNL     1       6.378  12.920  -5.353  1.00  0.00    -0.299 OA
ENDROOT
BRANCH   1   3
ATOM      3  C   UNL     1       6.007  11.952  -7.475  1.00  0.00     0.053 C 
ATOM      4  C   UNL     1       6.515  12.764  -8.673  1.00  0.00     0.016 C 
BRANCH   3   5
ATOM      5  C   UNL     1       4.843  11.029  -7.884  1.00  0.00     0.015 C 
BRANCH   5   6
ATOM      6  C   UNL     1       4.078  11.558  -9.119  1.00  0.00     0.028 C 
BRANCH   6   7
ATOM      7  C   UNL     1       2.881  12.378  -8.704  1.00  0.00    -0.028 C 
ATOM      8  C   UNL     1       2.810  13.730  -8.729  1.00  0.00    -0.070 CG0
ATOM      9  C   UNL     1       1.501  14.373  -8.346  1.00  0.00     0.039 C 
ATOM     10  G   UNL     1       3.988  14.623  -9.091  1.00  0.00     0.000 G0
ENDBRANCH   6   7
ENDBRANCH   5   6
ENDBRANCH   3   5
ENDBRANCH   1   3
BRANCH   1  11
ATOM     11  C   UNL     1       4.373  13.708  -6.312  1.00  0.00     0.087 C 
BRANCH  11  12
ATOM     12  C   UNL     1       4.624  15.227  -6.539  1.00  0.00     0.066 C 
BRANCH  12  13
ATOM     13  C   UNL     1       4.429  15.600  -8.006  1.00  0.00     0.140 C 
ATOM     14  O   UNL     1       4.676  16.747  -8.350  1.00  0.00    -0.299 OA
BRANCH  13  15
ATOM     15  C   UNL     1       3.977  14.629  -9.080  1.00  0.00     0.106 CG0
ATOM     16  G   UNL     1       2.802  13.734  -8.712  1.00  0.00     0.000 G0
ENDBRANCH  13  15
ENDBRANCH  12  13
BRANCH  12  17
ATOM     17  C   UNL     1       3.697  16.102  -5.635  1.00  0.00    -0.006 C 
ATOM     18  C   UNL     1       4.499  17.176  -4.878  1.00  0.00     0.008 C 
ATOM     19  C   UNL     1       2.917  15.255  -4.612  1.00  0.00     0.008 C 
ENDBRANCH  12  17
ENDBRANCH  11  12
ENDBRANCH   1  11
TORSDOF 1
ENDMDL
MODEL 3
REMARK VINA RESULT:    -2.978      1.850      3.559
REMARK INTER + INTRA:          -4.640
REMARK INTER:                  -5.313
REMARK INTRA:                   0.673
REMARK UNBOUND:                -0.095
REMARK SMILES CC1=CCC[C@@H](C)C(=O)C[C@H](C(C)C)C(=O)C1
REMARK SMILES IDX 8 1 9 2 6 3 7 4 5 5 4 6 3 7 2 8 1 9 10 11 11 12 15 13 16 14
REMARK SMILES IDX 17 15 12 17 13 18 14 19
REMARK H PARENT
REMARK Flexibility Score: 70.00
ROOT
ATOM      1  C   UNL     1       2.625  12.334  -7.612  1.00  0.00     0.136 C 
ATOM      2  O   UNL     1       2.688  11.679  -6.582  1.00  0.00    -0.299 OA
ENDROOT
BRANCH   1   3
ATOM      3  C   UNL     1       2.836  11.624  -8.938  1.00  0.00     0.053 C 
ATOM      4  C   UNL     1       1.858  10.453  -9.101  1.00  0.00     0.016 C 
BRANCH   3   5
ATOM      5  C   UNL     1       4.293  11.158  -9.116  1.00  0.00     0.015 C 
BRANCH   5   6
ATOM      6  C   UNL     1       5.313  12.255  -8.738  1.00  0.00     0.028 C 
BRANCH   6   7
ATOM      7  C   UNL     1       5.927  11.981  -7.387  1.00  0.00    -0.028 C 
ATOM      8  C   UNL     1       6.199  12.916  -6.445  1.00  0.00    -0.070 CG0
ATOM      9  C   UNL     1       6.745  12.444  -5.122  1.00  0.00     0.039 C 
ATOM     10  G   UNL     1       6.009  14.409  -6.669  1.00  0.00     0.000 G0
ENDBRANCH   6   7
ENDBRANCH   5   6
ENDBRANCH   3   5
ENDBRANCH   1   3
BRANCH   1  11
ATOM     11  C   UNL     1       2.356  13.822  -7.509  1.00  0.00     0.087 C 
BRANCH  11  12
ATOM     12  C   UNL     1       3.328  14.585  -6.564  1.00  0.00     0.066 C 
BRANCH  12  13
ATOM     13  C   UNL     1       4.669  14.835  -7.246  1.00  0.00     0.140 C 
ATOM     14  O   UNL     1       4.675  15.432  -8.314  1.00  0.00    -0.299 OA
BRANCH  13  15
ATOM     15  C   UNL     1       6.010  14.418  -6.671  1.00  0.00     0.106 CG0
ATOM     16  G   UNL     1       6.197  12.925  -6.443  1.00  0.00     0.000 G0
ENDBRANCH  13  15
ENDBRANCH  12  13
BRANCH  12  17
ATOM     17  C   UNL     1       2.711  15.937  -6.080  1.00  0.00    -0.006 C 
ATOM     18  C   UNL     1       3.765  16.820  -5.387  1.00  0.00     0.008 C 
ATOM     19  C   UNL     1       1.532  15.723  -5.113  1.00  0.00     0.008 C 
ENDBRANCH  12  17
ENDBRANCH  11  12
ENDBRANCH   1  11
TORSDOF 1
ENDMDL
MODEL 4
REMARK VINA RESULT:    -2.939      1.858      3.325
REMARK INTER + INTRA:          -4.581
REMARK INTER:                  -5.146
REMARK INTRA:                   0.565
REMARK UNBOUND:                -0.095
REMARK SMILES CC1=CCC[C@@H](C)C(=O)C[C@H](C(C)C)C(=O)C1
REMARK SMILES IDX 8 1 9 2 6 3 7 4 5 5 4 6 3 7 2 8 1 9 10 11 11 12 15 13 16 14
REMARK SMILES IDX 17 15 12 17 13 18 14 19
REMARK H PARENT
REMARK Flexibility Score: 70.00
ROOT
ATOM      1  C   UNL     1       2.826  12.330  -7.083  1.00  0.00     0.136 C 
ATOM      2  O   UNL     1       2.472  11.476  -6.284  1.00  0.00    -0.299 OA
ENDROOT
BRANCH   1   3
ATOM      3  C   UNL     1       3.592  11.895  -8.321  1.00  0.00     0.053 C 
ATOM      4  C   UNL     1       2.838  10.797  -9.081  1.00  0.00     0.016 C 
BRANCH   3   5
ATOM      5  C   UNL     1       5.027  11.449  -7.982  1.00  0.00     0.015 C 
BRANCH   5   6
ATOM      6  C   UNL     1       6.095  12.367  -8.617  1.00  0.00     0.028 C 
BRANCH   6   7
ATOM      7  C   UNL     1       5.477  13.647  -9.124  1.00  0.00    -0.028 C 
ATOM      8  C   UNL     1       5.344  14.790  -8.410  1.00  0.00    -0.070 CG0
ATOM      9  C   UNL     1       4.766  15.994  -9.110  1.00  0.00     0.039 C 
ATOM     10  G   UNL     1       5.717  14.906  -6.939  1.00  0.00     0.000 G0
ENDBRANCH   6   7
ENDBRANCH   5   6
ENDBRANCH   3   5
ENDBRANCH   1   3
BRANCH   1  11
ATOM     11  C   UNL     1       2.495  13.780  -6.789  1.00  0.00     0.087 C 
BRANCH  11  12
ATOM     12  C   UNL     1       3.379  14.427  -5.685  1.00  0.00     0.066 C 
BRANCH  12  13
ATOM     13  C   UNL     1       4.859  14.153  -5.939  1.00  0.00     0.140 C 
ATOM     14  O   UNL     1       5.392  13.239  -5.327  1.00  0.00    -0.299 OA
BRANCH  13  15
ATOM     15  C   UNL     1       5.711  14.923  -6.931  1.00  0.00     0.106 CG0
ATOM     16  G   UNL     1       5.309  14.789  -8.393  1.00  0.00     0.000 G0
ENDBRANCH  13  15
ENDBRANCH  12  13
BRANCH  12  17
ATOM     17  C   UNL     1       3.128  15.966  -5.580  1.00  0.00    -0.006 C 
ATOM     18  C   UNL     1       4.160  16.644  -4.660  1.00  0.00     0.008 C 
ATOM     19  C   UNL     1       1.715  16.289  -5.061  1.00  0.00     0.008 C 
ENDBRANCH  12  17
ENDBRANCH  11  12
ENDBRANCH   1  11
TORSDOF 1
ENDMDL
MODEL 5
REMARK VINA RESULT:    -2.837      1.915      4.278
REMARK INTER + INTRA:          -4.425
REMARK INTER:                  -4.877
REMARK INTRA:                   0.452
REMARK UNBOUND:                -0.095
REMARK SMILES CC1=CCC[C@@H](C)C(=O)C[C@H](C(C)C)C(=O)C1
REMARK SMILES IDX 8 1 9 2 6 3 7 4 5 5 4 6 3 7 2 8 1 9 10 11 11 12 15 13 16 14
REMARK SMILES IDX 17 15 12 17 13 18 14 19
REMARK H PARENT
REMARK Flexibility Score: 70.00
ROOT
ATOM      1  C   UNL     1       4.573  12.317  -8.555  1.00  0.00     0.136 C 
ATOM      2  O   UNL     1       5.184  11.373  -9.035  1.00  0.00    -0.299 OA
ENDROOT
BRANCH   1   3
ATOM      3  C   UNL     1       3.119  12.116  -8.163  1.00  0.00     0.053 C 
ATOM      4  C   UNL     1       2.773  10.626  -8.060  1.00  0.00     0.016 C 
BRANCH   3   5
ATOM      5  C   UNL     1       2.159  12.843  -9.125  1.00  0.00     0.015 C 
BRANCH   5   6
ATOM      6  C   UNL     1       2.202  14.378  -8.952  1.00  0.00     0.028 C 
BRANCH   6   7
ATOM      7  C   UNL     1       1.854  14.773  -7.537  1.00  0.00    -0.028 C 
ATOM      8  C   UNL     1       2.631  15.520  -6.718  1.00  0.00    -0.070 CG0
ATOM      9  C   UNL     1       2.083  15.877  -5.360  1.00  0.00     0.039 C 
ATOM     10  G   UNL     1       4.032  15.985  -7.088  1.00  0.00     0.000 G0
ENDBRANCH   6   7
ENDBRANCH   5   6
ENDBRANCH   3   5
ENDBRANCH   1   3
BRANCH   1  11
ATOM     11  C   UNL     1       5.295  13.640  -8.391  1.00  0.00     0.087 C 
BRANCH  11  12
ATOM     12  C   UNL     1       5.787  13.925  -6.943  1.00  0.00     0.066 C 
BRANCH  12  13
ATOM     13  C   UNL     1       5.179  15.217  -6.404  1.00  0.00     0.140 C 
ATOM     14  O   UNL     1       5.642  15.691  -5.376  1.00  0.00    -0.299 OA
BRANCH  13  15
ATOM     15  C   UNL     1       4.052  15.976  -7.079  1.00  0.00     0.106 CG0
ATOM     16  G   UNL     1       2.643  15.527  -6.718  1.00  0.00     0.000 G0
ENDBRANCH  13  15
ENDBRANCH  12  13
BRANCH  12  17
ATOM     17  C   UNL     1       5.461  12.736  -5.983  1.00  0.00    -0.006 C 
ATOM     18  C   UNL     1       4.326  13.095  -5.007  1.00  0.00     0.008 C 
ATOM     19  C   UNL     1       6.691  12.294  -5.169  1.00  0.00     0.008 C 
ENDBRANCH  12  17
ENDBRANCH  11  12
ENDBRANCH   1  11
TORSDOF 1
ENDMDL
MODEL 6
REMARK VINA RESULT:    -2.769      1.625      3.878
REMARK INTER + INTRA:          -4.321
REMARK INTER:                  -4.667
REMARK INTRA:                   0.345
REMARK UNBOUND:                -0.095
REMARK SMILES CC1=CCC[C@@H](C)C(=O)C[C@H](C(C)C)C(=O)C1
REMARK SMILES IDX 8 1 9 2 6 3 7 4 5 5 4 6 3 7 2 8 1 9 10 11 11 12 15 13 16 14
REMARK SMILES IDX 17 15 12 17 13 18 14 19
REMARK H PARENT
REMARK Flexibility Score: 70.00
ROOT
ATOM      1  C   UNL     1       4.301  15.937  -5.738  1.00  0.00     0.136 C 
ATOM      2  O   UNL     1       4.364  16.917  -6.465  1.00  0.00    -0.299 OA
ENDROOT
BRANCH   1   3
ATOM      3  C   UNL     1       3.095  15.783  -4.828  1.00  0.00     0.053 C 
ATOM      4  C   UNL     1       3.496  15.192  -3.471  1.00  0.00     0.016 C 
BRANCH   3   5
ATOM      5  C   UNL     1       1.980  14.949  -5.487  1.00  0.00     0.015 C 
BRANCH   5   6
ATOM      6  C   UNL     1       1.960  15.103  -7.025  1.00  0.00     0.028 C 
BRANCH   6   7
ATOM      7  C   UNL     1       1.908  13.755  -7.703  1.00  0.00    -0.028 C 
ATOM      8  C   UNL     1       2.811  13.293  -8.600  1.00  0.00    -0.070 CG0
ATOM      9  C   UNL     1       2.634  11.887  -9.116  1.00  0.00     0.039 C 
ATOM     10  G   UNL     1       3.968  14.128  -9.129  1.00  0.00     0.000 G0
ENDBRANCH   6   7
ENDBRANCH   5   6
ENDBRANCH   3   5
ENDBRANCH   1   3
BRANCH   1  11
ATOM     11  C   UNL     1       5.438  14.934  -5.773  1.00  0.00     0.087 C 
BRANCH  11  12
ATOM     12  C   UNL     1       5.226  13.761  -6.773  1.00  0.00     0.066 C 
BRANCH  12  13
ATOM     13  C   UNL     1       5.179  14.270  -8.211  1.00  0.00     0.140 C 
ATOM     14  O   UNL     1       6.180  14.799  -8.672  1.00  0.00    -0.299 OA
BRANCH  13  15
ATOM     15  C   UNL     1       3.974  14.136  -9.124  1.00  0.00     0.106 CG0
ATOM     16  G   UNL     1       2.824  13.299  -8.583  1.00  0.00     0.000 G0
ENDBRANCH  13  15
ENDBRANCH  12  13
BRANCH  12  17
ATOM     17  C   UNL     1       6.340  12.675  -6.624  1.00  0.00    -0.006 C 
ATOM     18  C   UNL     1       5.905  11.334  -7.245  1.00  0.00     0.008 C 
ATOM     19  C   UNL     1       6.725  12.437  -5.153  1.00  0.00     0.008 C 
ENDBRANCH  12  17
ENDBRANCH  11  12
ENDBRANCH   1  11
TORSDOF 1
ENDMDL
MODEL 7
REMARK VINA RESULT:    -2.734      1.449      2.369
REMARK INTER + INTRA:          -4.268
REMARK INTER:                  -6.481
REMARK INTRA:                   2.212
REMARK UNBOUND:                -0.095
REMARK SMILES CC1=CCC[C@@H](C)C(=O)C[C@H](C(C)C)C(=O)C1
REMARK SMILES IDX 8 1 9 2 6 3 7 4 5 5 4 6 3 7 2 8 1 9 10 11 11 12 15 13 16 14
REMARK SMILES IDX 17 15 12 17 13 18 14 19
REMARK H PARENT
REMARK Flexibility Score: 70.00
ROOT
ATOM      1  C   UNL     1       6.069  13.325  -6.268  1.00  0.00     0.136 C 
ATOM      2  O   UNL     1       6.500  12.780  -5.263  1.00  0.00    -0.299 OA
ENDROOT
BRANCH   1   3
ATOM      3  C   UNL     1       5.987  12.518  -7.552  1.00  0.00     0.053 C 
ATOM      4  C   UNL     1       6.000  13.432  -8.783  1.00  0.00     0.016 C 
BRANCH   3   5
ATOM      5  C   UNL     1       4.761  11.585  -7.568  1.00  0.00     0.015 C 
BRANCH   5   6
ATOM      6  C   UNL     1       4.054  11.564  -8.943  1.00  0.00     0.028 C 
BRANCH   6   7
ATOM      7  C   UNL     1       2.996  12.637  -9.024  1.00  0.00    -0.028 C 
ATOM      8  C   UNL     1       2.379  13.211  -7.963  1.00  0.00    -0.070 CG0
ATOM      9  C   UNL     1       1.398  14.323  -8.237  1.00  0.00     0.039 C 
ATOM     10  G   UNL     1       2.605  12.771  -6.524  1.00  0.00     0.000 G0
ENDBRANCH   6   7
ENDBRANCH   5   6
ENDBRANCH   3   5
ENDBRANCH   1   3
BRANCH   1  11
ATOM     11  C   UNL     1       5.653  14.780  -6.183  1.00  0.00     0.087 C 
BRANCH  11  12
ATOM     12  C   UNL     1       4.114  15.010  -6.223  1.00  0.00     0.066 C 
BRANCH  12  13
ATOM     13  C   UNL     1       3.367  13.801  -5.668  1.00  0.00     0.140 C 
ATOM     14  O   UNL     1       3.348  13.636  -4.456  1.00  0.00    -0.299 OA
BRANCH  13  15
ATOM     15  C   UNL     1       2.613  12.798  -6.521  1.00  0.00     0.106 CG0
ATOM     16  G   UNL     1       2.373  13.208  -7.967  1.00  0.00     0.000 G0
ENDBRANCH  13  15
ENDBRANCH  12  13
BRANCH  12  17
ATOM     17  C   UNL     1       3.708  16.299  -5.439  1.00  0.00    -0.006 C 
ATOM     18  C   UNL     1       2.185  16.525  -5.478  1.00  0.00     0.008 C 
ATOM     19  C   UNL     1       4.409  17.556  -5.986  1.00  0.00     0.008 C 
ENDBRANCH  12  17
ENDBRANCH  11  12
ENDBRANCH   1  11
TORSDOF 1
ENDMDL
MODEL 8
REMARK VINA RESULT:    -2.422      1.916      3.269
REMARK INTER + INTRA:          -3.792
REMARK INTER:                  -4.695
REMARK INTRA:                   0.903
REMARK UNBOUND:                -0.095
REMARK SMILES CC1=CCC[C@@H](C)C(=O)C[C@H](C(C)C)C(=O)C1
REMARK SMILES IDX 8 1 9 2 6 3 7 4 5 5 4 6 3 7 2 8 1 9 10 11 11 12 15 13 16 14
REMARK SMILES IDX 17 15 12 17 13 18 14 19
REMARK H PARENT
REMARK Flexibility Score: 70.00
ROOT
ATOM      1  C   UNL     1       2.049  14.332  -6.966  1.00  0.00     0.136 C 
ATOM      2  O   UNL     1       1.812  14.513  -8.151  1.00  0.00    -0.299 OA
ENDROOT
BRANCH   1   3
ATOM      3  C   UNL     1       2.249  12.908  -6.475  1.00  0.00     0.053 C 
ATOM      4  C   UNL     1       3.060  12.880  -5.174  1.00  0.00     0.016 C 
BRANCH   3   5
ATOM      5  C   UNL     1       2.896  12.015  -7.551  1.00  0.00     0.015 C 
BRANCH   5   6
ATOM      6  C   UNL     1       4.395  11.754  -7.277  1.00  0.00     0.028 C 
BRANCH   6   7
ATOM      7  C   UNL     1       5.263  12.504  -8.259  1.00  0.00    -0.028 C 
ATOM      8  C   UNL     1       5.792  13.734  -8.057  1.00  0.00    -0.070 CG0
ATOM      9  C   UNL     1       6.698  14.294  -9.125  1.00  0.00     0.039 C 
ATOM     10  G   UNL     1       5.493  14.583  -6.830  1.00  0.00     0.000 G0
ENDBRANCH   6   7
ENDBRANCH   5   6
ENDBRANCH   3   5
ENDBRANCH   1   3
BRANCH   1  11
ATOM     11  C   UNL     1       2.116  15.536  -6.047  1.00  0.00     0.087 C 
BRANCH  11  12
ATOM     12  C   UNL     1       3.534  16.164  -5.916  1.00  0.00     0.066 C 
BRANCH  12  13
ATOM     13  C   UNL     1       4.455  15.669  -7.028  1.00  0.00     0.140 C 
ATOM     14  O   UNL     1       4.352  16.178  -8.136  1.00  0.00    -0.299 OA
BRANCH  13  15
ATOM     15  C   UNL     1       5.520  14.605  -6.844  1.00  0.00     0.106 CG0
ATOM     16  G   UNL     1       5.787  13.719  -8.052  1.00  0.00     0.000 G0
ENDBRANCH  13  15
ENDBRANCH  12  13
BRANCH  12  17
ATOM     17  C   UNL     1       3.471  17.725  -5.925  1.00  0.00    -0.006 C 
ATOM     18  C   UNL     1       4.511  18.335  -4.967  1.00  0.00     0.008 C 
ATOM     19  C   UNL     1       2.076  18.252  -5.541  1.00  0.00     0.008 C 
ENDBRANCH  12  17
ENDBRANCH  11  12
ENDBRANCH   1  11
TORSDOF 1
ENDMDL
MODEL 9
REMARK VINA RESULT:    -2.009      1.705      3.699
REMARK INTER + INTRA:          -3.162
REMARK INTER:                  -5.996
REMARK INTRA:                   2.834
REMARK UNBOUND:                -0.095
REMARK SMILES CC1=CCC[C@@H](C)C(=O)C[C@H](C(C)C)C(=O)C1
REMARK SMILES IDX 8 1 9 2 6 3 7 4 5 5 4 6 3 7 2 8 1 9 10 11 11 12 15 13 16 14
REMARK SMILES IDX 17 15 12 17 13 18 14 19
REMARK H PARENT
REMARK Flexibility Score: 70.00
ROOT
ATOM      1  C   UNL     1       3.809  14.817  -5.290  1.00  0.00     0.136 C 
ATOM      2  O   UNL     1       3.484  14.264  -4.249  1.00  0.00    -0.299 OA
ENDROOT
BRANCH   1   3
ATOM      3  C   UNL     1       2.722  15.417  -6.164  1.00  0.00     0.053 C 
ATOM      4  C   UNL     1       1.911  16.468  -5.397  1.00  0.00     0.016 C 
BRANCH   3   5
ATOM      5  C   UNL     1       1.802  14.335  -6.761  1.00  0.00     0.015 C 
BRANCH   5   6
ATOM      6  C   UNL     1       1.713  14.420  -8.302  1.00  0.00     0.028 C 
BRANCH   6   7
ATOM      7  C   UNL     1       2.264  13.172  -8.946  1.00  0.00    -0.028 C 
ATOM      8  C   UNL     1       3.004  12.228  -8.319  1.00  0.00    -0.070 CG0
ATOM      9  C   UNL     1       3.405  11.008  -9.109  1.00  0.00     0.039 C 
ATOM     10  G   UNL     1       3.473  12.353  -6.876  1.00  0.00     0.000 G0
ENDBRANCH   6   7
ENDBRANCH   5   6
ENDBRANCH   3   5
ENDBRANCH   1   3
BRANCH   1  11
ATOM     11  C   UNL     1       5.279  14.860  -5.659  1.00  0.00     0.087 C 
BRANCH  11  12
ATOM     12  C   UNL     1       5.679  13.894  -6.811  1.00  0.00     0.066 C 
BRANCH  12  13
ATOM     13  C   UNL     1       4.972  12.549  -6.667  1.00  0.00     0.140 C 
ATOM     14  O   UNL     1       5.637  11.577  -6.337  1.00  0.00    -0.299 OA
BRANCH  13  15
ATOM     15  C   UNL     1       3.484  12.341  -6.875  1.00  0.00     0.106 CG0
ATOM     16  G   UNL     1       3.030  12.206  -8.321  1.00  0.00     0.000 G0
ENDBRANCH  13  15
ENDBRANCH  12  13
BRANCH  12  17
ATOM     17  C   UNL     1       5.371  14.515  -8.211  1.00  0.00    -0.006 C 
ATOM     18  C   UNL     1       6.611  14.487  -9.124  1.00  0.00     0.008 C 
ATOM     19  C   UNL     1       4.868  15.966  -8.105  1.00  0.00     0.008 C 
ENDBRANCH  12  17
ENDBRANCH  11  12
ENDBRANCH   1  11
TORSDOF 1
ENDMDL
