MODEL 1
REMARK VINA RESULT:    -3.938      0.000      0.000
REMARK INTER + INTRA:          -9.781
REMARK INTER:                  -7.622
REMARK INTRA:                  -2.159
REMARK UNBOUND:                -2.159
REMARK SMILES CCCCCCCCCCCCCCCCCC(=O)[O-]
REMARK SMILES IDX 10 1 11 2 12 3 13 4 14 5 15 6 16 7 17 8 18 9 19 10 20 11
REMARK SMILES IDX 9 12 8 13 7 14 6 15 5 16 4 17 3 18 2 19 1 20
REMARK H PARENT
REMARK Flexibility Score: inf
ROOT
ATOM      1  C   UNL     1      18.432   6.555   6.334  1.00  0.00     0.000 C 
ENDROOT
BRANCH   1   2
ATOM      2  C   UNL     1      19.890   6.404   6.809  1.00  0.00     0.000 C 
BRANCH   2   3
ATOM      3  C   UNL     1      20.863   7.476   6.283  1.00  0.00     0.000 C 
BRANCH   3   4
ATOM      4  C   UNL     1      22.121   6.922   5.586  1.00  0.00     0.000 C 
BRANCH   4   5
ATOM      5  C   UNL     1      22.936   8.011   4.874  1.00  0.00     0.000 C 
BRANCH   5   6
ATOM      6  C   UNL     1      23.413   7.531   3.498  1.00  0.00     0.000 C 
BRANCH   6   7
ATOM      7  C   UNL     1      24.267   8.602   2.805  1.00  0.00     0.006 C 
BRANCH   7   8
ATOM      8  C   UNL     1      24.281   9.926   3.580  1.00  0.00     0.053 C 
BRANCH   8   9
ATOM      9  C   UNL     1      25.062  10.982   2.860  1.00  0.00     0.041 C 
ATOM     10  O   UNL     1      24.614  12.156   2.777  1.00  0.00    -0.550 OA
ATOM     11  O   UNL     1      26.272  10.663   2.256  1.00  0.00    -0.550 OA
ENDBRANCH   8   9
ENDBRANCH   7   8
ENDBRANCH   6   7
ENDBRANCH   5   6
ENDBRANCH   4   5
ENDBRANCH   3   4
ENDBRANCH   2   3
ENDBRANCH   1   2
BRANCH   1  12
ATOM     12  C   UNL     1      18.023   8.014   6.040  1.00  0.00     0.000 C 
BRANCH  12  13
ATOM     13  C   UNL     1      17.662   8.236   4.561  1.00  0.00    -0.000 C 
BRANCH  13  14
ATOM     14  C   UNL     1      17.574   6.921   3.769  1.00  0.00    -0.000 C 
BRANCH  14  15
ATOM     15  C   UNL     1      17.966   7.094   2.294  1.00  0.00    -0.000 C 
BRANCH  15  16
ATOM     16  C   UNL     1      19.017   6.056   1.879  1.00  0.00    -0.000 C 
BRANCH  16  17
ATOM     17  C   UNL     1      19.991   5.767   3.031  1.00  0.00    -0.000 C 
BRANCH  17  18
ATOM     18  C   UNL     1      20.031   4.269   3.401  1.00  0.00    -0.000 C 
BRANCH  18  19
ATOM     19  C   UNL     1      21.266   3.873   4.226  1.00  0.00    -0.003 C 
ATOM     20  C   UNL     1      22.556   3.870   3.410  1.00  0.00     0.004 C 
ENDBRANCH  18  19
ENDBRANCH  17  18
ENDBRANCH  16  17
ENDBRANCH  15  16
ENDBRANCH  14  15
ENDBRANCH  13  14
ENDBRANCH  12  13
ENDBRANCH   1  12
TORSDOF 16
ENDMDL
MODEL 2
REMARK VINA RESULT:    -3.805      4.242      6.498
REMARK INTER + INTRA:          -9.524
REMARK INTER:                  -6.523
REMARK INTRA:                  -3.001
REMARK UNBOUND:                -2.159
REMARK SMILES CCCCCCCCCCCCCCCCCC(=O)[O-]
REMARK SMILES IDX 10 1 11 2 12 3 13 4 14 5 15 6 16 7 17 8 18 9 19 10 20 11
REMARK SMILES IDX 9 12 8 13 7 14 6 15 5 16 4 17 3 18 2 19 1 20
REMARK H PARENT
REMARK Flexibility Score: inf
ROOT
ATOM      1  C   UNL     1      17.117   6.780   3.444  1.00  0.00     0.000 C 
ENDROOT
BRANCH   1   2
ATOM      2  C   UNL     1      18.110   6.060   2.510  1.00  0.00     0.000 C 
BRANCH   2   3
ATOM      3  C   UNL     1      18.819   4.840   3.126  1.00  0.00     0.000 C 
BRANCH   3   4
ATOM      4  C   UNL     1      18.270   4.394   4.495  1.00  0.00     0.000 C 
BRANCH   4   5
ATOM      5  C   UNL     1      19.378   4.089   5.512  1.00  0.00     0.000 C 
BRANCH   5   6
ATOM      6  C   UNL     1      18.790   3.804   6.899  1.00  0.00     0.000 C 
BRANCH   6   7
ATOM      7  C   UNL     1      19.644   4.443   8.003  1.00  0.00     0.006 C 
BRANCH   7   8
ATOM      8  C   UNL     1      19.080   4.177   9.404  1.00  0.00     0.053 C 
BRANCH   8   9
ATOM      9  C   UNL     1      17.833   4.968   9.660  1.00  0.00     0.041 C 
ATOM     10  O   UNL     1      16.748   4.379   9.910  1.00  0.00    -0.550 OA
ATOM     11  O   UNL     1      17.864   6.355   9.593  1.00  0.00    -0.550 OA
ENDBRANCH   8   9
ENDBRANCH   7   8
ENDBRANCH   6   7
ENDBRANCH   5   6
ENDBRANCH   4   5
ENDBRANCH   3   4
ENDBRANCH   2   3
ENDBRANCH   1   2
BRANCH   1  12
ATOM     12  C   UNL     1      17.706   8.029   4.133  1.00  0.00     0.000 C 
BRANCH  12  13
ATOM     13  C   UNL     1      17.485   8.020   5.656  1.00  0.00    -0.000 C 
BRANCH  13  14
ATOM     14  C   UNL     1      18.752   7.635   6.436  1.00  0.00    -0.000 C 
BRANCH  14  15
ATOM     15  C   UNL     1      20.011   7.644   5.557  1.00  0.00    -0.000 C 
BRANCH  15  16
ATOM     16  C   UNL     1      21.253   7.257   6.371  1.00  0.00    -0.000 C 
BRANCH  16  17
ATOM     17  C   UNL     1      22.343   6.665   5.465  1.00  0.00    -0.000 C 
BRANCH  17  18
ATOM     18  C   UNL     1      21.880   6.542   3.998  1.00  0.00    -0.000 C 
BRANCH  18  19
ATOM     19  C   UNL     1      22.710   5.544   3.174  1.00  0.00    -0.003 C 
ATOM     20  C   UNL     1      22.541   4.098   3.636  1.00  0.00     0.004 C 
ENDBRANCH  18  19
ENDBRANCH  17  18
ENDBRANCH  16  17
ENDBRANCH  15  16
ENDBRANCH  14  15
ENDBRANCH  13  14
ENDBRANCH  12  13
ENDBRANCH   1  12
TORSDOF 16
ENDMDL
MODEL 3
REMARK VINA RESULT:    -3.802      4.282      6.976
REMARK INTER + INTRA:          -9.519
REMARK INTER:                  -7.380
REMARK INTRA:                  -2.138
REMARK UNBOUND:                -2.159
REMARK SMILES CCCCCCCCCCCCCCCCCC(=O)[O-]
REMARK SMILES IDX 10 1 11 2 12 3 13 4 14 5 15 6 16 7 17 8 18 9 19 10 20 11
REMARK SMILES IDX 9 12 8 13 7 14 6 15 5 16 4 17 3 18 2 19 1 20
REMARK H PARENT
REMARK Flexibility Score: inf
ROOT
ATOM      1  C   UNL     1      18.987   8.004   5.362  1.00  0.00     0.000 C 
ENDROOT
BRANCH   1   2
ATOM      2  C   UNL     1      17.486   7.666   5.275  1.00  0.00     0.000 C 
BRANCH   2   3
ATOM      3  C   UNL     1      17.023   7.091   3.923  1.00  0.00     0.000 C 
BRANCH   3   4
ATOM      4  C   UNL     1      18.071   7.162   2.796  1.00  0.00     0.000 C 
BRANCH   4   5
ATOM      5  C   UNL     1      18.755   5.814   2.531  1.00  0.00     0.000 C 
BRANCH   5   6
ATOM      6  C   UNL     1      18.067   4.685   3.309  1.00  0.00     0.000 C 
BRANCH   6   7
ATOM      7  C   UNL     1      19.080   3.902   4.155  1.00  0.00     0.006 C 
BRANCH   7   8
ATOM      8  C   UNL     1      18.652   3.796   5.625  1.00  0.00     0.053 C 
BRANCH   8   9
ATOM      9  C   UNL     1      18.063   2.454   5.936  1.00  0.00     0.041 C 
ATOM     10  O   UNL     1      18.671   1.656   6.698  1.00  0.00    -0.550 OA
ATOM     11  O   UNL     1      16.857   2.073   5.361  1.00  0.00    -0.550 OA
ENDBRANCH   8   9
ENDBRANCH   7   8
ENDBRANCH   6   7
ENDBRANCH   5   6
ENDBRANCH   4   5
ENDBRANCH   3   4
ENDBRANCH   2   3
ENDBRANCH   1   2
BRANCH   1  12
ATOM     12  C   UNL     1      19.742   7.205   6.445  1.00  0.00     0.000 C 
BRANCH  12  13
ATOM     13  C   UNL     1      21.262   7.189   6.211  1.00  0.00    -0.000 C 
BRANCH  13  14
ATOM     14  C   UNL     1      21.736   5.920   5.484  1.00  0.00    -0.000 C 
BRANCH  14  15
ATOM     15  C   UNL     1      22.393   6.227   4.131  1.00  0.00    -0.000 C 
BRANCH  15  16
ATOM     16  C   UNL     1      23.095   7.590   4.156  1.00  0.00    -0.000 C 
BRANCH  16  17
ATOM     17  C   UNL     1      23.990   7.772   2.921  1.00  0.00    -0.000 C 
BRANCH  17  18
ATOM     18  C   UNL     1      24.598   9.189   2.844  1.00  0.00    -0.000 C 
BRANCH  18  19
ATOM     19  C   UNL     1      24.453   9.991   4.147  1.00  0.00    -0.003 C 
ATOM     20  C   UNL     1      25.661  10.877   4.443  1.00  0.00     0.004 C 
ENDBRANCH  18  19
ENDBRANCH  17  18
ENDBRANCH  16  17
ENDBRANCH  15  16
ENDBRANCH  14  15
ENDBRANCH  13  14
ENDBRANCH  12  13
ENDBRANCH   1  12
TORSDOF 16
ENDMDL
MODEL 4
REMARK VINA RESULT:    -3.758      4.013      6.752
REMARK INTER + INTRA:          -9.432
REMARK INTER:                  -7.445
REMARK INTRA:                  -1.987
REMARK UNBOUND:                -2.159
REMARK SMILES CCCCCCCCCCCCCCCCCC(=O)[O-]
REMARK SMILES IDX 10 1 11 2 12 3 13 4 14 5 15 6 16 7 17 8 18 9 19 10 20 11
REMARK SMILES IDX 9 12 8 13 7 14 6 15 5 16 4 17 3 18 2 19 1 20
REMARK H PARENT
REMARK Flexibility Score: inf
ROOT
ATOM      1  C   UNL     1      19.987   7.589   5.776  1.00  0.00     0.000 C 
ENDROOT
BRANCH   1   2
ATOM      2  C   UNL     1      18.561   7.547   6.359  1.00  0.00     0.000 C 
BRANCH   2   3
ATOM      3  C   UNL     1      17.457   8.076   5.424  1.00  0.00     0.000 C 
BRANCH   3   4
ATOM      4  C   UNL     1      17.818   8.067   3.926  1.00  0.00     0.000 C 
BRANCH   4   5
ATOM      5  C   UNL     1      17.470   6.741   3.236  1.00  0.00     0.000 C 
BRANCH   5   6
ATOM      6  C   UNL     1      18.685   6.171   2.494  1.00  0.00     0.000 C 
BRANCH   6   7
ATOM      7  C   UNL     1      18.877   4.682   2.812  1.00  0.00     0.006 C 
BRANCH   7   8
ATOM      8  C   UNL     1      18.642   4.368   4.295  1.00  0.00     0.053 C 
BRANCH   8   9
ATOM      9  C   UNL     1      17.849   3.110   4.478  1.00  0.00     0.041 C 
ATOM     10  O   UNL     1      16.681   3.024   4.016  1.00  0.00    -0.550 OA
ATOM     11  O   UNL     1      18.391   2.044   5.184  1.00  0.00    -0.550 OA
ENDBRANCH   8   9
ENDBRANCH   7   8
ENDBRANCH   6   7
ENDBRANCH   5   6
ENDBRANCH   4   5
ENDBRANCH   3   4
ENDBRANCH   2   3
ENDBRANCH   1   2
BRANCH   1  12
ATOM     12  C   UNL     1      20.956   6.583   6.432  1.00  0.00     0.000 C 
BRANCH  12  13
ATOM     13  C   UNL     1      22.209   6.331   5.576  1.00  0.00    -0.000 C 
BRANCH  13  14
ATOM     14  C   UNL     1      21.936   6.469   4.070  1.00  0.00    -0.000 C 
BRANCH  14  15
ATOM     15  C   UNL     1      23.206   6.311   3.222  1.00  0.00    -0.000 C 
BRANCH  15  16
ATOM     16  C   UNL     1      23.358   7.476   2.236  1.00  0.00    -0.000 C 
BRANCH  16  17
ATOM     17  C   UNL     1      24.447   8.454   2.702  1.00  0.00    -0.000 C 
BRANCH  17  18
ATOM     18  C   UNL     1      24.039   9.218   3.980  1.00  0.00    -0.000 C 
BRANCH  18  19
ATOM     19  C   UNL     1      24.858  10.497   4.219  1.00  0.00    -0.003 C 
ATOM     20  C   UNL     1      24.852  11.445   3.021  1.00  0.00     0.004 C 
ENDBRANCH  18  19
ENDBRANCH  17  18
ENDBRANCH  16  17
ENDBRANCH  15  16
ENDBRANCH  14  15
ENDBRANCH  13  14
ENDBRANCH  12  13
ENDBRANCH   1  12
TORSDOF 16
ENDMDL
MODEL 5
REMARK VINA RESULT:    -3.750      1.402      2.228
REMARK INTER + INTRA:          -9.418
REMARK INTER:                  -6.620
REMARK INTRA:                  -2.798
REMARK UNBOUND:                -2.159
REMARK SMILES CCCCCCCCCCCCCCCCCC(=O)[O-]
REMARK SMILES IDX 10 1 11 2 12 3 13 4 14 5 15 6 16 7 17 8 18 9 19 10 20 11
REMARK SMILES IDX 9 12 8 13 7 14 6 15 5 16 4 17 3 18 2 19 1 20
REMARK H PARENT
REMARK Flexibility Score: inf
ROOT
ATOM      1  C   UNL     1      18.173   7.947   5.584  1.00  0.00     0.000 C 
ENDROOT
BRANCH   1   2
ATOM      2  C   UNL     1      18.801   7.286   6.827  1.00  0.00     0.000 C 
BRANCH   2   3
ATOM      3  C   UNL     1      20.290   6.914   6.687  1.00  0.00     0.000 C 
BRANCH   3   4
ATOM      4  C   UNL     1      21.059   7.714   5.619  1.00  0.00     0.000 C 
BRANCH   4   5
ATOM      5  C   UNL     1      22.399   7.067   5.239  1.00  0.00     0.000 C 
BRANCH   5   6
ATOM      6  C   UNL     1      22.623   7.116   3.723  1.00  0.00     0.000 C 
BRANCH   6   7
ATOM      7  C   UNL     1      23.872   7.940   3.377  1.00  0.00     0.006 C 
BRANCH   7   8
ATOM      8  C   UNL     1      23.786   9.377   3.907  1.00  0.00     0.053 C 
BRANCH   8   9
ATOM      9  C   UNL     1      24.739  10.288   3.197  1.00  0.00     0.041 C 
ATOM     10  O   UNL     1      24.537  11.531   3.182  1.00  0.00    -0.550 OA
ATOM     11  O   UNL     1      25.837   9.761   2.527  1.00  0.00    -0.550 OA
ENDBRANCH   8   9
ENDBRANCH   7   8
ENDBRANCH   6   7
ENDBRANCH   5   6
ENDBRANCH   4   5
ENDBRANCH   3   4
ENDBRANCH   2   3
ENDBRANCH   1   2
BRANCH   1  12
ATOM     12  C   UNL     1      17.609   6.937   4.562  1.00  0.00     0.000 C 
BRANCH  12  13
ATOM     13  C   UNL     1      18.103   7.211   3.131  1.00  0.00    -0.000 C 
BRANCH  13  14
ATOM     14  C   UNL     1      19.094   6.147   2.633  1.00  0.00    -0.000 C 
BRANCH  14  15
ATOM     15  C   UNL     1      18.939   4.807   3.368  1.00  0.00    -0.000 C 
BRANCH  15  16
ATOM     16  C   UNL     1      20.307   4.237   3.765  1.00  0.00    -0.000 C 
BRANCH  16  17
ATOM     17  C   UNL     1      20.281   3.696   5.203  1.00  0.00    -0.000 C 
BRANCH  17  18
ATOM     18  C   UNL     1      18.844   3.529   5.739  1.00  0.00    -0.000 C 
BRANCH  18  19
ATOM     19  C   UNL     1      18.748   3.592   7.272  1.00  0.00    -0.003 C 
ATOM     20  C   UNL     1      20.093   3.381   7.965  1.00  0.00     0.004 C 
ENDBRANCH  18  19
ENDBRANCH  17  18
ENDBRANCH  16  17
ENDBRANCH  15  16
ENDBRANCH  14  15
ENDBRANCH  13  14
ENDBRANCH  12  13
ENDBRANCH   1  12
TORSDOF 16
ENDMDL
MODEL 6
REMARK VINA RESULT:    -3.737      3.845      5.873
REMARK INTER + INTRA:          -9.392
REMARK INTER:                  -6.323
REMARK INTRA:                  -3.069
REMARK UNBOUND:                -2.159
REMARK SMILES CCCCCCCCCCCCCCCCCC(=O)[O-]
REMARK SMILES IDX 10 1 11 2 12 3 13 4 14 5 15 6 16 7 17 8 18 9 19 10 20 11
REMARK SMILES IDX 9 12 8 13 7 14 6 15 5 16 4 17 3 18 2 19 1 20
REMARK H PARENT
REMARK Flexibility Score: inf
ROOT
ATOM      1  C   UNL     1      17.458   7.118   2.986  1.00  0.00     0.000 C 
ENDROOT
BRANCH   1   2
ATOM      2  C   UNL     1      17.604   5.584   2.975  1.00  0.00     0.000 C 
BRANCH   2   3
ATOM      3  C   UNL     1      19.045   5.065   2.812  1.00  0.00     0.000 C 
BRANCH   3   4
ATOM      4  C   UNL     1      19.558   4.200   3.979  1.00  0.00     0.000 C 
BRANCH   4   5
ATOM      5  C   UNL     1      18.585   4.160   5.165  1.00  0.00     0.000 C 
BRANCH   5   6
ATOM      6  C   UNL     1      19.289   3.679   6.439  1.00  0.00     0.000 C 
BRANCH   6   7
ATOM      7  C   UNL     1      20.799   3.523   6.209  1.00  0.00     0.006 C 
BRANCH   7   8
ATOM      8  C   UNL     1      21.629   4.213   7.299  1.00  0.00     0.053 C 
BRANCH   8   9
ATOM      9  C   UNL     1      22.174   3.228   8.288  1.00  0.00     0.041 C 
ATOM     10  O   UNL     1      21.811   2.023   8.250  1.00  0.00    -0.550 OA
ATOM     11  O   UNL     1      23.063   3.649   9.270  1.00  0.00    -0.550 OA
ENDBRANCH   8   9
ENDBRANCH   7   8
ENDBRANCH   6   7
ENDBRANCH   5   6
ENDBRANCH   4   5
ENDBRANCH   3   4
ENDBRANCH   2   3
ENDBRANCH   1   2
BRANCH   1  12
ATOM     12  C   UNL     1      17.026   7.692   4.351  1.00  0.00     0.000 C 
BRANCH  12  13
ATOM     13  C   UNL     1      18.196   8.338   5.114  1.00  0.00    -0.000 C 
BRANCH  13  14
ATOM     14  C   UNL     1      18.517   7.611   6.430  1.00  0.00    -0.000 C 
BRANCH  14  15
ATOM     15  C   UNL     1      20.015   7.312   6.588  1.00  0.00    -0.000 C 
BRANCH  15  16
ATOM     16  C   UNL     1      20.735   7.378   5.235  1.00  0.00    -0.000 C 
BRANCH  16  17
ATOM     17  C   UNL     1      22.259   7.427   5.423  1.00  0.00    -0.000 C 
BRANCH  17  18
ATOM     18  C   UNL     1      23.015   7.396   4.078  1.00  0.00    -0.000 C 
BRANCH  18  19
ATOM     19  C   UNL     1      22.480   6.340   3.097  1.00  0.00    -0.003 C 
ATOM     20  C   UNL     1      23.025   4.939   3.368  1.00  0.00     0.004 C 
ENDBRANCH  18  19
ENDBRANCH  17  18
ENDBRANCH  16  17
ENDBRANCH  15  16
ENDBRANCH  14  15
ENDBRANCH  13  14
ENDBRANCH  12  13
ENDBRANCH   1  12
TORSDOF 16
ENDMDL
MODEL 7
REMARK VINA RESULT:    -3.712      1.450      2.916
REMARK INTER + INTRA:          -9.344
REMARK INTER:                  -7.071
REMARK INTRA:                  -2.273
REMARK UNBOUND:                -2.159
REMARK SMILES CCCCCCCCCCCCCCCCCC(=O)[O-]
REMARK SMILES IDX 10 1 11 2 12 3 13 4 14 5 15 6 16 7 17 8 18 9 19 10 20 11
REMARK SMILES IDX 9 12 8 13 7 14 6 15 5 16 4 17 3 18 2 19 1 20
REMARK H PARENT
REMARK Flexibility Score: inf
ROOT
ATOM      1  C   UNL     1      20.121   5.679   2.726  1.00  0.00     0.000 C 
ENDROOT
BRANCH   1   2
ATOM      2  C   UNL     1      21.027   5.331   3.923  1.00  0.00     0.000 C 
BRANCH   2   3
ATOM      3  C   UNL     1      22.375   6.075   3.960  1.00  0.00     0.000 C 
BRANCH   3   4
ATOM      4  C   UNL     1      22.408   7.311   4.879  1.00  0.00     0.000 C 
BRANCH   4   5
ATOM      5  C   UNL     1      23.404   8.380   4.407  1.00  0.00     0.000 C 
BRANCH   5   6
ATOM      6  C   UNL     1      23.863   8.108   2.969  1.00  0.00     0.000 C 
BRANCH   6   7
ATOM      7  C   UNL     1      24.931   9.119   2.531  1.00  0.00     0.006 C 
BRANCH   7   8
ATOM      8  C   UNL     1      24.754  10.484   3.210  1.00  0.00     0.053 C 
BRANCH   8   9
ATOM      9  C   UNL     1      26.057  11.026   3.713  1.00  0.00     0.041 C 
ATOM     10  O   UNL     1      26.115  12.187   4.198  1.00  0.00    -0.550 OA
ATOM     11  O   UNL     1      27.212  10.260   3.619  1.00  0.00    -0.550 OA
ENDBRANCH   8   9
ENDBRANCH   7   8
ENDBRANCH   6   7
ENDBRANCH   5   6
ENDBRANCH   4   5
ENDBRANCH   3   4
ENDBRANCH   2   3
ENDBRANCH   1   2
BRANCH   1  12
ATOM     12  C   UNL     1      18.614   5.537   3.026  1.00  0.00     0.000 C 
BRANCH  12  13
ATOM     13  C   UNL     1      17.849   6.859   2.838  1.00  0.00    -0.000 C 
BRANCH  13  14
ATOM     14  C   UNL     1      18.026   7.819   4.025  1.00  0.00    -0.000 C 
BRANCH  14  15
ATOM     15  C   UNL     1      17.878   7.113   5.381  1.00  0.00    -0.000 C 
BRANCH  15  16
ATOM     16  C   UNL     1      18.961   7.578   6.364  1.00  0.00    -0.000 C 
BRANCH  16  17
ATOM     17  C   UNL     1      19.616   6.381   7.068  1.00  0.00    -0.000 C 
BRANCH  17  18
ATOM     18  C   UNL     1      18.668   5.166   7.160  1.00  0.00    -0.000 C 
BRANCH  18  19
ATOM     19  C   UNL     1      19.311   3.849   6.694  1.00  0.00    -0.003 C 
ATOM     20  C   UNL     1      18.408   3.036   5.769  1.00  0.00     0.004 C 
ENDBRANCH  18  19
ENDBRANCH  17  18
ENDBRANCH  16  17
ENDBRANCH  15  16
ENDBRANCH  14  15
ENDBRANCH  13  14
ENDBRANCH  12  13
ENDBRANCH   1  12
TORSDOF 16
ENDMDL
MODEL 8
REMARK VINA RESULT:    -3.696      1.298      3.272
REMARK INTER + INTRA:          -9.312
REMARK INTER:                  -6.874
REMARK INTRA:                  -2.438
REMARK UNBOUND:                -2.159
REMARK SMILES CCCCCCCCCCCCCCCCCC(=O)[O-]
REMARK SMILES IDX 10 1 11 2 12 3 13 4 14 5 15 6 16 7 17 8 18 9 19 10 20 11
REMARK SMILES IDX 9 12 8 13 7 14 6 15 5 16 4 17 3 18 2 19 1 20
REMARK H PARENT
REMARK Flexibility Score: inf
ROOT
ATOM      1  C   UNL     1      20.790   7.011   6.376  1.00  0.00     0.000 C 
ENDROOT
BRANCH   1   2
ATOM      2  C   UNL     1      21.647   7.623   5.251  1.00  0.00     0.000 C 
BRANCH   2   3
ATOM      3  C   UNL     1      22.700   6.677   4.644  1.00  0.00     0.000 C 
BRANCH   3   4
ATOM      4  C   UNL     1      22.446   6.281   3.176  1.00  0.00     0.000 C 
BRANCH   4   5
ATOM      5  C   UNL     1      23.085   7.255   2.176  1.00  0.00     0.000 C 
BRANCH   5   6
ATOM      6  C   UNL     1      24.611   7.097   2.154  1.00  0.00     0.000 C 
BRANCH   6   7
ATOM      7  C   UNL     1      25.308   8.449   2.363  1.00  0.00     0.006 C 
BRANCH   7   8
ATOM      8  C   UNL     1      24.393   9.477   3.042  1.00  0.00     0.053 C 
BRANCH   8   9
ATOM      9  C   UNL     1      25.129  10.736   3.383  1.00  0.00     0.041 C 
ATOM     10  O   UNL     1      26.166  10.691   4.097  1.00  0.00    -0.550 OA
ATOM     11  O   UNL     1      24.653  11.962   2.937  1.00  0.00    -0.550 OA
ENDBRANCH   8   9
ENDBRANCH   7   8
ENDBRANCH   6   7
ENDBRANCH   5   6
ENDBRANCH   4   5
ENDBRANCH   3   4
ENDBRANCH   2   3
ENDBRANCH   1   2
BRANCH   1  12
ATOM     12  C   UNL     1      21.081   5.518   6.636  1.00  0.00     0.000 C 
BRANCH  12  13
ATOM     13  C   UNL     1      19.901   4.612   6.242  1.00  0.00    -0.000 C 
BRANCH  13  14
ATOM     14  C   UNL     1      20.061   4.010   4.837  1.00  0.00    -0.000 C 
BRANCH  14  15
ATOM     15  C   UNL     1      18.732   3.507   4.256  1.00  0.00    -0.000 C 
BRANCH  15  16
ATOM     16  C   UNL     1      17.889   4.672   3.721  1.00  0.00    -0.000 C 
BRANCH  16  17
ATOM     17  C   UNL     1      18.740   5.617   2.860  1.00  0.00    -0.000 C 
BRANCH  17  18
ATOM     18  C   UNL     1      18.329   7.095   3.033  1.00  0.00    -0.000 C 
BRANCH  18  19
ATOM     19  C   UNL     1      17.630   7.385   4.372  1.00  0.00    -0.003 C 
ATOM     20  C   UNL     1      17.820   8.824   4.847  1.00  0.00     0.004 C 
ENDBRANCH  18  19
ENDBRANCH  17  18
ENDBRANCH  16  17
ENDBRANCH  15  16
ENDBRANCH  14  15
ENDBRANCH  13  14
ENDBRANCH  12  13
ENDBRANCH   1  12
TORSDOF 16
ENDMDL
MODEL 9
REMARK VINA RESULT:    -3.686      3.526      5.752
REMARK INTER + INTRA:          -9.293
REMARK INTER:                  -6.412
REMARK INTRA:                  -2.882
REMARK UNBOUND:                -2.159
REMARK SMILES CCCCCCCCCCCCCCCCCC(=O)[O-]
REMARK SMILES IDX 10 1 11 2 12 3 13 4 14 5 15 6 16 7 17 8 18 9 19 10 20 11
REMARK SMILES IDX 9 12 8 13 7 14 6 15 5 16 4 17 3 18 2 19 1 20
REMARK H PARENT
REMARK Flexibility Score: inf
ROOT
ATOM      1  C   UNL     1      17.102   8.028   4.807  1.00  0.00     0.000 C 
ENDROOT
BRANCH   1   2
ATOM      2  C   UNL     1      17.017   6.786   3.898  1.00  0.00     0.000 C 
BRANCH   2   3
ATOM      3  C   UNL     1      17.837   6.870   2.597  1.00  0.00     0.000 C 
BRANCH   3   4
ATOM      4  C   UNL     1      19.102   5.991   2.571  1.00  0.00     0.000 C 
BRANCH   4   5
ATOM      5  C   UNL     1      18.878   4.605   3.190  1.00  0.00     0.000 C 
BRANCH   5   6
ATOM      6  C   UNL     1      19.966   4.281   4.222  1.00  0.00     0.000 C 
BRANCH   6   7
ATOM      7  C   UNL     1      19.352   3.736   5.519  1.00  0.00     0.006 C 
BRANCH   7   8
ATOM      8  C   UNL     1      20.373   2.970   6.370  1.00  0.00     0.053 C 
BRANCH   8   9
ATOM      9  C   UNL     1      20.773   3.745   7.588  1.00  0.00     0.041 C 
ATOM     10  O   UNL     1      21.990   3.939   7.845  1.00  0.00    -0.550 OA
ATOM     11  O   UNL     1      19.800   4.229   8.454  1.00  0.00    -0.550 OA
ENDBRANCH   8   9
ENDBRANCH   7   8
ENDBRANCH   6   7
ENDBRANCH   5   6
ENDBRANCH   4   5
ENDBRANCH   3   4
ENDBRANCH   2   3
ENDBRANCH   1   2
BRANCH   1  12
ATOM     12  C   UNL     1      18.525   8.318   5.330  1.00  0.00     0.000 C 
BRANCH  12  13
ATOM     13  C   UNL     1      18.944   7.357   6.456  1.00  0.00    -0.000 C 
BRANCH  13  14
ATOM     14  C   UNL     1      20.467   7.167   6.535  1.00  0.00    -0.000 C 
BRANCH  14  15
ATOM     15  C   UNL     1      21.186   7.623   5.257  1.00  0.00    -0.000 C 
BRANCH  15  16
ATOM     16  C   UNL     1      22.472   6.816   5.031  1.00  0.00    -0.000 C 
BRANCH  16  17
ATOM     17  C   UNL     1      23.112   7.167   3.680  1.00  0.00    -0.000 C 
BRANCH  17  18
ATOM     18  C   UNL     1      22.776   6.130   2.587  1.00  0.00    -0.000 C 
BRANCH  18  19
ATOM     19  C   UNL     1      23.856   5.049   2.413  1.00  0.00    -0.003 C 
ATOM     20  C   UNL     1      23.474   3.714   3.049  1.00  0.00     0.004 C 
ENDBRANCH  18  19
ENDBRANCH  17  18
ENDBRANCH  16  17
ENDBRANCH  15  16
ENDBRANCH  14  15
ENDBRANCH  13  14
ENDBRANCH  12  13
ENDBRANCH   1  12
TORSDOF 16
ENDMDL
