MODEL 1
REMARK VINA RESULT:     5.763      0.000      0.000
REMARK INTER + INTRA:          13.540
REMARK INTER:                  13.175
REMARK INTRA:                   0.366
REMARK UNBOUND:                 0.366
REMARK SMILES CCCCCCCCCCCCCCCCCCCCCCCC(=O)[O-]
REMARK SMILES IDX 13 1 14 2 15 3 16 4 17 5 18 6 19 7 20 8 21 9 22 10 23 11
REMARK SMILES IDX 24 12 25 13 26 14 12 15 11 16 10 17 9 18 8 19 7 20 6 21 5 22
REMARK SMILES IDX 4 23 3 24 2 25 1 26
REMARK H PARENT
REMARK Flexibility Score: inf
ROOT
ATOM      1  C   UNL     1      -4.620  38.003  20.421  1.00  0.00     0.000 C 
ENDROOT
BRANCH   1   2
ATOM      2  C   UNL     1      -5.227  36.871  19.573  1.00  0.00     0.000 C 
BRANCH   2   3
ATOM      3  C   UNL     1      -6.120  35.922  20.391  1.00  0.00     0.000 C 
BRANCH   3   4
ATOM      4  C   UNL     1      -5.939  34.441  19.996  1.00  0.00     0.000 C 
BRANCH   4   5
ATOM      5  C   UNL     1      -5.777  34.210  18.482  1.00  0.00     0.000 C 
BRANCH   5   6
ATOM      6  C   UNL     1      -4.381  34.522  17.918  1.00  0.00     0.000 C 
BRANCH   6   7
ATOM      7  C   UNL     1      -4.338  34.482  16.380  1.00  0.00     0.000 C 
BRANCH   7   8
ATOM      8  C   UNL     1      -3.249  35.396  15.795  1.00  0.00     0.000 C 
BRANCH   8   9
ATOM      9  C   UNL     1      -3.524  35.775  14.329  1.00  0.00     0.000 C 
BRANCH   9  10
ATOM     10  C   UNL     1      -2.851  37.098  13.922  1.00  0.00     0.006 C 
BRANCH  10  11
ATOM     11  C   UNL     1      -3.395  38.333  14.658  1.00  0.00     0.053 C 
BRANCH  11  12
ATOM     12  C   UNL     1      -4.779  38.687  14.208  1.00  0.00     0.041 C 
ATOM     13  O   UNL     1      -5.139  39.892  14.159  1.00  0.00    -0.550 OA
ATOM     14  O   UNL     1      -5.682  37.684  13.878  1.00  0.00    -0.550 OA
ENDBRANCH  11  12
ENDBRANCH  10  11
ENDBRANCH   9  10
ENDBRANCH   8   9
ENDBRANCH   7   8
ENDBRANCH   6   7
ENDBRANCH   5   6
ENDBRANCH   4   5
ENDBRANCH   3   4
ENDBRANCH   2   3
ENDBRANCH   1   2
BRANCH   1  15
ATOM     15  C   UNL     1      -5.666  38.989  20.984  1.00  0.00     0.000 C 
BRANCH  15  16
ATOM     16  C   UNL     1      -5.012  40.223  21.630  1.00  0.00     0.000 C 
BRANCH  16  17
ATOM     17  C   UNL     1      -5.311  40.343  23.135  1.00  0.00     0.000 C 
BRANCH  17  18
ATOM     18  C   UNL     1      -5.602  39.012  23.852  1.00  0.00    -0.000 C 
BRANCH  18  19
ATOM     19  C   UNL     1      -5.057  38.978  25.290  1.00  0.00    -0.000 C 
BRANCH  19  20
ATOM     20  C   UNL     1      -4.679  37.562  25.763  1.00  0.00    -0.000 C 
BRANCH  20  21
ATOM     21  C   UNL     1      -5.751  36.479  25.531  1.00  0.00    -0.000 C 
BRANCH  21  22
ATOM     22  C   UNL     1      -5.715  35.886  24.114  1.00  0.00    -0.000 C 
BRANCH  22  23
ATOM     23  C   UNL     1      -5.887  34.362  24.151  1.00  0.00    -0.000 C 
BRANCH  23  24
ATOM     24  C   UNL     1      -5.535  33.687  22.812  1.00  0.00    -0.000 C 
BRANCH  24  25
ATOM     25  C   UNL     1      -4.030  33.483  22.566  1.00  0.00    -0.003 C 
ATOM     26  C   UNL     1      -3.394  34.626  21.776  1.00  0.00     0.004 C 
ENDBRANCH  24  25
ENDBRANCH  23  24
ENDBRANCH  22  23
ENDBRANCH  21  22
ENDBRANCH  20  21
ENDBRANCH  19  20
ENDBRANCH  18  19
ENDBRANCH  17  18
ENDBRANCH  16  17
ENDBRANCH  15  16
ENDBRANCH   1  15
TORSDOF 22
ENDMDL
MODEL 2
REMARK VINA RESULT:     6.260      2.041      8.112
REMARK INTER + INTRA:          14.676
REMARK INTER:                  14.806
REMARK INTRA:                  -0.130
REMARK UNBOUND:                 0.366
REMARK SMILES CCCCCCCCCCCCCCCCCCCCCCCC(=O)[O-]
REMARK SMILES IDX 13 1 14 2 15 3 16 4 17 5 18 6 19 7 20 8 21 9 22 10 23 11
REMARK SMILES IDX 24 12 25 13 26 14 12 15 11 16 10 17 9 18 8 19 7 20 6 21 5 22
REMARK SMILES IDX 4 23 3 24 2 25 1 26
REMARK H PARENT
REMARK Flexibility Score: inf
ROOT
ATOM      1  C   UNL     1      -4.824  34.866  22.994  1.00  0.00     0.000 C 
ENDROOT
BRANCH   1   2
ATOM      2  C   UNL     1      -6.125  34.419  23.684  1.00  0.00     0.000 C 
BRANCH   2   3
ATOM      3  C   UNL     1      -5.984  34.304  25.212  1.00  0.00     0.000 C 
BRANCH   3   4
ATOM      4  C   UNL     1      -6.026  35.674  25.921  1.00  0.00     0.000 C 
BRANCH   4   5
ATOM      5  C   UNL     1      -4.780  36.546  25.676  1.00  0.00     0.000 C 
BRANCH   5   6
ATOM      6  C   UNL     1      -4.979  38.052  25.912  1.00  0.00     0.000 C 
BRANCH   6   7
ATOM      7  C   UNL     1      -4.074  38.919  25.018  1.00  0.00     0.000 C 
BRANCH   7   8
ATOM      8  C   UNL     1      -4.873  39.869  24.112  1.00  0.00     0.000 C 
BRANCH   8   9
ATOM      9  C   UNL     1      -5.823  39.117  23.163  1.00  0.00     0.000 C 
BRANCH   9  10
ATOM     10  C   UNL     1      -5.810  39.689  21.734  1.00  0.00     0.006 C 
BRANCH  10  11
ATOM     11  C   UNL     1      -4.604  39.246  20.891  1.00  0.00     0.053 C 
BRANCH  11  12
ATOM     12  C   UNL     1      -4.737  37.829  20.425  1.00  0.00     0.041 C 
ATOM     13  O   UNL     1      -3.889  36.967  20.775  1.00  0.00    -0.550 OA
ATOM     14  O   UNL     1      -5.776  37.470  19.576  1.00  0.00    -0.550 OA
ENDBRANCH  11  12
ENDBRANCH  10  11
ENDBRANCH   9  10
ENDBRANCH   8   9
ENDBRANCH   7   8
ENDBRANCH   6   7
ENDBRANCH   5   6
ENDBRANCH   4   5
ENDBRANCH   3   4
ENDBRANCH   2   3
ENDBRANCH   1   2
BRANCH   1  15
ATOM     15  C   UNL     1      -4.478  34.052  21.728  1.00  0.00     0.000 C 
BRANCH  15  16
ATOM     16  C   UNL     1      -5.253  34.544  20.493  1.00  0.00     0.000 C 
BRANCH  16  17
ATOM     17  C   UNL     1      -6.051  33.425  19.800  1.00  0.00     0.000 C 
BRANCH  17  18
ATOM     18  C   UNL     1      -6.036  33.468  18.261  1.00  0.00    -0.000 C 
BRANCH  18  19
ATOM     19  C   UNL     1      -5.629  34.845  17.707  1.00  0.00    -0.000 C 
BRANCH  19  20
ATOM     20  C   UNL     1      -4.377  34.794  16.813  1.00  0.00    -0.000 C 
BRANCH  20  21
ATOM     21  C   UNL     1      -3.887  36.156  16.282  1.00  0.00    -0.000 C 
BRANCH  21  22
ATOM     22  C   UNL     1      -3.289  36.075  14.870  1.00  0.00    -0.000 C 
BRANCH  22  23
ATOM     23  C   UNL     1      -4.112  36.904  13.875  1.00  0.00    -0.000 C 
BRANCH  23  24
ATOM     24  C   UNL     1      -4.028  38.418  14.143  1.00  0.00    -0.000 C 
BRANCH  24  25
ATOM     25  C   UNL     1      -5.329  39.195  13.878  1.00  0.00    -0.003 C 
ATOM     26  C   UNL     1      -5.171  40.704  14.060  1.00  0.00     0.004 C 
ENDBRANCH  24  25
ENDBRANCH  23  24
ENDBRANCH  22  23
ENDBRANCH  21  22
ENDBRANCH  20  21
ENDBRANCH  19  20
ENDBRANCH  18  19
ENDBRANCH  17  18
ENDBRANCH  16  17
ENDBRANCH  15  16
ENDBRANCH   1  15
TORSDOF 22
ENDMDL
MODEL 3
REMARK VINA RESULT:     6.363      3.360      8.970
REMARK INTER + INTRA:          14.911
REMARK INTER:                  10.432
REMARK INTRA:                   4.479
REMARK UNBOUND:                 0.366
REMARK SMILES CCCCCCCCCCCCCCCCCCCCCCCC(=O)[O-]
REMARK SMILES IDX 13 1 14 2 15 3 16 4 17 5 18 6 19 7 20 8 21 9 22 10 23 11
REMARK SMILES IDX 24 12 25 13 26 14 12 15 11 16 10 17 9 18 8 19 7 20 6 21 5 22
REMARK SMILES IDX 4 23 3 24 2 25 1 26
REMARK H PARENT
REMARK Flexibility Score: inf
ROOT
ATOM      1  C   UNL     1      -4.290  35.144  22.027  1.00  0.00     0.000 C 
ENDROOT
BRANCH   1   2
ATOM      2  C   UNL     1      -5.682  35.676  22.412  1.00  0.00     0.000 C 
BRANCH   2   3
ATOM      3  C   UNL     1      -6.010  37.028  21.756  1.00  0.00     0.000 C 
BRANCH   3   4
ATOM      4  C   UNL     1      -4.954  37.460  20.715  1.00  0.00     0.000 C 
BRANCH   4   5
ATOM      5  C   UNL     1      -5.057  38.938  20.294  1.00  0.00     0.000 C 
BRANCH   5   6
ATOM      6  C   UNL     1      -5.907  39.825  21.219  1.00  0.00     0.000 C 
BRANCH   6   7
ATOM      7  C   UNL     1      -5.300  39.968  22.627  1.00  0.00     0.000 C 
BRANCH   7   8
ATOM      8  C   UNL     1      -5.489  38.706  23.483  1.00  0.00     0.000 C 
BRANCH   8   9
ATOM      9  C   UNL     1      -4.472  38.618  24.635  1.00  0.00     0.000 C 
BRANCH   9  10
ATOM     10  C   UNL     1      -5.140  38.359  25.997  1.00  0.00     0.006 C 
BRANCH  10  11
ATOM     11  C   UNL     1      -6.092  37.152  26.012  1.00  0.00     0.053 C 
BRANCH  11  12
ATOM     12  C   UNL     1      -5.500  35.965  25.317  1.00  0.00     0.041 C 
ATOM     13  O   UNL     1      -4.476  36.099  24.598  1.00  0.00    -0.550 OA
ATOM     14  O   UNL     1      -6.101  34.718  25.435  1.00  0.00    -0.550 OA
ENDBRANCH  11  12
ENDBRANCH  10  11
ENDBRANCH   9  10
ENDBRANCH   8   9
ENDBRANCH   7   8
ENDBRANCH   6   7
ENDBRANCH   5   6
ENDBRANCH   4   5
ENDBRANCH   3   4
ENDBRANCH   2   3
ENDBRANCH   1   2
BRANCH   1  15
ATOM     15  C   UNL     1      -4.277  34.313  20.725  1.00  0.00     0.000 C 
BRANCH  15  16
ATOM     16  C   UNL     1      -5.698  34.015  20.214  1.00  0.00     0.000 C 
BRANCH  16  17
ATOM     17  C   UNL     1      -5.772  33.896  18.682  1.00  0.00     0.000 C 
BRANCH  17  18
ATOM     18  C   UNL     1      -4.507  34.348  17.929  1.00  0.00    -0.000 C 
BRANCH  18  19
ATOM     19  C   UNL     1      -4.794  35.436  16.880  1.00  0.00    -0.000 C 
BRANCH  19  20
ATOM     20  C   UNL     1      -3.526  35.952  16.177  1.00  0.00    -0.000 C 
BRANCH  20  21
ATOM     21  C   UNL     1      -3.499  35.771  14.646  1.00  0.00    -0.000 C 
BRANCH  21  22
ATOM     22  C   UNL     1      -3.333  37.095  13.883  1.00  0.00    -0.000 C 
BRANCH  22  23
ATOM     23  C   UNL     1      -4.624  37.923  13.930  1.00  0.00    -0.000 C 
BRANCH  23  24
ATOM     24  C   UNL     1      -4.433  39.292  14.609  1.00  0.00    -0.000 C 
BRANCH  24  25
ATOM     25  C   UNL     1      -5.368  40.402  14.100  1.00  0.00    -0.003 C 
ATOM     26  C   UNL     1      -5.141  41.741  14.800  1.00  0.00     0.004 C 
ENDBRANCH  24  25
ENDBRANCH  23  24
ENDBRANCH  22  23
ENDBRANCH  21  22
ENDBRANCH  20  21
ENDBRANCH  19  20
ENDBRANCH  18  19
ENDBRANCH  17  18
ENDBRANCH  16  17
ENDBRANCH  15  16
ENDBRANCH   1  15
TORSDOF 22
ENDMDL
MODEL 4
REMARK VINA RESULT:     6.495      4.102      9.504
REMARK INTER + INTRA:          15.214
REMARK INTER:                  14.827
REMARK INTRA:                   0.387
REMARK UNBOUND:                 0.366
REMARK SMILES CCCCCCCCCCCCCCCCCCCCCCCC(=O)[O-]
REMARK SMILES IDX 13 1 14 2 15 3 16 4 17 5 18 6 19 7 20 8 21 9 22 10 23 11
REMARK SMILES IDX 24 12 25 13 26 14 12 15 11 16 10 17 9 18 8 19 7 20 6 21 5 22
REMARK SMILES IDX 4 23 3 24 2 25 1 26
REMARK H PARENT
REMARK Flexibility Score: inf
ROOT
ATOM      1  C   UNL     1      -5.792  36.396  21.247  1.00  0.00     0.000 C 
ENDROOT
BRANCH   1   2
ATOM      2  C   UNL     1      -5.979  37.295  20.012  1.00  0.00     0.000 C 
BRANCH   2   3
ATOM      3  C   UNL     1      -5.166  38.599  20.091  1.00  0.00     0.000 C 
BRANCH   3   4
ATOM      4  C   UNL     1      -6.024  39.815  20.499  1.00  0.00     0.000 C 
BRANCH   4   5
ATOM      5  C   UNL     1      -5.780  40.300  21.941  1.00  0.00     0.000 C 
BRANCH   5   6
ATOM      6  C   UNL     1      -4.726  39.505  22.728  1.00  0.00     0.000 C 
BRANCH   6   7
ATOM      7  C   UNL     1      -5.279  38.923  24.041  1.00  0.00     0.000 C 
BRANCH   7   8
ATOM      8  C   UNL     1      -5.741  37.465  23.893  1.00  0.00     0.000 C 
BRANCH   8   9
ATOM      9  C   UNL     1      -5.724  36.702  25.229  1.00  0.00     0.000 C 
BRANCH   9  10
ATOM     10  C   UNL     1      -4.796  37.352  26.272  1.00  0.00     0.006 C 
BRANCH  10  11
ATOM     11  C   UNL     1      -3.305  37.306  25.902  1.00  0.00     0.053 C 
BRANCH  11  12
ATOM     12  C   UNL     1      -2.433  37.164  27.111  1.00  0.00     0.041 C 
ATOM     13  O   UNL     1      -1.924  38.183  27.646  1.00  0.00    -0.550 OA
ATOM     14  O   UNL     1      -2.152  35.904  27.623  1.00  0.00    -0.550 OA
ENDBRANCH  11  12
ENDBRANCH  10  11
ENDBRANCH   9  10
ENDBRANCH   8   9
ENDBRANCH   7   8
ENDBRANCH   6   7
ENDBRANCH   5   6
ENDBRANCH   4   5
ENDBRANCH   3   4
ENDBRANCH   2   3
ENDBRANCH   1   2
BRANCH   1  15
ATOM     15  C   UNL     1      -5.099  35.051  20.941  1.00  0.00     0.000 C 
BRANCH  15  16
ATOM     16  C   UNL     1      -5.477  34.506  19.552  1.00  0.00     0.000 C 
BRANCH  16  17
ATOM     17  C   UNL     1      -5.097  35.462  18.408  1.00  0.00     0.000 C 
BRANCH  17  18
ATOM     18  C   UNL     1      -4.827  34.784  17.051  1.00  0.00    -0.000 C 
BRANCH  18  19
ATOM     19  C   UNL     1      -3.449  35.142  16.470  1.00  0.00    -0.000 C 
BRANCH  19  20
ATOM     20  C   UNL     1      -3.450  35.268  14.936  1.00  0.00    -0.000 C 
BRANCH  20  21
ATOM     21  C   UNL     1      -2.422  36.257  14.352  1.00  0.00    -0.000 C 
BRANCH  21  22
ATOM     22  C   UNL     1      -3.052  37.575  13.876  1.00  0.00    -0.000 C 
BRANCH  22  23
ATOM     23  C   UNL     1      -4.040  38.120  14.917  1.00  0.00    -0.000 C 
BRANCH  23  24
ATOM     24  C   UNL     1      -5.125  39.021  14.298  1.00  0.00    -0.000 C 
BRANCH  24  25
ATOM     25  C   UNL     1      -4.665  40.451  13.967  1.00  0.00    -0.003 C 
ATOM     26  C   UNL     1      -5.753  41.497  14.204  1.00  0.00     0.004 C 
ENDBRANCH  24  25
ENDBRANCH  23  24
ENDBRANCH  22  23
ENDBRANCH  21  22
ENDBRANCH  20  21
ENDBRANCH  19  20
ENDBRANCH  18  19
ENDBRANCH  17  18
ENDBRANCH  16  17
ENDBRANCH  15  16
ENDBRANCH   1  15
TORSDOF 22
ENDMDL
MODEL 5
REMARK VINA RESULT:     6.904      1.810      3.049
REMARK INTER + INTRA:          16.148
REMARK INTER:                  15.945
REMARK INTRA:                   0.203
REMARK UNBOUND:                 0.366
REMARK SMILES CCCCCCCCCCCCCCCCCCCCCCCC(=O)[O-]
REMARK SMILES IDX 13 1 14 2 15 3 16 4 17 5 18 6 19 7 20 8 21 9 22 10 23 11
REMARK SMILES IDX 24 12 25 13 26 14 12 15 11 16 10 17 9 18 8 19 7 20 6 21 5 22
REMARK SMILES IDX 4 23 3 24 2 25 1 26
REMARK H PARENT
REMARK Flexibility Score: inf
ROOT
ATOM      1  C   UNL     1      -3.912  36.309  21.586  1.00  0.00     0.000 C 
ENDROOT
BRANCH   1   2
ATOM      2  C   UNL     1      -4.352  34.852  21.814  1.00  0.00     0.000 C 
BRANCH   2   3
ATOM      3  C   UNL     1      -5.843  34.621  21.515  1.00  0.00     0.000 C 
BRANCH   3   4
ATOM      4  C   UNL     1      -6.075  33.622  20.361  1.00  0.00     0.000 C 
BRANCH   4   5
ATOM      5  C   UNL     1      -6.072  34.267  18.962  1.00  0.00     0.000 C 
BRANCH   5   6
ATOM      6  C   UNL     1      -4.679  34.518  18.361  1.00  0.00     0.000 C 
BRANCH   6   7
ATOM      7  C   UNL     1      -4.725  35.411  17.108  1.00  0.00     0.000 C 
BRANCH   7   8
ATOM      8  C   UNL     1      -3.733  34.961  16.024  1.00  0.00     0.000 C 
BRANCH   8   9
ATOM      9  C   UNL     1      -3.442  36.068  14.995  1.00  0.00     0.000 C 
BRANCH   9  10
ATOM     10  C   UNL     1      -4.502  36.138  13.883  1.00  0.00     0.006 C 
BRANCH  10  11
ATOM     11  C   UNL     1      -5.322  37.438  13.876  1.00  0.00     0.053 C 
BRANCH  11  12
ATOM     12  C   UNL     1      -4.497  38.622  14.278  1.00  0.00     0.041 C 
ATOM     13  O   UNL     1      -3.422  38.457  14.912  1.00  0.00    -0.550 OA
ATOM     14  O   UNL     1      -4.935  39.908  13.985  1.00  0.00    -0.550 OA
ENDBRANCH  11  12
ENDBRANCH  10  11
ENDBRANCH   9  10
ENDBRANCH   8   9
ENDBRANCH   7   8
ENDBRANCH   6   7
ENDBRANCH   5   6
ENDBRANCH   4   5
ENDBRANCH   3   4
ENDBRANCH   2   3
ENDBRANCH   1   2
BRANCH   1  15
ATOM     15  C   UNL     1      -4.305  36.869  20.202  1.00  0.00     0.000 C 
BRANCH  15  16
ATOM     16  C   UNL     1      -4.778  38.332  20.281  1.00  0.00     0.000 C 
BRANCH  16  17
ATOM     17  C   UNL     1      -5.611  38.626  21.541  1.00  0.00     0.000 C 
BRANCH  17  18
ATOM     18  C   UNL     1      -4.827  39.252  22.711  1.00  0.00    -0.000 C 
BRANCH  18  19
ATOM     19  C   UNL     1      -5.354  38.809  24.086  1.00  0.00    -0.000 C 
BRANCH  19  20
ATOM     20  C   UNL     1      -5.321  37.283  24.286  1.00  0.00    -0.000 C 
BRANCH  20  21
ATOM     21  C   UNL     1      -4.879  36.810  25.686  1.00  0.00    -0.000 C 
BRANCH  21  22
ATOM     22  C   UNL     1      -4.071  37.866  26.454  1.00  0.00    -0.000 C 
BRANCH  22  23
ATOM     23  C   UNL     1      -2.576  37.519  26.460  1.00  0.00    -0.000 C 
BRANCH  23  24
ATOM     24  C   UNL     1      -2.114  36.883  27.784  1.00  0.00    -0.000 C 
BRANCH  24  25
ATOM     25  C   UNL     1      -2.477  35.397  27.948  1.00  0.00    -0.003 C 
ATOM     26  C   UNL     1      -1.600  34.679  28.972  1.00  0.00     0.004 C 
ENDBRANCH  24  25
ENDBRANCH  23  24
ENDBRANCH  22  23
ENDBRANCH  21  22
ENDBRANCH  20  21
ENDBRANCH  19  20
ENDBRANCH  18  19
ENDBRANCH  17  18
ENDBRANCH  16  17
ENDBRANCH  15  16
ENDBRANCH   1  15
TORSDOF 22
ENDMDL
MODEL 6
REMARK VINA RESULT:     7.193      4.091      9.266
REMARK INTER + INTRA:          16.809
REMARK INTER:                  17.203
REMARK INTRA:                  -0.394
REMARK UNBOUND:                 0.366
REMARK SMILES CCCCCCCCCCCCCCCCCCCCCCCC(=O)[O-]
REMARK SMILES IDX 13 1 14 2 15 3 16 4 17 5 18 6 19 7 20 8 21 9 22 10 23 11
REMARK SMILES IDX 24 12 25 13 26 14 12 15 11 16 10 17 9 18 8 19 7 20 6 21 5 22
REMARK SMILES IDX 4 23 3 24 2 25 1 26
REMARK H PARENT
REMARK Flexibility Score: inf
ROOT
ATOM      1  C   UNL     1      -4.548  35.897  21.824  1.00  0.00     0.000 C 
ENDROOT
BRANCH   1   2
ATOM      2  C   UNL     1      -4.438  36.586  20.453  1.00  0.00     0.000 C 
BRANCH   2   3
ATOM      3  C   UNL     1      -4.335  38.118  20.557  1.00  0.00     0.000 C 
BRANCH   3   4
ATOM      4  C   UNL     1      -5.698  38.794  20.816  1.00  0.00     0.000 C 
BRANCH   4   5
ATOM      5  C   UNL     1      -5.663  39.882  21.906  1.00  0.00     0.000 C 
BRANCH   5   6
ATOM      6  C   UNL     1      -4.383  39.911  22.759  1.00  0.00     0.000 C 
BRANCH   6   7
ATOM      7  C   UNL     1      -4.676  39.913  24.270  1.00  0.00     0.000 C 
BRANCH   7   8
ATOM      8  C   UNL     1      -5.622  38.777  24.690  1.00  0.00     0.000 C 
BRANCH   8   9
ATOM      9  C   UNL     1      -5.071  37.386  24.327  1.00  0.00     0.000 C 
BRANCH   9  10
ATOM     10  C   UNL     1      -4.356  36.705  25.507  1.00  0.00     0.006 C 
BRANCH  10  11
ATOM     11  C   UNL     1      -3.880  37.676  26.599  1.00  0.00     0.053 C 
BRANCH  11  12
ATOM     12  C   UNL     1      -2.632  37.194  27.272  1.00  0.00     0.041 C 
ATOM     13  O   UNL     1      -1.829  38.019  27.781  1.00  0.00    -0.550 OA
ATOM     14  O   UNL     1      -2.337  35.837  27.302  1.00  0.00    -0.550 OA
ENDBRANCH  11  12
ENDBRANCH  10  11
ENDBRANCH   9  10
ENDBRANCH   8   9
ENDBRANCH   7   8
ENDBRANCH   6   7
ENDBRANCH   5   6
ENDBRANCH   4   5
ENDBRANCH   3   4
ENDBRANCH   2   3
ENDBRANCH   1   2
BRANCH   1  15
ATOM     15  C   UNL     1      -5.861  35.110  22.024  1.00  0.00     0.000 C 
BRANCH  15  16
ATOM     16  C   UNL     1      -6.125  34.121  20.875  1.00  0.00     0.000 C 
BRANCH  16  17
ATOM     17  C   UNL     1      -4.979  34.074  19.848  1.00  0.00     0.000 C 
BRANCH  17  18
ATOM     18  C   UNL     1      -5.363  33.509  18.467  1.00  0.00    -0.000 C 
BRANCH  18  19
ATOM     19  C   UNL     1      -5.467  34.598  17.386  1.00  0.00    -0.000 C 
BRANCH  19  20
ATOM     20  C   UNL     1      -4.101  35.022  16.818  1.00  0.00    -0.000 C 
BRANCH  20  21
ATOM     21  C   UNL     1      -4.067  36.409  16.143  1.00  0.00    -0.000 C 
BRANCH  21  22
ATOM     22  C   UNL     1      -3.879  36.336  14.620  1.00  0.00    -0.000 C 
BRANCH  22  23
ATOM     23  C   UNL     1      -4.831  37.301  13.902  1.00  0.00    -0.000 C 
BRANCH  23  24
ATOM     24  C   UNL     1      -4.423  38.777  14.064  1.00  0.00    -0.000 C 
BRANCH  24  25
ATOM     25  C   UNL     1      -5.567  39.789  13.875  1.00  0.00    -0.003 C 
ATOM     26  C   UNL     1      -5.224  41.182  14.400  1.00  0.00     0.004 C 
ENDBRANCH  24  25
ENDBRANCH  23  24
ENDBRANCH  22  23
ENDBRANCH  21  22
ENDBRANCH  20  21
ENDBRANCH  19  20
ENDBRANCH  18  19
ENDBRANCH  17  18
ENDBRANCH  16  17
ENDBRANCH  15  16
ENDBRANCH   1  15
TORSDOF 22
ENDMDL
MODEL 7
REMARK VINA RESULT:     7.831      2.798      4.321
REMARK INTER + INTRA:          18.268
REMARK INTER:                  18.836
REMARK INTRA:                  -0.568
REMARK UNBOUND:                 0.366
REMARK SMILES CCCCCCCCCCCCCCCCCCCCCCCC(=O)[O-]
REMARK SMILES IDX 13 1 14 2 15 3 16 4 17 5 18 6 19 7 20 8 21 9 22 10 23 11
REMARK SMILES IDX 24 12 25 13 26 14 12 15 11 16 10 17 9 18 8 19 7 20 6 21 5 22
REMARK SMILES IDX 4 23 3 24 2 25 1 26
REMARK H PARENT
REMARK Flexibility Score: inf
ROOT
ATOM      1  C   UNL     1      -5.017  39.182  22.938  1.00  0.00     0.000 C 
ENDROOT
BRANCH   1   2
ATOM      2  C   UNL     1      -5.768  40.186  22.046  1.00  0.00     0.000 C 
BRANCH   2   3
ATOM      3  C   UNL     1      -6.022  39.654  20.625  1.00  0.00     0.000 C 
BRANCH   3   4
ATOM      4  C   UNL     1      -4.904  38.711  20.130  1.00  0.00     0.000 C 
BRANCH   4   5
ATOM      5  C   UNL     1      -5.419  37.406  19.494  1.00  0.00     0.000 C 
BRANCH   5   6
ATOM      6  C   UNL     1      -5.369  36.170  20.407  1.00  0.00     0.000 C 
BRANCH   6   7
ATOM      7  C   UNL     1      -4.758  34.941  19.710  1.00  0.00     0.000 C 
BRANCH   7   8
ATOM      8  C   UNL     1      -5.483  34.579  18.405  1.00  0.00     0.000 C 
BRANCH   8   9
ATOM      9  C   UNL     1      -4.508  34.276  17.254  1.00  0.00     0.000 C 
BRANCH   9  10
ATOM     10  C   UNL     1      -3.983  35.550  16.568  1.00  0.00     0.006 C 
BRANCH  10  11
ATOM     11  C   UNL     1      -4.135  35.549  15.039  1.00  0.00     0.053 C 
BRANCH  11  12
ATOM     12  C   UNL     1      -3.559  36.785  14.419  1.00  0.00     0.041 C 
ATOM     13  O   UNL     1      -2.419  36.753  13.886  1.00  0.00    -0.550 OA
ATOM     14  O   UNL     1      -4.267  37.980  14.462  1.00  0.00    -0.550 OA
ENDBRANCH  11  12
ENDBRANCH  10  11
ENDBRANCH   9  10
ENDBRANCH   8   9
ENDBRANCH   7   8
ENDBRANCH   6   7
ENDBRANCH   5   6
ENDBRANCH   4   5
ENDBRANCH   3   4
ENDBRANCH   2   3
ENDBRANCH   1   2
BRANCH   1  15
ATOM     15  C   UNL     1      -5.846  37.933  23.306  1.00  0.00     0.000 C 
BRANCH  15  16
ATOM     16  C   UNL     1      -5.030  36.635  23.175  1.00  0.00     0.000 C 
BRANCH  16  17
ATOM     17  C   UNL     1      -5.406  35.580  24.230  1.00  0.00     0.000 C 
BRANCH  17  18
ATOM     18  C   UNL     1      -6.106  36.132  25.487  1.00  0.00    -0.000 C 
BRANCH  18  19
ATOM     19  C   UNL     1      -5.167  36.968  26.373  1.00  0.00    -0.000 C 
BRANCH  19  20
ATOM     20  C   UNL     1      -3.676  36.736  26.067  1.00  0.00    -0.000 C 
BRANCH  20  21
ATOM     21  C   UNL     1      -2.692  37.285  27.120  1.00  0.00    -0.000 C 
BRANCH  21  22
ATOM     22  C   UNL     1      -1.717  36.223  27.648  1.00  0.00    -0.000 C 
BRANCH  22  23
ATOM     23  C   UNL     1      -2.466  35.109  28.391  1.00  0.00    -0.000 C 
BRANCH  23  24
ATOM     24  C   UNL     1      -1.711  34.607  29.636  1.00  0.00    -0.000 C 
BRANCH  24  25
ATOM     25  C   UNL     1      -1.310  33.122  29.594  1.00  0.00    -0.003 C 
ATOM     26  C   UNL     1       0.164  32.911  29.253  1.00  0.00     0.004 C 
ENDBRANCH  24  25
ENDBRANCH  23  24
ENDBRANCH  22  23
ENDBRANCH  21  22
ENDBRANCH  20  21
ENDBRANCH  19  20
ENDBRANCH  18  19
ENDBRANCH  17  18
ENDBRANCH  16  17
ENDBRANCH  15  16
ENDBRANCH   1  15
TORSDOF 22
ENDMDL
MODEL 8
REMARK VINA RESULT:     7.949      1.100      3.474
REMARK INTER + INTRA:          18.537
REMARK INTER:                  16.630
REMARK INTRA:                   1.907
REMARK UNBOUND:                 0.366
REMARK SMILES CCCCCCCCCCCCCCCCCCCCCCCC(=O)[O-]
REMARK SMILES IDX 13 1 14 2 15 3 16 4 17 5 18 6 19 7 20 8 21 9 22 10 23 11
REMARK SMILES IDX 24 12 25 13 26 14 12 15 11 16 10 17 9 18 8 19 7 20 6 21 5 22
REMARK SMILES IDX 4 23 3 24 2 25 1 26
REMARK H PARENT
REMARK Flexibility Score: inf
ROOT
ATOM      1  C   UNL     1      -6.078  34.884  23.423  1.00  0.00     0.000 C 
ENDROOT
BRANCH   1   2
ATOM      2  C   UNL     1      -5.492  33.621  22.767  1.00  0.00     0.000 C 
BRANCH   2   3
ATOM      3  C   UNL     1      -4.735  33.920  21.461  1.00  0.00     0.000 C 
BRANCH   3   4
ATOM      4  C   UNL     1      -5.539  33.533  20.202  1.00  0.00     0.000 C 
BRANCH   4   5
ATOM      5  C   UNL     1      -5.841  34.716  19.262  1.00  0.00     0.000 C 
BRANCH   5   6
ATOM      6  C   UNL     1      -5.466  34.492  17.788  1.00  0.00     0.000 C 
BRANCH   6   7
ATOM      7  C   UNL     1      -4.291  35.376  17.332  1.00  0.00     0.000 C 
BRANCH   7   8
ATOM      8  C   UNL     1      -3.432  34.707  16.248  1.00  0.00     0.000 C 
BRANCH   8   9
ATOM      9  C   UNL     1      -3.718  35.264  14.842  1.00  0.00     0.000 C 
BRANCH   9  10
ATOM     10  C   UNL     1      -2.560  36.117  14.295  1.00  0.00     0.006 C 
BRANCH  10  11
ATOM     11  C   UNL     1      -2.803  37.633  14.373  1.00  0.00     0.053 C 
BRANCH  11  12
ATOM     12  C   UNL     1      -4.255  37.974  14.233  1.00  0.00     0.041 C 
ATOM     13  O   UNL     1      -4.655  39.144  14.469  1.00  0.00    -0.550 OA
ATOM     14  O   UNL     1      -5.170  36.991  13.879  1.00  0.00    -0.550 OA
ENDBRANCH  11  12
ENDBRANCH  10  11
ENDBRANCH   9  10
ENDBRANCH   8   9
ENDBRANCH   7   8
ENDBRANCH   6   7
ENDBRANCH   5   6
ENDBRANCH   4   5
ENDBRANCH   3   4
ENDBRANCH   2   3
ENDBRANCH   1   2
BRANCH   1  15
ATOM     15  C   UNL     1      -6.114  36.112  22.489  1.00  0.00     0.000 C 
BRANCH  15  16
ATOM     16  C   UNL     1      -4.703  36.615  22.136  1.00  0.00     0.000 C 
BRANCH  16  17
ATOM     17  C   UNL     1      -4.641  37.318  20.768  1.00  0.00     0.000 C 
BRANCH  17  18
ATOM     18  C   UNL     1      -5.981  37.884  20.263  1.00  0.00    -0.000 C 
BRANCH  18  19
ATOM     19  C   UNL     1      -6.125  39.394  20.521  1.00  0.00    -0.000 C 
BRANCH  19  20
ATOM     20  C   UNL     1      -5.892  39.783  21.992  1.00  0.00    -0.000 C 
BRANCH  20  21
ATOM     21  C   UNL     1      -4.472  40.284  22.326  1.00  0.00    -0.000 C 
BRANCH  21  22
ATOM     22  C   UNL     1      -3.903  39.671  23.615  1.00  0.00    -0.000 C 
BRANCH  22  23
ATOM     23  C   UNL     1      -5.028  39.269  24.577  1.00  0.00    -0.000 C 
BRANCH  23  24
ATOM     24  C   UNL     1      -5.269  37.749  24.615  1.00  0.00    -0.000 C 
BRANCH  24  25
ATOM     25  C   UNL     1      -5.345  37.142  26.027  1.00  0.00    -0.003 C 
ATOM     26  C   UNL     1      -4.510  37.908  27.052  1.00  0.00     0.004 C 
ENDBRANCH  24  25
ENDBRANCH  23  24
ENDBRANCH  22  23
ENDBRANCH  21  22
ENDBRANCH  20  21
ENDBRANCH  19  20
ENDBRANCH  18  19
ENDBRANCH  17  18
ENDBRANCH  16  17
ENDBRANCH  15  16
ENDBRANCH   1  15
TORSDOF 22
ENDMDL
