MODEL 1
REMARK VINA RESULT:    -4.318      0.000      0.000
REMARK INTER + INTRA:          -4.998
REMARK INTER:                  -4.949
REMARK INTRA:                  -0.049
REMARK UNBOUND:                -0.049
REMARK SMILES CC(C)[C@H]([NH3+])C(=O)[O-]
REMARK SMILES IDX 4 1 5 2 6 6 7 7 8 8 2 9 1 10 3 11
REMARK H PARENT 5 3 5 4 5 5
REMARK Flexibility Score: inf
ROOT
ATOM      1  C   UNL     1     146.053 129.892 128.527  1.00  0.00     0.230 C 
ENDROOT
BRANCH   1   2
ATOM      2  N   UNL     1     147.489 130.158 128.706  1.00  0.00    -0.350 N 
ATOM      3  H   UNL     1     148.011 129.286 128.954  1.00  0.00     0.345 HD
ATOM      4  H   UNL     1     147.621 130.853 129.475  1.00  0.00     0.345 HD
ATOM      5  H   UNL     1     147.895 130.569 127.836  1.00  0.00     0.345 HD
ENDBRANCH   1   2
BRANCH   1   6
ATOM      6  C   UNL     1     145.559 128.911 129.561  1.00  0.00     0.099 C 
ATOM      7  O   UNL     1     144.382 129.000 129.999  1.00  0.00    -0.544 OA
ATOM      8  O   UNL     1     146.374 127.875 130.005  1.00  0.00    -0.544 OA
ENDBRANCH   1   6
BRANCH   1   9
ATOM      9  C   UNL     1     145.696 129.410 127.088  1.00  0.00     0.047 C 
ATOM     10  C   UNL     1     144.861 130.449 126.327  1.00  0.00     0.014 C 
ATOM     11  C   UNL     1     146.922 128.999 126.255  1.00  0.00     0.014 C 
ENDBRANCH   1   9
TORSDOF 3
ENDMDL
MODEL 2
REMARK VINA RESULT:    -4.309      0.431      1.222
REMARK INTER + INTRA:          -4.988
REMARK INTER:                  -4.942
REMARK INTRA:                  -0.046
REMARK UNBOUND:                -0.049
REMARK SMILES CC(C)[C@H]([NH3+])C(=O)[O-]
REMARK SMILES IDX 4 1 5 2 6 6 7 7 8 8 2 9 1 10 3 11
REMARK H PARENT 5 3 5 4 5 5
REMARK Flexibility Score: inf
ROOT
ATOM      1  C   UNL     1     146.215 129.916 128.737  1.00  0.00     0.230 C 
ENDROOT
BRANCH   1   2
ATOM      2  N   UNL     1     147.630 130.143 129.072  1.00  0.00    -0.350 N 
ATOM      3  H   UNL     1     148.183 130.415 128.228  1.00  0.00     0.345 HD
ATOM      4  H   UNL     1     148.038 129.265 129.467  1.00  0.00     0.345 HD
ATOM      5  H   UNL     1     147.718 130.886 129.800  1.00  0.00     0.345 HD
ENDBRANCH   1   2
BRANCH   1   6
ATOM      6  C   UNL     1     145.619 128.853 129.628  1.00  0.00     0.099 C 
ATOM      7  O   UNL     1     146.323 127.876 129.996  1.00  0.00    -0.544 OA
ATOM      8  O   UNL     1     144.312 128.962 130.087  1.00  0.00    -0.544 OA
ENDBRANCH   1   6
BRANCH   1   9
ATOM      9  C   UNL     1     145.993 129.568 127.234  1.00  0.00     0.047 C 
ATOM     10  C   UNL     1     145.711 130.822 126.392  1.00  0.00     0.014 C 
ATOM     11  C   UNL     1     147.143 128.759 126.612  1.00  0.00     0.014 C 
ENDBRANCH   1   9
TORSDOF 3
ENDMDL
MODEL 3
REMARK VINA RESULT:    -4.241      2.289      3.347
REMARK INTER + INTRA:          -4.910
REMARK INTER:                  -4.934
REMARK INTRA:                   0.024
REMARK UNBOUND:                -0.049
REMARK SMILES CC(C)[C@H]([NH3+])C(=O)[O-]
REMARK SMILES IDX 4 1 5 2 6 6 7 7 8 8 2 9 1 10 3 11
REMARK H PARENT 5 3 5 4 5 5
REMARK Flexibility Score: inf
ROOT
ATOM      1  C   UNL     1     146.479 128.630 127.410  1.00  0.00     0.230 C 
ENDROOT
BRANCH   1   2
ATOM      2  N   UNL     1     147.749 128.493 126.680  1.00  0.00    -0.350 N 
ATOM      3  H   UNL     1     147.808 127.575 126.184  1.00  0.00     0.345 HD
ATOM      4  H   UNL     1     148.546 128.556 127.355  1.00  0.00     0.345 HD
ATOM      5  H   UNL     1     147.858 129.269 125.990  1.00  0.00     0.345 HD
ENDBRANCH   1   2
BRANCH   1   6
ATOM      6  C   UNL     1     145.820 129.950 127.093  1.00  0.00     0.099 C 
ATOM      7  O   UNL     1     146.494 130.879 126.576  1.00  0.00    -0.544 OA
ATOM      8  O   UNL     1     144.462 130.139 127.323  1.00  0.00    -0.544 OA
ENDBRANCH   1   6
BRANCH   1   9
ATOM      9  C   UNL     1     146.638 128.444 128.950  1.00  0.00     0.047 C 
ATOM     10  C   UNL     1     147.074 129.745 129.641  1.00  0.00     0.014 C 
ATOM     11  C   UNL     1     145.384 127.875 129.634  1.00  0.00     0.014 C 
ENDBRANCH   1   9
TORSDOF 3
ENDMDL
MODEL 4
REMARK VINA RESULT:    -4.161      2.392      3.327
REMARK INTER + INTRA:          -4.818
REMARK INTER:                  -4.769
REMARK INTRA:                  -0.049
REMARK UNBOUND:                -0.049
REMARK SMILES CC(C)[C@H]([NH3+])C(=O)[O-]
REMARK SMILES IDX 4 1 5 2 6 6 7 7 8 8 2 9 1 10 3 11
REMARK H PARENT 5 3 5 4 5 5
REMARK Flexibility Score: inf
ROOT
ATOM      1  C   UNL     1     146.000 128.964 127.686  1.00  0.00     0.230 C 
ENDROOT
BRANCH   1   2
ATOM      2  N   UNL     1     147.366 128.615 127.268  1.00  0.00    -0.350 N 
ATOM      3  H   UNL     1     147.991 129.453 127.264  1.00  0.00     0.345 HD
ATOM      4  H   UNL     1     147.343 128.215 126.302  1.00  0.00     0.345 HD
ATOM      5  H   UNL     1     147.767 127.887 127.900  1.00  0.00     0.345 HD
ENDBRANCH   1   2
BRANCH   1   6
ATOM      6  C   UNL     1     145.510 130.184 126.946  1.00  0.00     0.099 C 
ATOM      7  O   UNL     1     144.329 130.223 126.511  1.00  0.00    -0.544 OA
ATOM      8  O   UNL     1     146.334 131.291 126.777  1.00  0.00    -0.544 OA
ENDBRANCH   1   6
BRANCH   1   9
ATOM      9  C   UNL     1     145.865 129.158 129.228  1.00  0.00     0.047 C 
ATOM     10  C   UNL     1     145.393 127.875 129.927  1.00  0.00     0.014 C 
ATOM     11  C   UNL     1     147.144 129.688 129.896  1.00  0.00     0.014 C 
ENDBRANCH   1   9
TORSDOF 3
ENDMDL
MODEL 5
REMARK VINA RESULT:    -4.144      1.640      2.167
REMARK INTER + INTRA:          -4.799
REMARK INTER:                  -4.752
REMARK INTRA:                  -0.047
REMARK UNBOUND:                -0.049
REMARK SMILES CC(C)[C@H]([NH3+])C(=O)[O-]
REMARK SMILES IDX 4 1 5 2 6 6 7 7 8 8 2 9 1 10 3 11
REMARK H PARENT 5 3 5 4 5 5
REMARK Flexibility Score: inf
ROOT
ATOM      1  C   UNL     1     146.753 129.423 127.986  1.00  0.00     0.230 C 
ENDROOT
BRANCH   1   2
ATOM      2  N   UNL     1     146.209 128.172 127.436  1.00  0.00    -0.350 N 
ATOM      3  H   UNL     1     146.915 127.676 126.845  1.00  0.00     0.345 HD
ATOM      4  H   UNL     1     145.374 128.387 126.844  1.00  0.00     0.345 HD
ATOM      5  H   UNL     1     145.896 127.541 128.206  1.00  0.00     0.345 HD
ENDBRANCH   1   2
BRANCH   1   6
ATOM      6  C   UNL     1     146.366 129.582 129.436  1.00  0.00     0.099 C 
ATOM      7  O   UNL     1     147.220 129.971 130.275  1.00  0.00    -0.544 OA
ATOM      8  O   UNL     1     145.060 129.349 129.852  1.00  0.00    -0.544 OA
ENDBRANCH   1   6
BRANCH   1   9
ATOM      9  C   UNL     1     146.343 130.681 127.161  1.00  0.00     0.047 C 
ATOM     10  C   UNL     1     147.397 131.042 126.104  1.00  0.00     0.014 C 
ATOM     11  C   UNL     1     144.956 130.564 126.508  1.00  0.00     0.014 C 
ENDBRANCH   1   9
TORSDOF 3
ENDMDL
MODEL 6
REMARK VINA RESULT:    -4.113      1.159      1.202
REMARK INTER + INTRA:          -4.763
REMARK INTER:                  -4.713
REMARK INTRA:                  -0.050
REMARK UNBOUND:                -0.049
REMARK SMILES CC(C)[C@H]([NH3+])C(=O)[O-]
REMARK SMILES IDX 4 1 5 2 6 6 7 7 8 8 2 9 1 10 3 11
REMARK H PARENT 5 3 5 4 5 5
REMARK Flexibility Score: inf
ROOT
ATOM      1  C   UNL     1     145.879 130.310 127.804  1.00  0.00     0.230 C 
ENDROOT
BRANCH   1   2
ATOM      2  N   UNL     1     147.339 130.487 127.766  1.00  0.00    -0.350 N 
ATOM      3  H   UNL     1     147.798 130.063 128.604  1.00  0.00     0.345 HD
ATOM      4  H   UNL     1     147.565 131.508 127.747  1.00  0.00     0.345 HD
ATOM      5  H   UNL     1     147.736 130.061 126.900  1.00  0.00     0.345 HD
ENDBRANCH   1   2
BRANCH   1   6
ATOM      6  C   UNL     1     145.503 129.168 128.716  1.00  0.00     0.099 C 
ATOM      7  O   UNL     1     144.750 129.375 129.704  1.00  0.00    -0.544 OA
ATOM      8  O   UNL     1     145.942 127.875 128.453  1.00  0.00    -0.544 OA
ENDBRANCH   1   6
BRANCH   1   9
ATOM      9  C   UNL     1     145.250 130.122 126.390  1.00  0.00     0.047 C 
ATOM     10  C   UNL     1     143.919 130.875 126.251  1.00  0.00     0.014 C 
ATOM     11  C   UNL     1     146.197 130.500 125.240  1.00  0.00     0.014 C 
ENDBRANCH   1   9
TORSDOF 3
ENDMDL
MODEL 7
REMARK VINA RESULT:    -4.087      2.600      3.467
REMARK INTER + INTRA:          -4.733
REMARK INTER:                  -4.674
REMARK INTRA:                  -0.059
REMARK UNBOUND:                -0.049
REMARK SMILES CC(C)[C@H]([NH3+])C(=O)[O-]
REMARK SMILES IDX 4 1 5 2 6 6 7 7 8 8 2 9 1 10 3 11
REMARK H PARENT 5 3 5 4 5 5
REMARK Flexibility Score: inf
ROOT
ATOM      1  C   UNL     1     145.859 129.818 127.923  1.00  0.00     0.230 C 
ENDROOT
BRANCH   1   2
ATOM      2  N   UNL     1     144.399 129.868 128.101  1.00  0.00    -0.350 N 
ATOM      3  H   UNL     1     143.993 128.910 128.204  1.00  0.00     0.345 HD
ATOM      4  H   UNL     1     143.963 130.325 127.268  1.00  0.00     0.345 HD
ATOM      5  H   UNL     1     144.154 130.441 128.939  1.00  0.00     0.345 HD
ENDBRANCH   1   2
BRANCH   1   6
ATOM      6  C   UNL     1     146.211 129.370 126.525  1.00  0.00     0.099 C 
ATOM      7  O   UNL     1     145.527 129.773 125.547  1.00  0.00    -0.544 OA
ATOM      8  O   UNL     1     147.312 128.553 126.297  1.00  0.00    -0.544 OA
ENDBRANCH   1   6
BRANCH   1   9
ATOM      9  C   UNL     1     146.573 128.929 128.986  1.00  0.00     0.047 C 
ATOM     10  C   UNL     1     147.251 129.772 130.076  1.00  0.00     0.014 C 
ATOM     11  C   UNL     1     145.653 127.875 129.626  1.00  0.00     0.014 C 
ENDBRANCH   1   9
TORSDOF 3
ENDMDL
MODEL 8
REMARK VINA RESULT:    -4.039      1.662      1.998
REMARK INTER + INTRA:          -4.678
REMARK INTER:                  -4.618
REMARK INTRA:                  -0.060
REMARK UNBOUND:                -0.049
REMARK SMILES CC(C)[C@H]([NH3+])C(=O)[O-]
REMARK SMILES IDX 4 1 5 2 6 6 7 7 8 8 2 9 1 10 3 11
REMARK H PARENT 5 3 5 4 5 5
REMARK Flexibility Score: inf
ROOT
ATOM      1  C   UNL     1     145.481 129.301 127.812  1.00  0.00     0.230 C 
ENDROOT
BRANCH   1   2
ATOM      2  N   UNL     1     144.360 130.111 127.311  1.00  0.00    -0.350 N 
ATOM      3  H   UNL     1     143.799 130.514 128.096  1.00  0.00     0.345 HD
ATOM      4  H   UNL     1     143.732 129.511 126.729  1.00  0.00     0.345 HD
ATOM      5  H   UNL     1     144.711 130.883 126.703  1.00  0.00     0.345 HD
ENDBRANCH   1   2
BRANCH   1   6
ATOM      6  C   UNL     1     145.521 129.319 129.320  1.00  0.00     0.099 C 
ATOM      7  O   UNL     1     144.499 128.993 129.979  1.00  0.00    -0.544 OA
ATOM      8  O   UNL     1     146.691 129.648 129.997  1.00  0.00    -0.544 OA
ENDBRANCH   1   6
BRANCH   1   9
ATOM      9  C   UNL     1     146.857 129.729 127.216  1.00  0.00     0.047 C 
ATOM     10  C   UNL     1     147.373 128.716 126.183  1.00  0.00     0.014 C 
ATOM     11  C   UNL     1     146.855 131.144 126.616  1.00  0.00     0.014 C 
ENDBRANCH   1   9
TORSDOF 3
ENDMDL
MODEL 9
REMARK VINA RESULT:    -3.752     13.213     14.141
REMARK INTER + INTRA:          -4.349
REMARK INTER:                  -4.279
REMARK INTRA:                  -0.070
REMARK UNBOUND:                -0.049
REMARK SMILES CC(C)[C@H]([NH3+])C(=O)[O-]
REMARK SMILES IDX 4 1 5 2 6 6 7 7 8 8 2 9 1 10 3 11
REMARK H PARENT 5 3 5 4 5 5
REMARK Flexibility Score: inf
ROOT
ATOM      1  C   UNL     1     138.986 134.604 116.964  1.00  0.00     0.230 C 
ENDROOT
BRANCH   1   2
ATOM      2  N   UNL     1     140.244 135.310 117.250  1.00  0.00    -0.350 N 
ATOM      3  H   UNL     1     140.284 136.233 116.761  1.00  0.00     0.345 HD
ATOM      4  H   UNL     1     141.050 134.728 116.925  1.00  0.00     0.345 HD
ATOM      5  H   UNL     1     140.355 135.456 118.278  1.00  0.00     0.345 HD
ENDBRANCH   1   2
BRANCH   1   6
ATOM      6  C   UNL     1     137.815 135.328 117.583  1.00  0.00     0.099 C 
ATOM      7  O   UNL     1     138.017 136.287 118.374  1.00  0.00    -0.544 OA
ATOM      8  O   UNL     1     136.510 134.979 117.256  1.00  0.00    -0.544 OA
ENDBRANCH   1   6
BRANCH   1   9
ATOM      9  C   UNL     1     139.011 133.109 117.406  1.00  0.00     0.047 C 
ATOM     10  C   UNL     1     140.252 132.377 116.877  1.00  0.00     0.014 C 
ATOM     11  C   UNL     1     138.887 132.915 118.926  1.00  0.00     0.014 C 
ENDBRANCH   1   9
TORSDOF 3
ENDMDL
