MODEL 1
REMARK VINA RESULT:    -3.665      0.000      0.000
REMARK INTER + INTRA:          -4.897
REMARK INTER:                  -4.737
REMARK INTRA:                  -0.161
REMARK UNBOUND:                -0.161
REMARK SMILES CCCCCCC(=O)[O-]
REMARK SMILES IDX 5 1 6 2 7 3 8 4 9 5 4 6 3 7 2 8 1 9
REMARK H PARENT
REMARK Flexibility Score: inf
ROOT
ATOM      1  C   UNL     1     -20.153  -4.762 -13.380  1.00  0.00     0.006 C 
ENDROOT
BRANCH   1   2
ATOM      2  C   UNL     1     -19.610  -4.666 -14.809  1.00  0.00     0.053 C 
BRANCH   2   3
ATOM      3  C   UNL     1     -19.720  -3.265 -15.319  1.00  0.00     0.041 C 
ATOM      4  O   UNL     1     -20.562  -2.472 -14.820  1.00  0.00    -0.550 OA
ATOM      5  O   UNL     1     -18.859  -2.817 -16.313  1.00  0.00    -0.550 OA
ENDBRANCH   2   3
ENDBRANCH   1   2
BRANCH   1   6
ATOM      6  C   UNL     1     -21.185  -5.889 -13.256  1.00  0.00     0.000 C 
BRANCH   6   7
ATOM      7  C   UNL     1     -20.578  -7.116 -12.560  1.00  0.00    -0.000 C 
BRANCH   7   8
ATOM      8  C   UNL     1     -20.136  -8.201 -13.553  1.00  0.00    -0.003 C 
ATOM      9  C   UNL     1     -20.161  -9.604 -12.947  1.00  0.00     0.004 C 
ENDBRANCH   7   8
ENDBRANCH   6   7
ENDBRANCH   1   6
TORSDOF 5
ENDMDL
MODEL 2
REMARK VINA RESULT:    -3.636      2.558      2.900
REMARK INTER + INTRA:          -4.860
REMARK INTER:                  -4.671
REMARK INTRA:                  -0.189
REMARK UNBOUND:                -0.161
REMARK SMILES CCCCCCC(=O)[O-]
REMARK SMILES IDX 5 1 6 2 7 3 8 4 9 5 4 6 3 7 2 8 1 9
REMARK H PARENT
REMARK Flexibility Score: inf
ROOT
ATOM      1  C   UNL     1     -20.146  -5.104 -13.116  1.00  0.00     0.006 C 
ENDROOT
BRANCH   1   2
ATOM      2  C   UNL     1     -21.022  -3.885 -13.421  1.00  0.00     0.053 C 
BRANCH   2   3
ATOM      3  C   UNL     1     -22.082  -3.727 -12.380  1.00  0.00     0.041 C 
ATOM      4  O   UNL     1     -23.098  -4.472 -12.391  1.00  0.00    -0.550 OA
ATOM      5  O   UNL     1     -21.927  -2.791 -11.366  1.00  0.00    -0.550 OA
ENDBRANCH   2   3
ENDBRANCH   1   2
BRANCH   1   6
ATOM      6  C   UNL     1     -19.949  -5.969 -14.366  1.00  0.00     0.000 C 
BRANCH   6   7
ATOM      7  C   UNL     1     -20.712  -7.297 -14.241  1.00  0.00    -0.000 C 
BRANCH   7   8
ATOM      8  C   UNL     1     -20.511  -7.967 -12.874  1.00  0.00    -0.003 C 
ATOM      9  C   UNL     1     -20.158  -9.450 -12.988  1.00  0.00     0.004 C 
ENDBRANCH   7   8
ENDBRANCH   6   7
ENDBRANCH   1   6
TORSDOF 5
ENDMDL
MODEL 3
REMARK VINA RESULT:    -3.619      0.963      1.554
REMARK INTER + INTRA:          -4.837
REMARK INTER:                  -4.643
REMARK INTRA:                  -0.194
REMARK UNBOUND:                -0.161
REMARK SMILES CCCCCCC(=O)[O-]
REMARK SMILES IDX 5 1 6 2 7 3 8 4 9 5 4 6 3 7 2 8 1 9
REMARK H PARENT
REMARK Flexibility Score: inf
ROOT
ATOM      1  C   UNL     1     -20.618  -5.952 -15.313  1.00  0.00     0.006 C 
ENDROOT
BRANCH   1   2
ATOM      2  C   UNL     1     -19.802  -4.953 -14.487  1.00  0.00     0.053 C 
BRANCH   2   3
ATOM      3  C   UNL     1     -19.761  -3.622 -15.165  1.00  0.00     0.041 C 
ATOM      4  O   UNL     1     -19.112  -3.474 -16.235  1.00  0.00    -0.550 OA
ATOM      5  O   UNL     1     -20.478  -2.553 -14.643  1.00  0.00    -0.550 OA
ENDBRANCH   2   3
ENDBRANCH   1   2
BRANCH   1   6
ATOM      6  C   UNL     1     -21.014  -7.171 -14.472  1.00  0.00     0.000 C 
BRANCH   6   7
ATOM      7  C   UNL     1     -20.539  -7.014 -13.020  1.00  0.00    -0.000 C 
BRANCH   7   8
ATOM      8  C   UNL     1     -20.617  -8.327 -12.227  1.00  0.00    -0.003 C 
ATOM      9  C   UNL     1     -20.169  -9.539 -13.044  1.00  0.00     0.004 C 
ENDBRANCH   7   8
ENDBRANCH   6   7
ENDBRANCH   1   6
TORSDOF 5
ENDMDL
MODEL 4
REMARK VINA RESULT:    -3.514      2.473      2.760
REMARK INTER + INTRA:          -4.702
REMARK INTER:                  -4.372
REMARK INTRA:                  -0.331
REMARK UNBOUND:                -0.161
REMARK SMILES CCCCCCC(=O)[O-]
REMARK SMILES IDX 5 1 6 2 7 3 8 4 9 5 4 6 3 7 2 8 1 9
REMARK H PARENT
REMARK Flexibility Score: inf
ROOT
ATOM      1  C   UNL     1     -20.044  -5.787 -14.604  1.00  0.00     0.006 C 
ENDROOT
BRANCH   1   2
ATOM      2  C   UNL     1     -21.083  -5.136 -15.522  1.00  0.00     0.053 C 
BRANCH   2   3
ATOM      3  C   UNL     1     -22.365  -5.904 -15.491  1.00  0.00     0.041 C 
ATOM      4  O   UNL     1     -23.423  -5.357 -15.081  1.00  0.00    -0.550 OA
ATOM      5  O   UNL     1     -22.405  -7.211 -15.961  1.00  0.00    -0.550 OA
ENDBRANCH   2   3
ENDBRANCH   1   2
BRANCH   1   6
ATOM      6  C   UNL     1     -20.508  -5.766 -13.143  1.00  0.00     0.000 C 
BRANCH   6   7
ATOM      7  C   UNL     1     -20.595  -7.189 -12.573  1.00  0.00    -0.000 C 
BRANCH   7   8
ATOM      8  C   UNL     1     -20.008  -8.243 -13.523  1.00  0.00    -0.003 C 
ATOM      9  C   UNL     1     -20.190  -9.671 -13.007  1.00  0.00     0.004 C 
ENDBRANCH   7   8
ENDBRANCH   6   7
ENDBRANCH   1   6
TORSDOF 5
ENDMDL
MODEL 5
REMARK VINA RESULT:    -3.475     19.388     20.142
REMARK INTER + INTRA:          -4.652
REMARK INTER:                  -4.500
REMARK INTRA:                  -0.152
REMARK UNBOUND:                -0.161
REMARK SMILES CCCCCCC(=O)[O-]
REMARK SMILES IDX 5 1 6 2 7 3 8 4 9 5 4 6 3 7 2 8 1 9
REMARK H PARENT
REMARK Flexibility Score: inf
ROOT
ATOM      1  C   UNL     1      -7.109  -9.619   0.367  1.00  0.00     0.006 C 
ENDROOT
BRANCH   1   2
ATOM      2  C   UNL     1      -7.819  -8.482  -0.373  1.00  0.00     0.053 C 
BRANCH   2   3
ATOM      3  C   UNL     1      -7.274  -7.157   0.054  1.00  0.00     0.041 C 
ATOM      4  O   UNL     1      -6.204  -6.720  -0.449  1.00  0.00    -0.550 OA
ATOM      5  O   UNL     1      -7.970  -6.380   0.970  1.00  0.00    -0.550 OA
ENDBRANCH   2   3
ENDBRANCH   1   2
BRANCH   1   6
ATOM      6  C   UNL     1      -6.350 -10.523  -0.611  1.00  0.00     0.000 C 
BRANCH   6   7
ATOM      7  C   UNL     1      -5.352 -11.424   0.133  1.00  0.00    -0.000 C 
BRANCH   7   8
ATOM      8  C   UNL     1      -6.044 -12.416   1.079  1.00  0.00    -0.003 C 
ATOM      9  C   UNL     1      -6.114 -13.831   0.504  1.00  0.00     0.004 C 
ENDBRANCH   7   8
ENDBRANCH   6   7
ENDBRANCH   1   6
TORSDOF 5
ENDMDL
MODEL 6
REMARK VINA RESULT:    -3.408     20.141     21.017
REMARK INTER + INTRA:          -4.565
REMARK INTER:                  -4.378
REMARK INTRA:                  -0.187
REMARK UNBOUND:                -0.161
REMARK SMILES CCCCCCC(=O)[O-]
REMARK SMILES IDX 5 1 6 2 7 3 8 4 9 5 4 6 3 7 2 8 1 9
REMARK H PARENT
REMARK Flexibility Score: inf
ROOT
ATOM      1  C   UNL     1      -6.557  -9.862   0.506  1.00  0.00     0.006 C 
ENDROOT
BRANCH   1   2
ATOM      2  C   UNL     1      -6.021 -11.050  -0.298  1.00  0.00     0.053 C 
BRANCH   2   3
ATOM      3  C   UNL     1      -5.988 -12.284   0.545  1.00  0.00     0.041 C 
ATOM      4  O   UNL     1      -5.512 -13.355   0.084  1.00  0.00    -0.550 OA
ATOM      5  O   UNL     1      -6.437 -12.240   1.859  1.00  0.00    -0.550 OA
ENDBRANCH   2   3
ENDBRANCH   1   2
BRANCH   1   6
ATOM      6  C   UNL     1      -7.709  -9.171  -0.232  1.00  0.00     0.000 C 
BRANCH   6   7
ATOM      7  C   UNL     1      -7.542  -7.644  -0.205  1.00  0.00    -0.000 C 
BRANCH   7   8
ATOM      8  C   UNL     1      -6.386  -7.192   0.700  1.00  0.00    -0.003 C 
ATOM      9  C   UNL     1      -6.005  -5.727   0.487  1.00  0.00     0.004 C 
ENDBRANCH   7   8
ENDBRANCH   6   7
ENDBRANCH   1   6
TORSDOF 5
ENDMDL
MODEL 7
REMARK VINA RESULT:    -3.295      1.742      2.062
REMARK INTER + INTRA:          -4.419
REMARK INTER:                  -4.176
REMARK INTRA:                  -0.244
REMARK UNBOUND:                -0.161
REMARK SMILES CCCCCCC(=O)[O-]
REMARK SMILES IDX 5 1 6 2 7 3 8 4 9 5 4 6 3 7 2 8 1 9
REMARK H PARENT
REMARK Flexibility Score: inf
ROOT
ATOM      1  C   UNL     1     -21.394  -5.440 -13.042  1.00  0.00     0.006 C 
ENDROOT
BRANCH   1   2
ATOM      2  C   UNL     1     -22.563  -5.026 -13.941  1.00  0.00     0.053 C 
BRANCH   2   3
ATOM      3  C   UNL     1     -22.244  -3.759 -14.667  1.00  0.00     0.041 C 
ATOM      4  O   UNL     1     -21.976  -2.710 -14.024  1.00  0.00    -0.550 OA
ATOM      5  O   UNL     1     -22.192  -3.747 -16.055  1.00  0.00    -0.550 OA
ENDBRANCH   2   3
ENDBRANCH   1   2
BRANCH   1   6
ATOM      6  C   UNL     1     -20.145  -5.758 -13.872  1.00  0.00     0.000 C 
BRANCH   6   7
ATOM      7  C   UNL     1     -19.999  -7.272 -14.087  1.00  0.00    -0.000 C 
BRANCH   7   8
ATOM      8  C   UNL     1     -20.466  -8.089 -12.875  1.00  0.00    -0.003 C 
ATOM      9  C   UNL     1     -20.154  -9.580 -13.010  1.00  0.00     0.004 C 
ENDBRANCH   7   8
ENDBRANCH   6   7
ENDBRANCH   1   6
TORSDOF 5
ENDMDL
MODEL 8
REMARK VINA RESULT:    -3.248      3.537      4.895
REMARK INTER + INTRA:          -4.358
REMARK INTER:                  -4.138
REMARK INTRA:                  -0.220
REMARK UNBOUND:                -0.161
REMARK SMILES CCCCCCC(=O)[O-]
REMARK SMILES IDX 5 1 6 2 7 3 8 4 9 5 4 6 3 7 2 8 1 9
REMARK H PARENT
REMARK Flexibility Score: inf
ROOT
ATOM      1  C   UNL     1     -21.010  -6.775 -14.599  1.00  0.00     0.006 C 
ENDROOT
BRANCH   1   2
ATOM      2  C   UNL     1     -19.854  -7.640 -14.088  1.00  0.00     0.053 C 
BRANCH   2   3
ATOM      3  C   UNL     1     -20.332  -8.587 -13.036  1.00  0.00     0.041 C 
ATOM      4  O   UNL     1     -20.944  -8.154 -12.023  1.00  0.00    -0.550 OA
ATOM      5  O   UNL     1     -20.147  -9.955 -13.195  1.00  0.00    -0.550 OA
ENDBRANCH   2   3
ENDBRANCH   1   2
BRANCH   1   6
ATOM      6  C   UNL     1     -20.641  -5.287 -14.570  1.00  0.00     0.000 C 
BRANCH   6   7
ATOM      7  C   UNL     1     -20.339  -4.823 -13.138  1.00  0.00    -0.000 C 
BRANCH   7   8
ATOM      8  C   UNL     1     -21.392  -3.842 -12.600  1.00  0.00    -0.003 C 
ATOM      9  C   UNL     1     -22.807  -4.419 -12.629  1.00  0.00     0.004 C 
ENDBRANCH   7   8
ENDBRANCH   6   7
ENDBRANCH   1   6
TORSDOF 5
ENDMDL
