MODEL 1
REMARK VINA RESULT:    -3.986      0.000      0.000
REMARK INTER + INTRA:          -5.874
REMARK INTER:                  -5.618
REMARK INTRA:                  -0.257
REMARK UNBOUND:                -0.257
REMARK SMILES CCCCCCCCC(=O)[O-]
REMARK SMILES IDX 6 1 7 2 8 3 9 4 10 5 11 6 5 7 4 8 3 9 2 10 1 11
REMARK H PARENT
REMARK Flexibility Score: inf
ROOT
ATOM      1  C   UNL     1      -7.606 -21.388  46.882  1.00  0.00     0.000 C 
ENDROOT
BRANCH   1   2
ATOM      2  C   UNL     1      -8.557 -22.473  47.408  1.00  0.00     0.006 C 
BRANCH   2   3
ATOM      3  C   UNL     1     -10.019 -22.198  47.033  1.00  0.00     0.053 C 
BRANCH   3   4
ATOM      4  C   UNL     1     -10.964 -22.673  48.094  1.00  0.00     0.041 C 
ATOM      5  O   UNL     1     -10.724 -23.737  48.725  1.00  0.00    -0.550 OA
ATOM      6  O   UNL     1     -12.125 -21.960  48.363  1.00  0.00    -0.550 OA
ENDBRANCH   3   4
ENDBRANCH   2   3
ENDBRANCH   1   2
BRANCH   1   7
ATOM      7  C   UNL     1      -6.144 -21.754  47.170  1.00  0.00     0.000 C 
BRANCH   7   8
ATOM      8  C   UNL     1      -5.990 -23.140  47.824  1.00  0.00    -0.000 C 
BRANCH   8   9
ATOM      9  C   UNL     1      -4.662 -23.861  47.521  1.00  0.00    -0.000 C 
BRANCH   9  10
ATOM     10  C   UNL     1      -4.513 -25.247  48.171  1.00  0.00    -0.003 C 
ATOM     11  C   UNL     1      -5.402 -26.308  47.522  1.00  0.00     0.004 C 
ENDBRANCH   9  10
ENDBRANCH   8   9
ENDBRANCH   7   8
ENDBRANCH   1   7
TORSDOF 7
ENDMDL
MODEL 2
REMARK VINA RESULT:    -3.958     11.797     13.860
REMARK INTER + INTRA:          -5.835
REMARK INTER:                  -5.135
REMARK INTRA:                  -0.700
REMARK UNBOUND:                -0.257
REMARK SMILES CCCCCCCCC(=O)[O-]
REMARK SMILES IDX 6 1 7 2 8 3 9 4 10 5 11 6 5 7 4 8 3 9 2 10 1 11
REMARK H PARENT
REMARK Flexibility Score: inf
ROOT
ATOM      1  C   UNL     1       6.197 -22.478  46.787  1.00  0.00     0.000 C 
ENDROOT
BRANCH   1   2
ATOM      2  C   UNL     1       6.221 -21.498  47.969  1.00  0.00     0.006 C 
BRANCH   2   3
ATOM      3  C   UNL     1       7.033 -20.233  47.659  1.00  0.00     0.053 C 
BRANCH   3   4
ATOM      4  C   UNL     1       6.170 -19.140  47.108  1.00  0.00     0.041 C 
ATOM      5  O   UNL     1       5.485 -18.421  47.884  1.00  0.00    -0.550 OA
ATOM      6  O   UNL     1       6.095 -18.936  45.736  1.00  0.00    -0.550 OA
ENDBRANCH   3   4
ENDBRANCH   2   3
ENDBRANCH   1   2
BRANCH   1   7
ATOM      7  C   UNL     1       4.756 -22.846  46.409  1.00  0.00     0.000 C 
BRANCH   7   8
ATOM      8  C   UNL     1       3.739 -22.498  47.512  1.00  0.00    -0.000 C 
BRANCH   8   9
ATOM      9  C   UNL     1       2.493 -21.728  47.032  1.00  0.00    -0.000 C 
BRANCH   9  10
ATOM     10  C   UNL     1       2.737 -20.251  46.680  1.00  0.00    -0.003 C 
ATOM     11  C   UNL     1       2.519 -19.947  45.198  1.00  0.00     0.004 C 
ENDBRANCH   9  10
ENDBRANCH   8   9
ENDBRANCH   7   8
ENDBRANCH   1   7
TORSDOF 7
ENDMDL
MODEL 3
REMARK VINA RESULT:    -3.890     11.835     13.747
REMARK INTER + INTRA:          -5.739
REMARK INTER:                  -5.076
REMARK INTRA:                  -0.663
REMARK UNBOUND:                -0.257
REMARK SMILES CCCCCCCCC(=O)[O-]
REMARK SMILES IDX 6 1 7 2 8 3 9 4 10 5 11 6 5 7 4 8 3 9 2 10 1 11
REMARK H PARENT
REMARK Flexibility Score: inf
ROOT
ATOM      1  C   UNL     1      -3.391 -36.181  45.460  1.00  0.00     0.000 C 
ENDROOT
BRANCH   1   2
ATOM      2  C   UNL     1      -3.158 -35.074  46.498  1.00  0.00     0.006 C 
BRANCH   2   3
ATOM      3  C   UNL     1      -2.182 -34.002  45.995  1.00  0.00     0.053 C 
BRANCH   3   4
ATOM      4  C   UNL     1      -0.765 -34.490  46.010  1.00  0.00     0.041 C 
ATOM      5  O   UNL     1      -0.048 -34.383  44.979  1.00  0.00    -0.550 OA
ATOM      6  O   UNL     1      -0.247 -35.091  47.149  1.00  0.00    -0.550 OA
ENDBRANCH   3   4
ENDBRANCH   2   3
ENDBRANCH   1   2
BRANCH   1   7
ATOM      7  C   UNL     1      -4.890 -36.366  45.182  1.00  0.00     0.000 C 
BRANCH   7   8
ATOM      8  C   UNL     1      -5.432 -35.373  44.138  1.00  0.00    -0.000 C 
BRANCH   8   9
ATOM      9  C   UNL     1      -6.247 -34.198  44.715  1.00  0.00    -0.000 C 
BRANCH   9  10
ATOM     10  C   UNL     1      -6.857 -34.452  46.104  1.00  0.00    -0.003 C 
ATOM     11  C   UNL     1      -6.575 -33.322  47.095  1.00  0.00     0.004 C 
ENDBRANCH   9  10
ENDBRANCH   8   9
ENDBRANCH   7   8
ENDBRANCH   1   7
TORSDOF 7
ENDMDL
MODEL 4
REMARK VINA RESULT:    -3.858     11.178     13.051
REMARK INTER + INTRA:          -5.693
REMARK INTER:                  -5.078
REMARK INTRA:                  -0.615
REMARK UNBOUND:                -0.257
REMARK SMILES CCCCCCCCC(=O)[O-]
REMARK SMILES IDX 6 1 7 2 8 3 9 4 10 5 11 6 5 7 4 8 3 9 2 10 1 11
REMARK H PARENT
REMARK Flexibility Score: inf
ROOT
ATOM      1  C   UNL     1       4.011 -22.952  47.950  1.00  0.00     0.000 C 
ENDROOT
BRANCH   1   2
ATOM      2  C   UNL     1       3.438 -21.531  48.050  1.00  0.00     0.006 C 
BRANCH   2   3
ATOM      3  C   UNL     1       2.434 -21.227  46.931  1.00  0.00     0.053 C 
BRANCH   3   4
ATOM      4  C   UNL     1       2.949 -20.179  45.992  1.00  0.00     0.041 C 
ATOM      5  O   UNL     1       2.215 -19.746  45.063  1.00  0.00    -0.550 OA
ATOM      6  O   UNL     1       4.247 -19.704  46.122  1.00  0.00    -0.550 OA
ENDBRANCH   3   4
ENDBRANCH   2   3
ENDBRANCH   1   2
BRANCH   1   7
ATOM      7  C   UNL     1       4.757 -23.150  46.623  1.00  0.00     0.000 C 
BRANCH   7   8
ATOM      8  C   UNL     1       6.240 -22.744  46.703  1.00  0.00    -0.000 C 
BRANCH   8   9
ATOM      9  C   UNL     1       6.967 -23.180  47.991  1.00  0.00    -0.000 C 
BRANCH   9  10
ATOM     10  C   UNL     1       7.399 -22.029  48.915  1.00  0.00    -0.003 C 
ATOM     11  C   UNL     1       7.312 -20.659  48.241  1.00  0.00     0.004 C 
ENDBRANCH   9  10
ENDBRANCH   8   9
ENDBRANCH   7   8
ENDBRANCH   1   7
TORSDOF 7
ENDMDL
MODEL 5
REMARK VINA RESULT:    -3.853     10.635     12.298
REMARK INTER + INTRA:          -5.686
REMARK INTER:                  -5.107
REMARK INTRA:                  -0.579
REMARK UNBOUND:                -0.257
REMARK SMILES CCCCCCCCC(=O)[O-]
REMARK SMILES IDX 6 1 7 2 8 3 9 4 10 5 11 6 5 7 4 8 3 9 2 10 1 11
REMARK H PARENT
REMARK Flexibility Score: inf
ROOT
ATOM      1  C   UNL     1      -5.451 -35.312  44.182  1.00  0.00     0.000 C 
ENDROOT
BRANCH   1   2
ATOM      2  C   UNL     1      -6.170 -34.114  44.819  1.00  0.00     0.006 C 
BRANCH   2   3
ATOM      3  C   UNL     1      -6.725 -34.442  46.212  1.00  0.00     0.053 C 
BRANCH   3   4
ATOM      4  C   UNL     1      -6.259 -33.457  47.241  1.00  0.00     0.041 C 
ATOM      5  O   UNL     1      -6.944 -32.429  47.489  1.00  0.00    -0.550 OA
ATOM      6  O   UNL     1      -5.054 -33.656  47.901  1.00  0.00    -0.550 OA
ENDBRANCH   3   4
ENDBRANCH   2   3
ENDBRANCH   1   2
BRANCH   1   7
ATOM      7  C   UNL     1      -4.993 -36.310  45.255  1.00  0.00     0.000 C 
BRANCH   7   8
ATOM      8  C   UNL     1      -3.465 -36.497  45.287  1.00  0.00    -0.000 C 
BRANCH   8   9
ATOM      9  C   UNL     1      -2.725 -35.647  46.339  1.00  0.00    -0.000 C 
BRANCH   9  10
ATOM     10  C   UNL     1      -2.244 -34.273  45.842  1.00  0.00    -0.003 C 
ATOM     11  C   UNL     1      -0.721 -34.161  45.778  1.00  0.00     0.004 C 
ENDBRANCH   9  10
ENDBRANCH   8   9
ENDBRANCH   7   8
ENDBRANCH   1   7
TORSDOF 7
ENDMDL
MODEL 6
REMARK VINA RESULT:    -3.834     11.138     12.643
REMARK INTER + INTRA:          -5.660
REMARK INTER:                  -4.951
REMARK INTRA:                  -0.709
REMARK UNBOUND:                -0.257
REMARK SMILES CCCCCCCCC(=O)[O-]
REMARK SMILES IDX 6 1 7 2 8 3 9 4 10 5 11 6 5 7 4 8 3 9 2 10 1 11
REMARK H PARENT
REMARK Flexibility Score: inf
ROOT
ATOM      1  C   UNL     1      -5.869 -32.923  47.550  1.00  0.00     0.000 C 
ENDROOT
BRANCH   1   2
ATOM      2  C   UNL     1      -4.763 -33.910  47.953  1.00  0.00     0.006 C 
BRANCH   2   3
ATOM      3  C   UNL     1      -3.359 -33.339  47.712  1.00  0.00     0.053 C 
BRANCH   3   4
ATOM      4  C   UNL     1      -2.511 -34.273  46.904  1.00  0.00     0.041 C 
ATOM      5  O   UNL     1      -2.041 -33.902  45.795  1.00  0.00    -0.550 OA
ATOM      6  O   UNL     1      -2.267 -35.562  47.357  1.00  0.00    -0.550 OA
ENDBRANCH   3   4
ENDBRANCH   2   3
ENDBRANCH   1   2
BRANCH   1   7
ATOM      7  C   UNL     1      -7.154 -33.669  47.162  1.00  0.00     0.000 C 
BRANCH   7   8
ATOM      8  C   UNL     1      -6.903 -34.817  46.167  1.00  0.00    -0.000 C 
BRANCH   8   9
ATOM      9  C   UNL     1      -6.386 -34.379  44.782  1.00  0.00    -0.000 C 
BRANCH   9  10
ATOM     10  C   UNL     1      -5.275 -35.266  44.194  1.00  0.00    -0.003 C 
ATOM     11  C   UNL     1      -4.896 -36.431  45.107  1.00  0.00     0.004 C 
ENDBRANCH   9  10
ENDBRANCH   8   9
ENDBRANCH   7   8
ENDBRANCH   1   7
TORSDOF 7
ENDMDL
MODEL 7
REMARK VINA RESULT:    -3.822     10.980     12.962
REMARK INTER + INTRA:          -5.643
REMARK INTER:                  -4.941
REMARK INTRA:                  -0.702
REMARK UNBOUND:                -0.257
REMARK SMILES CCCCCCCCC(=O)[O-]
REMARK SMILES IDX 6 1 7 2 8 3 9 4 10 5 11 6 5 7 4 8 3 9 2 10 1 11
REMARK H PARENT
REMARK Flexibility Score: inf
ROOT
ATOM      1  C   UNL     1      -3.156 -36.344  45.186  1.00  0.00     0.000 C 
ENDROOT
BRANCH   1   2
ATOM      2  C   UNL     1      -2.458 -35.667  46.374  1.00  0.00     0.006 C 
BRANCH   2   3
ATOM      3  C   UNL     1      -2.645 -34.144  46.368  1.00  0.00     0.053 C 
BRANCH   3   4
ATOM      4  C   UNL     1      -3.253 -33.653  47.647  1.00  0.00     0.041 C 
ATOM      5  O   UNL     1      -3.073 -32.463  48.017  1.00  0.00    -0.550 OA
ATOM      6  O   UNL     1      -3.990 -34.518  48.444  1.00  0.00    -0.550 OA
ENDBRANCH   3   4
ENDBRANCH   2   3
ENDBRANCH   1   2
BRANCH   1   7
ATOM      7  C   UNL     1      -4.679 -36.360  45.380  1.00  0.00     0.000 C 
BRANCH   7   8
ATOM      8  C   UNL     1      -5.425 -35.503  44.341  1.00  0.00    -0.000 C 
BRANCH   8   9
ATOM      9  C   UNL     1      -6.203 -34.305  44.920  1.00  0.00    -0.000 C 
BRANCH   9  10
ATOM     10  C   UNL     1      -6.974 -34.598  46.219  1.00  0.00    -0.003 C 
ATOM     11  C   UNL     1      -7.013 -33.404  47.171  1.00  0.00     0.004 C 
ENDBRANCH   9  10
ENDBRANCH   8   9
ENDBRANCH   7   8
ENDBRANCH   1   7
TORSDOF 7
ENDMDL
MODEL 8
REMARK VINA RESULT:    -3.782     11.457     13.527
REMARK INTER + INTRA:          -5.587
REMARK INTER:                  -4.956
REMARK INTRA:                  -0.630
REMARK UNBOUND:                -0.257
REMARK SMILES CCCCCCCCC(=O)[O-]
REMARK SMILES IDX 6 1 7 2 8 3 9 4 10 5 11 6 5 7 4 8 3 9 2 10 1 11
REMARK H PARENT
REMARK Flexibility Score: inf
ROOT
ATOM      1  C   UNL     1       6.276 -22.793  46.858  1.00  0.00     0.000 C 
ENDROOT
BRANCH   1   2
ATOM      2  C   UNL     1       4.833 -22.895  46.343  1.00  0.00     0.006 C 
BRANCH   2   3
ATOM      3  C   UNL     1       3.803 -22.538  47.424  1.00  0.00     0.053 C 
BRANCH   3   4
ATOM      4  C   UNL     1       2.783 -21.563  46.919  1.00  0.00     0.041 C 
ATOM      5  O   UNL     1       3.073 -20.773  45.982  1.00  0.00    -0.550 OA
ATOM      6  O   UNL     1       1.526 -21.504  47.505  1.00  0.00    -0.550 OA
ENDBRANCH   3   4
ENDBRANCH   2   3
ENDBRANCH   1   2
BRANCH   1   7
ATOM      7  C   UNL     1       6.343 -21.949  48.139  1.00  0.00     0.000 C 
BRANCH   7   8
ATOM      8  C   UNL     1       6.964 -20.559  47.909  1.00  0.00    -0.000 C 
BRANCH   8   9
ATOM      9  C   UNL     1       5.978 -19.474  47.433  1.00  0.00    -0.000 C 
BRANCH   9  10
ATOM     10  C   UNL     1       6.241 -18.933  46.018  1.00  0.00    -0.003 C 
ATOM     11  C   UNL     1       7.417 -17.957  45.962  1.00  0.00     0.004 C 
ENDBRANCH   9  10
ENDBRANCH   8   9
ENDBRANCH   7   8
ENDBRANCH   1   7
TORSDOF 7
ENDMDL
MODEL 9
REMARK VINA RESULT:    -3.716     11.664     13.481
REMARK INTER + INTRA:          -5.494
REMARK INTER:                  -4.717
REMARK INTRA:                  -0.776
REMARK UNBOUND:                -0.257
REMARK SMILES CCCCCCCCC(=O)[O-]
REMARK SMILES IDX 6 1 7 2 8 3 9 4 10 5 11 6 5 7 4 8 3 9 2 10 1 11
REMARK H PARENT
REMARK Flexibility Score: inf
ROOT
ATOM      1  C   UNL     1      -4.615 -37.097  46.595  1.00  0.00     0.000 C 
ENDROOT
BRANCH   1   2
ATOM      2  C   UNL     1      -3.440 -36.187  46.982  1.00  0.00     0.006 C 
BRANCH   2   3
ATOM      3  C   UNL     1      -2.866 -35.434  45.774  1.00  0.00     0.053 C 
BRANCH   3   4
ATOM      4  C   UNL     1      -2.153 -34.182  46.188  1.00  0.00     0.041 C 
ATOM      5  O   UNL     1      -0.990 -33.947  45.765  1.00  0.00    -0.550 OA
ATOM      6  O   UNL     1      -2.759 -33.293  47.065  1.00  0.00    -0.550 OA
ENDBRANCH   3   4
ENDBRANCH   2   3
ENDBRANCH   1   2
BRANCH   1   7
ATOM      7  C   UNL     1      -5.832 -36.832  47.493  1.00  0.00     0.000 C 
BRANCH   7   8
ATOM      8  C   UNL     1      -6.128 -35.332  47.672  1.00  0.00    -0.000 C 
BRANCH   8   9
ATOM      9  C   UNL     1      -6.991 -34.699  46.562  1.00  0.00    -0.000 C 
BRANCH   9  10
ATOM     10  C   UNL     1      -6.218 -33.836  45.550  1.00  0.00    -0.003 C 
ATOM     11  C   UNL     1      -6.201 -34.437  44.145  1.00  0.00     0.004 C 
ENDBRANCH   9  10
ENDBRANCH   8   9
ENDBRANCH   7   8
ENDBRANCH   1   7
TORSDOF 7
ENDMDL
