MODEL 1
REMARK VINA RESULT:    -3.804      0.000      0.000
REMARK INTER + INTRA:          -6.312
REMARK INTER:                  -5.805
REMARK INTRA:                  -0.508
REMARK UNBOUND:                -0.508
REMARK SMILES O=C([O-])CCCCCCCCC(=O)[O-]
REMARK SMILES IDX 7 1 6 2 5 3 4 4 2 5 1 6 3 7 8 8 9 9 10 10 11 11 12 12 13 13
REMARK SMILES IDX 14 14
REMARK H PARENT
REMARK Flexibility Score: inf
ROOT
ATOM      1  C   UNL     1       0.823  16.518  30.093  1.00  0.00     0.000 C 
ENDROOT
BRANCH   1   2
ATOM      2  C   UNL     1      -0.167  16.866  28.972  1.00  0.00     0.000 C 
BRANCH   2   3
ATOM      3  C   UNL     1       0.532  17.276  27.663  1.00  0.00     0.006 C 
BRANCH   3   4
ATOM      4  C   UNL     1       2.044  17.518  27.802  1.00  0.00     0.053 C 
BRANCH   4   5
ATOM      5  C   UNL     1       2.849  16.396  27.224  1.00  0.00     0.041 C 
ATOM      6  O   UNL     1       4.092  16.523  27.067  1.00  0.00    -0.550 OA
ATOM      7  O   UNL     1       2.232  15.197  26.889  1.00  0.00    -0.550 OA
ENDBRANCH   4   5
ENDBRANCH   3   4
ENDBRANCH   2   3
ENDBRANCH   1   2
BRANCH   1   8
ATOM      8  C   UNL     1       0.607  15.085  30.592  1.00  0.00     0.000 C 
BRANCH   8   9
ATOM      9  C   UNL     1       0.020  14.199  29.487  1.00  0.00     0.000 C 
BRANCH   9  10
ATOM     10  C   UNL     1      -1.220  13.444  29.986  1.00  0.00     0.006 C 
BRANCH  10  11
ATOM     11  C   UNL     1      -1.040  11.921  29.917  1.00  0.00     0.053 C 
BRANCH  11  12
ATOM     12  C   UNL     1      -1.522  11.251  31.168  1.00  0.00     0.041 C 
ATOM     13  O   UNL     1      -2.698  11.438  31.576  1.00  0.00    -0.550 OA
ATOM     14  O   UNL     1      -0.679  10.393  31.864  1.00  0.00    -0.550 OA
ENDBRANCH  11  12
ENDBRANCH  10  11
ENDBRANCH   9  10
ENDBRANCH   8   9
ENDBRANCH   1   8
TORSDOF 9
ENDMDL
MODEL 2
REMARK VINA RESULT:    -3.774      1.466      2.457
REMARK INTER + INTRA:          -6.267
REMARK INTER:                  -5.550
REMARK INTRA:                  -0.717
REMARK UNBOUND:                -0.508
REMARK SMILES O=C([O-])CCCCCCCCC(=O)[O-]
REMARK SMILES IDX 7 1 6 2 5 3 4 4 2 5 1 6 3 7 8 8 9 9 10 10 11 11 12 12 13 13
REMARK SMILES IDX 14 14
REMARK H PARENT
REMARK Flexibility Score: inf
ROOT
ATOM      1  C   UNL     1       0.706  17.229  27.613  1.00  0.00     0.000 C 
ENDROOT
BRANCH   1   2
ATOM      2  C   UNL     1       1.964  17.986  28.063  1.00  0.00     0.000 C 
BRANCH   2   3
ATOM      3  C   UNL     1       3.259  17.401  27.468  1.00  0.00     0.006 C 
BRANCH   3   4
ATOM      4  C   UNL     1       3.553  15.954  27.895  1.00  0.00     0.053 C 
BRANCH   4   5
ATOM      5  C   UNL     1       3.540  15.011  26.731  1.00  0.00     0.041 C 
ATOM      6  O   UNL     1       2.588  14.201  26.582  1.00  0.00    -0.550 OA
ATOM      7  O   UNL     1       4.563  15.050  25.792  1.00  0.00    -0.550 OA
ENDBRANCH   4   5
ENDBRANCH   3   4
ENDBRANCH   2   3
ENDBRANCH   1   2
BRANCH   1   8
ATOM      8  C   UNL     1      -0.245  16.996  28.792  1.00  0.00     0.000 C 
BRANCH   8   9
ATOM      9  C   UNL     1       0.402  16.098  29.853  1.00  0.00     0.000 C 
BRANCH   9  10
ATOM     10  C   UNL     1       0.440  14.635  29.388  1.00  0.00     0.006 C 
BRANCH  10  11
ATOM     11  C   UNL     1      -0.552  13.753  30.159  1.00  0.00     0.053 C 
BRANCH  11  12
ATOM     12  C   UNL     1      -0.568  12.349  29.634  1.00  0.00     0.041 C 
ATOM     13  O   UNL     1      -1.440  11.534  30.032  1.00  0.00    -0.550 OA
ATOM     14  O   UNL     1       0.362  11.954  28.681  1.00  0.00    -0.550 OA
ENDBRANCH  11  12
ENDBRANCH  10  11
ENDBRANCH   9  10
ENDBRANCH   8   9
ENDBRANCH   1   8
TORSDOF 9
ENDMDL
MODEL 3
REMARK VINA RESULT:    -3.769      0.999      5.706
REMARK INTER + INTRA:          -6.259
REMARK INTER:                  -5.371
REMARK INTRA:                  -0.888
REMARK UNBOUND:                -0.508
REMARK SMILES O=C([O-])CCCCCCCCC(=O)[O-]
REMARK SMILES IDX 7 1 6 2 5 3 4 4 2 5 1 6 3 7 8 8 9 9 10 10 11 11 12 12 13 13
REMARK SMILES IDX 14 14
REMARK H PARENT
REMARK Flexibility Score: inf
ROOT
ATOM      1  C   UNL     1       0.687  16.672  29.964  1.00  0.00     0.000 C 
ENDROOT
BRANCH   1   2
ATOM      2  C   UNL     1       0.597  15.254  30.548  1.00  0.00     0.000 C 
BRANCH   2   3
ATOM      3  C   UNL     1       0.076  14.221  29.531  1.00  0.00     0.006 C 
BRANCH   3   4
ATOM      4  C   UNL     1      -1.254  13.560  29.927  1.00  0.00     0.053 C 
BRANCH   4   5
ATOM      5  C   UNL     1      -1.066  12.141  30.369  1.00  0.00     0.041 C 
ATOM      6  O   UNL     1       0.066  11.597  30.289  1.00  0.00    -0.550 OA
ATOM      7  O   UNL     1      -2.136  11.430  30.900  1.00  0.00    -0.550 OA
ENDBRANCH   4   5
ENDBRANCH   3   4
ENDBRANCH   2   3
ENDBRANCH   1   2
BRANCH   1   8
ATOM      8  C   UNL     1      -0.147  16.792  28.683  1.00  0.00     0.000 C 
BRANCH   8   9
ATOM      9  C   UNL     1       0.718  17.251  27.503  1.00  0.00     0.000 C 
BRANCH   9  10
ATOM     10  C   UNL     1       2.166  17.502  27.946  1.00  0.00     0.006 C 
BRANCH  10  11
ATOM     11  C   UNL     1       3.171  16.654  27.155  1.00  0.00     0.053 C 
BRANCH  11  12
ATOM     12  C   UNL     1       3.139  15.217  27.581  1.00  0.00     0.041 C 
ATOM     13  O   UNL     1       3.578  14.881  28.711  1.00  0.00    -0.550 OA
ATOM     14  O   UNL     1       2.594  14.256  26.739  1.00  0.00    -0.550 OA
ENDBRANCH  11  12
ENDBRANCH  10  11
ENDBRANCH   9  10
ENDBRANCH   8   9
ENDBRANCH   1   8
TORSDOF 9
ENDMDL
MODEL 4
REMARK VINA RESULT:    -3.766      2.571      3.259
REMARK INTER + INTRA:          -6.256
REMARK INTER:                  -5.544
REMARK INTRA:                  -0.711
REMARK UNBOUND:                -0.508
REMARK SMILES O=C([O-])CCCCCCCCC(=O)[O-]
REMARK SMILES IDX 7 1 6 2 5 3 4 4 2 5 1 6 3 7 8 8 9 9 10 10 11 11 12 12 13 13
REMARK SMILES IDX 14 14
REMARK H PARENT
REMARK Flexibility Score: inf
ROOT
ATOM      1  C   UNL     1       1.108  16.037  30.641  1.00  0.00     0.000 C 
ENDROOT
BRANCH   1   2
ATOM      2  C   UNL     1       1.405  16.266  29.151  1.00  0.00     0.000 C 
BRANCH   2   3
ATOM      3  C   UNL     1       0.648  17.474  28.569  1.00  0.00     0.006 C 
BRANCH   3   4
ATOM      4  C   UNL     1      -0.871  17.441  28.802  1.00  0.00     0.053 C 
BRANCH   4   5
ATOM      5  C   UNL     1      -1.398  18.764  29.265  1.00  0.00     0.041 C 
ATOM      6  O   UNL     1      -2.617  19.045  29.125  1.00  0.00    -0.550 OA
ATOM      7  O   UNL     1      -0.548  19.675  29.881  1.00  0.00    -0.550 OA
ENDBRANCH   4   5
ENDBRANCH   3   4
ENDBRANCH   2   3
ENDBRANCH   1   2
BRANCH   1   8
ATOM      8  C   UNL     1       0.624  14.605  30.891  1.00  0.00     0.000 C 
BRANCH   8   9
ATOM      9  C   UNL     1       0.626  13.787  29.593  1.00  0.00     0.000 C 
BRANCH   9  10
ATOM     10  C   UNL     1      -0.579  12.837  29.538  1.00  0.00     0.006 C 
BRANCH  10  11
ATOM     11  C   UNL     1      -1.519  13.021  30.737  1.00  0.00     0.053 C 
BRANCH  11  12
ATOM     12  C   UNL     1      -1.749  11.730  31.463  1.00  0.00     0.041 C 
ATOM     13  O   UNL     1      -0.772  11.047  31.867  1.00  0.00    -0.550 OA
ATOM     14  O   UNL     1      -3.044  11.299  31.720  1.00  0.00    -0.550 OA
ENDBRANCH  11  12
ENDBRANCH  10  11
ENDBRANCH   9  10
ENDBRANCH   8   9
ENDBRANCH   1   8
TORSDOF 9
ENDMDL
MODEL 5
REMARK VINA RESULT:    -3.761      2.016      5.299
REMARK INTER + INTRA:          -6.248
REMARK INTER:                  -5.323
REMARK INTRA:                  -0.925
REMARK UNBOUND:                -0.508
REMARK SMILES O=C([O-])CCCCCCCCC(=O)[O-]
REMARK SMILES IDX 7 1 6 2 5 3 4 4 2 5 1 6 3 7 8 8 9 9 10 10 11 11 12 12 13 13
REMARK SMILES IDX 14 14
REMARK H PARENT
REMARK Flexibility Score: inf
ROOT
ATOM      1  C   UNL     1       0.382  16.468  29.748  1.00  0.00     0.000 C 
ENDROOT
BRANCH   1   2
ATOM      2  C   UNL     1      -0.125  15.025  29.611  1.00  0.00     0.000 C 
BRANCH   2   3
ATOM      3  C   UNL     1       0.429  14.090  30.702  1.00  0.00     0.006 C 
BRANCH   3   4
ATOM      4  C   UNL     1       0.086  12.606  30.497  1.00  0.00     0.053 C 
BRANCH   4   5
ATOM      5  C   UNL     1       1.014  11.944  29.525  1.00  0.00     0.041 C 
ATOM      6  O   UNL     1       0.605  11.618  28.380  1.00  0.00    -0.550 OA
ATOM      7  O   UNL     1       2.340  11.717  29.873  1.00  0.00    -0.550 OA
ENDBRANCH   4   5
ENDBRANCH   3   4
ENDBRANCH   2   3
ENDBRANCH   1   2
BRANCH   1   8
ATOM      8  C   UNL     1      -0.146  17.346  28.608  1.00  0.00     0.000 C 
BRANCH   8   9
ATOM      9  C   UNL     1       0.795  17.303  27.398  1.00  0.00     0.000 C 
BRANCH   9  10
ATOM     10  C   UNL     1       2.264  17.361  27.840  1.00  0.00     0.006 C 
BRANCH  10  11
ATOM     11  C   UNL     1       3.138  16.346  27.091  1.00  0.00     0.053 C 
BRANCH  11  12
ATOM     12  C   UNL     1       3.006  14.969  27.668  1.00  0.00     0.041 C 
ATOM     13  O   UNL     1       2.466  14.050  26.998  1.00  0.00    -0.550 OA
ATOM     14  O   UNL     1       3.507  14.696  28.934  1.00  0.00    -0.550 OA
ENDBRANCH  11  12
ENDBRANCH  10  11
ENDBRANCH   9  10
ENDBRANCH   8   9
ENDBRANCH   1   8
TORSDOF 9
ENDMDL
MODEL 6
REMARK VINA RESULT:    -3.759      2.454      5.531
REMARK INTER + INTRA:          -6.244
REMARK INTER:                  -5.228
REMARK INTRA:                  -1.017
REMARK UNBOUND:                -0.508
REMARK SMILES O=C([O-])CCCCCCCCC(=O)[O-]
REMARK SMILES IDX 7 1 6 2 5 3 4 4 2 5 1 6 3 7 8 8 9 9 10 10 11 11 12 12 13 13
REMARK SMILES IDX 14 14
REMARK H PARENT
REMARK Flexibility Score: inf
ROOT
ATOM      1  C   UNL     1       2.404  15.070  29.541  1.00  0.00     0.000 C 
ENDROOT
BRANCH   1   2
ATOM      2  C   UNL     1       1.227  14.705  30.457  1.00  0.00     0.000 C 
BRANCH   2   3
ATOM      3  C   UNL     1      -0.071  14.421  29.678  1.00  0.00     0.006 C 
BRANCH   3   4
ATOM      4  C   UNL     1      -0.706  13.055  29.982  1.00  0.00     0.053 C 
BRANCH   4   5
ATOM      5  C   UNL     1       0.232  11.923  29.695  1.00  0.00     0.041 C 
ATOM      6  O   UNL     1       0.626  11.175  30.628  1.00  0.00    -0.550 OA
ATOM      7  O   UNL     1       0.644  11.674  28.392  1.00  0.00    -0.550 OA
ENDBRANCH   4   5
ENDBRANCH   3   4
ENDBRANCH   2   3
ENDBRANCH   1   2
BRANCH   1   8
ATOM      8  C   UNL     1       2.024  14.904  28.066  1.00  0.00     0.000 C 
BRANCH   8   9
ATOM      9  C   UNL     1       2.397  16.151  27.256  1.00  0.00     0.000 C 
BRANCH   9  10
ATOM     10  C   UNL     1       1.841  17.422  27.914  1.00  0.00     0.006 C 
BRANCH  10  11
ATOM     11  C   UNL     1       0.318  17.536  27.765  1.00  0.00     0.053 C 
BRANCH  11  12
ATOM     12  C   UNL     1      -0.318  18.105  28.997  1.00  0.00     0.041 C 
ATOM     13  O   UNL     1      -1.541  18.403  28.999  1.00  0.00    -0.550 OA
ATOM     14  O   UNL     1       0.435  18.276  30.151  1.00  0.00    -0.550 OA
ENDBRANCH  11  12
ENDBRANCH  10  11
ENDBRANCH   9  10
ENDBRANCH   8   9
ENDBRANCH   1   8
TORSDOF 9
ENDMDL
MODEL 7
REMARK VINA RESULT:    -3.756      1.702      5.985
REMARK INTER + INTRA:          -6.240
REMARK INTER:                  -5.260
REMARK INTRA:                  -0.980
REMARK UNBOUND:                -0.508
REMARK SMILES O=C([O-])CCCCCCCCC(=O)[O-]
REMARK SMILES IDX 7 1 6 2 5 3 4 4 2 5 1 6 3 7 8 8 9 9 10 10 11 11 12 12 13 13
REMARK SMILES IDX 14 14
REMARK H PARENT
REMARK Flexibility Score: inf
ROOT
ATOM      1  C   UNL     1       2.092  14.720  30.229  1.00  0.00     0.000 C 
ENDROOT
BRANCH   1   2
ATOM      2  C   UNL     1       1.897  14.031  28.870  1.00  0.00     0.000 C 
BRANCH   2   3
ATOM      3  C   UNL     1       1.964  12.496  28.963  1.00  0.00     0.006 C 
BRANCH   3   4
ATOM      4  C   UNL     1       0.626  11.788  28.698  1.00  0.00     0.053 C 
BRANCH   4   5
ATOM      5  C   UNL     1      -0.273  11.816  29.896  1.00  0.00     0.041 C 
ATOM      6  O   UNL     1      -1.372  12.428  29.849  1.00  0.00    -0.550 OA
ATOM      7  O   UNL     1       0.089  11.138  31.054  1.00  0.00    -0.550 OA
ENDBRANCH   4   5
ENDBRANCH   3   4
ENDBRANCH   2   3
ENDBRANCH   1   2
BRANCH   1   8
ATOM      8  C   UNL     1       0.836  15.500  30.634  1.00  0.00     0.000 C 
BRANCH   8   9
ATOM      9  C   UNL     1      -0.108  15.683  29.440  1.00  0.00     0.000 C 
BRANCH   9  10
ATOM     10  C   UNL     1      -0.169  17.154  29.006  1.00  0.00     0.006 C 
BRANCH  10  11
ATOM     11  C   UNL     1       0.582  17.405  27.692  1.00  0.00     0.053 C 
BRANCH  11  12
ATOM     12  C   UNL     1       2.023  17.737  27.933  1.00  0.00     0.041 C 
ATOM     13  O   UNL     1       2.927  17.145  27.287  1.00  0.00    -0.550 OA
ATOM     14  O   UNL     1       2.364  18.724  28.849  1.00  0.00    -0.550 OA
ENDBRANCH  11  12
ENDBRANCH  10  11
ENDBRANCH   9  10
ENDBRANCH   8   9
ENDBRANCH   1   8
TORSDOF 9
ENDMDL
MODEL 8
REMARK VINA RESULT:    -3.747      3.358      4.442
REMARK INTER + INTRA:          -6.226
REMARK INTER:                  -5.343
REMARK INTRA:                  -0.883
REMARK UNBOUND:                -0.508
REMARK SMILES O=C([O-])CCCCCCCCC(=O)[O-]
REMARK SMILES IDX 7 1 6 2 5 3 4 4 2 5 1 6 3 7 8 8 9 9 10 10 11 11 12 12 13 13
REMARK SMILES IDX 14 14
REMARK H PARENT
REMARK Flexibility Score: inf
ROOT
ATOM      1  C   UNL     1      -1.048  18.391  28.950  1.00  0.00     0.000 C 
ENDROOT
BRANCH   1   2
ATOM      2  C   UNL     1      -0.484  19.477  29.879  1.00  0.00     0.000 C 
BRANCH   2   3
ATOM      3  C   UNL     1       0.926  19.143  30.402  1.00  0.00     0.006 C 
BRANCH   3   4
ATOM      4  C   UNL     1       2.026  20.094  29.905  1.00  0.00     0.053 C 
BRANCH   4   5
ATOM      5  C   UNL     1       3.090  19.372  29.138  1.00  0.00     0.041 C 
ATOM      6  O   UNL     1       3.811  18.513  29.710  1.00  0.00    -0.550 OA
ATOM      7  O   UNL     1       3.263  19.623  27.782  1.00  0.00    -0.550 OA
ENDBRANCH   4   5
ENDBRANCH   3   4
ENDBRANCH   2   3
ENDBRANCH   1   2
BRANCH   1   8
ATOM      8  C   UNL     1      -0.042  17.250  28.765  1.00  0.00     0.000 C 
BRANCH   8   9
ATOM      9  C   UNL     1       0.526  17.241  27.341  1.00  0.00     0.000 C 
BRANCH   9  10
ATOM     10  C   UNL     1       1.820  16.417  27.269  1.00  0.00     0.006 C 
BRANCH  10  11
ATOM     11  C   UNL     1       2.003  15.512  28.495  1.00  0.00     0.053 C 
BRANCH  11  12
ATOM     12  C   UNL     1       2.473  14.143  28.107  1.00  0.00     0.041 C 
ATOM     13  O   UNL     1       3.606  13.987  27.582  1.00  0.00    -0.550 OA
ATOM     14  O   UNL     1       1.671  13.037  28.356  1.00  0.00    -0.550 OA
ENDBRANCH  11  12
ENDBRANCH  10  11
ENDBRANCH   9  10
ENDBRANCH   8   9
ENDBRANCH   1   8
TORSDOF 9
ENDMDL
MODEL 9
REMARK VINA RESULT:    -3.744      1.525      2.041
REMARK INTER + INTRA:          -6.222
REMARK INTER:                  -5.372
REMARK INTRA:                  -0.849
REMARK UNBOUND:                -0.508
REMARK SMILES O=C([O-])CCCCCCCCC(=O)[O-]
REMARK SMILES IDX 7 1 6 2 5 3 4 4 2 5 1 6 3 7 8 8 9 9 10 10 11 11 12 12 13 13
REMARK SMILES IDX 14 14
REMARK H PARENT
REMARK Flexibility Score: inf
ROOT
ATOM      1  C   UNL     1      -0.169  16.770  28.719  1.00  0.00     0.000 C 
ENDROOT
BRANCH   1   2
ATOM      2  C   UNL     1       0.739  17.190  27.554  1.00  0.00     0.000 C 
BRANCH   2   3
ATOM      3  C   UNL     1       2.219  17.310  27.962  1.00  0.00     0.006 C 
BRANCH   3   4
ATOM      4  C   UNL     1       3.179  16.460  27.115  1.00  0.00     0.053 C 
BRANCH   4   5
ATOM      5  C   UNL     1       3.090  15.004  27.455  1.00  0.00     0.041 C 
ATOM      6  O   UNL     1       3.556  14.578  28.544  1.00  0.00    -0.550 OA
ATOM      7  O   UNL     1       2.461  14.123  26.583  1.00  0.00    -0.550 OA
ENDBRANCH   4   5
ENDBRANCH   3   4
ENDBRANCH   2   3
ENDBRANCH   1   2
BRANCH   1   8
ATOM      8  C   UNL     1       0.661  16.353  29.939  1.00  0.00     0.000 C 
BRANCH   8   9
ATOM      9  C   UNL     1       0.472  14.863  30.251  1.00  0.00     0.000 C 
BRANCH   9  10
ATOM     10  C   UNL     1      -0.756  14.299  29.523  1.00  0.00     0.006 C 
BRANCH  10  11
ATOM     11  C   UNL     1      -1.024  12.832  29.885  1.00  0.00     0.053 C 
BRANCH  11  12
ATOM     12  C   UNL     1       0.136  11.953  29.528  1.00  0.00     0.041 C 
ATOM     13  O   UNL     1       0.529  11.876  28.335  1.00  0.00    -0.550 OA
ATOM     14  O   UNL     1       0.801  11.244  30.520  1.00  0.00    -0.550 OA
ENDBRANCH  11  12
ENDBRANCH  10  11
ENDBRANCH   9  10
ENDBRANCH   8   9
ENDBRANCH   1   8
TORSDOF 9
ENDMDL
