MODEL 1
REMARK VINA RESULT:    -4.460      0.000      0.000
REMARK INTER + INTRA:          -4.460
REMARK INTER:                  -4.460
REMARK INTRA:                   0.000
REMARK UNBOUND:                 0.000
REMARK SMILES CC1=CC[C@H]2C[C@@H]1C2(C)C
REMARK SMILES IDX 1 1 2 2 3 3 4 4 5 5 6 6 7 7 8 8 9 9 10 10
REMARK H PARENT
REMARK Flexibility Score: inf
ROOT
ATOM      1  C   UNL     1     150.928 137.271 160.370  1.00  0.00     0.039 C 
ATOM      2  C   UNL     1     151.989 136.622 161.206  1.00  0.00    -0.074 C 
ATOM      3  C   UNL     1     151.743 135.474 161.903  1.00  0.00    -0.027 C 
ATOM      4  C   UNL     1     152.870 134.875 162.767  1.00  0.00     0.031 C 
ATOM      5  C   UNL     1     154.171 135.738 162.628  1.00  0.00    -0.000 C 
ATOM      6  C   UNL     1     154.345 135.991 161.116  1.00  0.00     0.013 C 
ATOM      7  C   UNL     1     153.408 137.199 161.306  1.00  0.00     0.021 C 
ATOM      8  C   UNL     1     153.839 137.246 162.795  1.00  0.00    -0.026 C 
ATOM      9  C   UNL     1     155.111 138.105 163.012  1.00  0.00     0.012 C 
ATOM     10  C   UNL     1     152.783 137.663 163.857  1.00  0.00     0.012 C 
ENDROOT
TORSDOF 0
ENDMDL
MODEL 2
REMARK VINA RESULT:    -4.428      1.109      3.355
REMARK INTER + INTRA:          -4.428
REMARK INTER:                  -4.428
REMARK INTRA:                   0.000
REMARK UNBOUND:                 0.000
REMARK SMILES CC1=CC[C@H]2C[C@@H]1C2(C)C
REMARK SMILES IDX 1 1 2 2 3 3 4 4 5 5 6 6 7 7 8 8 9 9 10 10
REMARK H PARENT
REMARK Flexibility Score: inf
ROOT
ATOM      1  C   UNL     1     153.626 138.967 164.839  1.00  0.00     0.039 C 
ATOM      2  C   UNL     1     153.838 137.964 163.746  1.00  0.00    -0.074 C 
ATOM      3  C   UNL     1     154.983 137.954 163.002  1.00  0.00    -0.027 C 
ATOM      4  C   UNL     1     155.125 136.914 161.873  1.00  0.00     0.031 C 
ATOM      5  C   UNL     1     153.860 135.990 161.832  1.00  0.00    -0.000 C 
ATOM      6  C   UNL     1     153.594 135.578 163.295  1.00  0.00     0.013 C 
ATOM      7  C   UNL     1     152.793 136.889 163.418  1.00  0.00     0.021 C 
ATOM      8  C   UNL     1     152.564 136.845 161.885  1.00  0.00    -0.026 C 
ATOM      9  C   UNL     1     151.305 136.025 161.502  1.00  0.00     0.012 C 
ATOM     10  C   UNL     1     152.526 138.189 161.105  1.00  0.00     0.012 C 
ENDROOT
TORSDOF 0
ENDMDL
MODEL 3
REMARK VINA RESULT:    -4.356     21.920     23.387
REMARK INTER + INTRA:          -4.356
REMARK INTER:                  -4.356
REMARK INTRA:                   0.000
REMARK UNBOUND:                 0.000
REMARK SMILES CC1=CC[C@H]2C[C@@H]1C2(C)C
REMARK SMILES IDX 1 1 2 2 3 3 4 4 5 5 6 6 7 7 8 8 9 9 10 10
REMARK H PARENT
REMARK Flexibility Score: inf
ROOT
ATOM      1  C   UNL     1     137.125 151.741 164.847  1.00  0.00     0.039 C 
ATOM      2  C   UNL     1     136.886 152.735 163.751  1.00  0.00    -0.074 C 
ATOM      3  C   UNL     1     135.740 152.715 163.010  1.00  0.00    -0.027 C 
ATOM      4  C   UNL     1     135.571 153.748 161.878  1.00  0.00     0.031 C 
ATOM      5  C   UNL     1     136.813 154.703 161.832  1.00  0.00    -0.000 C 
ATOM      6  C   UNL     1     137.071 155.125 163.293  1.00  0.00     0.013 C 
ATOM      7  C   UNL     1     137.904 153.835 163.419  1.00  0.00     0.021 C 
ATOM      8  C   UNL     1     138.130 153.879 161.885  1.00  0.00    -0.026 C 
ATOM      9  C   UNL     1     139.368 154.728 161.497  1.00  0.00     0.012 C 
ATOM     10  C   UNL     1     138.199 152.534 161.109  1.00  0.00     0.012 C 
ENDROOT
TORSDOF 0
ENDMDL
MODEL 4
REMARK VINA RESULT:    -3.422     21.586     23.414
REMARK INTER + INTRA:          -3.422
REMARK INTER:                  -3.422
REMARK INTRA:                   0.000
REMARK UNBOUND:                 0.000
REMARK SMILES CC1=CC[C@H]2C[C@@H]1C2(C)C
REMARK SMILES IDX 1 1 2 2 3 3 4 4 5 5 6 6 7 7 8 8 9 9 10 10
REMARK H PARENT
REMARK Flexibility Score: inf
ROOT
ATOM      1  C   UNL     1     139.527 153.226 160.750  1.00  0.00     0.039 C 
ATOM      2  C   UNL     1     138.432 153.707 161.653  1.00  0.00    -0.074 C 
ATOM      3  C   UNL     1     138.648 154.697 162.568  1.00  0.00    -0.027 C 
ATOM      4  C   UNL     1     137.486 155.125 163.486  1.00  0.00     0.031 C 
ATOM      5  C   UNL     1     136.193 154.312 163.132  1.00  0.00    -0.000 C 
ATOM      6  C   UNL     1     136.080 154.356 161.594  1.00  0.00     0.013 C 
ATOM      7  C   UNL     1     137.012 153.129 161.585  1.00  0.00     0.021 C 
ATOM      8  C   UNL     1     136.522 152.798 163.019  1.00  0.00    -0.026 C 
ATOM      9  C   UNL     1     135.244 151.920 163.016  1.00  0.00     0.012 C 
ATOM     10  C   UNL     1     137.536 152.178 164.021  1.00  0.00     0.012 C 
ENDROOT
TORSDOF 0
ENDMDL
MODEL 5
REMARK VINA RESULT:    -3.135     14.715     16.795
REMARK INTER + INTRA:          -3.135
REMARK INTER:                  -3.135
REMARK INTRA:                   0.000
REMARK UNBOUND:                 0.000
REMARK SMILES CC1=CC[C@H]2C[C@@H]1C2(C)C
REMARK SMILES IDX 1 1 2 2 3 3 4 4 5 5 6 6 7 7 8 8 9 9 10 10
REMARK H PARENT
REMARK Flexibility Score: inf
ROOT
ATOM      1  C   UNL     1     134.917 137.601 159.587  1.00  0.00     0.039 C 
ATOM      2  C   UNL     1     135.413 137.018 160.876  1.00  0.00    -0.074 C 
ATOM      3  C   UNL     1     134.876 137.384 162.076  1.00  0.00    -0.027 C 
ATOM      4  C   UNL     1     135.453 136.768 163.366  1.00  0.00     0.031 C 
ATOM      5  C   UNL     1     136.588 135.746 163.012  1.00  0.00    -0.000 C 
ATOM      6  C   UNL     1     136.025 134.875 161.871  1.00  0.00     0.013 C 
ATOM      7  C   UNL     1     136.534 135.970 160.912  1.00  0.00     0.021 C 
ATOM      8  C   UNL     1     137.576 136.369 161.989  1.00  0.00    -0.026 C 
ATOM      9  C   UNL     1     138.888 135.552 161.869  1.00  0.00     0.012 C 
ATOM     10  C   UNL     1     137.950 137.871 162.133  1.00  0.00     0.012 C 
ENDROOT
TORSDOF 0
ENDMDL
MODEL 6
REMARK VINA RESULT:    -2.550     21.700     23.156
REMARK INTER + INTRA:          -2.550
REMARK INTER:                  -2.550
REMARK INTRA:                   0.000
REMARK UNBOUND:                 0.000
REMARK SMILES CC1=CC[C@H]2C[C@@H]1C2(C)C
REMARK SMILES IDX 1 1 2 2 3 3 4 4 5 5 6 6 7 7 8 8 9 9 10 10
REMARK H PARENT
REMARK Flexibility Score: inf
ROOT
ATOM      1  C   UNL     1     139.582 153.629 160.750  1.00  0.00     0.039 C 
ATOM      2  C   UNL     1     138.477 153.157 161.646  1.00  0.00    -0.074 C 
ATOM      3  C   UNL     1     137.876 151.946 161.456  1.00  0.00    -0.027 C 
ATOM      4  C   UNL     1     136.725 151.533 162.395  1.00  0.00     0.031 C 
ATOM      5  C   UNL     1     136.489 152.643 163.476  1.00  0.00    -0.000 C 
ATOM      6  C   UNL     1     137.889 153.011 164.010  1.00  0.00     0.013 C 
ATOM      7  C   UNL     1     137.977 153.997 162.829  1.00  0.00     0.021 C 
ATOM      8  C   UNL     1     136.427 154.044 162.807  1.00  0.00    -0.026 C 
ATOM      9  C   UNL     1     135.857 155.125 163.762  1.00  0.00     0.012 C 
ATOM     10  C   UNL     1     135.711 154.182 161.434  1.00  0.00     0.012 C 
ENDROOT
TORSDOF 0
ENDMDL
MODEL 7
REMARK VINA RESULT:    -1.553     21.763     23.503
REMARK INTER + INTRA:          -1.553
REMARK INTER:                  -1.553
REMARK INTRA:                   0.000
REMARK UNBOUND:                 0.000
REMARK SMILES CC1=CC[C@H]2C[C@@H]1C2(C)C
REMARK SMILES IDX 1 1 2 2 3 3 4 4 5 5 6 6 7 7 8 8 9 9 10 10
REMARK H PARENT
REMARK Flexibility Score: inf
ROOT
ATOM      1  C   UNL     1     135.899 154.763 160.032  1.00  0.00     0.039 C 
ATOM      2  C   UNL     1     136.772 154.437 161.206  1.00  0.00    -0.074 C 
ATOM      3  C   UNL     1     138.124 154.619 161.159  1.00  0.00    -0.027 C 
ATOM      4  C   UNL     1     138.967 154.235 162.391  1.00  0.00     0.031 C 
ATOM      5  C   UNL     1     138.035 153.719 163.541  1.00  0.00    -0.000 C 
ATOM      6  C   UNL     1     136.876 154.733 163.627  1.00  0.00     0.013 C 
ATOM      7  C   UNL     1     136.193 153.902 162.523  1.00  0.00     0.021 C 
ATOM      8  C   UNL     1     137.023 152.677 162.990  1.00  0.00    -0.026 C 
ATOM      9  C   UNL     1     136.319 151.887 164.123  1.00  0.00     0.012 C 
ATOM     10  C   UNL     1     137.509 151.663 161.917  1.00  0.00     0.012 C 
ENDROOT
TORSDOF 0
ENDMDL
