MODEL 1
REMARK VINA RESULT:    -2.793      0.000      0.000
REMARK INTER + INTRA:          -7.947
REMARK INTER:                  -5.243
REMARK INTRA:                  -2.704
REMARK UNBOUND:                -2.704
REMARK SMILES O=C([O-])CCCCCCCCCCCCCCC(=O)[O-]
REMARK SMILES IDX 10 1 9 2 8 3 7 4 6 5 5 6 4 7 2 8 1 9 3 10 11 11 12 12 13 13
REMARK SMILES IDX 14 14 15 15 16 16 17 17 18 18 19 19 20 20
REMARK H PARENT
REMARK Flexibility Score: inf
ROOT
ATOM      1  C   UNL     1      21.285  65.315  15.788  1.00  0.00     0.000 C 
ENDROOT
BRANCH   1   2
ATOM      2  C   UNL     1      22.274  66.469  15.545  1.00  0.00     0.000 C 
BRANCH   2   3
ATOM      3  C   UNL     1      23.447  66.534  16.540  1.00  0.00     0.000 C 
BRANCH   3   4
ATOM      4  C   UNL     1      22.985  66.701  17.998  1.00  0.00     0.000 C 
BRANCH   4   5
ATOM      5  C   UNL     1      22.235  68.023  18.240  1.00  0.00     0.000 C 
BRANCH   5   6
ATOM      6  C   UNL     1      20.918  67.885  19.024  1.00  0.00     0.006 C 
BRANCH   6   7
ATOM      7  C   UNL     1      20.424  66.435  19.114  1.00  0.00     0.053 C 
BRANCH   7   8
ATOM      8  C   UNL     1      18.929  66.391  19.104  1.00  0.00     0.041 C 
ATOM      9  O   UNL     1      18.263  67.413  19.420  1.00  0.00    -0.550 OA
ATOM     10  O   UNL     1      18.269  65.240  18.694  1.00  0.00    -0.550 OA
ENDBRANCH   7   8
ENDBRANCH   6   7
ENDBRANCH   5   6
ENDBRANCH   4   5
ENDBRANCH   3   4
ENDBRANCH   2   3
ENDBRANCH   1   2
BRANCH   1  11
ATOM     11  C   UNL     1      19.821  65.713  15.527  1.00  0.00     0.000 C 
BRANCH  11  12
ATOM     12  C   UNL     1      19.699  67.153  14.983  1.00  0.00     0.000 C 
BRANCH  12  13
ATOM     13  C   UNL     1      18.965  68.111  15.937  1.00  0.00     0.000 C 
BRANCH  13  14
ATOM     14  C   UNL     1      19.596  69.510  15.982  1.00  0.00     0.000 C 
BRANCH  14  15
ATOM     15  C   UNL     1      20.394  69.793  14.704  1.00  0.00     0.000 C 
BRANCH  15  16
ATOM     16  C   UNL     1      21.861  70.115  15.031  1.00  0.00     0.006 C 
BRANCH  16  17
ATOM     17  C   UNL     1      21.991  71.251  16.053  1.00  0.00     0.053 C 
BRANCH  17  18
ATOM     18  C   UNL     1      22.564  72.490  15.436  1.00  0.00     0.041 C 
ATOM     19  O   UNL     1      21.808  73.329  14.880  1.00  0.00    -0.550 OA
ATOM     20  O   UNL     1      23.938  72.702  15.445  1.00  0.00    -0.550 OA
ENDBRANCH  17  18
ENDBRANCH  16  17
ENDBRANCH  15  16
ENDBRANCH  14  15
ENDBRANCH  13  14
ENDBRANCH  12  13
ENDBRANCH  11  12
ENDBRANCH   1  11
TORSDOF 15
ENDMDL
MODEL 2
REMARK VINA RESULT:    -2.744      1.444      3.030
REMARK INTER + INTRA:          -7.854
REMARK INTER:                  -5.907
REMARK INTRA:                  -1.947
REMARK UNBOUND:                -2.704
REMARK SMILES O=C([O-])CCCCCCCCCCCCCCC(=O)[O-]
REMARK SMILES IDX 10 1 9 2 8 3 7 4 6 5 5 6 4 7 2 8 1 9 3 10 11 11 12 12 13 13
REMARK SMILES IDX 14 14 15 15 16 16 17 17 18 18 19 19 20 20
REMARK H PARENT
REMARK Flexibility Score: inf
ROOT
ATOM      1  C   UNL     1      21.995  68.459  18.835  1.00  0.00     0.000 C 
ENDROOT
BRANCH   1   2
ATOM      2  C   UNL     1      22.822  67.230  18.414  1.00  0.00     0.000 C 
BRANCH   2   3
ATOM      3  C   UNL     1      23.114  67.134  16.906  1.00  0.00     0.000 C 
BRANCH   3   4
ATOM      4  C   UNL     1      22.155  66.182  16.172  1.00  0.00     0.000 C 
BRANCH   4   5
ATOM      5  C   UNL     1      21.053  66.925  15.395  1.00  0.00     0.000 C 
BRANCH   5   6
ATOM      6  C   UNL     1      19.756  67.171  16.187  1.00  0.00     0.006 C 
BRANCH   6   7
ATOM      7  C   UNL     1      19.453  66.058  17.199  1.00  0.00     0.053 C 
BRANCH   7   8
ATOM      8  C   UNL     1      18.721  66.613  18.380  1.00  0.00     0.041 C 
ATOM      9  O   UNL     1      18.388  65.856  19.331  1.00  0.00    -0.550 OA
ATOM     10  O   UNL     1      18.454  67.973  18.458  1.00  0.00    -0.550 OA
ENDBRANCH   7   8
ENDBRANCH   6   7
ENDBRANCH   5   6
ENDBRANCH   4   5
ENDBRANCH   3   4
ENDBRANCH   2   3
ENDBRANCH   1   2
BRANCH   1  11
ATOM     11  C   UNL     1      22.522  69.773  18.231  1.00  0.00     0.000 C 
BRANCH  11  12
ATOM     12  C   UNL     1      21.456  70.483  17.368  1.00  0.00     0.000 C 
BRANCH  12  13
ATOM     13  C   UNL     1      21.763  70.451  15.861  1.00  0.00     0.000 C 
BRANCH  13  14
ATOM     14  C   UNL     1      20.698  71.166  15.018  1.00  0.00     0.000 C 
BRANCH  14  15
ATOM     15  C   UNL     1      20.096  72.350  15.784  1.00  0.00     0.000 C 
BRANCH  15  16
ATOM     16  C   UNL     1      20.601  73.686  15.217  1.00  0.00     0.006 C 
BRANCH  16  17
ATOM     17  C   UNL     1      21.755  73.497  14.226  1.00  0.00     0.053 C 
BRANCH  17  18
ATOM     18  C   UNL     1      23.070  73.894  14.822  1.00  0.00     0.041 C 
ATOM     19  O   UNL     1      23.992  73.045  14.946  1.00  0.00    -0.550 OA
ATOM     20  O   UNL     1      23.267  75.194  15.272  1.00  0.00    -0.550 OA
ENDBRANCH  17  18
ENDBRANCH  16  17
ENDBRANCH  15  16
ENDBRANCH  14  15
ENDBRANCH  13  14
ENDBRANCH  12  13
ENDBRANCH  11  12
ENDBRANCH   1  11
TORSDOF 15
ENDMDL
MODEL 3
REMARK VINA RESULT:    -2.702      2.079      6.905
REMARK INTER + INTRA:          -7.776
REMARK INTER:                  -6.242
REMARK INTRA:                  -1.535
REMARK UNBOUND:                -2.704
REMARK SMILES O=C([O-])CCCCCCCCCCCCCCC(=O)[O-]
REMARK SMILES IDX 10 1 9 2 8 3 7 4 6 5 5 6 4 7 2 8 1 9 3 10 11 11 12 12 13 13
REMARK SMILES IDX 14 14 15 15 16 16 17 17 18 18 19 19 20 20
REMARK H PARENT
REMARK Flexibility Score: inf
ROOT
ATOM      1  C   UNL     1      22.575  70.064  18.074  1.00  0.00     0.000 C 
ENDROOT
BRANCH   1   2
ATOM      2  C   UNL     1      21.404  70.526  17.189  1.00  0.00     0.000 C 
BRANCH   2   3
ATOM      3  C   UNL     1      21.513  70.117  15.709  1.00  0.00     0.000 C 
BRANCH   3   4
ATOM      4  C   UNL     1      21.874  71.296  14.789  1.00  0.00     0.000 C 
BRANCH   4   5
ATOM      5  C   UNL     1      22.970  72.201  15.379  1.00  0.00     0.000 C 
BRANCH   5   6
ATOM      6  C   UNL     1      23.945  72.796  14.346  1.00  0.00     0.006 C 
BRANCH   6   7
ATOM      7  C   UNL     1      23.999  71.988  13.042  1.00  0.00     0.053 C 
BRANCH   7   8
ATOM      8  C   UNL     1      25.418  71.757  12.630  1.00  0.00     0.041 C 
ATOM      9  O   UNL     1      25.683  71.371  11.460  1.00  0.00    -0.550 OA
ATOM     10  O   UNL     1      26.452  72.018  13.520  1.00  0.00    -0.550 OA
ENDBRANCH   7   8
ENDBRANCH   6   7
ENDBRANCH   5   6
ENDBRANCH   4   5
ENDBRANCH   3   4
ENDBRANCH   2   3
ENDBRANCH   1   2
BRANCH   1  11
ATOM     11  C   UNL     1      22.350  68.671  18.689  1.00  0.00     0.000 C 
BRANCH  11  12
ATOM     12  C   UNL     1      23.067  67.561  17.890  1.00  0.00     0.000 C 
BRANCH  12  13
ATOM     13  C   UNL     1      22.630  66.139  18.283  1.00  0.00     0.000 C 
BRANCH  13  14
ATOM     14  C   UNL     1      21.897  65.404  17.151  1.00  0.00     0.000 C 
BRANCH  14  15
ATOM     15  C   UNL     1      21.491  66.377  16.038  1.00  0.00     0.000 C 
BRANCH  15  16
ATOM     16  C   UNL     1      19.969  66.369  15.828  1.00  0.00     0.006 C 
BRANCH  16  17
ATOM     17  C   UNL     1      19.203  66.172  17.142  1.00  0.00     0.053 C 
BRANCH  17  18
ATOM     18  C   UNL     1      18.920  67.476  17.822  1.00  0.00     0.041 C 
ATOM     19  O   UNL     1      18.545  68.472  17.151  1.00  0.00    -0.550 OA
ATOM     20  O   UNL     1      19.105  67.601  19.194  1.00  0.00    -0.550 OA
ENDBRANCH  17  18
ENDBRANCH  16  17
ENDBRANCH  15  16
ENDBRANCH  14  15
ENDBRANCH  13  14
ENDBRANCH  12  13
ENDBRANCH  11  12
ENDBRANCH   1  11
TORSDOF 15
ENDMDL
MODEL 4
REMARK VINA RESULT:    -2.677      2.415      4.078
REMARK INTER + INTRA:          -7.728
REMARK INTER:                  -5.785
REMARK INTRA:                  -1.943
REMARK UNBOUND:                -2.704
REMARK SMILES O=C([O-])CCCCCCCCCCCCCCC(=O)[O-]
REMARK SMILES IDX 10 1 9 2 8 3 7 4 6 5 5 6 4 7 2 8 1 9 3 10 11 11 12 12 13 13
REMARK SMILES IDX 14 14 15 15 16 16 17 17 18 18 19 19 20 20
REMARK H PARENT
REMARK Flexibility Score: inf
ROOT
ATOM      1  C   UNL     1      20.487  70.447  15.145  1.00  0.00     0.000 C 
ENDROOT
BRANCH   1   2
ATOM      2  C   UNL     1      21.712  69.878  15.883  1.00  0.00     0.000 C 
BRANCH   2   3
ATOM      3  C   UNL     1      22.276  70.785  16.992  1.00  0.00     0.000 C 
BRANCH   3   4
ATOM      4  C   UNL     1      22.462  70.048  18.329  1.00  0.00     0.000 C 
BRANCH   4   5
ATOM      5  C   UNL     1      22.446  68.517  18.175  1.00  0.00     0.000 C 
BRANCH   5   6
ATOM      6  C   UNL     1      21.576  67.772  19.204  1.00  0.00     0.006 C 
BRANCH   6   7
ATOM      7  C   UNL     1      20.474  66.925  18.553  1.00  0.00     0.053 C 
BRANCH   7   8
ATOM      8  C   UNL     1      19.168  67.654  18.584  1.00  0.00     0.041 C 
ATOM      9  O   UNL     1      18.320  67.397  19.479  1.00  0.00    -0.550 OA
ATOM     10  O   UNL     1      18.909  68.656  17.658  1.00  0.00    -0.550 OA
ENDBRANCH   7   8
ENDBRANCH   6   7
ENDBRANCH   5   6
ENDBRANCH   4   5
ENDBRANCH   3   4
ENDBRANCH   2   3
ENDBRANCH   1   2
BRANCH   1  11
ATOM     11  C   UNL     1      20.077  71.843  15.648  1.00  0.00     0.000 C 
BRANCH  11  12
ATOM     12  C   UNL     1      20.113  72.899  14.522  1.00  0.00     0.000 C 
BRANCH  12  13
ATOM     13  C   UNL     1      20.923  74.156  14.884  1.00  0.00     0.000 C 
BRANCH  13  14
ATOM     14  C   UNL     1      22.330  74.157  14.268  1.00  0.00     0.000 C 
BRANCH  14  15
ATOM     15  C   UNL     1      23.361  73.594  15.253  1.00  0.00     0.000 C 
BRANCH  15  16
ATOM     16  C   UNL     1      24.337  72.642  14.544  1.00  0.00     0.006 C 
BRANCH  16  17
ATOM     17  C   UNL     1      23.712  71.986  13.307  1.00  0.00     0.053 C 
BRANCH  17  18
ATOM     18  C   UNL     1      24.725  71.757  12.228  1.00  0.00     0.041 C 
ATOM     19  O   UNL     1      24.380  71.787  11.018  1.00  0.00    -0.550 OA
ATOM     20  O   UNL     1      26.045  71.475  12.561  1.00  0.00    -0.550 OA
ENDBRANCH  17  18
ENDBRANCH  16  17
ENDBRANCH  15  16
ENDBRANCH  14  15
ENDBRANCH  13  14
ENDBRANCH  12  13
ENDBRANCH  11  12
ENDBRANCH   1  11
TORSDOF 15
ENDMDL
MODEL 5
REMARK VINA RESULT:    -2.673      3.526      5.524
REMARK INTER + INTRA:          -7.721
REMARK INTER:                  -6.420
REMARK INTRA:                  -1.300
REMARK UNBOUND:                -2.704
REMARK SMILES O=C([O-])CCCCCCCCCCCCCCC(=O)[O-]
REMARK SMILES IDX 10 1 9 2 8 3 7 4 6 5 5 6 4 7 2 8 1 9 3 10 11 11 12 12 13 13
REMARK SMILES IDX 14 14 15 15 16 16 17 17 18 18 19 19 20 20
REMARK H PARENT
REMARK Flexibility Score: inf
ROOT
ATOM      1  C   UNL     1      20.315  72.511  15.729  1.00  0.00     0.000 C 
ENDROOT
BRANCH   1   2
ATOM      2  C   UNL     1      20.055  71.012  15.493  1.00  0.00     0.000 C 
BRANCH   2   3
ATOM      3  C   UNL     1      21.075  70.068  16.156  1.00  0.00     0.000 C 
BRANCH   3   4
ATOM      4  C   UNL     1      22.015  70.796  17.132  1.00  0.00     0.000 C 
BRANCH   4   5
ATOM      5  C   UNL     1      22.604  69.863  18.204  1.00  0.00     0.000 C 
BRANCH   5   6
ATOM      6  C   UNL     1      21.988  68.452  18.242  1.00  0.00     0.006 C 
BRANCH   6   7
ATOM      7  C   UNL     1      23.044  67.342  18.337  1.00  0.00     0.053 C 
BRANCH   7   8
ATOM      8  C   UNL     1      22.897  66.382  17.199  1.00  0.00     0.041 C 
ATOM      9  O   UNL     1      21.841  65.706  17.073  1.00  0.00    -0.550 OA
ATOM     10  O   UNL     1      23.901  66.274  16.246  1.00  0.00    -0.550 OA
ENDBRANCH   7   8
ENDBRANCH   6   7
ENDBRANCH   5   6
ENDBRANCH   4   5
ENDBRANCH   3   4
ENDBRANCH   2   3
ENDBRANCH   1   2
BRANCH   1  11
ATOM     11  C   UNL     1      20.944  73.210  14.510  1.00  0.00     0.000 C 
BRANCH  11  12
ATOM     12  C   UNL     1      22.316  73.835  14.844  1.00  0.00     0.000 C 
BRANCH  12  13
ATOM     13  C   UNL     1      23.494  72.862  14.667  1.00  0.00     0.000 C 
BRANCH  13  14
ATOM     14  C   UNL     1      23.308  71.908  13.478  1.00  0.00     0.000 C 
BRANCH  14  15
ATOM     15  C   UNL     1      24.315  72.216  12.364  1.00  0.00     0.000 C 
BRANCH  15  16
ATOM     16  C   UNL     1      25.729  71.764  12.759  1.00  0.00     0.006 C 
BRANCH  16  17
ATOM     17  C   UNL     1      26.797  72.287  11.791  1.00  0.00     0.053 C 
BRANCH  17  18
ATOM     18  C   UNL     1      28.168  72.224  12.389  1.00  0.00     0.041 C 
ATOM     19  O   UNL     1      29.145  71.836  11.696  1.00  0.00    -0.550 OA
ATOM     20  O   UNL     1      28.362  72.559  13.724  1.00  0.00    -0.550 OA
ENDBRANCH  17  18
ENDBRANCH  16  17
ENDBRANCH  15  16
ENDBRANCH  14  15
ENDBRANCH  13  14
ENDBRANCH  12  13
ENDBRANCH  11  12
ENDBRANCH   1  11
TORSDOF 15
ENDMDL
MODEL 6
REMARK VINA RESULT:    -2.661      3.284      5.044
REMARK INTER + INTRA:          -7.698
REMARK INTER:                  -6.532
REMARK INTRA:                  -1.166
REMARK UNBOUND:                -2.704
REMARK SMILES O=C([O-])CCCCCCCCCCCCCCC(=O)[O-]
REMARK SMILES IDX 10 1 9 2 8 3 7 4 6 5 5 6 4 7 2 8 1 9 3 10 11 11 12 12 13 13
REMARK SMILES IDX 14 14 15 15 16 16 17 17 18 18 19 19 20 20
REMARK H PARENT
REMARK Flexibility Score: inf
ROOT
ATOM      1  C   UNL     1      21.814  71.137  14.924  1.00  0.00     0.000 C 
ENDROOT
BRANCH   1   2
ATOM      2  C   UNL     1      21.653  70.095  16.046  1.00  0.00     0.000 C 
BRANCH   2   3
ATOM      3  C   UNL     1      22.144  70.555  17.431  1.00  0.00     0.000 C 
BRANCH   3   4
ATOM      4  C   UNL     1      22.406  69.383  18.391  1.00  0.00     0.000 C 
BRANCH   4   5
ATOM      5  C   UNL     1      22.696  68.062  17.656  1.00  0.00     0.000 C 
BRANCH   5   6
ATOM      6  C   UNL     1      21.890  66.851  18.160  1.00  0.00     0.006 C 
BRANCH   6   7
ATOM      7  C   UNL     1      20.787  67.239  19.154  1.00  0.00     0.053 C 
BRANCH   7   8
ATOM      8  C   UNL     1      19.438  67.065  18.531  1.00  0.00     0.041 C 
ATOM      9  O   UNL     1      18.772  68.072  18.172  1.00  0.00    -0.550 OA
ATOM     10  O   UNL     1      18.939  65.790  18.296  1.00  0.00    -0.550 OA
ENDBRANCH   7   8
ENDBRANCH   6   7
ENDBRANCH   5   6
ENDBRANCH   4   5
ENDBRANCH   3   4
ENDBRANCH   2   3
ENDBRANCH   1   2
BRANCH   1  11
ATOM     11  C   UNL     1      22.578  72.394  15.378  1.00  0.00     0.000 C 
BRANCH  11  12
ATOM     12  C   UNL     1      23.763  72.722  14.443  1.00  0.00     0.000 C 
BRANCH  12  13
ATOM     13  C   UNL     1      23.754  71.914  13.133  1.00  0.00     0.000 C 
BRANCH  13  14
ATOM     14  C   UNL     1      23.847  72.801  11.884  1.00  0.00     0.000 C 
BRANCH  14  15
ATOM     15  C   UNL     1      25.179  72.586  11.155  1.00  0.00     0.000 C 
BRANCH  15  16
ATOM     16  C   UNL     1      25.813  71.244  11.553  1.00  0.00     0.006 C 
BRANCH  16  17
ATOM     17  C   UNL     1      27.343  71.273  11.454  1.00  0.00     0.053 C 
BRANCH  17  18
ATOM     18  C   UNL     1      27.975  71.717  12.737  1.00  0.00     0.041 C 
ATOM     19  O   UNL     1      29.226  71.832  12.822  1.00  0.00    -0.550 OA
ATOM     20  O   UNL     1      27.184  71.971  13.852  1.00  0.00    -0.550 OA
ENDBRANCH  17  18
ENDBRANCH  16  17
ENDBRANCH  15  16
ENDBRANCH  14  15
ENDBRANCH  13  14
ENDBRANCH  12  13
ENDBRANCH  11  12
ENDBRANCH   1  11
TORSDOF 15
ENDMDL
MODEL 7
REMARK VINA RESULT:    -2.643      2.453      6.336
REMARK INTER + INTRA:          -7.664
REMARK INTER:                  -5.714
REMARK INTRA:                  -1.950
REMARK UNBOUND:                -2.704
REMARK SMILES O=C([O-])CCCCCCCCCCCCCCC(=O)[O-]
REMARK SMILES IDX 10 1 9 2 8 3 7 4 6 5 5 6 4 7 2 8 1 9 3 10 11 11 12 12 13 13
REMARK SMILES IDX 14 14 15 15 16 16 17 17 18 18 19 19 20 20
REMARK H PARENT
REMARK Flexibility Score: inf
ROOT
ATOM      1  C   UNL     1      22.483  68.644  18.072  1.00  0.00     0.000 C 
ENDROOT
BRANCH   1   2
ATOM      2  C   UNL     1      22.412  70.181  18.033  1.00  0.00     0.000 C 
BRANCH   2   3
ATOM      3  C   UNL     1      21.208  70.752  17.262  1.00  0.00     0.000 C 
BRANCH   3   4
ATOM      4  C   UNL     1      20.722  69.819  16.140  1.00  0.00     0.000 C 
BRANCH   4   5
ATOM      5  C   UNL     1      21.371  70.131  14.780  1.00  0.00     0.000 C 
BRANCH   5   6
ATOM      6  C   UNL     1      21.528  71.630  14.466  1.00  0.00     0.006 C 
BRANCH   6   7
ATOM      7  C   UNL     1      22.975  72.023  14.141  1.00  0.00     0.053 C 
BRANCH   7   8
ATOM      8  C   UNL     1      23.472  73.039  15.121  1.00  0.00     0.041 C 
ATOM      9  O   UNL     1      24.117  72.674  16.140  1.00  0.00    -0.550 OA
ATOM     10  O   UNL     1      23.270  74.392  14.884  1.00  0.00    -0.550 OA
ENDBRANCH   7   8
ENDBRANCH   6   7
ENDBRANCH   5   6
ENDBRANCH   4   5
ENDBRANCH   3   4
ENDBRANCH   2   3
ENDBRANCH   1   2
BRANCH   1  11
ATOM     11  C   UNL     1      21.805  68.043  19.316  1.00  0.00     0.000 C 
BRANCH  11  12
ATOM     12  C   UNL     1      20.548  67.222  18.952  1.00  0.00     0.000 C 
BRANCH  12  13
ATOM     13  C   UNL     1      20.819  65.714  18.810  1.00  0.00     0.000 C 
BRANCH  13  14
ATOM     14  C   UNL     1      20.145  65.099  17.575  1.00  0.00     0.000 C 
BRANCH  14  15
ATOM     15  C   UNL     1      19.902  66.162  16.497  1.00  0.00     0.000 C 
BRANCH  15  16
ATOM     16  C   UNL     1      21.082  66.230  15.515  1.00  0.00     0.006 C 
BRANCH  16  17
ATOM     17  C   UNL     1      21.912  64.941  15.514  1.00  0.00     0.053 C 
BRANCH  17  18
ATOM     18  C   UNL     1      23.382  65.225  15.553  1.00  0.00     0.041 C 
ATOM     19  O   UNL     1      23.909  65.697  16.594  1.00  0.00    -0.550 OA
ATOM     20  O   UNL     1      24.164  65.002  14.426  1.00  0.00    -0.550 OA
ENDBRANCH  17  18
ENDBRANCH  16  17
ENDBRANCH  15  16
ENDBRANCH  14  15
ENDBRANCH  13  14
ENDBRANCH  12  13
ENDBRANCH  11  12
ENDBRANCH   1  11
TORSDOF 15
ENDMDL
MODEL 8
REMARK VINA RESULT:    -2.549      1.736      6.834
REMARK INTER + INTRA:          -7.489
REMARK INTER:                  -5.350
REMARK INTRA:                  -2.139
REMARK UNBOUND:                -2.704
REMARK SMILES O=C([O-])CCCCCCCCCCCCCCC(=O)[O-]
REMARK SMILES IDX 10 1 9 2 8 3 7 4 6 5 5 6 4 7 2 8 1 9 3 10 11 11 12 12 13 13
REMARK SMILES IDX 14 14 15 15 16 16 17 17 18 18 19 19 20 20
REMARK H PARENT
REMARK Flexibility Score: inf
ROOT
ATOM      1  C   UNL     1      19.188  69.523  16.177  1.00  0.00     0.000 C 
ENDROOT
BRANCH   1   2
ATOM      2  C   UNL     1      18.134  70.411  15.490  1.00  0.00     0.000 C 
BRANCH   2   3
ATOM      3  C   UNL     1      18.707  71.620  14.728  1.00  0.00     0.000 C 
BRANCH   3   4
ATOM      4  C   UNL     1      19.220  72.727  15.666  1.00  0.00     0.000 C 
BRANCH   4   5
ATOM      5  C   UNL     1      19.914  73.875  14.912  1.00  0.00     0.000 C 
BRANCH   5   6
ATOM      6  C   UNL     1      21.448  73.897  15.036  1.00  0.00     0.006 C 
BRANCH   6   7
ATOM      7  C   UNL     1      22.137  72.892  14.103  1.00  0.00     0.053 C 
BRANCH   7   8
ATOM      8  C   UNL     1      23.542  72.640  14.553  1.00  0.00     0.041 C 
ATOM      9  O   UNL     1      23.866  72.837  15.754  1.00  0.00    -0.550 OA
ATOM     10  O   UNL     1      24.478  72.136  13.660  1.00  0.00    -0.550 OA
ENDBRANCH   7   8
ENDBRANCH   6   7
ENDBRANCH   5   6
ENDBRANCH   4   5
ENDBRANCH   3   4
ENDBRANCH   2   3
ENDBRANCH   1   2
BRANCH   1  11
ATOM     11  C   UNL     1      20.390  69.205  15.269  1.00  0.00     0.000 C 
BRANCH  11  12
ATOM     12  C   UNL     1      21.722  69.694  15.878  1.00  0.00     0.000 C 
BRANCH  12  13
ATOM     13  C   UNL     1      21.545  70.494  17.181  1.00  0.00     0.000 C 
BRANCH  13  14
ATOM     14  C   UNL     1      22.419  69.968  18.328  1.00  0.00     0.000 C 
BRANCH  14  15
ATOM     15  C   UNL     1      22.508  68.438  18.293  1.00  0.00     0.000 C 
BRANCH  15  16
ATOM     16  C   UNL     1      21.394  67.801  19.138  1.00  0.00     0.006 C 
BRANCH  16  17
ATOM     17  C   UNL     1      20.551  66.806  18.331  1.00  0.00     0.053 C 
BRANCH  17  18
ATOM     18  C   UNL     1      19.157  66.696  18.867  1.00  0.00     0.041 C 
ATOM     19  O   UNL     1      18.525  67.730  19.206  1.00  0.00    -0.550 OA
ATOM     20  O   UNL     1      18.568  65.447  19.025  1.00  0.00    -0.550 OA
ENDBRANCH  17  18
ENDBRANCH  16  17
ENDBRANCH  15  16
ENDBRANCH  14  15
ENDBRANCH  13  14
ENDBRANCH  12  13
ENDBRANCH  11  12
ENDBRANCH   1  11
TORSDOF 15
ENDMDL
MODEL 9
REMARK VINA RESULT:    -2.535      2.321      3.327
REMARK INTER + INTRA:          -7.463
REMARK INTER:                  -5.130
REMARK INTRA:                  -2.333
REMARK UNBOUND:                -2.704
REMARK SMILES O=C([O-])CCCCCCCCCCCCCCC(=O)[O-]
REMARK SMILES IDX 10 1 9 2 8 3 7 4 6 5 5 6 4 7 2 8 1 9 3 10 11 11 12 12 13 13
REMARK SMILES IDX 14 14 15 15 16 16 17 17 18 18 19 19 20 20
REMARK H PARENT
REMARK Flexibility Score: inf
ROOT
ATOM      1  C   UNL     1      19.378  66.578  16.086  1.00  0.00     0.000 C 
ENDROOT
BRANCH   1   2
ATOM      2  C   UNL     1      19.252  66.538  17.620  1.00  0.00     0.000 C 
BRANCH   2   3
ATOM      3  C   UNL     1      19.550  67.872  18.328  1.00  0.00     0.000 C 
BRANCH   3   4
ATOM      4  C   UNL     1      20.905  67.870  19.058  1.00  0.00     0.000 C 
BRANCH   4   5
ATOM      5  C   UNL     1      22.007  68.606  18.275  1.00  0.00     0.000 C 
BRANCH   5   6
ATOM      6  C   UNL     1      23.072  67.692  17.643  1.00  0.00     0.006 C 
BRANCH   6   7
ATOM      7  C   UNL     1      22.888  66.214  18.015  1.00  0.00     0.053 C 
BRANCH   7   8
ATOM      8  C   UNL     1      23.310  65.334  16.880  1.00  0.00     0.041 C 
ATOM      9  O   UNL     1      22.494  65.048  15.964  1.00  0.00    -0.550 OA
ATOM     10  O   UNL     1      24.618  64.875  16.805  1.00  0.00    -0.550 OA
ENDBRANCH   7   8
ENDBRANCH   6   7
ENDBRANCH   5   6
ENDBRANCH   4   5
ENDBRANCH   3   4
ENDBRANCH   2   3
ENDBRANCH   1   2
BRANCH   1  11
ATOM     11  C   UNL     1      19.487  68.010  15.530  1.00  0.00     0.000 C 
BRANCH  11  12
ATOM     12  C   UNL     1      20.776  68.215  14.706  1.00  0.00     0.000 C 
BRANCH  12  13
ATOM     13  C   UNL     1      21.294  69.664  14.724  1.00  0.00     0.000 C 
BRANCH  13  14
ATOM     14  C   UNL     1      20.389  70.611  15.524  1.00  0.00     0.000 C 
BRANCH  14  15
ATOM     15  C   UNL     1      21.120  71.917  15.859  1.00  0.00     0.000 C 
BRANCH  15  16
ATOM     16  C   UNL     1      22.627  71.788  15.589  1.00  0.00     0.006 C 
BRANCH  16  17
ATOM     17  C   UNL     1      23.137  72.862  14.621  1.00  0.00     0.053 C 
BRANCH  17  18
ATOM     18  C   UNL     1      23.832  72.260  13.439  1.00  0.00     0.041 C 
ATOM     19  O   UNL     1      23.176  71.937  12.415  1.00  0.00    -0.550 OA
ATOM     20  O   UNL     1      25.201  72.023  13.482  1.00  0.00    -0.550 OA
ENDBRANCH  17  18
ENDBRANCH  16  17
ENDBRANCH  15  16
ENDBRANCH  14  15
ENDBRANCH  13  14
ENDBRANCH  12  13
ENDBRANCH  11  12
ENDBRANCH   1  11
TORSDOF 15
ENDMDL
