MODEL 1
REMARK VINA RESULT:    -4.635      0.000      0.000
REMARK INTER + INTRA:         -10.380
REMARK INTER:                  -8.971
REMARK INTRA:                  -1.410
REMARK UNBOUND:                -1.410
REMARK SMILES CCCCCCCCCCCCCCCCCC(=O)[O-]
REMARK SMILES IDX 10 1 11 2 12 3 13 4 14 5 15 6 16 7 17 8 18 9 19 10 20 11
REMARK SMILES IDX 9 12 8 13 7 14 6 15 5 16 4 17 3 18 2 19 1 20
REMARK H PARENT
REMARK Flexibility Score: inf
ROOT
ATOM      1  C   UNL     1       4.928 -36.128  21.284  1.00  0.00     0.000 C 
ENDROOT
BRANCH   1   2
ATOM      2  C   UNL     1       6.093 -35.750  22.207  1.00  0.00     0.000 C 
BRANCH   2   3
ATOM      3  C   UNL     1       5.578 -35.182  23.538  1.00  0.00     0.000 C 
BRANCH   3   4
ATOM      4  C   UNL     1       6.010 -36.026  24.748  1.00  0.00     0.000 C 
BRANCH   4   5
ATOM      5  C   UNL     1       6.074 -37.530  24.428  1.00  0.00     0.000 C 
BRANCH   5   6
ATOM      6  C   UNL     1       4.943 -38.324  25.101  1.00  0.00     0.000 C 
BRANCH   6   7
ATOM      7  C   UNL     1       4.547 -39.579  24.304  1.00  0.00     0.006 C 
BRANCH   7   8
ATOM      8  C   UNL     1       5.100 -39.554  22.873  1.00  0.00     0.053 C 
BRANCH   8   9
ATOM      9  C   UNL     1       5.688 -40.875  22.482  1.00  0.00     0.041 C 
ATOM     10  O   UNL     1       6.125 -41.053  21.315  1.00  0.00    -0.550 OA
ATOM     11  O   UNL     1       5.786 -41.897  23.418  1.00  0.00    -0.550 OA
ENDBRANCH   8   9
ENDBRANCH   7   8
ENDBRANCH   6   7
ENDBRANCH   5   6
ENDBRANCH   4   5
ENDBRANCH   3   4
ENDBRANCH   2   3
ENDBRANCH   1   2
BRANCH   1  12
ATOM     12  C   UNL     1       5.443 -36.673  19.943  1.00  0.00     0.000 C 
BRANCH  12  13
ATOM     13  C   UNL     1       4.959 -38.104  19.659  1.00  0.00    -0.000 C 
BRANCH  13  14
ATOM     14  C   UNL     1       3.474 -38.156  19.263  1.00  0.00    -0.000 C 
BRANCH  14  15
ATOM     15  C   UNL     1       3.191 -37.475  17.912  1.00  0.00    -0.000 C 
BRANCH  15  16
ATOM     16  C   UNL     1       1.810 -37.783  17.295  1.00  0.00    -0.000 C 
BRANCH  16  17
ATOM     17  C   UNL     1       1.679 -37.464  15.795  1.00  0.00    -0.000 C 
BRANCH  17  18
ATOM     18  C   UNL     1       2.906 -36.730  15.231  1.00  0.00    -0.000 C 
BRANCH  18  19
ATOM     19  C   UNL     1       3.589 -37.565  14.142  1.00  0.00    -0.003 C 
ATOM     20  C   UNL     1       3.689 -39.032  14.554  1.00  0.00     0.004 C 
ENDBRANCH  18  19
ENDBRANCH  17  18
ENDBRANCH  16  17
ENDBRANCH  15  16
ENDBRANCH  14  15
ENDBRANCH  13  14
ENDBRANCH  12  13
ENDBRANCH   1  12
TORSDOF 16
ENDMDL
MODEL 2
REMARK VINA RESULT:    -3.740      3.152      7.131
REMARK INTER + INTRA:          -8.648
REMARK INTER:                  -7.993
REMARK INTRA:                  -0.655
REMARK UNBOUND:                -1.410
REMARK SMILES CCCCCCCCCCCCCCCCCC(=O)[O-]
REMARK SMILES IDX 10 1 11 2 12 3 13 4 14 5 15 6 16 7 17 8 18 9 19 10 20 11
REMARK SMILES IDX 9 12 8 13 7 14 6 15 5 16 4 17 3 18 2 19 1 20
REMARK H PARENT
REMARK Flexibility Score: inf
ROOT
ATOM      1  C   UNL     1       5.186 -35.619  22.144  1.00  0.00     0.000 C 
ENDROOT
BRANCH   1   2
ATOM      2  C   UNL     1       6.122 -36.115  21.035  1.00  0.00     0.000 C 
BRANCH   2   3
ATOM      3  C   UNL     1       5.359 -36.309  19.716  1.00  0.00     0.000 C 
BRANCH   3   4
ATOM      4  C   UNL     1       3.945 -36.872  19.928  1.00  0.00     0.000 C 
BRANCH   4   5
ATOM      5  C   UNL     1       3.558 -37.914  18.864  1.00  0.00     0.000 C 
BRANCH   5   6
ATOM      6  C   UNL     1       2.074 -37.835  18.473  1.00  0.00     0.000 C 
BRANCH   6   7
ATOM      7  C   UNL     1       1.836 -38.158  16.988  1.00  0.00     0.006 C 
BRANCH   7   8
ATOM      8  C   UNL     1       3.141 -38.171  16.183  1.00  0.00     0.053 C 
BRANCH   8   9
ATOM      9  C   UNL     1       2.956 -37.585  14.816  1.00  0.00     0.041 C 
ATOM     10  O   UNL     1       3.846 -37.733  13.938  1.00  0.00    -0.550 OA
ATOM     11  O   UNL     1       1.785 -36.907  14.503  1.00  0.00    -0.550 OA
ENDBRANCH   8   9
ENDBRANCH   7   8
ENDBRANCH   6   7
ENDBRANCH   5   6
ENDBRANCH   4   5
ENDBRANCH   3   4
ENDBRANCH   2   3
ENDBRANCH   1   2
BRANCH   1  12
ATOM     12  C   UNL     1       5.967 -34.850  23.220  1.00  0.00     0.000 C 
BRANCH  12  13
ATOM     13  C   UNL     1       5.727 -35.400  24.635  1.00  0.00    -0.000 C 
BRANCH  13  14
ATOM     14  C   UNL     1       6.086 -36.891  24.757  1.00  0.00    -0.000 C 
BRANCH  14  15
ATOM     15  C   UNL     1       4.981 -37.818  24.220  1.00  0.00    -0.000 C 
BRANCH  15  16
ATOM     16  C   UNL     1       5.352 -39.314  24.154  1.00  0.00    -0.000 C 
BRANCH  16  17
ATOM     17  C   UNL     1       4.688 -40.102  23.010  1.00  0.00    -0.000 C 
BRANCH  17  18
ATOM     18  C   UNL     1       5.643 -40.368  21.837  1.00  0.00    -0.000 C 
BRANCH  18  19
ATOM     19  C   UNL     1       6.116 -41.827  21.837  1.00  0.00    -0.003 C 
ATOM     20  C   UNL     1       5.972 -42.452  23.222  1.00  0.00     0.004 C 
ENDBRANCH  18  19
ENDBRANCH  17  18
ENDBRANCH  16  17
ENDBRANCH  15  16
ENDBRANCH  14  15
ENDBRANCH  13  14
ENDBRANCH  12  13
ENDBRANCH   1  12
TORSDOF 16
ENDMDL
MODEL 3
REMARK VINA RESULT:    -3.680      2.167      6.754
REMARK INTER + INTRA:          -8.531
REMARK INTER:                  -6.906
REMARK INTRA:                  -1.625
REMARK UNBOUND:                -1.410
REMARK SMILES CCCCCCCCCCCCCCCCCC(=O)[O-]
REMARK SMILES IDX 10 1 11 2 12 3 13 4 14 5 15 6 16 7 17 8 18 9 19 10 20 11
REMARK SMILES IDX 9 12 8 13 7 14 6 15 5 16 4 17 3 18 2 19 1 20
REMARK H PARENT
REMARK Flexibility Score: inf
ROOT
ATOM      1  C   UNL     1       4.131 -35.990  21.070  1.00  0.00     0.000 C 
ENDROOT
BRANCH   1   2
ATOM      2  C   UNL     1       5.255 -36.485  20.152  1.00  0.00     0.000 C 
BRANCH   2   3
ATOM      3  C   UNL     1       5.655 -35.402  19.139  1.00  0.00     0.000 C 
BRANCH   3   4
ATOM      4  C   UNL     1       4.566 -35.146  18.085  1.00  0.00     0.000 C 
BRANCH   4   5
ATOM      5  C   UNL     1       4.137 -36.430  17.354  1.00  0.00     0.000 C 
BRANCH   5   6
ATOM      6  C   UNL     1       2.943 -36.202  16.414  1.00  0.00     0.000 C 
BRANCH   6   7
ATOM      7  C   UNL     1       1.769 -37.152  16.708  1.00  0.00     0.006 C 
BRANCH   7   8
ATOM      8  C   UNL     1       2.220 -38.414  17.454  1.00  0.00     0.053 C 
BRANCH   8   9
ATOM      9  C   UNL     1       1.618 -38.494  18.824  1.00  0.00     0.041 C 
ATOM     10  O   UNL     1       2.360 -38.601  19.836  1.00  0.00    -0.550 OA
ATOM     11  O   UNL     1       0.241 -38.413  18.984  1.00  0.00    -0.550 OA
ENDBRANCH   8   9
ENDBRANCH   7   8
ENDBRANCH   6   7
ENDBRANCH   5   6
ENDBRANCH   4   5
ENDBRANCH   3   4
ENDBRANCH   2   3
ENDBRANCH   1   2
BRANCH   1  12
ATOM     12  C   UNL     1       4.703 -35.367  22.352  1.00  0.00     0.000 C 
BRANCH  12  13
ATOM     13  C   UNL     1       5.978 -36.074  22.839  1.00  0.00    -0.000 C 
BRANCH  13  14
ATOM     14  C   UNL     1       5.991 -36.284  24.363  1.00  0.00    -0.000 C 
BRANCH  14  15
ATOM     15  C   UNL     1       4.889 -37.245  24.844  1.00  0.00    -0.000 C 
BRANCH  15  16
ATOM     16  C   UNL     1       5.330 -38.712  25.029  1.00  0.00    -0.000 C 
BRANCH  16  17
ATOM     17  C   UNL     1       4.729 -39.707  24.020  1.00  0.00    -0.000 C 
BRANCH  17  18
ATOM     18  C   UNL     1       4.821 -39.213  22.568  1.00  0.00    -0.000 C 
BRANCH  18  19
ATOM     19  C   UNL     1       5.522 -40.249  21.681  1.00  0.00    -0.003 C 
ATOM     20  C   UNL     1       5.787 -41.541  22.449  1.00  0.00     0.004 C 
ENDBRANCH  18  19
ENDBRANCH  17  18
ENDBRANCH  16  17
ENDBRANCH  15  16
ENDBRANCH  14  15
ENDBRANCH  13  14
ENDBRANCH  12  13
ENDBRANCH   1  12
TORSDOF 16
ENDMDL
MODEL 4
REMARK VINA RESULT:    -3.620      2.830      6.766
REMARK INTER + INTRA:          -8.416
REMARK INTER:                  -6.766
REMARK INTRA:                  -1.650
REMARK UNBOUND:                -1.410
REMARK SMILES CCCCCCCCCCCCCCCCCC(=O)[O-]
REMARK SMILES IDX 10 1 11 2 12 3 13 4 14 5 15 6 16 7 17 8 18 9 19 10 20 11
REMARK SMILES IDX 9 12 8 13 7 14 6 15 5 16 4 17 3 18 2 19 1 20
REMARK H PARENT
REMARK Flexibility Score: inf
ROOT
ATOM      1  C   UNL     1       4.727 -35.252  22.885  1.00  0.00     0.000 C 
ENDROOT
BRANCH   1   2
ATOM      2  C   UNL     1       4.685 -35.796  21.451  1.00  0.00     0.000 C 
BRANCH   2   3
ATOM      3  C   UNL     1       6.098 -35.880  20.854  1.00  0.00     0.000 C 
BRANCH   3   4
ATOM      4  C   UNL     1       6.094 -35.842  19.318  1.00  0.00     0.000 C 
BRANCH   4   5
ATOM      5  C   UNL     1       4.864 -35.113  18.747  1.00  0.00     0.000 C 
BRANCH   5   6
ATOM      6  C   UNL     1       4.088 -35.970  17.734  1.00  0.00     0.000 C 
BRANCH   6   7
ATOM      7  C   UNL     1       3.707 -37.350  18.296  1.00  0.00     0.006 C 
BRANCH   7   8
ATOM      8  C   UNL     1       2.346 -37.830  17.777  1.00  0.00     0.053 C 
BRANCH   8   9
ATOM      9  C   UNL     1       2.259 -37.743  16.284  1.00  0.00     0.041 C 
ATOM     10  O   UNL     1       1.426 -36.969  15.742  1.00  0.00    -0.550 OA
ATOM     11  O   UNL     1       3.122 -38.489  15.492  1.00  0.00    -0.550 OA
ENDBRANCH   8   9
ENDBRANCH   7   8
ENDBRANCH   6   7
ENDBRANCH   5   6
ENDBRANCH   4   5
ENDBRANCH   3   4
ENDBRANCH   2   3
ENDBRANCH   1   2
BRANCH   1  12
ATOM     12  C   UNL     1       6.116 -35.453  23.509  1.00  0.00     0.000 C 
BRANCH  12  13
ATOM     13  C   UNL     1       6.077 -36.316  24.780  1.00  0.00    -0.000 C 
BRANCH  13  14
ATOM     14  C   UNL     1       4.806 -37.178  24.869  1.00  0.00    -0.000 C 
BRANCH  14  15
ATOM     15  C   UNL     1       4.986 -38.419  25.763  1.00  0.00    -0.000 C 
BRANCH  15  16
ATOM     16  C   UNL     1       4.987 -39.771  25.019  1.00  0.00    -0.000 C 
BRANCH  16  17
ATOM     17  C   UNL     1       4.841 -39.675  23.490  1.00  0.00    -0.000 C 
BRANCH  17  18
ATOM     18  C   UNL     1       5.352 -40.928  22.762  1.00  0.00    -0.000 C 
BRANCH  18  19
ATOM     19  C   UNL     1       5.831 -40.582  21.348  1.00  0.00    -0.003 C 
ATOM     20  C   UNL     1       5.294 -39.225  20.902  1.00  0.00     0.004 C 
ENDBRANCH  18  19
ENDBRANCH  17  18
ENDBRANCH  16  17
ENDBRANCH  15  16
ENDBRANCH  14  15
ENDBRANCH  13  14
ENDBRANCH  12  13
ENDBRANCH   1  12
TORSDOF 16
ENDMDL
MODEL 5
REMARK VINA RESULT:    -3.557      1.344      2.433
REMARK INTER + INTRA:          -8.294
REMARK INTER:                  -6.801
REMARK INTRA:                  -1.494
REMARK UNBOUND:                -1.410
REMARK SMILES CCCCCCCCCCCCCCCCCC(=O)[O-]
REMARK SMILES IDX 10 1 11 2 12 3 13 4 14 5 15 6 16 7 17 8 18 9 19 10 20 11
REMARK SMILES IDX 9 12 8 13 7 14 6 15 5 16 4 17 3 18 2 19 1 20
REMARK H PARENT
REMARK Flexibility Score: inf
ROOT
ATOM      1  C   UNL     1       4.123 -36.158  20.564  1.00  0.00     0.000 C 
ENDROOT
BRANCH   1   2
ATOM      2  C   UNL     1       4.657 -36.726  21.885  1.00  0.00     0.000 C 
BRANCH   2   3
ATOM      3  C   UNL     1       5.786 -35.847  22.445  1.00  0.00     0.000 C 
BRANCH   3   4
ATOM      4  C   UNL     1       5.762 -35.759  23.979  1.00  0.00     0.000 C 
BRANCH   4   5
ATOM      5  C   UNL     1       6.123 -37.094  24.654  1.00  0.00     0.000 C 
BRANCH   5   6
ATOM      6  C   UNL     1       4.884 -37.938  24.992  1.00  0.00     0.000 C 
BRANCH   6   7
ATOM      7  C   UNL     1       5.074 -39.428  24.660  1.00  0.00     0.006 C 
BRANCH   7   8
ATOM      8  C   UNL     1       4.346 -39.831  23.371  1.00  0.00     0.053 C 
BRANCH   8   9
ATOM      9  C   UNL     1       5.284 -40.434  22.369  1.00  0.00     0.041 C 
ATOM     10  O   UNL     1       5.701 -39.747  21.400  1.00  0.00    -0.550 OA
ATOM     11  O   UNL     1       5.724 -41.742  22.528  1.00  0.00    -0.550 OA
ENDBRANCH   8   9
ENDBRANCH   7   8
ENDBRANCH   6   7
ENDBRANCH   5   6
ENDBRANCH   4   5
ENDBRANCH   3   4
ENDBRANCH   2   3
ENDBRANCH   1   2
BRANCH   1  12
ATOM     12  C   UNL     1       5.120 -36.399  19.420  1.00  0.00     0.000 C 
BRANCH  12  13
ATOM     13  C   UNL     1       5.242 -35.193  18.475  1.00  0.00    -0.000 C 
BRANCH  13  14
ATOM     14  C   UNL     1       4.056 -35.084  17.501  1.00  0.00    -0.000 C 
BRANCH  14  15
ATOM     15  C   UNL     1       3.772 -36.401  16.756  1.00  0.00    -0.000 C 
BRANCH  15  16
ATOM     16  C   UNL     1       2.315 -36.587  16.281  1.00  0.00    -0.000 C 
BRANCH  16  17
ATOM     17  C   UNL     1       1.564 -37.766  16.924  1.00  0.00    -0.000 C 
BRANCH  17  18
ATOM     18  C   UNL     1       2.400 -38.500  17.984  1.00  0.00    -0.000 C 
BRANCH  18  19
ATOM     19  C   UNL     1       1.676 -38.517  19.335  1.00  0.00    -0.003 C 
ATOM     20  C   UNL     1       0.192 -38.203  19.169  1.00  0.00     0.004 C 
ENDBRANCH  18  19
ENDBRANCH  17  18
ENDBRANCH  16  17
ENDBRANCH  15  16
ENDBRANCH  14  15
ENDBRANCH  13  14
ENDBRANCH  12  13
ENDBRANCH   1  12
TORSDOF 16
ENDMDL
MODEL 6
REMARK VINA RESULT:    -3.478      2.830      7.676
REMARK INTER + INTRA:          -8.142
REMARK INTER:                  -7.208
REMARK INTRA:                  -0.934
REMARK UNBOUND:                -1.410
REMARK SMILES CCCCCCCCCCCCCCCCCC(=O)[O-]
REMARK SMILES IDX 10 1 11 2 12 3 13 4 14 5 15 6 16 7 17 8 18 9 19 10 20 11
REMARK SMILES IDX 9 12 8 13 7 14 6 15 5 16 4 17 3 18 2 19 1 20
REMARK H PARENT
REMARK Flexibility Score: inf
ROOT
ATOM      1  C   UNL     1       4.072 -36.025  20.523  1.00  0.00     0.000 C 
ENDROOT
BRANCH   1   2
ATOM      2  C   UNL     1       5.340 -36.030  19.659  1.00  0.00     0.000 C 
BRANCH   2   3
ATOM      3  C   UNL     1       5.138 -35.200  18.382  1.00  0.00     0.000 C 
BRANCH   3   4
ATOM      4  C   UNL     1       3.992 -35.731  17.507  1.00  0.00     0.000 C 
BRANCH   4   5
ATOM      5  C   UNL     1       3.662 -37.206  17.795  1.00  0.00     0.000 C 
BRANCH   5   6
ATOM      6  C   UNL     1       2.282 -37.617  17.258  1.00  0.00     0.000 C 
BRANCH   6   7
ATOM      7  C   UNL     1       1.811 -36.728  16.094  1.00  0.00     0.006 C 
BRANCH   7   8
ATOM      8  C   UNL     1       1.916 -37.443  14.741  1.00  0.00     0.053 C 
BRANCH   8   9
ATOM      9  C   UNL     1       3.305 -37.945  14.485  1.00  0.00     0.041 C 
ATOM     10  O   UNL     1       3.613 -39.131  14.772  1.00  0.00    -0.550 OA
ATOM     11  O   UNL     1       4.247 -37.112  13.895  1.00  0.00    -0.550 OA
ENDBRANCH   8   9
ENDBRANCH   7   8
ENDBRANCH   6   7
ENDBRANCH   5   6
ENDBRANCH   4   5
ENDBRANCH   3   4
ENDBRANCH   2   3
ENDBRANCH   1   2
BRANCH   1  12
ATOM     12  C   UNL     1       4.197 -37.021  21.686  1.00  0.00     0.000 C 
BRANCH  12  13
ATOM     13  C   UNL     1       4.947 -38.303  21.292  1.00  0.00    -0.000 C 
BRANCH  13  14
ATOM     14  C   UNL     1       4.550 -39.510  22.160  1.00  0.00    -0.000 C 
BRANCH  14  15
ATOM     15  C   UNL     1       5.427 -39.657  23.416  1.00  0.00    -0.000 C 
BRANCH  15  16
ATOM     16  C   UNL     1       4.738 -39.287  24.746  1.00  0.00    -0.000 C 
BRANCH  16  17
ATOM     17  C   UNL     1       4.828 -37.800  25.137  1.00  0.00    -0.000 C 
BRANCH  17  18
ATOM     18  C   UNL     1       6.063 -37.102  24.547  1.00  0.00    -0.000 C 
BRANCH  18  19
ATOM     19  C   UNL     1       6.121 -35.633  24.982  1.00  0.00    -0.003 C 
ATOM     20  C   UNL     1       6.125 -34.701  23.774  1.00  0.00     0.004 C 
ENDBRANCH  18  19
ENDBRANCH  17  18
ENDBRANCH  16  17
ENDBRANCH  15  16
ENDBRANCH  14  15
ENDBRANCH  13  14
ENDBRANCH  12  13
ENDBRANCH   1  12
TORSDOF 16
ENDMDL
MODEL 7
REMARK VINA RESULT:    -3.426      2.889      7.699
REMARK INTER + INTRA:          -8.041
REMARK INTER:                  -6.882
REMARK INTRA:                  -1.159
REMARK UNBOUND:                -1.410
REMARK SMILES CCCCCCCCCCCCCCCCCC(=O)[O-]
REMARK SMILES IDX 10 1 11 2 12 3 13 4 14 5 15 6 16 7 17 8 18 9 19 10 20 11
REMARK SMILES IDX 9 12 8 13 7 14 6 15 5 16 4 17 3 18 2 19 1 20
REMARK H PARENT
REMARK Flexibility Score: inf
ROOT
ATOM      1  C   UNL     1       4.711 -36.305  20.296  1.00  0.00     0.000 C 
ENDROOT
BRANCH   1   2
ATOM      2  C   UNL     1       4.605 -37.415  19.243  1.00  0.00     0.000 C 
BRANCH   2   3
ATOM      3  C   UNL     1       3.392 -38.318  19.515  1.00  0.00     0.000 C 
BRANCH   3   4
ATOM      4  C   UNL     1       2.200 -38.000  18.599  1.00  0.00     0.000 C 
BRANCH   4   5
ATOM      5  C   UNL     1       2.588 -37.980  17.110  1.00  0.00     0.000 C 
BRANCH   5   6
ATOM      6  C   UNL     1       2.008 -36.766  16.366  1.00  0.00     0.000 C 
BRANCH   6   7
ATOM      7  C   UNL     1       2.358 -36.767  14.868  1.00  0.00     0.006 C 
BRANCH   7   8
ATOM      8  C   UNL     1       2.502 -38.188  14.309  1.00  0.00     0.053 C 
BRANCH   8   9
ATOM      9  C   UNL     1       3.935 -38.542  14.054  1.00  0.00     0.041 C 
ATOM     10  O   UNL     1       4.284 -39.749  13.967  1.00  0.00    -0.550 OA
ATOM     11  O   UNL     1       4.878 -37.538  13.875  1.00  0.00    -0.550 OA
ENDBRANCH   8   9
ENDBRANCH   7   8
ENDBRANCH   6   7
ENDBRANCH   5   6
ENDBRANCH   4   5
ENDBRANCH   3   4
ENDBRANCH   2   3
ENDBRANCH   1   2
BRANCH   1  12
ATOM     12  C   UNL     1       5.794 -36.634  21.334  1.00  0.00     0.000 C 
BRANCH  12  13
ATOM     13  C   UNL     1       6.091 -35.456  22.276  1.00  0.00    -0.000 C 
BRANCH  13  14
ATOM     14  C   UNL     1       5.668 -35.741  23.728  1.00  0.00    -0.000 C 
BRANCH  14  15
ATOM     15  C   UNL     1       4.688 -36.922  23.844  1.00  0.00    -0.000 C 
BRANCH  15  16
ATOM     16  C   UNL     1       5.018 -37.944  24.952  1.00  0.00    -0.000 C 
BRANCH  16  17
ATOM     17  C   UNL     1       5.205 -39.394  24.469  1.00  0.00    -0.000 C 
BRANCH  17  18
ATOM     18  C   UNL     1       4.942 -39.560  22.964  1.00  0.00    -0.000 C 
BRANCH  18  19
ATOM     19  C   UNL     1       5.345 -40.961  22.490  1.00  0.00    -0.003 C 
ATOM     20  C   UNL     1       5.695 -41.862  23.671  1.00  0.00     0.004 C 
ENDBRANCH  18  19
ENDBRANCH  17  18
ENDBRANCH  16  17
ENDBRANCH  15  16
ENDBRANCH  14  15
ENDBRANCH  13  14
ENDBRANCH  12  13
ENDBRANCH   1  12
TORSDOF 16
ENDMDL
MODEL 8
REMARK VINA RESULT:    -3.351      2.082      3.016
REMARK INTER + INTRA:          -7.895
REMARK INTER:                  -6.678
REMARK INTRA:                  -1.217
REMARK UNBOUND:                -1.410
REMARK SMILES CCCCCCCCCCCCCCCCCC(=O)[O-]
REMARK SMILES IDX 10 1 11 2 12 3 13 4 14 5 15 6 16 7 17 8 18 9 19 10 20 11
REMARK SMILES IDX 9 12 8 13 7 14 6 15 5 16 4 17 3 18 2 19 1 20
REMARK H PARENT
REMARK Flexibility Score: inf
ROOT
ATOM      1  C   UNL     1       6.088 -35.986  20.776  1.00  0.00     0.000 C 
ENDROOT
BRANCH   1   2
ATOM      2  C   UNL     1       4.662 -36.215  21.292  1.00  0.00     0.000 C 
BRANCH   2   3
ATOM      3  C   UNL     1       4.221 -37.669  21.064  1.00  0.00     0.000 C 
BRANCH   3   4
ATOM      4  C   UNL     1       5.405 -38.610  20.795  1.00  0.00     0.000 C 
BRANCH   4   5
ATOM      5  C   UNL     1       5.349 -39.889  21.649  1.00  0.00     0.000 C 
BRANCH   5   6
ATOM      6  C   UNL     1       4.332 -39.788  22.797  1.00  0.00     0.000 C 
BRANCH   6   7
ATOM      7  C   UNL     1       5.005 -39.638  24.172  1.00  0.00     0.006 C 
BRANCH   7   8
ATOM      8  C   UNL     1       5.876 -38.378  24.255  1.00  0.00     0.053 C 
BRANCH   8   9
ATOM      9  C   UNL     1       5.188 -37.276  25.004  1.00  0.00     0.041 C 
ATOM     10  O   UNL     1       4.326 -37.548  25.880  1.00  0.00    -0.550 OA
ATOM     11  O   UNL     1       5.528 -35.952  24.759  1.00  0.00    -0.550 OA
ENDBRANCH   8   9
ENDBRANCH   7   8
ENDBRANCH   6   7
ENDBRANCH   5   6
ENDBRANCH   4   5
ENDBRANCH   3   4
ENDBRANCH   2   3
ENDBRANCH   1   2
BRANCH   1  12
ATOM     12  C   UNL     1       6.091 -35.730  19.262  1.00  0.00     0.000 C 
BRANCH  12  13
ATOM     13  C   UNL     1       4.763 -35.142  18.757  1.00  0.00    -0.000 C 
BRANCH  13  14
ATOM     14  C   UNL     1       4.194 -35.918  17.556  1.00  0.00    -0.000 C 
BRANCH  14  15
ATOM     15  C   UNL     1       3.565 -37.264  17.958  1.00  0.00    -0.000 C 
BRANCH  15  16
ATOM     16  C   UNL     1       2.163 -37.536  17.374  1.00  0.00    -0.000 C 
BRANCH  16  17
ATOM     17  C   UNL     1       2.150 -38.094  15.939  1.00  0.00    -0.000 C 
BRANCH  17  18
ATOM     18  C   UNL     1       2.528 -37.041  14.886  1.00  0.00    -0.000 C 
BRANCH  18  19
ATOM     19  C   UNL     1       3.529 -37.614  13.875  1.00  0.00    -0.003 C 
ATOM     20  C   UNL     1       3.954 -39.028  14.262  1.00  0.00     0.004 C 
ENDBRANCH  18  19
ENDBRANCH  17  18
ENDBRANCH  16  17
ENDBRANCH  15  16
ENDBRANCH  14  15
ENDBRANCH  13  14
ENDBRANCH  12  13
ENDBRANCH   1  12
TORSDOF 16
ENDMDL
MODEL 9
REMARK VINA RESULT:    -3.154      2.278      3.542
REMARK INTER + INTRA:          -7.513
REMARK INTER:                  -6.569
REMARK INTRA:                  -0.944
REMARK UNBOUND:                -1.410
REMARK SMILES CCCCCCCCCCCCCCCCCC(=O)[O-]
REMARK SMILES IDX 10 1 11 2 12 3 13 4 14 5 15 6 16 7 17 8 18 9 19 10 20 11
REMARK SMILES IDX 9 12 8 13 7 14 6 15 5 16 4 17 3 18 2 19 1 20
REMARK H PARENT
REMARK Flexibility Score: inf
ROOT
ATOM      1  C   UNL     1       5.700 -39.455  21.577  1.00  0.00     0.000 C 
ENDROOT
BRANCH   1   2
ATOM      2  C   UNL     1       5.709 -40.904  22.080  1.00  0.00     0.000 C 
BRANCH   2   3
ATOM      3  C   UNL     1       5.141 -40.996  23.504  1.00  0.00     0.000 C 
BRANCH   3   4
ATOM      4  C   UNL     1       4.483 -39.686  23.964  1.00  0.00     0.000 C 
BRANCH   4   5
ATOM      5  C   UNL     1       4.887 -39.291  25.396  1.00  0.00     0.000 C 
BRANCH   5   6
ATOM      6  C   UNL     1       4.884 -37.769  25.611  1.00  0.00     0.000 C 
BRANCH   6   7
ATOM      7  C   UNL     1       6.125 -37.085  25.013  1.00  0.00     0.006 C 
BRANCH   7   8
ATOM      8  C   UNL     1       5.978 -36.837  23.506  1.00  0.00     0.053 C 
BRANCH   8   9
ATOM      9  C   UNL     1       5.469 -35.458  23.217  1.00  0.00     0.041 C 
ATOM     10  O   UNL     1       4.606 -35.277  22.319  1.00  0.00    -0.550 OA
ATOM     11  O   UNL     1       5.922 -34.378  23.965  1.00  0.00    -0.550 OA
ENDBRANCH   8   9
ENDBRANCH   7   8
ENDBRANCH   6   7
ENDBRANCH   5   6
ENDBRANCH   4   5
ENDBRANCH   3   4
ENDBRANCH   2   3
ENDBRANCH   1   2
BRANCH   1  12
ATOM     12  C   UNL     1       5.242 -39.384  20.113  1.00  0.00     0.000 C 
BRANCH  12  13
ATOM     13  C   UNL     1       5.101 -37.940  19.604  1.00  0.00    -0.000 C 
BRANCH  13  14
ATOM     14  C   UNL     1       3.645 -37.445  19.630  1.00  0.00    -0.000 C 
BRANCH  14  15
ATOM     15  C   UNL     1       2.718 -38.268  18.717  1.00  0.00    -0.000 C 
BRANCH  15  16
ATOM     16  C   UNL     1       1.665 -37.450  17.939  1.00  0.00    -0.000 C 
BRANCH  16  17
ATOM     17  C   UNL     1       1.772 -37.538  16.406  1.00  0.00    -0.000 C 
BRANCH  17  18
ATOM     18  C   UNL     1       2.991 -38.349  15.938  1.00  0.00    -0.000 C 
BRANCH  18  19
ATOM     19  C   UNL     1       3.398 -37.951  14.514  1.00  0.00    -0.003 C 
ATOM     20  C   UNL     1       4.283 -39.019  13.877  1.00  0.00     0.004 C 
ENDBRANCH  18  19
ENDBRANCH  17  18
ENDBRANCH  16  17
ENDBRANCH  15  16
ENDBRANCH  14  15
ENDBRANCH  13  14
ENDBRANCH  12  13
ENDBRANCH   1  12
TORSDOF 16
ENDMDL
