MODEL 1
REMARK VINA RESULT:    -8.388      0.000      0.000
REMARK INTER + INTRA:         -12.864
REMARK INTER:                 -11.575
REMARK INTRA:                  -1.289
REMARK UNBOUND:                -1.289
REMARK SMILES CC[C@H](CC[C@H](C)[C@@H]1CC[C@H]2[C@H]3CC=C4C[C@@H](O)CC[C@@]4(C)[C@@H]3CC[C@@]21C)C(C)C
REMARK SMILES IDX 5 1 4 2 3 3 2 4 1 5 28 6 29 7 30 8 6 9 7 10 8 11 9 12 26 13
REMARK SMILES IDX 10 14 11 15 25 16 27 17 12 18 24 19 23 20 13 21 21 22 14 23
REMARK SMILES IDX 15 24 20 25 22 26 16 27 19 28 17 29 18 30
REMARK H PARENT 18 31
REMARK Flexibility Score: inf
ROOT
ATOM      1  C   UNL     1     -12.280 -27.930 -20.381  1.00  0.00     0.004 C 
ENDROOT
BRANCH   1   2
ATOM      2  C   UNL     1     -12.706 -26.448 -20.286  1.00  0.00     0.004 C 
BRANCH   2   3
ATOM      3  C   UNL     1     -14.234 -26.262 -20.067  1.00  0.00    -0.009 C 
BRANCH   3   4
ATOM      4  C   UNL     1     -14.796 -27.407 -19.178  1.00  0.00     0.000 C 
ATOM      5  C   UNL     1     -16.068 -28.055 -19.729  1.00  0.00     0.004 C 
ENDBRANCH   3   4
BRANCH   3   6
ATOM      6  C   UNL     1     -14.587 -24.837 -19.515  1.00  0.00    -0.014 C 
ATOM      7  C   UNL     1     -13.635 -23.750 -20.042  1.00  0.00     0.007 C 
ATOM      8  C   UNL     1     -14.660 -24.775 -17.980  1.00  0.00     0.007 C 
ENDBRANCH   3   6
ENDBRANCH   2   3
ENDBRANCH   1   2
BRANCH   1   9
ATOM      9  C   UNL     1     -12.232 -28.508 -21.830  1.00  0.00    -0.011 C 
ATOM     10  C   UNL     1     -13.420 -29.479 -22.015  1.00  0.00     0.008 C 
BRANCH   9  11
ATOM     11  C   UNL     1     -10.869 -29.193 -22.210  1.00  0.00    -0.002 C 
ATOM     12  C   UNL     1      -9.814 -29.160 -21.066  1.00  0.00     0.005 C 
ATOM     13  C   UNL     1     -10.099 -28.692 -23.511  1.00  0.00    -0.026 C 
ATOM     14  C   UNL     1      -8.455 -28.951 -21.720  1.00  0.00     0.005 C 
ATOM     15  C   UNL     1      -8.815 -28.094 -22.911  1.00  0.00    -0.001 C 
ATOM     16  C   UNL     1     -10.739 -27.574 -24.416  1.00  0.00     0.007 C 
ATOM     17  C   UNL     1      -9.846 -29.969 -24.375  1.00  0.00     0.012 C 
ATOM     18  C   UNL     1      -7.709 -27.667 -23.911  1.00  0.00     0.000 C 
ATOM     19  C   UNL     1      -9.718 -26.580 -25.067  1.00  0.00     0.005 C 
ATOM     20  C   UNL     1      -8.306 -27.192 -25.262  1.00  0.00     0.003 C 
ATOM     21  C   UNL     1      -6.600 -28.688 -24.187  1.00  0.00     0.031 C 
ATOM     22  C   UNL     1      -7.234 -26.351 -26.045  1.00  0.00    -0.008 C 
ATOM     23  C   UNL     1      -5.666 -28.213 -25.285  1.00  0.00    -0.027 C 
ATOM     24  C   UNL     1      -5.959 -27.217 -26.167  1.00  0.00    -0.065 C 
ATOM     25  C   UNL     1      -7.754 -26.046 -27.481  1.00  0.00     0.014 C 
ATOM     26  C   UNL     1      -6.901 -25.019 -25.312  1.00  0.00     0.016 C 
ATOM     27  C   UNL     1      -5.047 -27.065 -27.366  1.00  0.00     0.063 C 
ATOM     28  C   UNL     1      -6.711 -25.437 -28.447  1.00  0.00     0.033 C 
ATOM     29  C   UNL     1      -5.237 -25.720 -28.079  1.00  0.00     0.118 C 
BRANCH  29  30
ATOM     30  O   UNL     1      -4.420 -25.647 -29.219  1.00  0.00    -0.393 OA
ATOM     31  H   UNL     1      -4.505 -26.506 -29.709  1.00  0.00     0.210 HD
ENDBRANCH  29  30
ENDBRANCH   9  11
ENDBRANCH   1   9
TORSDOF 7
ENDMDL
MODEL 2
REMARK VINA RESULT:    -8.365      0.497      1.537
REMARK INTER + INTRA:         -12.833
REMARK INTER:                 -11.427
REMARK INTRA:                  -1.406
REMARK UNBOUND:                -1.289
REMARK SMILES CC[C@H](CC[C@H](C)[C@@H]1CC[C@H]2[C@H]3CC=C4C[C@@H](O)CC[C@@]4(C)[C@@H]3CC[C@@]21C)C(C)C
REMARK SMILES IDX 5 1 4 2 3 3 2 4 1 5 28 6 29 7 30 8 6 9 7 10 8 11 9 12 26 13
REMARK SMILES IDX 10 14 11 15 25 16 27 17 12 18 24 19 23 20 13 21 21 22 14 23
REMARK SMILES IDX 15 24 20 25 22 26 16 27 19 28 17 29 18 30
REMARK H PARENT 18 31
REMARK Flexibility Score: inf
ROOT
ATOM      1  C   UNL     1     -12.121 -27.649 -20.490  1.00  0.00     0.004 C 
ENDROOT
BRANCH   1   2
ATOM      2  C   UNL     1     -12.794 -26.265 -20.628  1.00  0.00     0.004 C 
BRANCH   2   3
ATOM      3  C   UNL     1     -13.936 -26.034 -19.598  1.00  0.00    -0.009 C 
BRANCH   3   4
ATOM      4  C   UNL     1     -13.876 -24.584 -19.041  1.00  0.00     0.000 C 
ATOM      5  C   UNL     1     -14.665 -24.383 -17.744  1.00  0.00     0.004 C 
ENDBRANCH   3   4
BRANCH   3   6
ATOM      6  C   UNL     1     -15.345 -26.402 -20.179  1.00  0.00    -0.014 C 
ATOM      7  C   UNL     1     -15.900 -27.711 -19.590  1.00  0.00     0.007 C 
ATOM      8  C   UNL     1     -15.379 -26.459 -21.716  1.00  0.00     0.007 C 
ENDBRANCH   3   6
ENDBRANCH   2   3
ENDBRANCH   1   2
BRANCH   1   9
ATOM      9  C   UNL     1     -12.183 -28.540 -21.770  1.00  0.00    -0.011 C 
ATOM     10  C   UNL     1     -13.298 -29.595 -21.584  1.00  0.00     0.008 C 
BRANCH   9  11
ATOM     11  C   UNL     1     -10.818 -29.214 -22.158  1.00  0.00    -0.002 C 
ATOM     12  C   UNL     1      -9.755 -29.171 -21.022  1.00  0.00     0.005 C 
ATOM     13  C   UNL     1     -10.061 -28.707 -23.465  1.00  0.00    -0.026 C 
ATOM     14  C   UNL     1      -8.402 -28.951 -21.685  1.00  0.00     0.005 C 
ATOM     15  C   UNL     1      -8.778 -28.098 -22.874  1.00  0.00    -0.001 C 
ATOM     16  C   UNL     1     -10.716 -27.595 -24.367  1.00  0.00     0.007 C 
ATOM     17  C   UNL     1      -9.802 -29.982 -24.330  1.00  0.00     0.012 C 
ATOM     18  C   UNL     1      -7.682 -27.663 -23.882  1.00  0.00     0.000 C 
ATOM     19  C   UNL     1      -9.708 -26.593 -25.025  1.00  0.00     0.005 C 
ATOM     20  C   UNL     1      -8.293 -27.193 -25.230  1.00  0.00     0.003 C 
ATOM     21  C   UNL     1      -6.566 -28.674 -24.165  1.00  0.00     0.031 C 
ATOM     22  C   UNL     1      -7.233 -26.344 -26.021  1.00  0.00    -0.008 C 
ATOM     23  C   UNL     1      -5.645 -28.193 -25.269  1.00  0.00    -0.027 C 
ATOM     24  C   UNL     1      -5.951 -27.200 -26.150  1.00  0.00    -0.065 C 
ATOM     25  C   UNL     1      -7.765 -26.045 -27.453  1.00  0.00     0.014 C 
ATOM     26  C   UNL     1      -6.906 -25.009 -25.291  1.00  0.00     0.016 C 
ATOM     27  C   UNL     1      -5.049 -27.040 -27.356  1.00  0.00     0.063 C 
ATOM     28  C   UNL     1      -6.734 -25.428 -28.427  1.00  0.00     0.033 C 
ATOM     29  C   UNL     1      -5.255 -25.698 -28.068  1.00  0.00     0.118 C 
BRANCH  29  30
ATOM     30  O   UNL     1      -4.446 -25.619 -29.214  1.00  0.00    -0.393 OA
ATOM     31  H   UNL     1      -5.027 -25.759 -30.006  1.00  0.00     0.210 HD
ENDBRANCH  29  30
ENDBRANCH   9  11
ENDBRANCH   1   9
TORSDOF 7
ENDMDL
MODEL 3
REMARK VINA RESULT:    -8.244      6.768     10.484
REMARK INTER + INTRA:         -12.666
REMARK INTER:                  -9.590
REMARK INTRA:                  -3.077
REMARK UNBOUND:                -1.289
REMARK SMILES CC[C@H](CC[C@H](C)[C@@H]1CC[C@H]2[C@H]3CC=C4C[C@@H](O)CC[C@@]4(C)[C@@H]3CC[C@@]21C)C(C)C
REMARK SMILES IDX 5 1 4 2 3 3 2 4 1 5 28 6 29 7 30 8 6 9 7 10 8 11 9 12 26 13
REMARK SMILES IDX 10 14 11 15 25 16 27 17 12 18 24 19 23 20 13 21 21 22 14 23
REMARK SMILES IDX 15 24 20 25 22 26 16 27 19 28 17 29 18 30
REMARK H PARENT 18 31
REMARK Flexibility Score: inf
ROOT
ATOM      1  C   UNL     1      -3.982 -24.836 -28.966  1.00  0.00     0.004 C 
ENDROOT
BRANCH   1   2
ATOM      2  C   UNL     1      -4.137 -25.531 -27.595  1.00  0.00     0.004 C 
BRANCH   2   3
ATOM      3  C   UNL     1      -4.904 -24.667 -26.554  1.00  0.00    -0.009 C 
BRANCH   3   4
ATOM      4  C   UNL     1      -6.129 -25.448 -26.001  1.00  0.00     0.000 C 
ATOM      5  C   UNL     1      -6.972 -26.128 -27.081  1.00  0.00     0.004 C 
ENDBRANCH   3   4
BRANCH   3   6
ATOM      6  C   UNL     1      -3.964 -24.131 -25.418  1.00  0.00    -0.014 C 
ATOM      7  C   UNL     1      -4.669 -23.114 -24.504  1.00  0.00     0.007 C 
ATOM      8  C   UNL     1      -2.643 -23.542 -25.942  1.00  0.00     0.007 C 
ENDBRANCH   3   6
ENDBRANCH   2   3
ENDBRANCH   1   2
BRANCH   1   9
ATOM      9  C   UNL     1      -5.223 -24.012 -29.430  1.00  0.00    -0.011 C 
ATOM     10  C   UNL     1      -5.671 -24.529 -30.816  1.00  0.00     0.008 C 
BRANCH   9  11
ATOM     11  C   UNL     1      -5.001 -22.456 -29.444  1.00  0.00    -0.002 C 
ATOM     12  C   UNL     1      -3.541 -22.031 -29.111  1.00  0.00     0.005 C 
ATOM     13  C   UNL     1      -5.927 -21.544 -28.524  1.00  0.00    -0.026 C 
ATOM     14  C   UNL     1      -3.625 -20.754 -28.288  1.00  0.00     0.005 C 
ATOM     15  C   UNL     1      -4.911 -20.965 -27.524  1.00  0.00    -0.001 C 
ATOM     16  C   UNL     1      -7.075 -22.203 -27.672  1.00  0.00     0.007 C 
ATOM     17  C   UNL     1      -6.546 -20.469 -29.474  1.00  0.00     0.012 C 
ATOM     18  C   UNL     1      -5.426 -19.857 -26.567  1.00  0.00     0.000 C 
ATOM     19  C   UNL     1      -7.336 -21.538 -26.278  1.00  0.00     0.005 C 
ATOM     20  C   UNL     1      -6.929 -20.041 -26.228  1.00  0.00     0.003 C 
ATOM     21  C   UNL     1      -5.186 -18.407 -27.002  1.00  0.00     0.031 C 
ATOM     22  C   UNL     1      -7.281 -19.219 -24.936  1.00  0.00    -0.008 C 
ATOM     23  C   UNL     1      -5.860 -17.425 -26.062  1.00  0.00    -0.027 C 
ATOM     24  C   UNL     1      -6.844 -17.756 -25.180  1.00  0.00    -0.065 C 
ATOM     25  C   UNL     1      -8.822 -19.235 -24.709  1.00  0.00     0.014 C 
ATOM     26  C   UNL     1      -6.558 -19.784 -23.679  1.00  0.00     0.016 C 
ATOM     27  C   UNL     1      -7.601 -16.617 -24.529  1.00  0.00     0.063 C 
ATOM     28  C   UNL     1      -9.340 -18.269 -23.618  1.00  0.00     0.033 C 
ATOM     29  C   UNL     1      -8.411 -17.074 -23.309  1.00  0.00     0.118 C 
BRANCH  29  30
ATOM     30  O   UNL     1      -9.145 -16.002 -22.775  1.00  0.00    -0.393 OA
ATOM     31  H   UNL     1      -9.558 -16.309 -21.927  1.00  0.00     0.210 HD
ENDBRANCH  29  30
ENDBRANCH   9  11
ENDBRANCH   1   9
TORSDOF 7
ENDMDL
MODEL 4
REMARK VINA RESULT:    -8.066      1.943      4.947
REMARK INTER + INTRA:         -12.421
REMARK INTER:                  -9.965
REMARK INTRA:                  -2.456
REMARK UNBOUND:                -1.289
REMARK SMILES CC[C@H](CC[C@H](C)[C@@H]1CC[C@H]2[C@H]3CC=C4C[C@@H](O)CC[C@@]4(C)[C@@H]3CC[C@@]21C)C(C)C
REMARK SMILES IDX 5 1 4 2 3 3 2 4 1 5 28 6 29 7 30 8 6 9 7 10 8 11 9 12 26 13
REMARK SMILES IDX 10 14 11 15 25 16 27 17 12 18 24 19 23 20 13 21 21 22 14 23
REMARK SMILES IDX 15 24 20 25 22 26 16 27 19 28 17 29 18 30
REMARK H PARENT 18 31
REMARK Flexibility Score: inf
ROOT
ATOM      1  C   UNL     1     -15.274 -26.872 -19.250  1.00  0.00     0.004 C 
ENDROOT
BRANCH   1   2
ATOM      2  C   UNL     1     -14.697 -28.299 -19.389  1.00  0.00     0.004 C 
BRANCH   2   3
ATOM      3  C   UNL     1     -14.891 -28.902 -20.809  1.00  0.00    -0.009 C 
BRANCH   3   4
ATOM      4  C   UNL     1     -13.597 -29.631 -21.269  1.00  0.00     0.000 C 
ATOM      5  C   UNL     1     -13.473 -29.779 -22.787  1.00  0.00     0.004 C 
ENDBRANCH   3   4
BRANCH   3   6
ATOM      6  C   UNL     1     -16.164 -29.814 -20.900  1.00  0.00    -0.014 C 
ATOM      7  C   UNL     1     -15.813 -31.312 -20.938  1.00  0.00     0.007 C 
ATOM      8  C   UNL     1     -17.089 -29.460 -22.076  1.00  0.00     0.007 C 
ENDBRANCH   3   6
ENDBRANCH   2   3
ENDBRANCH   1   2
BRANCH   1   9
ATOM      9  C   UNL     1     -14.206 -25.742 -19.116  1.00  0.00    -0.011 C 
ATOM     10  C   UNL     1     -14.765 -24.641 -18.186  1.00  0.00     0.008 C 
BRANCH   9  11
ATOM     11  C   UNL     1     -13.720 -25.142 -20.484  1.00  0.00    -0.002 C 
ATOM     12  C   UNL     1     -14.736 -25.338 -21.647  1.00  0.00     0.005 C 
ATOM     13  C   UNL     1     -12.314 -25.611 -21.068  1.00  0.00    -0.026 C 
ATOM     14  C   UNL     1     -13.925 -25.607 -22.907  1.00  0.00     0.005 C 
ATOM     15  C   UNL     1     -12.732 -26.349 -22.352  1.00  0.00    -0.001 C 
ATOM     16  C   UNL     1     -11.419 -26.610 -20.243  1.00  0.00     0.007 C 
ATOM     17  C   UNL     1     -11.506 -24.302 -21.338  1.00  0.00     0.012 C 
ATOM     18  C   UNL     1     -11.592 -26.791 -23.306  1.00  0.00     0.000 C 
ATOM     19  C   UNL     1     -10.601 -27.634 -21.100  1.00  0.00     0.005 C 
ATOM     20  C   UNL     1     -10.289 -27.123 -22.531  1.00  0.00     0.003 C 
ATOM     21  C   UNL     1     -11.258 -25.845 -24.464  1.00  0.00     0.031 C 
ATOM     22  C   UNL     1      -9.343 -27.990 -23.439  1.00  0.00    -0.008 C 
ATOM     23  C   UNL     1     -10.037 -26.314 -25.232  1.00  0.00    -0.027 C 
ATOM     24  C   UNL     1      -9.134 -27.220 -24.764  1.00  0.00    -0.065 C 
ATOM     25  C   UNL     1      -7.957 -28.152 -22.747  1.00  0.00     0.014 C 
ATOM     26  C   UNL     1      -9.953 -29.391 -23.732  1.00  0.00     0.016 C 
ATOM     27  C   UNL     1      -7.834 -27.361 -25.529  1.00  0.00     0.063 C 
ATOM     28  C   UNL     1      -6.847 -28.773 -23.627  1.00  0.00     0.033 C 
ATOM     29  C   UNL     1      -7.067 -28.634 -25.150  1.00  0.00     0.118 C 
BRANCH  29  30
ATOM     30  O   UNL     1      -5.841 -28.692 -25.835  1.00  0.00    -0.393 OA
ATOM     31  H   UNL     1      -5.115 -28.608 -25.164  1.00  0.00     0.210 HD
ENDBRANCH  29  30
ENDBRANCH   9  11
ENDBRANCH   1   9
TORSDOF 7
ENDMDL
MODEL 5
REMARK VINA RESULT:    -7.958      6.320     10.545
REMARK INTER + INTRA:         -12.271
REMARK INTER:                  -9.812
REMARK INTRA:                  -2.458
REMARK UNBOUND:                -1.289
REMARK SMILES CC[C@H](CC[C@H](C)[C@@H]1CC[C@H]2[C@H]3CC=C4C[C@@H](O)CC[C@@]4(C)[C@@H]3CC[C@@]21C)C(C)C
REMARK SMILES IDX 5 1 4 2 3 3 2 4 1 5 28 6 29 7 30 8 6 9 7 10 8 11 9 12 26 13
REMARK SMILES IDX 10 14 11 15 25 16 27 17 12 18 24 19 23 20 13 21 21 22 14 23
REMARK SMILES IDX 15 24 20 25 22 26 16 27 19 28 17 29 18 30
REMARK H PARENT 18 31
REMARK Flexibility Score: inf
ROOT
ATOM      1  C   UNL     1      -4.246 -25.704 -28.421  1.00  0.00     0.004 C 
ENDROOT
BRANCH   1   2
ATOM      2  C   UNL     1      -4.650 -25.164 -29.812  1.00  0.00     0.004 C 
BRANCH   2   3
ATOM      3  C   UNL     1      -4.393 -23.639 -29.975  1.00  0.00    -0.009 C 
BRANCH   3   4
ATOM      4  C   UNL     1      -3.301 -23.387 -31.052  1.00  0.00     0.000 C 
ATOM      5  C   UNL     1      -1.990 -22.831 -30.491  1.00  0.00     0.004 C 
ENDBRANCH   3   4
BRANCH   3   6
ATOM      6  C   UNL     1      -5.713 -22.838 -30.251  1.00  0.00    -0.014 C 
ATOM      7  C   UNL     1      -5.472 -21.322 -30.344  1.00  0.00     0.007 C 
ATOM      8  C   UNL     1      -6.831 -23.132 -29.237  1.00  0.00     0.007 C 
ENDBRANCH   3   6
ENDBRANCH   2   3
ENDBRANCH   1   2
BRANCH   1   9
ATOM      9  C   UNL     1      -3.795 -24.615 -27.399  1.00  0.00    -0.011 C 
ATOM     10  C   UNL     1      -2.308 -24.848 -27.050  1.00  0.00     0.008 C 
BRANCH   9  11
ATOM     11  C   UNL     1      -4.681 -24.536 -26.103  1.00  0.00    -0.002 C 
ATOM     12  C   UNL     1      -6.019 -25.325 -26.213  1.00  0.00     0.005 C 
ATOM     13  C   UNL     1      -5.080 -23.102 -25.537  1.00  0.00    -0.026 C 
ATOM     14  C   UNL     1      -7.075 -24.515 -25.474  1.00  0.00     0.005 C 
ATOM     15  C   UNL     1      -6.608 -23.100 -25.722  1.00  0.00    -0.001 C 
ATOM     16  C   UNL     1      -4.537 -21.804 -26.242  1.00  0.00     0.007 C 
ATOM     17  C   UNL     1      -4.636 -23.096 -24.039  1.00  0.00     0.012 C 
ATOM     18  C   UNL     1      -7.387 -21.913 -25.096  1.00  0.00     0.000 C 
ATOM     19  C   UNL     1      -5.526 -20.589 -26.253  1.00  0.00     0.005 C 
ATOM     20  C   UNL     1      -6.539 -20.613 -25.079  1.00  0.00     0.003 C 
ATOM     21  C   UNL     1      -7.981 -22.141 -23.702  1.00  0.00     0.031 C 
ATOM     22  C   UNL     1      -7.484 -19.372 -24.887  1.00  0.00    -0.008 C 
ATOM     23  C   UNL     1      -8.586 -20.868 -23.141  1.00  0.00    -0.027 C 
ATOM     24  C   UNL     1      -8.325 -19.617 -23.613  1.00  0.00    -0.065 C 
ATOM     25  C   UNL     1      -6.627 -18.090 -24.666  1.00  0.00     0.014 C 
ATOM     26  C   UNL     1      -8.425 -19.171 -26.111  1.00  0.00     0.016 C 
ATOM     27  C   UNL     1      -8.781 -18.448 -22.766  1.00  0.00     0.063 C 
ATOM     28  C   UNL     1      -7.415 -16.836 -24.222  1.00  0.00     0.033 C 
ATOM     29  C   UNL     1      -8.772 -17.124 -23.541  1.00  0.00     0.118 C 
BRANCH  29  30
ATOM     30  O   UNL     1      -9.141 -16.060 -22.702  1.00  0.00    -0.393 OA
ATOM     31  H   UNL     1      -8.867 -15.215 -23.145  1.00  0.00     0.210 HD
ENDBRANCH  29  30
ENDBRANCH   9  11
ENDBRANCH   1   9
TORSDOF 7
ENDMDL
MODEL 6
REMARK VINA RESULT:    -7.939      3.908      6.877
REMARK INTER + INTRA:         -12.245
REMARK INTER:                  -9.437
REMARK INTRA:                  -2.808
REMARK UNBOUND:                -1.289
REMARK SMILES CC[C@H](CC[C@H](C)[C@@H]1CC[C@H]2[C@H]3CC=C4C[C@@H](O)CC[C@@]4(C)[C@@H]3CC[C@@]21C)C(C)C
REMARK SMILES IDX 5 1 4 2 3 3 2 4 1 5 28 6 29 7 30 8 6 9 7 10 8 11 9 12 26 13
REMARK SMILES IDX 10 14 11 15 25 16 27 17 12 18 24 19 23 20 13 21 21 22 14 23
REMARK SMILES IDX 15 24 20 25 22 26 16 27 19 28 17 29 18 30
REMARK H PARENT 18 31
REMARK Flexibility Score: inf
ROOT
ATOM      1  C   UNL     1     -13.125 -26.339 -20.147  1.00  0.00     0.004 C 
ENDROOT
BRANCH   1   2
ATOM      2  C   UNL     1     -12.041 -26.264 -21.246  1.00  0.00     0.004 C 
BRANCH   2   3
ATOM      3  C   UNL     1     -11.214 -27.574 -21.381  1.00  0.00    -0.009 C 
BRANCH   3   4
ATOM      4  C   UNL     1      -9.985 -27.345 -22.304  1.00  0.00     0.000 C 
ATOM      5  C   UNL     1      -9.825 -28.403 -23.399  1.00  0.00     0.004 C 
ENDBRANCH   3   4
BRANCH   3   6
ATOM      6  C   UNL     1     -10.821 -28.176 -19.987  1.00  0.00    -0.014 C 
ATOM      7  C   UNL     1      -9.531 -27.554 -19.421  1.00  0.00     0.007 C 
ATOM      8  C   UNL     1     -10.709 -29.710 -19.991  1.00  0.00     0.007 C 
ENDBRANCH   3   6
ENDBRANCH   2   3
ENDBRANCH   1   2
BRANCH   1   9
ATOM      9  C   UNL     1     -14.592 -26.411 -20.674  1.00  0.00    -0.011 C 
ATOM     10  C   UNL     1     -15.501 -25.606 -19.719  1.00  0.00     0.008 C 
BRANCH   9  11
ATOM     11  C   UNL     1     -15.134 -27.871 -20.886  1.00  0.00    -0.002 C 
ATOM     12  C   UNL     1     -14.548 -28.906 -19.881  1.00  0.00     0.005 C 
ATOM     13  C   UNL     1     -14.982 -28.542 -22.322  1.00  0.00    -0.026 C 
ATOM     14  C   UNL     1     -14.354 -30.208 -20.645  1.00  0.00     0.005 C 
ATOM     15  C   UNL     1     -14.017 -29.704 -22.030  1.00  0.00    -0.001 C 
ATOM     16  C   UNL     1     -14.351 -27.719 -23.507  1.00  0.00     0.007 C 
ATOM     17  C   UNL     1     -16.415 -29.011 -22.728  1.00  0.00     0.012 C 
ATOM     18  C   UNL     1     -13.778 -30.720 -23.178  1.00  0.00     0.000 C 
ATOM     19  C   UNL     1     -13.483 -28.552 -24.508  1.00  0.00     0.005 C 
ATOM     20  C   UNL     1     -13.887 -30.049 -24.572  1.00  0.00     0.003 C 
ATOM     21  C   UNL     1     -14.638 -31.988 -23.164  1.00  0.00     0.031 C 
ATOM     22  C   UNL     1     -13.197 -30.960 -25.651  1.00  0.00    -0.008 C 
ATOM     23  C   UNL     1     -14.415 -32.825 -24.410  1.00  0.00    -0.027 C 
ATOM     24  C   UNL     1     -13.835 -32.365 -25.553  1.00  0.00    -0.065 C 
ATOM     25  C   UNL     1     -13.481 -30.394 -27.074  1.00  0.00     0.014 C 
ATOM     26  C   UNL     1     -11.661 -31.059 -25.421  1.00  0.00     0.016 C 
ATOM     27  C   UNL     1     -13.949 -33.236 -26.787  1.00  0.00     0.063 C 
ATOM     28  C   UNL     1     -13.071 -31.316 -28.246  1.00  0.00     0.033 C 
ATOM     29  C   UNL     1     -12.971 -32.816 -27.892  1.00  0.00     0.118 C 
BRANCH  29  30
ATOM     30  O   UNL     1     -13.154 -33.609 -29.038  1.00  0.00    -0.393 OA
ATOM     31  H   UNL     1     -12.480 -34.336 -29.014  1.00  0.00     0.210 HD
ENDBRANCH  29  30
ENDBRANCH   9  11
ENDBRANCH   1   9
TORSDOF 7
ENDMDL
MODEL 7
REMARK VINA RESULT:    -7.927      7.253      9.375
REMARK INTER + INTRA:         -12.228
REMARK INTER:                 -10.527
REMARK INTRA:                  -1.701
REMARK UNBOUND:                -1.289
REMARK SMILES CC[C@H](CC[C@H](C)[C@@H]1CC[C@H]2[C@H]3CC=C4C[C@@H](O)CC[C@@]4(C)[C@@H]3CC[C@@]21C)C(C)C
REMARK SMILES IDX 5 1 4 2 3 3 2 4 1 5 28 6 29 7 30 8 6 9 7 10 8 11 9 12 26 13
REMARK SMILES IDX 10 14 11 15 25 16 27 17 12 18 24 19 23 20 13 21 21 22 14 23
REMARK SMILES IDX 15 24 20 25 22 26 16 27 19 28 17 29 18 30
REMARK H PARENT 18 31
REMARK Flexibility Score: inf
ROOT
ATOM      1  C   UNL     1      -6.087 -18.614 -25.431  1.00  0.00     0.004 C 
ENDROOT
BRANCH   1   2
ATOM      2  C   UNL     1      -6.526 -17.899 -24.133  1.00  0.00     0.004 C 
BRANCH   2   3
ATOM      3  C   UNL     1      -7.134 -18.865 -23.078  1.00  0.00    -0.009 C 
BRANCH   3   4
ATOM      4  C   UNL     1      -8.541 -18.371 -22.639  1.00  0.00     0.000 C 
ATOM      5  C   UNL     1      -8.749 -16.864 -22.801  1.00  0.00     0.004 C 
ENDBRANCH   3   4
BRANCH   3   6
ATOM      6  C   UNL     1      -7.141 -20.355 -23.569  1.00  0.00    -0.014 C 
ATOM      7  C   UNL     1      -8.565 -20.921 -23.707  1.00  0.00     0.007 C 
ATOM      8  C   UNL     1      -6.284 -21.291 -22.699  1.00  0.00     0.007 C 
ENDBRANCH   3   6
ENDBRANCH   2   3
ENDBRANCH   1   2
BRANCH   1   9
ATOM      9  C   UNL     1      -6.694 -18.026 -26.743  1.00  0.00    -0.011 C 
ATOM     10  C   UNL     1      -7.850 -17.071 -26.368  1.00  0.00     0.008 C 
BRANCH   9  11
ATOM     11  C   UNL     1      -7.161 -19.107 -27.783  1.00  0.00    -0.002 C 
ATOM     12  C   UNL     1      -8.223 -20.097 -27.221  1.00  0.00     0.005 C 
ATOM     13  C   UNL     1      -6.059 -20.021 -28.482  1.00  0.00    -0.026 C 
ATOM     14  C   UNL     1      -7.918 -21.464 -27.818  1.00  0.00     0.005 C 
ATOM     15  C   UNL     1      -6.413 -21.417 -27.941  1.00  0.00    -0.001 C 
ATOM     16  C   UNL     1      -4.534 -19.787 -28.166  1.00  0.00     0.007 C 
ATOM     17  C   UNL     1      -6.293 -19.873 -30.019  1.00  0.00     0.012 C 
ATOM     18  C   UNL     1      -5.657 -22.621 -28.563  1.00  0.00     0.000 C 
ATOM     19  C   UNL     1      -3.655 -21.083 -28.134  1.00  0.00     0.005 C 
ATOM     20  C   UNL     1      -4.222 -22.230 -29.009  1.00  0.00     0.003 C 
ATOM     21  C   UNL     1      -6.356 -23.353 -29.712  1.00  0.00     0.031 C 
ATOM     22  C   UNL     1      -3.355 -23.529 -29.186  1.00  0.00    -0.008 C 
ATOM     23  C   UNL     1      -5.458 -24.409 -30.328  1.00  0.00    -0.027 C 
ATOM     24  C   UNL     1      -4.107 -24.465 -30.160  1.00  0.00    -0.065 C 
ATOM     25  C   UNL     1      -1.984 -23.160 -29.827  1.00  0.00     0.014 C 
ATOM     26  C   UNL     1      -3.122 -24.254 -27.828  1.00  0.00     0.016 C 
ATOM     27  C   UNL     1      -3.335 -25.401 -31.066  1.00  0.00     0.063 C 
ATOM     28  C   UNL     1      -1.123 -24.360 -30.284  1.00  0.00     0.033 C 
ATOM     29  C   UNL     1      -1.910 -25.661 -30.560  1.00  0.00     0.118 C 
BRANCH  29  30
ATOM     30  O   UNL     1      -1.210 -26.481 -31.461  1.00  0.00    -0.393 OA
ATOM     31  H   UNL     1      -1.046 -25.954 -32.286  1.00  0.00     0.210 HD
ENDBRANCH  29  30
ENDBRANCH   9  11
ENDBRANCH   1   9
TORSDOF 7
ENDMDL
MODEL 8
REMARK VINA RESULT:    -7.902      5.173     10.413
REMARK INTER + INTRA:         -12.194
REMARK INTER:                  -9.659
REMARK INTRA:                  -2.535
REMARK UNBOUND:                -1.289
REMARK SMILES CC[C@H](CC[C@H](C)[C@@H]1CC[C@H]2[C@H]3CC=C4C[C@@H](O)CC[C@@]4(C)[C@@H]3CC[C@@]21C)C(C)C
REMARK SMILES IDX 5 1 4 2 3 3 2 4 1 5 28 6 29 7 30 8 6 9 7 10 8 11 9 12 26 13
REMARK SMILES IDX 10 14 11 15 25 16 27 17 12 18 24 19 23 20 13 21 21 22 14 23
REMARK SMILES IDX 15 24 20 25 22 26 16 27 19 28 17 29 18 30
REMARK H PARENT 18 31
REMARK Flexibility Score: inf
ROOT
ATOM      1  C   UNL     1      -1.444 -22.815 -28.615  1.00  0.00     0.004 C 
ENDROOT
BRANCH   1   2
ATOM      2  C   UNL     1      -2.564 -22.451 -29.615  1.00  0.00     0.004 C 
BRANCH   2   3
ATOM      3  C   UNL     1      -3.015 -23.652 -30.494  1.00  0.00    -0.009 C 
BRANCH   3   4
ATOM      4  C   UNL     1      -2.404 -24.976 -29.956  1.00  0.00     0.000 C 
ATOM      5  C   UNL     1      -1.287 -25.546 -30.832  1.00  0.00     0.004 C 
ENDBRANCH   3   4
BRANCH   3   6
ATOM      6  C   UNL     1      -4.574 -23.723 -30.650  1.00  0.00    -0.014 C 
ATOM      7  C   UNL     1      -5.027 -24.945 -31.468  1.00  0.00     0.007 C 
ATOM      8  C   UNL     1      -5.192 -22.440 -31.232  1.00  0.00     0.007 C 
ENDBRANCH   3   6
ENDBRANCH   2   3
ENDBRANCH   1   2
BRANCH   1   9
ATOM      9  C   UNL     1      -1.671 -22.303 -27.159  1.00  0.00    -0.011 C 
ATOM     10  C   UNL     1      -0.305 -21.902 -26.557  1.00  0.00     0.008 C 
BRANCH   9  11
ATOM     11  C   UNL     1      -2.432 -23.313 -26.227  1.00  0.00    -0.002 C 
ATOM     12  C   UNL     1      -2.034 -24.800 -26.461  1.00  0.00     0.005 C 
ATOM     13  C   UNL     1      -4.025 -23.298 -26.223  1.00  0.00    -0.026 C 
ATOM     14  C   UNL     1      -3.298 -25.632 -26.295  1.00  0.00     0.005 C 
ATOM     15  C   UNL     1      -4.359 -24.683 -26.804  1.00  0.00    -0.001 C 
ATOM     16  C   UNL     1      -4.799 -22.242 -27.098  1.00  0.00     0.007 C 
ATOM     17  C   UNL     1      -4.447 -23.133 -24.728  1.00  0.00     0.012 C 
ATOM     18  C   UNL     1      -5.849 -25.112 -26.776  1.00  0.00     0.000 C 
ATOM     19  C   UNL     1      -6.143 -22.750 -27.721  1.00  0.00     0.005 C 
ATOM     20  C   UNL     1      -6.802 -23.894 -26.905  1.00  0.00     0.003 C 
ATOM     21  C   UNL     1      -6.295 -25.971 -25.588  1.00  0.00     0.031 C 
ATOM     22  C   UNL     1      -8.230 -24.387 -27.337  1.00  0.00    -0.008 C 
ATOM     23  C   UNL     1      -7.795 -26.200 -25.598  1.00  0.00    -0.027 C 
ATOM     24  C   UNL     1      -8.682 -25.460 -26.320  1.00  0.00    -0.065 C 
ATOM     25  C   UNL     1      -9.236 -23.199 -27.271  1.00  0.00     0.014 C 
ATOM     26  C   UNL     1      -8.221 -24.989 -28.773  1.00  0.00     0.016 C 
ATOM     27  C   UNL     1     -10.151 -25.633 -25.998  1.00  0.00     0.063 C 
ATOM     28  C   UNL     1     -10.725 -23.584 -27.433  1.00  0.00     0.033 C 
ATOM     29  C   UNL     1     -11.062 -25.052 -27.087  1.00  0.00     0.118 C 
BRANCH  29  30
ATOM     30  O   UNL     1     -12.411 -25.177 -26.719  1.00  0.00    -0.393 OA
ATOM     31  H   UNL     1     -12.892 -24.375 -27.050  1.00  0.00     0.210 HD
ENDBRANCH  29  30
ENDBRANCH   9  11
ENDBRANCH   1   9
TORSDOF 7
ENDMDL
MODEL 9
REMARK VINA RESULT:    -7.888      6.637     10.377
REMARK INTER + INTRA:         -12.175
REMARK INTER:                  -9.316
REMARK INTRA:                  -2.859
REMARK UNBOUND:                -1.289
REMARK SMILES CC[C@H](CC[C@H](C)[C@@H]1CC[C@H]2[C@H]3CC=C4C[C@@H](O)CC[C@@]4(C)[C@@H]3CC[C@@]21C)C(C)C
REMARK SMILES IDX 5 1 4 2 3 3 2 4 1 5 28 6 29 7 30 8 6 9 7 10 8 11 9 12 26 13
REMARK SMILES IDX 10 14 11 15 25 16 27 17 12 18 24 19 23 20 13 21 21 22 14 23
REMARK SMILES IDX 15 24 20 25 22 26 16 27 19 28 17 29 18 30
REMARK H PARENT 18 31
REMARK Flexibility Score: inf
ROOT
ATOM      1  C   UNL     1      -3.692 -24.590 -26.696  1.00  0.00     0.004 C 
ENDROOT
BRANCH   1   2
ATOM      2  C   UNL     1      -4.670 -24.442 -25.508  1.00  0.00     0.004 C 
BRANCH   2   3
ATOM      3  C   UNL     1      -5.756 -23.354 -25.741  1.00  0.00    -0.009 C 
BRANCH   3   4
ATOM      4  C   UNL     1      -7.174 -23.947 -25.510  1.00  0.00     0.000 C 
ATOM      5  C   UNL     1      -7.508 -25.131 -26.420  1.00  0.00     0.004 C 
ENDBRANCH   3   4
BRANCH   3   6
ATOM      6  C   UNL     1      -5.495 -22.061 -24.892  1.00  0.00    -0.014 C 
ATOM      7  C   UNL     1      -5.660 -22.306 -23.382  1.00  0.00     0.007 C 
ATOM      8  C   UNL     1      -6.350 -20.859 -25.327  1.00  0.00     0.007 C 
ENDBRANCH   3   6
ENDBRANCH   2   3
ENDBRANCH   1   2
BRANCH   1   9
ATOM      9  C   UNL     1      -4.343 -24.436 -28.106  1.00  0.00    -0.011 C 
ATOM     10  C   UNL     1      -4.038 -25.705 -28.932  1.00  0.00     0.008 C 
BRANCH   9  11
ATOM     11  C   UNL     1      -3.919 -23.134 -28.877  1.00  0.00    -0.002 C 
ATOM     12  C   UNL     1      -2.871 -22.271 -28.116  1.00  0.00     0.005 C 
ATOM     13  C   UNL     1      -5.052 -22.115 -29.339  1.00  0.00    -0.026 C 
ATOM     14  C   UNL     1      -3.216 -20.812 -28.383  1.00  0.00     0.005 C 
ATOM     15  C   UNL     1      -4.722 -20.870 -28.498  1.00  0.00    -0.001 C 
ATOM     16  C   UNL     1      -6.566 -22.455 -29.068  1.00  0.00     0.007 C 
ATOM     17  C   UNL     1      -4.839 -21.905 -30.872  1.00  0.00     0.012 C 
ATOM     18  C   UNL     1      -5.516 -19.577 -28.822  1.00  0.00     0.000 C 
ATOM     19  C   UNL     1      -7.475 -21.224 -28.734  1.00  0.00     0.005 C 
ATOM     20  C   UNL     1      -6.948 -19.893 -29.331  1.00  0.00     0.003 C 
ATOM     21  C   UNL     1      -4.852 -18.585 -29.782  1.00  0.00     0.031 C 
ATOM     22  C   UNL     1      -7.848 -18.611 -29.199  1.00  0.00    -0.008 C 
ATOM     23  C   UNL     1      -5.784 -17.440 -30.133  1.00  0.00    -0.027 C 
ATOM     24  C   UNL     1      -7.133 -17.459 -29.942  1.00  0.00    -0.065 C 
ATOM     25  C   UNL     1      -9.220 -18.861 -29.893  1.00  0.00     0.014 C 
ATOM     26  C   UNL     1      -8.075 -18.220 -27.710  1.00  0.00     0.016 C 
ATOM     27  C   UNL     1      -7.941 -16.363 -30.603  1.00  0.00     0.063 C 
ATOM     28  C   UNL     1     -10.116 -17.611 -30.056  1.00  0.00     0.033 C 
ATOM     29  C   UNL     1      -9.364 -16.262 -30.038  1.00  0.00     0.118 C 
BRANCH  29  30
ATOM     30  O   UNL     1     -10.097 -15.277 -30.721  1.00  0.00    -0.393 OA
ATOM     31  H   UNL     1      -9.506 -14.489 -30.841  1.00  0.00     0.210 HD
ENDBRANCH  29  30
ENDBRANCH   9  11
ENDBRANCH   1   9
TORSDOF 7
ENDMDL
