MODEL 1
REMARK VINA RESULT:    -4.612      0.000      0.000
REMARK INTER + INTRA:          -8.418
REMARK INTER:                  -7.308
REMARK INTRA:                  -1.110
REMARK UNBOUND:                -1.110
REMARK SMILES CCCCCCCCCCCC(=O)[O-]
REMARK SMILES IDX 7 1 8 2 9 3 10 4 11 5 12 6 13 7 14 8 6 9 5 10 4 11 3 12 2 13
REMARK SMILES IDX 1 14
REMARK H PARENT
REMARK Flexibility Score: inf
ROOT
ATOM      1  C   UNL     1      -9.025  38.878   6.361  1.00  0.00     0.000 C 
ENDROOT
BRANCH   1   2
ATOM      2  C   UNL     1      -8.155  37.667   5.984  1.00  0.00     0.000 C 
BRANCH   2   3
ATOM      3  C   UNL     1      -8.988  36.475   5.481  1.00  0.00     0.000 C 
BRANCH   3   4
ATOM      4  C   UNL     1      -8.596  35.148   6.156  1.00  0.00     0.006 C 
BRANCH   4   5
ATOM      5  C   UNL     1      -7.526  34.343   5.401  1.00  0.00     0.053 C 
BRANCH   5   6
ATOM      6  C   UNL     1      -7.117  33.111   6.150  1.00  0.00     0.041 C 
ATOM      7  O   UNL     1      -7.962  32.475   6.832  1.00  0.00    -0.550 OA
ATOM      8  O   UNL     1      -5.810  32.648   6.067  1.00  0.00    -0.550 OA
ENDBRANCH   5   6
ENDBRANCH   4   5
ENDBRANCH   3   4
ENDBRANCH   2   3
ENDBRANCH   1   2
BRANCH   1   9
ATOM      9  C   UNL     1     -10.380  38.881   5.631  1.00  0.00     0.000 C 
BRANCH   9  10
ATOM     10  C   UNL     1     -11.549  39.258   6.554  1.00  0.00    -0.000 C 
BRANCH  10  11
ATOM     11  C   UNL     1     -11.200  39.102   8.045  1.00  0.00    -0.000 C 
BRANCH  11  12
ATOM     12  C   UNL     1     -11.686  37.763   8.627  1.00  0.00    -0.000 C 
BRANCH  12  13
ATOM     13  C   UNL     1     -10.529  36.820   8.988  1.00  0.00    -0.003 C 
ATOM     14  C   UNL     1     -10.981  35.362   8.959  1.00  0.00     0.004 C 
ENDBRANCH  12  13
ENDBRANCH  11  12
ENDBRANCH  10  11
ENDBRANCH   9  10
ENDBRANCH   1   9
TORSDOF 10
ENDMDL
MODEL 2
REMARK VINA RESULT:    -4.459      2.883      5.560
REMARK INTER + INTRA:          -8.175
REMARK INTER:                  -7.252
REMARK INTRA:                  -0.924
REMARK UNBOUND:                -1.110
REMARK SMILES CCCCCCCCCCCC(=O)[O-]
REMARK SMILES IDX 7 1 8 2 9 3 10 4 11 5 12 6 13 7 14 8 6 9 5 10 4 11 3 12 2 13
REMARK SMILES IDX 1 14
REMARK H PARENT
REMARK Flexibility Score: inf
ROOT
ATOM      1  C   UNL     1      -8.442  37.344   5.777  1.00  0.00     0.000 C 
ENDROOT
BRANCH   1   2
ATOM      2  C   UNL     1      -9.071  38.702   6.130  1.00  0.00     0.000 C 
BRANCH   2   3
ATOM      3  C   UNL     1     -10.473  38.879   5.521  1.00  0.00     0.000 C 
BRANCH   3   4
ATOM      4  C   UNL     1     -11.544  39.207   6.577  1.00  0.00     0.006 C 
BRANCH   4   5
ATOM      5  C   UNL     1     -11.061  39.087   8.031  1.00  0.00     0.053 C 
BRANCH   5   6
ATOM      6  C   UNL     1     -11.725  37.955   8.753  1.00  0.00     0.041 C 
ATOM      7  O   UNL     1     -12.184  36.976   8.109  1.00  0.00    -0.550 OA
ATOM      8  O   UNL     1     -11.808  37.967  10.139  1.00  0.00    -0.550 OA
ENDBRANCH   5   6
ENDBRANCH   4   5
ENDBRANCH   3   4
ENDBRANCH   2   3
ENDBRANCH   1   2
BRANCH   1   9
ATOM      9  C   UNL     1      -9.484  36.214   5.695  1.00  0.00     0.000 C 
BRANCH   9  10
ATOM     10  C   UNL     1      -9.361  35.212   6.854  1.00  0.00    -0.000 C 
BRANCH  10  11
ATOM     11  C   UNL     1      -9.015  33.792   6.373  1.00  0.00    -0.000 C 
BRANCH  11  12
ATOM     12  C   UNL     1      -7.997  33.791   5.220  1.00  0.00    -0.000 C 
BRANCH  12  13
ATOM     13  C   UNL     1      -6.544  33.726   5.714  1.00  0.00    -0.003 C 
ATOM     14  C   UNL     1      -6.233  32.361   6.324  1.00  0.00     0.004 C 
ENDBRANCH  12  13
ENDBRANCH  11  12
ENDBRANCH  10  11
ENDBRANCH   9  10
ENDBRANCH   1   9
TORSDOF 10
ENDMDL
MODEL 3
REMARK VINA RESULT:    -4.425      1.373      2.731
REMARK INTER + INTRA:          -8.121
REMARK INTER:                  -7.566
REMARK INTRA:                  -0.555
REMARK UNBOUND:                -1.110
REMARK SMILES CCCCCCCCCCCC(=O)[O-]
REMARK SMILES IDX 7 1 8 2 9 3 10 4 11 5 12 6 13 7 14 8 6 9 5 10 4 11 3 12 2 13
REMARK SMILES IDX 1 14
REMARK H PARENT
REMARK Flexibility Score: inf
ROOT
ATOM      1  C   UNL     1      -8.277  37.623   5.939  1.00  0.00     0.000 C 
ENDROOT
BRANCH   1   2
ATOM      2  C   UNL     1      -9.218  36.446   5.630  1.00  0.00     0.000 C 
BRANCH   2   3
ATOM      3  C   UNL     1      -9.565  35.623   6.883  1.00  0.00     0.000 C 
BRANCH   3   4
ATOM      4  C   UNL     1      -9.472  34.105   6.643  1.00  0.00     0.006 C 
BRANCH   4   5
ATOM      5  C   UNL     1      -8.478  33.695   5.544  1.00  0.00     0.053 C 
BRANCH   5   6
ATOM      6  C   UNL     1      -7.213  33.129   6.114  1.00  0.00     0.041 C 
ATOM      7  O   UNL     1      -7.250  32.110   6.852  1.00  0.00    -0.550 OA
ATOM      8  O   UNL     1      -5.989  33.709   5.802  1.00  0.00    -0.550 OA
ENDBRANCH   5   6
ENDBRANCH   4   5
ENDBRANCH   3   4
ENDBRANCH   2   3
ENDBRANCH   1   2
BRANCH   1   9
ATOM      9  C   UNL     1      -9.040  38.912   6.289  1.00  0.00     0.000 C 
BRANCH   9  10
ATOM     10  C   UNL     1     -10.439  38.963   5.654  1.00  0.00    -0.000 C 
BRANCH  10  11
ATOM     11  C   UNL     1     -11.542  39.286   6.676  1.00  0.00    -0.000 C 
BRANCH  11  12
ATOM     12  C   UNL     1     -12.662  40.156   6.080  1.00  0.00    -0.000 C 
BRANCH  12  13
ATOM     13  C   UNL     1     -12.820  41.499   6.807  1.00  0.00    -0.003 C 
ATOM     14  C   UNL     1     -12.966  41.293   8.313  1.00  0.00     0.004 C 
ENDBRANCH  12  13
ENDBRANCH  11  12
ENDBRANCH  10  11
ENDBRANCH   9  10
ENDBRANCH   1   9
TORSDOF 10
ENDMDL
MODEL 4
REMARK VINA RESULT:    -4.422      1.022      2.936
REMARK INTER + INTRA:          -8.118
REMARK INTER:                  -6.654
REMARK INTRA:                  -1.464
REMARK UNBOUND:                -1.110
REMARK SMILES CCCCCCCCCCCC(=O)[O-]
REMARK SMILES IDX 7 1 8 2 9 3 10 4 11 5 12 6 13 7 14 8 6 9 5 10 4 11 3 12 2 13
REMARK SMILES IDX 1 14
REMARK H PARENT
REMARK Flexibility Score: inf
ROOT
ATOM      1  C   UNL     1     -10.550  36.284   8.741  1.00  0.00     0.000 C 
ENDROOT
BRANCH   1   2
ATOM      2  C   UNL     1     -11.397  35.664   7.617  1.00  0.00     0.000 C 
BRANCH   2   3
ATOM      3  C   UNL     1     -10.537  35.101   6.472  1.00  0.00     0.000 C 
BRANCH   3   4
ATOM      4  C   UNL     1      -9.026  35.267   6.724  1.00  0.00     0.006 C 
BRANCH   4   5
ATOM      5  C   UNL     1      -8.153  35.122   5.468  1.00  0.00     0.053 C 
BRANCH   5   6
ATOM      6  C   UNL     1      -7.442  33.803   5.427  1.00  0.00     0.041 C 
ATOM      7  O   UNL     1      -6.259  33.708   5.847  1.00  0.00    -0.550 OA
ATOM      8  O   UNL     1      -8.099  32.673   4.957  1.00  0.00    -0.550 OA
ENDBRANCH   5   6
ENDBRANCH   4   5
ENDBRANCH   3   4
ENDBRANCH   2   3
ENDBRANCH   1   2
BRANCH   1   9
ATOM      9  C   UNL     1     -11.336  37.315   9.571  1.00  0.00     0.000 C 
BRANCH   9  10
ATOM     10  C   UNL     1     -12.129  38.298   8.696  1.00  0.00    -0.000 C 
BRANCH  10  11
ATOM     11  C   UNL     1     -11.221  39.294   7.954  1.00  0.00    -0.000 C 
BRANCH  11  12
ATOM     12  C   UNL     1     -11.417  39.248   6.429  1.00  0.00    -0.000 C 
BRANCH  12  13
ATOM     13  C   UNL     1     -10.173  38.736   5.687  1.00  0.00    -0.003 C 
ATOM     14  C   UNL     1      -8.922  38.880   6.551  1.00  0.00     0.004 C 
ENDBRANCH  12  13
ENDBRANCH  11  12
ENDBRANCH  10  11
ENDBRANCH   9  10
ENDBRANCH   1   9
TORSDOF 10
ENDMDL
MODEL 5
REMARK VINA RESULT:    -4.418      2.309      5.058
REMARK INTER + INTRA:          -8.111
REMARK INTER:                  -7.081
REMARK INTRA:                  -1.030
REMARK UNBOUND:                -1.110
REMARK SMILES CCCCCCCCCCCC(=O)[O-]
REMARK SMILES IDX 7 1 8 2 9 3 10 4 11 5 12 6 13 7 14 8 6 9 5 10 4 11 3 12 2 13
REMARK SMILES IDX 1 14
REMARK H PARENT
REMARK Flexibility Score: inf
ROOT
ATOM      1  C   UNL     1      -9.123  38.901   6.301  1.00  0.00     0.000 C 
ENDROOT
BRANCH   1   2
ATOM      2  C   UNL     1     -10.478  38.919   5.573  1.00  0.00     0.000 C 
BRANCH   2   3
ATOM      3  C   UNL     1     -11.635  39.352   6.489  1.00  0.00     0.000 C 
BRANCH   3   4
ATOM      4  C   UNL     1     -11.276  39.266   7.984  1.00  0.00     0.006 C 
BRANCH   4   5
ATOM      5  C   UNL     1     -11.991  38.138   8.746  1.00  0.00     0.053 C 
BRANCH   5   6
ATOM      6  C   UNL     1     -11.314  36.815   8.554  1.00  0.00     0.041 C 
ATOM      7  O   UNL     1     -10.188  36.598   9.074  1.00  0.00    -0.550 OA
ATOM      8  O   UNL     1     -11.944  35.810   7.830  1.00  0.00    -0.550 OA
ENDBRANCH   5   6
ENDBRANCH   4   5
ENDBRANCH   3   4
ENDBRANCH   2   3
ENDBRANCH   1   2
BRANCH   1   9
ATOM      9  C   UNL     1      -8.334  37.605   6.048  1.00  0.00     0.000 C 
BRANCH   9  10
ATOM     10  C   UNL     1      -9.227  36.455   5.555  1.00  0.00    -0.000 C 
BRANCH  10  11
ATOM     11  C   UNL     1      -8.787  35.087   6.102  1.00  0.00    -0.000 C 
BRANCH  11  12
ATOM     12  C   UNL     1      -7.618  34.482   5.306  1.00  0.00    -0.000 C 
BRANCH  12  13
ATOM     13  C   UNL     1      -7.205  33.095   5.822  1.00  0.00    -0.003 C 
ATOM     14  C   UNL     1      -8.370  32.112   5.743  1.00  0.00     0.004 C 
ENDBRANCH  12  13
ENDBRANCH  11  12
ENDBRANCH  10  11
ENDBRANCH   9  10
ENDBRANCH   1   9
TORSDOF 10
ENDMDL
MODEL 6
REMARK VINA RESULT:    -4.375      2.246      4.656
REMARK INTER + INTRA:          -8.043
REMARK INTER:                  -6.969
REMARK INTRA:                  -1.074
REMARK UNBOUND:                -1.110
REMARK SMILES CCCCCCCCCCCC(=O)[O-]
REMARK SMILES IDX 7 1 8 2 9 3 10 4 11 5 12 6 13 7 14 8 6 9 5 10 4 11 3 12 2 13
REMARK SMILES IDX 1 14
REMARK H PARENT
REMARK Flexibility Score: inf
ROOT
ATOM      1  C   UNL     1     -10.473  38.875   5.611  1.00  0.00     0.000 C 
ENDROOT
BRANCH   1   2
ATOM      2  C   UNL     1     -11.621  39.188   6.585  1.00  0.00     0.000 C 
BRANCH   2   3
ATOM      3  C   UNL     1     -11.154  39.247   8.050  1.00  0.00     0.000 C 
BRANCH   3   4
ATOM      4  C   UNL     1     -11.718  38.094   8.902  1.00  0.00     0.006 C 
BRANCH   4   5
ATOM      5  C   UNL     1     -10.712  36.970   9.195  1.00  0.00     0.053 C 
BRANCH   5   6
ATOM      6  C   UNL     1     -11.314  35.612   8.997  1.00  0.00     0.041 C 
ATOM      7  O   UNL     1     -12.066  35.390   8.012  1.00  0.00    -0.550 OA
ATOM      8  O   UNL     1     -11.016  34.583   9.881  1.00  0.00    -0.550 OA
ENDBRANCH   5   6
ENDBRANCH   4   5
ENDBRANCH   3   4
ENDBRANCH   2   3
ENDBRANCH   1   2
BRANCH   1   9
ATOM      9  C   UNL     1      -9.093  38.922   6.291  1.00  0.00     0.000 C 
BRANCH   9  10
ATOM     10  C   UNL     1      -8.249  37.671   6.003  1.00  0.00    -0.000 C 
BRANCH  10  11
ATOM     11  C   UNL     1      -9.094  36.490   5.497  1.00  0.00    -0.000 C 
BRANCH  11  12
ATOM     12  C   UNL     1      -8.942  35.236   6.376  1.00  0.00    -0.000 C 
BRANCH  12  13
ATOM     13  C   UNL     1      -8.460  34.013   5.583  1.00  0.00    -0.003 C 
ATOM     14  C   UNL     1      -6.942  33.869   5.668  1.00  0.00     0.004 C 
ENDBRANCH  12  13
ENDBRANCH  11  12
ENDBRANCH  10  11
ENDBRANCH   9  10
ENDBRANCH   1   9
TORSDOF 10
ENDMDL
MODEL 7
REMARK VINA RESULT:    -4.330      1.008      1.652
REMARK INTER + INTRA:          -7.972
REMARK INTER:                  -6.585
REMARK INTRA:                  -1.387
REMARK UNBOUND:                -1.110
REMARK SMILES CCCCCCCCCCCC(=O)[O-]
REMARK SMILES IDX 7 1 8 2 9 3 10 4 11 5 12 6 13 7 14 8 6 9 5 10 4 11 3 12 2 13
REMARK SMILES IDX 1 14
REMARK H PARENT
REMARK Flexibility Score: inf
ROOT
ATOM      1  C   UNL     1     -10.839  38.874   6.113  1.00  0.00     0.000 C 
ENDROOT
BRANCH   1   2
ATOM      2  C   UNL     1     -10.132  37.714   5.392  1.00  0.00     0.000 C 
BRANCH   2   3
ATOM      3  C   UNL     1      -8.803  37.325   6.062  1.00  0.00     0.000 C 
BRANCH   3   4
ATOM      4  C   UNL     1      -8.145  36.094   5.410  1.00  0.00     0.006 C 
BRANCH   4   5
ATOM      5  C   UNL     1      -8.561  34.750   6.028  1.00  0.00     0.053 C 
BRANCH   5   6
ATOM      6  C   UNL     1      -7.735  33.613   5.508  1.00  0.00     0.041 C 
ATOM      7  O   UNL     1      -8.252  32.749   4.752  1.00  0.00    -0.550 OA
ATOM      8  O   UNL     1      -6.387  33.527   5.832  1.00  0.00    -0.550 OA
ENDBRANCH   5   6
ENDBRANCH   4   5
ENDBRANCH   3   4
ENDBRANCH   2   3
ENDBRANCH   1   2
BRANCH   1   9
ATOM      9  C   UNL     1     -10.475  38.950   7.606  1.00  0.00     0.000 C 
BRANCH   9  10
ATOM     10  C   UNL     1     -11.712  38.961   8.517  1.00  0.00    -0.000 C 
BRANCH  10  11
ATOM     11  C   UNL     1     -11.872  37.655   9.315  1.00  0.00    -0.000 C 
BRANCH  11  12
ATOM     12  C   UNL     1     -10.609  36.779   9.271  1.00  0.00    -0.000 C 
BRANCH  12  13
ATOM     13  C   UNL     1     -10.895  35.352   8.779  1.00  0.00    -0.003 C 
ATOM     14  C   UNL     1     -11.938  35.356   7.664  1.00  0.00     0.004 C 
ENDBRANCH  12  13
ENDBRANCH  11  12
ENDBRANCH  10  11
ENDBRANCH   9  10
ENDBRANCH   1   9
TORSDOF 10
ENDMDL
MODEL 8
REMARK VINA RESULT:    -4.315      3.894      5.661
REMARK INTER + INTRA:          -7.948
REMARK INTER:                  -6.786
REMARK INTRA:                  -1.161
REMARK UNBOUND:                -1.110
REMARK SMILES CCCCCCCCCCCC(=O)[O-]
REMARK SMILES IDX 7 1 8 2 9 3 10 4 11 5 12 6 13 7 14 8 6 9 5 10 4 11 3 12 2 13
REMARK SMILES IDX 1 14
REMARK H PARENT
REMARK Flexibility Score: inf
ROOT
ATOM      1  C   UNL     1      -8.018  37.780   6.088  1.00  0.00     0.000 C 
ENDROOT
BRANCH   1   2
ATOM      2  C   UNL     1      -8.953  38.912   6.546  1.00  0.00     0.000 C 
BRANCH   2   3
ATOM      3  C   UNL     1     -10.246  38.983   5.715  1.00  0.00     0.000 C 
BRANCH   3   4
ATOM      4  C   UNL     1     -11.505  39.153   6.585  1.00  0.00     0.006 C 
BRANCH   4   5
ATOM      5  C   UNL     1     -11.236  39.153   8.099  1.00  0.00     0.053 C 
BRANCH   5   6
ATOM      6  C   UNL     1     -12.163  40.072   8.834  1.00  0.00     0.041 C 
ATOM      7  O   UNL     1     -12.827  40.938   8.207  1.00  0.00    -0.550 OA
ATOM      8  O   UNL     1     -12.319  39.948  10.209  1.00  0.00    -0.550 OA
ENDBRANCH   5   6
ENDBRANCH   4   5
ENDBRANCH   3   4
ENDBRANCH   2   3
ENDBRANCH   1   2
BRANCH   1   9
ATOM      9  C   UNL     1      -8.763  36.676   5.317  1.00  0.00     0.000 C 
BRANCH   9  10
ATOM     10  C   UNL     1      -8.280  35.265   5.689  1.00  0.00    -0.000 C 
BRANCH  10  11
ATOM     11  C   UNL     1      -9.376  34.424   6.367  1.00  0.00    -0.000 C 
BRANCH  11  12
ATOM     12  C   UNL     1     -10.550  35.281   6.871  1.00  0.00    -0.000 C 
BRANCH  12  13
ATOM     13  C   UNL     1     -10.436  35.622   8.364  1.00  0.00    -0.003 C 
ATOM     14  C   UNL     1     -11.209  34.618   9.216  1.00  0.00     0.004 C 
ENDBRANCH  12  13
ENDBRANCH  11  12
ENDBRANCH  10  11
ENDBRANCH   9  10
ENDBRANCH   1   9
TORSDOF 10
ENDMDL
MODEL 9
REMARK VINA RESULT:    -4.281      1.562      2.950
REMARK INTER + INTRA:          -7.894
REMARK INTER:                  -7.231
REMARK INTRA:                  -0.663
REMARK UNBOUND:                -1.110
REMARK SMILES CCCCCCCCCCCC(=O)[O-]
REMARK SMILES IDX 7 1 8 2 9 3 10 4 11 5 12 6 13 7 14 8 6 9 5 10 4 11 3 12 2 13
REMARK SMILES IDX 1 14
REMARK H PARENT
REMARK Flexibility Score: inf
ROOT
ATOM      1  C   UNL     1      -9.390  35.914   6.584  1.00  0.00     0.000 C 
ENDROOT
BRANCH   1   2
ATOM      2  C   UNL     1      -9.063  34.496   6.086  1.00  0.00     0.000 C 
BRANCH   2   3
ATOM      3  C   UNL     1      -7.848  34.468   5.143  1.00  0.00     0.000 C 
BRANCH   3   4
ATOM      4  C   UNL     1      -6.659  33.682   5.727  1.00  0.00     0.006 C 
BRANCH   4   5
ATOM      5  C   UNL     1      -7.048  32.376   6.437  1.00  0.00     0.053 C 
BRANCH   5   6
ATOM      6  C   UNL     1      -6.023  31.302   6.239  1.00  0.00     0.041 C 
ATOM      7  O   UNL     1      -4.835  31.483   6.614  1.00  0.00    -0.550 OA
ATOM      8  O   UNL     1      -6.388  30.088   5.670  1.00  0.00    -0.550 OA
ENDBRANCH   5   6
ENDBRANCH   4   5
ENDBRANCH   3   4
ENDBRANCH   2   3
ENDBRANCH   1   2
BRANCH   1   9
ATOM      9  C   UNL     1      -8.351  36.954   6.129  1.00  0.00     0.000 C 
BRANCH   9  10
ATOM     10  C   UNL     1      -8.982  38.317   5.804  1.00  0.00    -0.000 C 
BRANCH  10  11
ATOM     11  C   UNL     1     -10.486  38.216   5.499  1.00  0.00    -0.000 C 
BRANCH  11  12
ATOM     12  C   UNL     1     -11.243  39.515   5.826  1.00  0.00    -0.000 C 
BRANCH  12  13
ATOM     13  C   UNL     1     -12.223  39.350   6.997  1.00  0.00    -0.003 C 
ATOM     14  C   UNL     1     -11.475  39.110   8.307  1.00  0.00     0.004 C 
ENDBRANCH  12  13
ENDBRANCH  11  12
ENDBRANCH  10  11
ENDBRANCH   9  10
ENDBRANCH   1   9
TORSDOF 10
ENDMDL
