MODEL 1
REMARK VINA RESULT:    -5.306      0.000      0.000
REMARK INTER + INTRA:          -9.066
REMARK INTER:                  -8.097
REMARK INTRA:                  -0.969
REMARK UNBOUND:                -0.969
REMARK SMILES CCCCCCCCCCC(=O)[O-]
REMARK SMILES IDX 7 1 8 2 9 3 10 4 11 5 12 6 13 7 6 8 5 9 4 10 3 11 2 12 1 13
REMARK H PARENT
REMARK Flexibility Score: inf
ROOT
ATOM      1  C   UNL     1     219.737  -6.524  25.021  1.00  0.00     0.000 C 
ENDROOT
BRANCH   1   2
ATOM      2  C   UNL     1     220.867  -6.838  24.025  1.00  0.00     0.000 C 
BRANCH   2   3
ATOM      3  C   UNL     1     220.416  -7.782  22.899  1.00  0.00     0.006 C 
BRANCH   3   4
ATOM      4  C   UNL     1     221.136  -9.138  22.940  1.00  0.00     0.053 C 
BRANCH   4   5
ATOM      5  C   UNL     1     220.514 -10.026  23.971  1.00  0.00     0.041 C 
ATOM      6  O   UNL     1     219.379 -10.535  23.770  1.00  0.00    -0.550 OA
ATOM      7  O   UNL     1     221.167 -10.255  25.176  1.00  0.00    -0.550 OA
ENDBRANCH   4   5
ENDBRANCH   3   4
ENDBRANCH   2   3
ENDBRANCH   1   2
BRANCH   1   8
ATOM      8  C   UNL     1     218.349  -6.904  24.480  1.00  0.00     0.000 C 
BRANCH   8   9
ATOM      9  C   UNL     1     217.509  -7.685  25.505  1.00  0.00    -0.000 C 
BRANCH   9  10
ATOM     10  C   UNL     1     218.373  -8.391  26.562  1.00  0.00    -0.000 C 
BRANCH  10  11
ATOM     11  C   UNL     1     217.537  -9.046  27.672  1.00  0.00    -0.000 C 
BRANCH  11  12
ATOM     12  C   UNL     1     217.921  -8.488  29.048  1.00  0.00    -0.003 C 
ATOM     13  C   UNL     1     218.656  -7.158  28.918  1.00  0.00     0.004 C 
ENDBRANCH  11  12
ENDBRANCH  10  11
ENDBRANCH   9  10
ENDBRANCH   8   9
ENDBRANCH   1   8
TORSDOF 9
ENDMDL
MODEL 2
REMARK VINA RESULT:    -5.290      1.500      2.031
REMARK INTER + INTRA:          -9.043
REMARK INTER:                  -7.611
REMARK INTRA:                  -1.432
REMARK UNBOUND:                -0.969
REMARK SMILES CCCCCCCCCCC(=O)[O-]
REMARK SMILES IDX 7 1 8 2 9 3 10 4 11 5 12 6 13 7 6 8 5 9 4 10 3 11 2 12 1 13
REMARK H PARENT
REMARK Flexibility Score: inf
ROOT
ATOM      1  C   UNL     1     220.826  -6.979  23.880  1.00  0.00     0.000 C 
ENDROOT
BRANCH   1   2
ATOM      2  C   UNL     1     221.507  -8.198  24.526  1.00  0.00     0.000 C 
BRANCH   2   3
ATOM      3  C   UNL     1     221.244  -9.500  23.753  1.00  0.00     0.006 C 
BRANCH   3   4
ATOM      4  C   UNL     1     220.030 -10.272  24.291  1.00  0.00     0.053 C 
BRANCH   4   5
ATOM      5  C   UNL     1     218.981 -10.397  23.231  1.00  0.00     0.041 C 
ATOM      6  O   UNL     1     218.055 -11.242  23.353  1.00  0.00    -0.550 OA
ATOM      7  O   UNL     1     219.053  -9.614  22.086  1.00  0.00    -0.550 OA
ENDBRANCH   4   5
ENDBRANCH   3   4
ENDBRANCH   2   3
ENDBRANCH   1   2
BRANCH   1   8
ATOM      8  C   UNL     1     219.677  -6.422  24.737  1.00  0.00     0.000 C 
BRANCH   8   9
ATOM      9  C   UNL     1     218.296  -6.898  24.252  1.00  0.00    -0.000 C 
BRANCH   9  10
ATOM     10  C   UNL     1     217.517  -7.656  25.338  1.00  0.00    -0.000 C 
BRANCH  10  11
ATOM     11  C   UNL     1     218.105  -7.450  26.743  1.00  0.00    -0.000 C 
BRANCH  11  12
ATOM     12  C   UNL     1     218.369  -8.797  27.428  1.00  0.00    -0.003 C 
ATOM     13  C   UNL     1     219.824  -8.912  27.873  1.00  0.00     0.004 C 
ENDBRANCH  11  12
ENDBRANCH  10  11
ENDBRANCH   9  10
ENDBRANCH   8   9
ENDBRANCH   1   8
TORSDOF 9
ENDMDL
MODEL 3
REMARK VINA RESULT:    -5.227      2.076      4.837
REMARK INTER + INTRA:          -8.946
REMARK INTER:                  -7.973
REMARK INTRA:                  -0.972
REMARK UNBOUND:                -0.969
REMARK SMILES CCCCCCCCCCC(=O)[O-]
REMARK SMILES IDX 7 1 8 2 9 3 10 4 11 5 12 6 13 7 6 8 5 9 4 10 3 11 2 12 1 13
REMARK H PARENT
REMARK Flexibility Score: inf
ROOT
ATOM      1  C   UNL     1     218.315  -6.872  24.309  1.00  0.00     0.000 C 
ENDROOT
BRANCH   1   2
ATOM      2  C   UNL     1     217.482  -7.761  25.249  1.00  0.00     0.000 C 
BRANCH   2   3
ATOM      3  C   UNL     1     217.909  -7.628  26.720  1.00  0.00     0.006 C 
BRANCH   3   4
ATOM      4  C   UNL     1     217.495  -8.839  27.568  1.00  0.00     0.053 C 
BRANCH   4   5
ATOM      5  C   UNL     1     218.309  -8.900  28.821  1.00  0.00     0.041 C 
ATOM      6  O   UNL     1     217.880  -8.374  29.883  1.00  0.00    -0.550 OA
ATOM      7  O   UNL     1     219.564  -9.495  28.807  1.00  0.00    -0.550 OA
ENDBRANCH   4   5
ENDBRANCH   3   4
ENDBRANCH   2   3
ENDBRANCH   1   2
BRANCH   1   8
ATOM      8  C   UNL     1     219.634  -6.408  24.948  1.00  0.00     0.000 C 
BRANCH   8   9
ATOM      9  C   UNL     1     220.864  -6.789  24.106  1.00  0.00    -0.000 C 
BRANCH   9  10
ATOM     10  C   UNL     1     220.541  -7.836  23.028  1.00  0.00    -0.000 C 
BRANCH  10  11
ATOM     11  C   UNL     1     221.399  -9.104  23.157  1.00  0.00    -0.000 C 
BRANCH  11  12
ATOM     12  C   UNL     1     220.790 -10.076  24.176  1.00  0.00    -0.003 C 
ATOM     13  C   UNL     1     219.385 -10.500  23.762  1.00  0.00     0.004 C 
ENDBRANCH  11  12
ENDBRANCH  10  11
ENDBRANCH   9  10
ENDBRANCH   8   9
ENDBRANCH   1   8
TORSDOF 9
ENDMDL
MODEL 4
REMARK VINA RESULT:    -5.180      2.350      4.766
REMARK INTER + INTRA:          -8.875
REMARK INTER:                  -7.675
REMARK INTRA:                  -1.200
REMARK UNBOUND:                -0.969
REMARK SMILES CCCCCCCCCCC(=O)[O-]
REMARK SMILES IDX 7 1 8 2 9 3 10 4 11 5 12 6 13 7 6 8 5 9 4 10 3 11 2 12 1 13
REMARK H PARENT
REMARK Flexibility Score: inf
ROOT
ATOM      1  C   UNL     1     219.822  -6.694  25.143  1.00  0.00     0.000 C 
ENDROOT
BRANCH   1   2
ATOM      2  C   UNL     1     218.336  -6.836  24.773  1.00  0.00     0.000 C 
BRANCH   2   3
ATOM      3  C   UNL     1     217.565  -7.733  25.755  1.00  0.00     0.006 C 
BRANCH   3   4
ATOM      4  C   UNL     1     218.493  -8.612  26.606  1.00  0.00     0.053 C 
BRANCH   4   5
ATOM      5  C   UNL     1     218.367  -8.253  28.053  1.00  0.00     0.041 C 
ATOM      6  O   UNL     1     218.185  -9.153  28.916  1.00  0.00    -0.550 OA
ATOM      7  O   UNL     1     218.403  -6.921  28.445  1.00  0.00    -0.550 OA
ENDBRANCH   4   5
ENDBRANCH   3   4
ENDBRANCH   2   3
ENDBRANCH   1   2
BRANCH   1   8
ATOM      8  C   UNL     1     220.740  -6.678  23.910  1.00  0.00     0.000 C 
BRANCH   8   9
ATOM      9  C   UNL     1     221.104  -8.093  23.426  1.00  0.00    -0.000 C 
BRANCH   9  10
ATOM     10  C   UNL     1     220.536  -8.405  22.033  1.00  0.00    -0.000 C 
BRANCH  10  11
ATOM     11  C   UNL     1     219.193  -9.149  22.092  1.00  0.00    -0.000 C 
BRANCH  11  12
ATOM     12  C   UNL     1     219.177 -10.160  23.246  1.00  0.00    -0.003 C 
ATOM     13  C   UNL     1     217.876 -10.957  23.263  1.00  0.00     0.004 C 
ENDBRANCH  11  12
ENDBRANCH  10  11
ENDBRANCH   9  10
ENDBRANCH   8   9
ENDBRANCH   1   8
TORSDOF 9
ENDMDL
MODEL 5
REMARK VINA RESULT:    -5.170      1.625      2.901
REMARK INTER + INTRA:          -8.858
REMARK INTER:                  -7.897
REMARK INTRA:                  -0.961
REMARK UNBOUND:                -0.969
REMARK SMILES CCCCCCCCCCC(=O)[O-]
REMARK SMILES IDX 7 1 8 2 9 3 10 4 11 5 12 6 13 7 6 8 5 9 4 10 3 11 2 12 1 13
REMARK H PARENT
REMARK Flexibility Score: inf
ROOT
ATOM      1  C   UNL     1     221.646  -8.583  23.236  1.00  0.00     0.000 C 
ENDROOT
BRANCH   1   2
ATOM      2  C   UNL     1     220.851  -8.109  22.007  1.00  0.00     0.000 C 
BRANCH   2   3
ATOM      3  C   UNL     1     219.841  -9.158  21.517  1.00  0.00     0.006 C 
BRANCH   3   4
ATOM      4  C   UNL     1     218.460  -9.000  22.168  1.00  0.00     0.053 C 
BRANCH   4   5
ATOM      5  C   UNL     1     218.051 -10.273  22.838  1.00  0.00     0.041 C 
ATOM      6  O   UNL     1     217.936 -10.322  24.092  1.00  0.00    -0.550 OA
ATOM      7  O   UNL     1     217.842 -11.420  22.083  1.00  0.00    -0.550 OA
ENDBRANCH   4   5
ENDBRANCH   3   4
ENDBRANCH   2   3
ENDBRANCH   1   2
BRANCH   1   8
ATOM      8  C   UNL     1     221.262  -7.824  24.517  1.00  0.00     0.000 C 
BRANCH   8   9
ATOM      9  C   UNL     1     220.451  -6.549  24.227  1.00  0.00    -0.000 C 
BRANCH   9  10
ATOM     10  C   UNL     1     219.096  -6.533  24.950  1.00  0.00    -0.000 C 
BRANCH  10  11
ATOM     11  C   UNL     1     218.992  -7.611  26.041  1.00  0.00    -0.000 C 
BRANCH  11  12
ATOM     12  C   UNL     1     217.549  -7.745  26.542  1.00  0.00    -0.003 C 
ATOM     13  C   UNL     1     217.353  -9.045  27.317  1.00  0.00     0.004 C 
ENDBRANCH  11  12
ENDBRANCH  10  11
ENDBRANCH   9  10
ENDBRANCH   8   9
ENDBRANCH   1   8
TORSDOF 9
ENDMDL
MODEL 6
REMARK VINA RESULT:    -5.088      2.274      4.545
REMARK INTER + INTRA:          -8.734
REMARK INTER:                  -7.543
REMARK INTRA:                  -1.191
REMARK UNBOUND:                -0.969
REMARK SMILES CCCCCCCCCCC(=O)[O-]
REMARK SMILES IDX 7 1 8 2 9 3 10 4 11 5 12 6 13 7 6 8 5 9 4 10 3 11 2 12 1 13
REMARK H PARENT
REMARK Flexibility Score: inf
ROOT
ATOM      1  C   UNL     1     218.587  -6.945  25.055  1.00  0.00     0.000 C 
ENDROOT
BRANCH   1   2
ATOM      2  C   UNL     1     217.972  -7.213  26.439  1.00  0.00     0.000 C 
BRANCH   2   3
ATOM      3  C   UNL     1     217.648  -8.698  26.664  1.00  0.00     0.006 C 
BRANCH   3   4
ATOM      4  C   UNL     1     217.649  -9.087  28.149  1.00  0.00     0.053 C 
BRANCH   4   5
ATOM      5  C   UNL     1     218.974  -8.770  28.769  1.00  0.00     0.041 C 
ATOM      6  O   UNL     1     220.009  -9.390  28.406  1.00  0.00    -0.550 OA
ATOM      7  O   UNL     1     219.059  -7.822  29.781  1.00  0.00    -0.550 OA
ENDBRANCH   4   5
ENDBRANCH   3   4
ENDBRANCH   2   3
ENDBRANCH   1   2
BRANCH   1   8
ATOM      8  C   UNL     1     217.612  -7.248  23.906  1.00  0.00     0.000 C 
BRANCH   8   9
ATOM      9  C   UNL     1     218.211  -8.207  22.861  1.00  0.00    -0.000 C 
BRANCH   9  10
ATOM     10  C   UNL     1     217.693  -9.645  23.014  1.00  0.00    -0.000 C 
BRANCH  10  11
ATOM     11  C   UNL     1     218.753 -10.601  23.584  1.00  0.00    -0.000 C 
BRANCH  11  12
ATOM     12  C   UNL     1     220.138  -9.941  23.590  1.00  0.00    -0.003 C 
ATOM     13  C   UNL     1     220.777 -10.013  24.974  1.00  0.00     0.004 C 
ENDBRANCH  11  12
ENDBRANCH  10  11
ENDBRANCH   9  10
ENDBRANCH   8   9
ENDBRANCH   1   8
TORSDOF 9
ENDMDL
MODEL 7
REMARK VINA RESULT:    -5.087      2.159      4.562
REMARK INTER + INTRA:          -8.732
REMARK INTER:                  -7.280
REMARK INTRA:                  -1.452
REMARK UNBOUND:                -0.969
REMARK SMILES CCCCCCCCCCC(=O)[O-]
REMARK SMILES IDX 7 1 8 2 9 3 10 4 11 5 12 6 13 7 6 8 5 9 4 10 3 11 2 12 1 13
REMARK H PARENT
REMARK Flexibility Score: inf
ROOT
ATOM      1  C   UNL     1     217.818  -9.191  23.162  1.00  0.00     0.000 C 
ENDROOT
BRANCH   1   2
ATOM      2  C   UNL     1     217.554  -7.702  23.444  1.00  0.00     0.000 C 
BRANCH   2   3
ATOM      3  C   UNL     1     217.871  -7.310  24.895  1.00  0.00     0.006 C 
BRANCH   3   4
ATOM      4  C   UNL     1     217.944  -8.523  25.833  1.00  0.00     0.053 C 
BRANCH   4   5
ATOM      5  C   UNL     1     218.674  -8.166  27.090  1.00  0.00     0.041 C 
ATOM      6  O   UNL     1     218.499  -7.041  27.627  1.00  0.00    -0.550 OA
ATOM      7  O   UNL     1     219.585  -9.058  27.642  1.00  0.00    -0.550 OA
ENDBRANCH   4   5
ENDBRANCH   3   4
ENDBRANCH   2   3
ENDBRANCH   1   2
BRANCH   1   8
ATOM      8  C   UNL     1     218.597  -9.417  21.856  1.00  0.00     0.000 C 
BRANCH   8   9
ATOM      9  C   UNL     1     219.611  -8.295  21.572  1.00  0.00    -0.000 C 
BRANCH   9  10
ATOM     10  C   UNL     1     220.982  -8.561  22.215  1.00  0.00    -0.000 C 
BRANCH  10  11
ATOM     11  C   UNL     1     221.297  -7.591  23.364  1.00  0.00    -0.000 C 
BRANCH  11  12
ATOM     12  C   UNL     1     221.636  -8.357  24.650  1.00  0.00    -0.003 C 
ATOM     13  C   UNL     1     221.236  -9.825  24.538  1.00  0.00     0.004 C 
ENDBRANCH  11  12
ENDBRANCH  10  11
ENDBRANCH   9  10
ENDBRANCH   8   9
ENDBRANCH   1   8
TORSDOF 9
ENDMDL
MODEL 8
REMARK VINA RESULT:    -5.067      1.706      2.522
REMARK INTER + INTRA:          -8.701
REMARK INTER:                  -7.640
REMARK INTRA:                  -1.061
REMARK UNBOUND:                -0.969
REMARK SMILES CCCCCCCCCCC(=O)[O-]
REMARK SMILES IDX 7 1 8 2 9 3 10 4 11 5 12 6 13 7 6 8 5 9 4 10 3 11 2 12 1 13
REMARK H PARENT
REMARK Flexibility Score: inf
ROOT
ATOM      1  C   UNL     1     218.626  -9.649  21.769  1.00  0.00     0.000 C 
ENDROOT
BRANCH   1   2
ATOM      2  C   UNL     1     219.447  -8.408  21.379  1.00  0.00     0.000 C 
BRANCH   2   3
ATOM      3  C   UNL     1     220.924  -8.525  21.786  1.00  0.00     0.006 C 
BRANCH   3   4
ATOM      4  C   UNL     1     221.258  -7.710  23.043  1.00  0.00     0.053 C 
BRANCH   4   5
ATOM      5  C   UNL     1     221.428  -8.617  24.221  1.00  0.00     0.041 C 
ATOM      6  O   UNL     1     221.751  -8.144  25.343  1.00  0.00    -0.550 OA
ATOM      7  O   UNL     1     221.276  -9.989  24.070  1.00  0.00    -0.550 OA
ENDBRANCH   4   5
ENDBRANCH   3   4
ENDBRANCH   2   3
ENDBRANCH   1   2
BRANCH   1   8
ATOM      8  C   UNL     1     217.753  -9.413  23.013  1.00  0.00     0.000 C 
BRANCH   8   9
ATOM      9  C   UNL     1     217.555  -7.918  23.320  1.00  0.00    -0.000 C 
BRANCH   9  10
ATOM     10  C   UNL     1     217.787  -7.583  24.801  1.00  0.00    -0.000 C 
BRANCH  10  11
ATOM     11  C   UNL     1     218.007  -8.835  25.666  1.00  0.00    -0.000 C 
BRANCH  11  12
ATOM     12  C   UNL     1     217.569  -8.584  27.114  1.00  0.00    -0.003 C 
ATOM     13  C   UNL     1     218.328  -7.410  27.724  1.00  0.00     0.004 C 
ENDBRANCH  11  12
ENDBRANCH  10  11
ENDBRANCH   9  10
ENDBRANCH   8   9
ENDBRANCH   1   8
TORSDOF 9
ENDMDL
MODEL 9
REMARK VINA RESULT:    -5.057      1.832      2.762
REMARK INTER + INTRA:          -8.686
REMARK INTER:                  -7.600
REMARK INTRA:                  -1.086
REMARK UNBOUND:                -0.969
REMARK SMILES CCCCCCCCCCC(=O)[O-]
REMARK SMILES IDX 7 1 8 2 9 3 10 4 11 5 12 6 13 7 6 8 5 9 4 10 3 11 2 12 1 13
REMARK H PARENT
REMARK Flexibility Score: inf
ROOT
ATOM      1  C   UNL     1     219.303  -8.848  23.134  1.00  0.00     0.000 C 
ENDROOT
BRANCH   1   2
ATOM      2  C   UNL     1     219.095 -10.291  23.625  1.00  0.00     0.000 C 
BRANCH   2   3
ATOM      3  C   UNL     1     220.362 -10.887  24.260  1.00  0.00     0.006 C 
BRANCH   3   4
ATOM      4  C   UNL     1     221.342  -9.810  24.747  1.00  0.00     0.053 C 
BRANCH   4   5
ATOM      5  C   UNL     1     221.733 -10.067  26.168  1.00  0.00     0.041 C 
ATOM      6  O   UNL     1     222.757 -10.752  26.430  1.00  0.00    -0.550 OA
ATOM      7  O   UNL     1     220.940  -9.591  27.205  1.00  0.00    -0.550 OA
ENDBRANCH   4   5
ENDBRANCH   3   4
ENDBRANCH   2   3
ENDBRANCH   1   2
BRANCH   1   8
ATOM      8  C   UNL     1     217.977  -8.133  22.823  1.00  0.00     0.000 C 
BRANCH   8   9
ATOM      9  C   UNL     1     217.513  -7.223  23.974  1.00  0.00    -0.000 C 
BRANCH   9  10
ATOM     10  C   UNL     1     218.652  -6.870  24.943  1.00  0.00    -0.000 C 
BRANCH  10  11
ATOM     11  C   UNL     1     218.308  -7.193  26.406  1.00  0.00    -0.000 C 
BRANCH  11  12
ATOM     12  C   UNL     1     217.506  -8.496  26.505  1.00  0.00    -0.003 C 
ATOM     13  C   UNL     1     217.494  -9.029  27.934  1.00  0.00     0.004 C 
ENDBRANCH  11  12
ENDBRANCH  10  11
ENDBRANCH   9  10
ENDBRANCH   8   9
ENDBRANCH   1   8
TORSDOF 9
ENDMDL
