MODEL 1
REMARK VINA RESULT:    -3.585      0.000      0.000
REMARK INTER + INTRA:          -4.785
REMARK INTER:                  -4.632
REMARK INTRA:                  -0.152
REMARK UNBOUND:                -0.152
REMARK SMILES CCCCCCC(=O)[O-]
REMARK SMILES IDX 5 1 6 2 7 3 8 4 9 5 4 6 3 7 2 8 1 9
REMARK H PARENT
REMARK Flexibility Score: inf
ROOT
ATOM      1  C   UNL     1      -1.408   7.842  -8.876  1.00  0.00     0.006 C 
ENDROOT
BRANCH   1   2
ATOM      2  C   UNL     1      -0.348   6.731  -8.930  1.00  0.00     0.053 C 
BRANCH   2   3
ATOM      3  C   UNL     1       0.976   7.189  -8.401  1.00  0.00     0.041 C 
ATOM      4  O   UNL     1       1.965   7.296  -9.174  1.00  0.00    -0.550 OA
ATOM      5  O   UNL     1       1.128   7.461  -7.047  1.00  0.00    -0.550 OA
ENDBRANCH   2   3
ENDBRANCH   1   2
BRANCH   1   6
ATOM      6  C   UNL     1      -1.876   8.338 -10.256  1.00  0.00     0.000 C 
BRANCH   6   7
ATOM      7  C   UNL     1      -2.968   7.443 -10.869  1.00  0.00    -0.000 C 
BRANCH   7   8
ATOM      8  C   UNL     1      -4.144   8.254 -11.433  1.00  0.00    -0.003 C 
ATOM      9  C   UNL     1      -4.525   9.437 -10.543  1.00  0.00     0.004 C 
ENDBRANCH   7   8
ENDBRANCH   6   7
ENDBRANCH   1   6
TORSDOF 5
ENDMDL
MODEL 2
REMARK VINA RESULT:    -3.584      2.610      4.534
REMARK INTER + INTRA:          -4.785
REMARK INTER:                  -4.374
REMARK INTRA:                  -0.410
REMARK UNBOUND:                -0.152
REMARK SMILES CCCCCCC(=O)[O-]
REMARK SMILES IDX 5 1 6 2 7 3 8 4 9 5 4 6 3 7 2 8 1 9
REMARK H PARENT
REMARK Flexibility Score: inf
ROOT
ATOM      1  C   UNL     1      -0.170   8.980 -10.997  1.00  0.00     0.006 C 
ENDROOT
BRANCH   1   2
ATOM      2  C   UNL     1      -1.449   8.434 -10.341  1.00  0.00     0.053 C 
BRANCH   2   3
ATOM      3  C   UNL     1      -1.530   6.941 -10.424  1.00  0.00     0.041 C 
ATOM      4  O   UNL     1      -2.245   6.300  -9.609  1.00  0.00    -0.550 OA
ATOM      5  O   UNL     1      -0.788   6.255 -11.377  1.00  0.00    -0.550 OA
ENDBRANCH   2   3
ENDBRANCH   1   2
BRANCH   1   6
ATOM      6  C   UNL     1       0.968   9.285 -10.007  1.00  0.00     0.000 C 
BRANCH   6   7
ATOM      7  C   UNL     1       1.952   8.110  -9.854  1.00  0.00    -0.000 C 
BRANCH   7   8
ATOM      8  C   UNL     1       1.722   7.316  -8.559  1.00  0.00    -0.003 C 
ATOM      9  C   UNL     1       0.879   8.083  -7.539  1.00  0.00     0.004 C 
ENDBRANCH   7   8
ENDBRANCH   6   7
ENDBRANCH   1   6
TORSDOF 5
ENDMDL
MODEL 3
REMARK VINA RESULT:    -3.568      2.852      4.623
REMARK INTER + INTRA:          -4.763
REMARK INTER:                  -4.374
REMARK INTRA:                  -0.389
REMARK UNBOUND:                -0.152
REMARK SMILES CCCCCCC(=O)[O-]
REMARK SMILES IDX 5 1 6 2 7 3 8 4 9 5 4 6 3 7 2 8 1 9
REMARK H PARENT
REMARK Flexibility Score: inf
ROOT
ATOM      1  C   UNL     1      -0.555   8.056  -8.404  1.00  0.00     0.006 C 
ENDROOT
BRANCH   1   2
ATOM      2  C   UNL     1      -0.899   6.767  -9.168  1.00  0.00     0.053 C 
BRANCH   2   3
ATOM      3  C   UNL     1      -1.280   7.041 -10.590  1.00  0.00     0.041 C 
ATOM      4  O   UNL     1      -1.488   8.222 -10.974  1.00  0.00    -0.550 OA
ATOM      5  O   UNL     1      -1.442   5.989 -11.482  1.00  0.00    -0.550 OA
ENDBRANCH   2   3
ENDBRANCH   1   2
BRANCH   1   6
ATOM      6  C   UNL     1       0.834   8.045  -7.741  1.00  0.00     0.000 C 
BRANCH   6   7
ATOM      7  C   UNL     1       1.928   7.477  -8.663  1.00  0.00    -0.000 C 
BRANCH   7   8
ATOM      8  C   UNL     1       2.333   8.461  -9.770  1.00  0.00    -0.003 C 
ATOM      9  C   UNL     1       2.278   7.835 -11.165  1.00  0.00     0.004 C 
ENDBRANCH   7   8
ENDBRANCH   6   7
ENDBRANCH   1   6
TORSDOF 5
ENDMDL
MODEL 4
REMARK VINA RESULT:    -3.550      2.767      4.481
REMARK INTER + INTRA:          -4.740
REMARK INTER:                  -4.470
REMARK INTRA:                  -0.270
REMARK UNBOUND:                -0.152
REMARK SMILES CCCCCCC(=O)[O-]
REMARK SMILES IDX 5 1 6 2 7 3 8 4 9 5 4 6 3 7 2 8 1 9
REMARK H PARENT
REMARK Flexibility Score: inf
ROOT
ATOM      1  C   UNL     1       0.733   7.453  -8.397  1.00  0.00     0.006 C 
ENDROOT
BRANCH   1   2
ATOM      2  C   UNL     1      -0.209   6.568  -9.229  1.00  0.00     0.053 C 
BRANCH   2   3
ATOM      3  C   UNL     1      -1.620   7.067  -9.203  1.00  0.00     0.041 C 
ATOM      4  O   UNL     1      -2.494   6.533  -9.936  1.00  0.00    -0.550 OA
ATOM      5  O   UNL     1      -1.963   8.145  -8.397  1.00  0.00    -0.550 OA
ENDBRANCH   2   3
ENDBRANCH   1   2
BRANCH   1   6
ATOM      6  C   UNL     1       2.089   7.739  -9.067  1.00  0.00     0.000 C 
BRANCH   6   7
ATOM      7  C   UNL     1       2.094   9.062  -9.855  1.00  0.00    -0.000 C 
BRANCH   7   8
ATOM      8  C   UNL     1       1.829   8.855 -11.353  1.00  0.00    -0.003 C 
ATOM      9  C   UNL     1       2.333   7.503 -11.860  1.00  0.00     0.004 C 
ENDBRANCH   7   8
ENDBRANCH   6   7
ENDBRANCH   1   6
TORSDOF 5
ENDMDL
MODEL 5
REMARK VINA RESULT:    -3.545      2.111      3.013
REMARK INTER + INTRA:          -4.734
REMARK INTER:                  -4.424
REMARK INTRA:                  -0.310
REMARK UNBOUND:                -0.152
REMARK SMILES CCCCCCC(=O)[O-]
REMARK SMILES IDX 5 1 6 2 7 3 8 4 9 5 4 6 3 7 2 8 1 9
REMARK H PARENT
REMARK Flexibility Score: inf
ROOT
ATOM      1  C   UNL     1       0.899   7.642  -8.294  1.00  0.00     0.006 C 
ENDROOT
BRANCH   1   2
ATOM      2  C   UNL     1       1.258   8.796  -9.243  1.00  0.00     0.053 C 
BRANCH   2   3
ATOM      3  C   UNL     1       2.370   8.433 -10.177  1.00  0.00     0.041 C 
ATOM      4  O   UNL     1       3.431   9.111 -10.192  1.00  0.00    -0.550 OA
ATOM      5  O   UNL     1       2.221   7.368 -11.057  1.00  0.00    -0.550 OA
ENDBRANCH   2   3
ENDBRANCH   1   2
BRANCH   1   6
ATOM      6  C   UNL     1      -0.263   6.759  -8.782  1.00  0.00     0.000 C 
BRANCH   6   7
ATOM      7  C   UNL     1      -1.542   7.567  -9.071  1.00  0.00    -0.000 C 
BRANCH   7   8
ATOM      8  C   UNL     1      -2.175   7.202 -10.422  1.00  0.00    -0.003 C 
ATOM      9  C   UNL     1      -1.170   6.590 -11.398  1.00  0.00     0.004 C 
ENDBRANCH   7   8
ENDBRANCH   6   7
ENDBRANCH   1   6
TORSDOF 5
ENDMDL
MODEL 6
REMARK VINA RESULT:    -3.352      2.396      3.746
REMARK INTER + INTRA:          -4.484
REMARK INTER:                  -4.093
REMARK INTRA:                  -0.391
REMARK UNBOUND:                -0.152
REMARK SMILES CCCCCCC(=O)[O-]
REMARK SMILES IDX 5 1 6 2 7 3 8 4 9 5 4 6 3 7 2 8 1 9
REMARK H PARENT
REMARK Flexibility Score: inf
ROOT
ATOM      1  C   UNL     1      -0.529   7.490 -10.183  1.00  0.00     0.006 C 
ENDROOT
BRANCH   1   2
ATOM      2  C   UNL     1      -0.167   6.666  -8.937  1.00  0.00     0.053 C 
BRANCH   2   3
ATOM      3  C   UNL     1       0.973   7.267  -8.175  1.00  0.00     0.041 C 
ATOM      4  O   UNL     1       0.750   8.062  -7.223  1.00  0.00    -0.550 OA
ATOM      5  O   UNL     1       2.282   6.980  -8.539  1.00  0.00    -0.550 OA
ENDBRANCH   2   3
ENDBRANCH   1   2
BRANCH   1   6
ATOM      6  C   UNL     1      -0.039   6.880 -11.508  1.00  0.00     0.000 C 
BRANCH   6   7
ATOM      7  C   UNL     1       1.366   7.370 -11.904  1.00  0.00    -0.000 C 
BRANCH   7   8
ATOM      8  C   UNL     1       1.516   8.892 -11.770  1.00  0.00    -0.003 C 
ATOM      9  C   UNL     1       2.832   9.299 -11.106  1.00  0.00     0.004 C 
ENDBRANCH   7   8
ENDBRANCH   6   7
ENDBRANCH   1   6
TORSDOF 5
ENDMDL
MODEL 7
REMARK VINA RESULT:    -3.310      3.360      5.126
REMARK INTER + INTRA:          -4.429
REMARK INTER:                  -4.299
REMARK INTRA:                  -0.130
REMARK UNBOUND:                -0.152
REMARK SMILES CCCCCCC(=O)[O-]
REMARK SMILES IDX 5 1 6 2 7 3 8 4 9 5 4 6 3 7 2 8 1 9
REMARK H PARENT
REMARK Flexibility Score: inf
ROOT
ATOM      1  C   UNL     1      -2.518   7.019 -10.192  1.00  0.00     0.006 C 
ENDROOT
BRANCH   1   2
ATOM      2  C   UNL     1      -3.199   7.407 -11.514  1.00  0.00     0.053 C 
BRANCH   2   3
ATOM      3  C   UNL     1      -3.876   8.740 -11.429  1.00  0.00     0.041 C 
ATOM      4  O   UNL     1      -3.330   9.761 -11.923  1.00  0.00    -0.550 OA
ATOM      5  O   UNL     1      -5.093   8.861 -10.769  1.00  0.00    -0.550 OA
ENDBRANCH   2   3
ENDBRANCH   1   2
BRANCH   1   6
ATOM      6  C   UNL     1      -1.032   7.411 -10.107  1.00  0.00     0.000 C 
BRANCH   6   7
ATOM      7  C   UNL     1      -0.253   6.569  -9.080  1.00  0.00    -0.000 C 
BRANCH   7   8
ATOM      8  C   UNL     1       1.061   7.237  -8.648  1.00  0.00    -0.003 C 
ATOM      9  C   UNL     1       0.836   8.463  -7.763  1.00  0.00     0.004 C 
ENDBRANCH   7   8
ENDBRANCH   6   7
ENDBRANCH   1   6
TORSDOF 5
ENDMDL
MODEL 8
REMARK VINA RESULT:    -3.285     15.449     16.646
REMARK INTER + INTRA:          -4.397
REMARK INTER:                  -4.261
REMARK INTRA:                  -0.136
REMARK UNBOUND:                -0.152
REMARK SMILES CCCCCCC(=O)[O-]
REMARK SMILES IDX 5 1 6 2 7 3 8 4 9 5 4 6 3 7 2 8 1 9
REMARK H PARENT
REMARK Flexibility Score: inf
ROOT
ATOM      1  C   UNL     1       4.122  12.264   6.284  1.00  0.00     0.006 C 
ENDROOT
BRANCH   1   2
ATOM      2  C   UNL     1       5.549  11.873   6.700  1.00  0.00     0.053 C 
BRANCH   2   3
ATOM      3  C   UNL     1       5.994  10.596   6.056  1.00  0.00     0.041 C 
ATOM      4  O   UNL     1       7.123  10.525   5.504  1.00  0.00    -0.550 OA
ATOM      5  O   UNL     1       5.146   9.496   6.033  1.00  0.00    -0.550 OA
ENDBRANCH   2   3
ENDBRANCH   1   2
BRANCH   1   6
ATOM      6  C   UNL     1       4.013  13.653   5.630  1.00  0.00     0.000 C 
BRANCH   6   7
ATOM      7  C   UNL     1       2.830  13.755   4.649  1.00  0.00    -0.000 C 
BRANCH   7   8
ATOM      8  C   UNL     1       1.633  12.895   5.081  1.00  0.00    -0.003 C 
ATOM      9  C   UNL     1       0.333  13.305   4.388  1.00  0.00     0.004 C 
ENDBRANCH   7   8
ENDBRANCH   6   7
ENDBRANCH   1   6
TORSDOF 5
ENDMDL
MODEL 9
REMARK VINA RESULT:    -3.201      3.040      4.315
REMARK INTER + INTRA:          -4.288
REMARK INTER:                  -4.019
REMARK INTRA:                  -0.270
REMARK UNBOUND:                -0.152
REMARK SMILES CCCCCCC(=O)[O-]
REMARK SMILES IDX 5 1 6 2 7 3 8 4 9 5 4 6 3 7 2 8 1 9
REMARK H PARENT
REMARK Flexibility Score: inf
ROOT
ATOM      1  C   UNL     1       1.549   7.389 -11.434  1.00  0.00     0.006 C 
ENDROOT
BRANCH   1   2
ATOM      2  C   UNL     1       2.372   8.532 -12.049  1.00  0.00     0.053 C 
BRANCH   2   3
ATOM      3  C   UNL     1       3.385   9.075 -11.091  1.00  0.00     0.041 C 
ATOM      4  O   UNL     1       4.615   8.959 -11.336  1.00  0.00    -0.550 OA
ATOM      5  O   UNL     1       2.973   9.676  -9.908  1.00  0.00    -0.550 OA
ENDBRANCH   2   3
ENDBRANCH   1   2
BRANCH   1   6
ATOM      6  C   UNL     1       0.148   7.806 -10.952  1.00  0.00     0.000 C 
BRANCH   6   7
ATOM      7  C   UNL     1      -0.309   7.024  -9.707  1.00  0.00    -0.000 C 
BRANCH   7   8
ATOM      8  C   UNL     1      -0.095   7.814  -8.407  1.00  0.00    -0.003 C 
ATOM      9  C   UNL     1       1.246   7.503  -7.741  1.00  0.00     0.004 C 
ENDBRANCH   7   8
ENDBRANCH   6   7
ENDBRANCH   1   6
TORSDOF 5
ENDMDL
