MODEL 1
REMARK VINA RESULT:    -4.840      0.000      0.000
REMARK INTER + INTRA:          -5.459
REMARK INTER:                  -5.405
REMARK INTRA:                  -0.054
REMARK UNBOUND:                -0.054
REMARK SMILES COc1cc2ccc(=O)oc2c(O)c1O
REMARK SMILES IDX 3 1 14 2 12 3 11 4 5 5 4 6 6 7 7 8 8 9 9 10 10 11 2 12 1 13
REMARK SMILES IDX 15 14 13 16
REMARK H PARENT 15 15 13 17
REMARK Flexibility Score: inf
ROOT
ATOM      1  C   UNL     1      13.703  -7.440   9.867  1.00  0.00     0.165 A 
ATOM      2  C   UNL     1      12.470  -7.215  10.511  1.00  0.00     0.204 A 
ATOM      3  C   UNL     1      11.774  -6.010  10.311  1.00  0.00     0.205 A 
ATOM      4  C   UNL     1      12.305  -5.027   9.467  1.00  0.00     0.184 A 
ATOM      5  C   UNL     1      13.538  -5.247   8.819  1.00  0.00     0.025 A 
ATOM      6  C   UNL     1      14.232  -6.447   9.019  1.00  0.00     0.062 A 
ATOM      7  C   UNL     1      14.040  -4.244   7.983  1.00  0.00     0.020 A 
ATOM      8  C   UNL     1      13.316  -3.066   7.814  1.00  0.00     0.094 A 
ATOM      9  C   UNL     1      12.100  -2.916   8.488  1.00  0.00     0.336 A 
ATOM     10  O   UNL     1      11.430  -1.860   8.350  1.00  0.00    -0.246 OA
ATOM     11  O   UNL     1      11.646  -3.886   9.278  1.00  0.00    -0.419 OA
ENDROOT
BRANCH   1  12
ATOM     12  O   UNL     1      14.371  -8.654  10.090  1.00  0.00    -0.493 OA
ATOM     13  C   UNL     1      15.779  -8.785  10.255  1.00  0.00     0.278 C 
ENDBRANCH   1  12
BRANCH   2  14
ATOM     14  O   UNL     1      11.926  -8.185  11.357  1.00  0.00    -0.502 OA
ATOM     15  H   UNL     1      11.452  -7.948  12.220  1.00  0.00     0.293 HD
ENDBRANCH   2  14
BRANCH   3  16
ATOM     16  O   UNL     1      10.552  -5.774  10.943  1.00  0.00    -0.502 OA
ATOM     17  H   UNL     1      10.475  -5.666  11.947  1.00  0.00     0.293 HD
ENDBRANCH   3  16
TORSDOF 3
ENDMDL
MODEL 2
REMARK VINA RESULT:    -4.655      0.887      4.731
REMARK INTER + INTRA:          -5.253
REMARK INTER:                  -5.204
REMARK INTRA:                  -0.049
REMARK UNBOUND:                -0.054
REMARK SMILES COc1cc2ccc(=O)oc2c(O)c1O
REMARK SMILES IDX 3 1 14 2 12 3 11 4 5 5 4 6 6 7 7 8 8 9 9 10 10 11 2 12 1 13
REMARK SMILES IDX 15 14 13 16
REMARK H PARENT 15 15 13 17
REMARK Flexibility Score: inf
ROOT
ATOM      1  C   UNL     1      12.451  -4.956   9.511  1.00  0.00     0.165 A 
ATOM      2  C   UNL     1      11.848  -5.893  10.372  1.00  0.00     0.204 A 
ATOM      3  C   UNL     1      12.410  -7.172  10.533  1.00  0.00     0.205 A 
ATOM      4  C   UNL     1      13.573  -7.519   9.835  1.00  0.00     0.184 A 
ATOM      5  C   UNL     1      14.180  -6.584   8.971  1.00  0.00     0.025 A 
ATOM      6  C   UNL     1      13.621  -5.310   8.811  1.00  0.00     0.062 A 
ATOM      7  C   UNL     1      15.342  -6.962   8.289  1.00  0.00     0.020 A 
ATOM      8  C   UNL     1      15.863  -8.240   8.479  1.00  0.00     0.094 A 
ATOM      9  C   UNL     1      15.208  -9.116   9.350  1.00  0.00     0.336 A 
ATOM     10  O   UNL     1      15.662 -10.275   9.536  1.00  0.00    -0.246 OA
ATOM     11  O   UNL     1      14.104  -8.730   9.987  1.00  0.00    -0.419 OA
ENDROOT
BRANCH   1  12
ATOM     12  O   UNL     1      11.863  -3.688   9.374  1.00  0.00    -0.493 OA
ATOM     13  C   UNL     1      12.174  -2.758   8.341  1.00  0.00     0.278 C 
ENDBRANCH   1  12
BRANCH   2  14
ATOM     14  O   UNL     1      10.687  -5.565  11.076  1.00  0.00    -0.502 OA
ATOM     15  H   UNL     1       9.856  -5.212  10.617  1.00  0.00     0.293 HD
ENDBRANCH   2  14
BRANCH   3  16
ATOM     16  O   UNL     1      11.824  -8.112  11.383  1.00  0.00    -0.502 OA
ATOM     17  H   UNL     1      10.824  -8.149  11.539  1.00  0.00     0.293 HD
ENDBRANCH   3  16
TORSDOF 3
ENDMDL
MODEL 3
REMARK VINA RESULT:    -4.038      1.629      2.208
REMARK INTER + INTRA:          -4.564
REMARK INTER:                  -4.495
REMARK INTRA:                  -0.069
REMARK UNBOUND:                -0.054
REMARK SMILES COc1cc2ccc(=O)oc2c(O)c1O
REMARK SMILES IDX 3 1 14 2 12 3 11 4 5 5 4 6 6 7 7 8 8 9 9 10 10 11 2 12 1 13
REMARK SMILES IDX 15 14 13 16
REMARK H PARENT 15 15 13 17
REMARK Flexibility Score: inf
ROOT
ATOM      1  C   UNL     1      15.494  -8.249   8.558  1.00  0.00     0.165 A 
ATOM      2  C   UNL     1      14.521  -8.385   9.567  1.00  0.00     0.204 A 
ATOM      3  C   UNL     1      13.674  -7.308   9.886  1.00  0.00     0.205 A 
ATOM      4  C   UNL     1      13.796  -6.095   9.198  1.00  0.00     0.184 A 
ATOM      5  C   UNL     1      14.769  -5.954   8.187  1.00  0.00     0.025 A 
ATOM      6  C   UNL     1      15.612  -7.026   7.870  1.00  0.00     0.062 A 
ATOM      7  C   UNL     1      14.864  -4.728   7.519  1.00  0.00     0.020 A 
ATOM      8  C   UNL     1      14.004  -3.689   7.868  1.00  0.00     0.094 A 
ATOM      9  C   UNL     1      13.064  -3.899   8.881  1.00  0.00     0.336 A 
ATOM     10  O   UNL     1      12.278  -2.974   9.212  1.00  0.00    -0.246 OA
ATOM     11  O   UNL     1      12.995  -5.075   9.500  1.00  0.00    -0.419 OA
ENDROOT
BRANCH   1  12
ATOM     12  O   UNL     1      16.322  -9.345   8.266  1.00  0.00    -0.493 OA
ATOM     13  C   UNL     1      16.194 -10.172   7.114  1.00  0.00     0.278 C 
ENDBRANCH   1  12
BRANCH   2  14
ATOM     14  O   UNL     1      14.385  -9.588  10.264  1.00  0.00    -0.502 OA
ATOM     15  H   UNL     1      15.103 -10.304  10.255  1.00  0.00     0.293 HD
ENDBRANCH   2  14
BRANCH   3  16
ATOM     16  O   UNL     1      12.705  -7.428  10.884  1.00  0.00    -0.502 OA
ATOM     17  H   UNL     1      12.197  -6.629  11.242  1.00  0.00     0.293 HD
ENDBRANCH   3  16
TORSDOF 3
ENDMDL
MODEL 4
REMARK VINA RESULT:    -3.944     12.877     13.565
REMARK INTER + INTRA:          -4.459
REMARK INTER:                  -4.409
REMARK INTRA:                  -0.049
REMARK UNBOUND:                -0.054
REMARK SMILES COc1cc2ccc(=O)oc2c(O)c1O
REMARK SMILES IDX 3 1 14 2 12 3 11 4 5 5 4 6 6 7 7 8 8 9 9 10 10 11 2 12 1 13
REMARK SMILES IDX 15 14 13 16
REMARK H PARENT 15 15 13 17
REMARK Flexibility Score: inf
ROOT
ATOM      1  C   UNL     1      20.091  -0.088  19.416  1.00  0.00     0.165 A 
ATOM      2  C   UNL     1      20.500  -1.416  19.644  1.00  0.00     0.204 A 
ATOM      3  C   UNL     1      19.584  -2.367  20.128  1.00  0.00     0.205 A 
ATOM      4  C   UNL     1      18.259  -1.995  20.385  1.00  0.00     0.184 A 
ATOM      5  C   UNL     1      17.844  -0.667  20.158  1.00  0.00     0.025 A 
ATOM      6  C   UNL     1      18.756   0.280  19.676  1.00  0.00     0.062 A 
ATOM      7  C   UNL     1      16.513  -0.328  20.424  1.00  0.00     0.020 A 
ATOM      8  C   UNL     1      15.641  -1.304  20.903  1.00  0.00     0.094 A 
ATOM      9  C   UNL     1      16.121  -2.601  21.106  1.00  0.00     0.336 A 
ATOM     10  O   UNL     1      15.350  -3.497  21.537  1.00  0.00    -0.246 OA
ATOM     11  O   UNL     1      17.392  -2.896  20.844  1.00  0.00    -0.419 OA
ENDROOT
BRANCH   1  12
ATOM     12  O   UNL     1      21.032   0.836  18.932  1.00  0.00    -0.493 OA
ATOM     13  C   UNL     1      20.839   2.246  18.900  1.00  0.00     0.278 C 
ENDBRANCH   1  12
BRANCH   2  14
ATOM     14  O   UNL     1      21.818  -1.805  19.393  1.00  0.00    -0.502 OA
ATOM     15  H   UNL     1      22.409  -1.319  18.729  1.00  0.00     0.293 HD
ENDBRANCH   2  14
BRANCH   3  16
ATOM     16  O   UNL     1      19.975  -3.687  20.359  1.00  0.00    -0.502 OA
ATOM     17  H   UNL     1      20.451  -3.969  21.208  1.00  0.00     0.293 HD
ENDBRANCH   3  16
TORSDOF 3
ENDMDL
MODEL 5
REMARK VINA RESULT:    -3.923     12.752     13.647
REMARK INTER + INTRA:          -4.436
REMARK INTER:                  -4.366
REMARK INTRA:                  -0.069
REMARK UNBOUND:                -0.054
REMARK SMILES COc1cc2ccc(=O)oc2c(O)c1O
REMARK SMILES IDX 3 1 14 2 12 3 11 4 5 5 4 6 6 7 7 8 8 9 9 10 10 11 2 12 1 13
REMARK SMILES IDX 15 14 13 16
REMARK H PARENT 15 15 13 17
REMARK Flexibility Score: inf
ROOT
ATOM      1  C   UNL     1      22.255  -5.463  20.045  1.00  0.00     0.165 A 
ATOM      2  C   UNL     1      22.200  -4.719  18.850  1.00  0.00     0.204 A 
ATOM      3  C   UNL     1      21.332  -3.618  18.739  1.00  0.00     0.205 A 
ATOM      4  C   UNL     1      20.518  -3.256  19.819  1.00  0.00     0.184 A 
ATOM      5  C   UNL     1      20.569  -3.998  21.018  1.00  0.00     0.025 A 
ATOM      6  C   UNL     1      21.433  -5.095  21.128  1.00  0.00     0.062 A 
ATOM      7  C   UNL     1      19.742  -3.611  22.078  1.00  0.00     0.020 A 
ATOM      8  C   UNL     1      18.898  -2.513  21.923  1.00  0.00     0.094 A 
ATOM      9  C   UNL     1      18.900  -1.824  20.706  1.00  0.00     0.336 A 
ATOM     10  O   UNL     1      18.145  -0.830  20.545  1.00  0.00    -0.246 OA
ATOM     11  O   UNL     1      19.696  -2.214  19.714  1.00  0.00    -0.419 OA
ENDROOT
BRANCH   1  12
ATOM     12  O   UNL     1      23.132  -6.556  20.121  1.00  0.00    -0.493 OA
ATOM     13  C   UNL     1      22.739  -7.919  19.998  1.00  0.00     0.278 C 
ENDBRANCH   1  12
BRANCH   2  14
ATOM     14  O   UNL     1      23.005  -5.065  17.762  1.00  0.00    -0.502 OA
ATOM     15  H   UNL     1      24.017  -5.065  17.815  1.00  0.00     0.293 HD
ENDBRANCH   2  14
BRANCH   3  16
ATOM     16  O   UNL     1      21.268  -2.871  17.561  1.00  0.00    -0.502 OA
ATOM     17  H   UNL     1      20.887  -1.933  17.537  1.00  0.00     0.293 HD
ENDBRANCH   3  16
TORSDOF 3
ENDMDL
MODEL 6
REMARK VINA RESULT:    -3.905     13.177     13.438
REMARK INTER + INTRA:          -4.415
REMARK INTER:                  -4.366
REMARK INTRA:                  -0.049
REMARK UNBOUND:                -0.054
REMARK SMILES COc1cc2ccc(=O)oc2c(O)c1O
REMARK SMILES IDX 3 1 14 2 12 3 11 4 5 5 4 6 6 7 7 8 8 9 9 10 10 11 2 12 1 13
REMARK SMILES IDX 15 14 13 16
REMARK H PARENT 15 15 13 17
REMARK Flexibility Score: inf
ROOT
ATOM      1  C   UNL     1      17.620  -1.876  20.422  1.00  0.00     0.165 A 
ATOM      2  C   UNL     1      18.971  -2.277  20.447  1.00  0.00     0.204 A 
ATOM      3  C   UNL     1      19.985  -1.374  20.081  1.00  0.00     0.205 A 
ATOM      4  C   UNL     1      19.655  -0.071  19.691  1.00  0.00     0.184 A 
ATOM      5  C   UNL     1      18.305   0.335  19.665  1.00  0.00     0.025 A 
ATOM      6  C   UNL     1      17.295  -0.564  20.029  1.00  0.00     0.062 A 
ATOM      7  C   UNL     1      18.009   1.645  19.271  1.00  0.00     0.020 A 
ATOM      8  C   UNL     1      19.047   2.504  18.917  1.00  0.00     0.094 A 
ATOM      9  C   UNL     1      20.362   2.034  18.966  1.00  0.00     0.336 A 
ATOM     10  O   UNL     1      21.314   2.794  18.650  1.00  0.00    -0.246 OA
ATOM     11  O   UNL     1      20.615   0.784  19.344  1.00  0.00    -0.419 OA
ENDROOT
BRANCH   1  12
ATOM     12  O   UNL     1      16.633  -2.804  20.794  1.00  0.00    -0.493 OA
ATOM     13  C   UNL     1      15.232  -2.555  20.751  1.00  0.00     0.278 C 
ENDBRANCH   1  12
BRANCH   2  14
ATOM     14  O   UNL     1      19.318  -3.574  20.833  1.00  0.00    -0.502 OA
ATOM     15  H   UNL     1      18.774  -4.384  20.562  1.00  0.00     0.293 HD
ENDBRANCH   2  14
BRANCH   3  16
ATOM     16  O   UNL     1      21.327  -1.757  20.100  1.00  0.00    -0.502 OA
ATOM     17  H   UNL     1      21.613  -2.727  20.035  1.00  0.00     0.293 HD
ENDBRANCH   3  16
TORSDOF 3
ENDMDL
MODEL 7
REMARK VINA RESULT:    -3.864      1.760      4.493
REMARK INTER + INTRA:          -4.369
REMARK INTER:                  -4.300
REMARK INTRA:                  -0.069
REMARK UNBOUND:                -0.054
REMARK SMILES COc1cc2ccc(=O)oc2c(O)c1O
REMARK SMILES IDX 3 1 14 2 12 3 11 4 5 5 4 6 6 7 7 8 8 9 9 10 10 11 2 12 1 13
REMARK SMILES IDX 15 14 13 16
REMARK H PARENT 15 15 13 17
REMARK Flexibility Score: inf
ROOT
ATOM      1  C   UNL     1      10.181  -4.928   9.359  1.00  0.00     0.165 A 
ATOM      2  C   UNL     1      10.067  -6.171  10.012  1.00  0.00     0.204 A 
ATOM      3  C   UNL     1      11.192  -7.001  10.159  1.00  0.00     0.205 A 
ATOM      4  C   UNL     1      12.433  -6.594   9.654  1.00  0.00     0.184 A 
ATOM      5  C   UNL     1      12.553  -5.351   8.999  1.00  0.00     0.025 A 
ATOM      6  C   UNL     1      11.432  -4.524   8.853  1.00  0.00     0.062 A 
ATOM      7  C   UNL     1      13.806  -4.974   8.507  1.00  0.00     0.020 A 
ATOM      8  C   UNL     1      14.894  -5.830   8.675  1.00  0.00     0.094 A 
ATOM      9  C   UNL     1      14.702  -7.047   9.334  1.00  0.00     0.336 A 
ATOM     10  O   UNL     1      15.671  -7.834   9.496  1.00  0.00    -0.246 OA
ATOM     11  O   UNL     1      13.498  -7.381   9.793  1.00  0.00    -0.419 OA
ENDROOT
BRANCH   1  12
ATOM     12  O   UNL     1       9.036  -4.124   9.230  1.00  0.00    -0.493 OA
ATOM     13  C   UNL     1       8.279  -3.980   8.033  1.00  0.00     0.278 C 
ENDBRANCH   1  12
BRANCH   2  14
ATOM     14  O   UNL     1       8.836  -6.593  10.522  1.00  0.00    -0.502 OA
ATOM     15  H   UNL     1       8.443  -6.212  11.375  1.00  0.00     0.293 HD
ENDBRANCH   2  14
BRANCH   3  16
ATOM     16  O   UNL     1      11.094  -8.235  10.805  1.00  0.00    -0.502 OA
ATOM     17  H   UNL     1      11.037  -8.314  11.812  1.00  0.00     0.293 HD
ENDBRANCH   3  16
TORSDOF 3
ENDMDL
MODEL 8
REMARK VINA RESULT:    -3.836     13.034     13.215
REMARK INTER + INTRA:          -4.338
REMARK INTER:                  -4.271
REMARK INTRA:                  -0.067
REMARK UNBOUND:                -0.054
REMARK SMILES COc1cc2ccc(=O)oc2c(O)c1O
REMARK SMILES IDX 3 1 14 2 12 3 11 4 5 5 4 6 6 7 7 8 8 9 9 10 10 11 2 12 1 13
REMARK SMILES IDX 15 14 13 16
REMARK H PARENT 15 15 13 17
REMARK Flexibility Score: inf
ROOT
ATOM      1  C   UNL     1      21.394  -2.263  19.025  1.00  0.00     0.165 A 
ATOM      2  C   UNL     1      20.615  -3.020  19.922  1.00  0.00     0.204 A 
ATOM      3  C   UNL     1      19.417  -2.495  20.439  1.00  0.00     0.205 A 
ATOM      4  C   UNL     1      18.994  -1.215  20.062  1.00  0.00     0.184 A 
ATOM      5  C   UNL     1      19.770  -0.453  19.163  1.00  0.00     0.025 A 
ATOM      6  C   UNL     1      20.963  -0.976  18.649  1.00  0.00     0.062 A 
ATOM      7  C   UNL     1      19.318   0.822  18.807  1.00  0.00     0.020 A 
ATOM      8  C   UNL     1      18.125   1.301  19.344  1.00  0.00     0.094 A 
ATOM      9  C   UNL     1      17.407   0.491  20.229  1.00  0.00     0.336 A 
ATOM     10  O   UNL     1      16.327   0.905  20.725  1.00  0.00    -0.246 OA
ATOM     11  O   UNL     1      17.860  -0.718  20.551  1.00  0.00    -0.419 OA
ENDROOT
BRANCH   1  12
ATOM     12  O   UNL     1      22.585  -2.818  18.529  1.00  0.00    -0.493 OA
ATOM     13  C   UNL     1      23.892  -2.372  18.876  1.00  0.00     0.278 C 
ENDBRANCH   1  12
BRANCH   2  14
ATOM     14  O   UNL     1      21.023  -4.299  20.310  1.00  0.00    -0.502 OA
ATOM     15  H   UNL     1      21.723  -4.823  19.798  1.00  0.00     0.293 HD
ENDBRANCH   2  14
BRANCH   3  16
ATOM     16  O   UNL     1      18.635  -3.233  21.329  1.00  0.00    -0.502 OA
ATOM     17  H   UNL     1      17.648  -3.396  21.173  1.00  0.00     0.293 HD
ENDBRANCH   3  16
TORSDOF 3
ENDMDL
MODEL 9
REMARK VINA RESULT:    -3.741     13.026     13.651
REMARK INTER + INTRA:          -4.232
REMARK INTER:                  -4.182
REMARK INTRA:                  -0.050
REMARK UNBOUND:                -0.054
REMARK SMILES COc1cc2ccc(=O)oc2c(O)c1O
REMARK SMILES IDX 3 1 14 2 12 3 11 4 5 5 4 6 6 7 7 8 8 9 9 10 10 11 2 12 1 13
REMARK SMILES IDX 15 14 13 16
REMARK H PARENT 15 15 13 17
REMARK Flexibility Score: inf
ROOT
ATOM      1  C   UNL     1      17.051   0.197  20.714  1.00  0.00     0.165 A 
ATOM      2  C   UNL     1      17.147  -1.113  21.224  1.00  0.00     0.204 A 
ATOM      3  C   UNL     1      18.215  -1.945  20.845  1.00  0.00     0.205 A 
ATOM      4  C   UNL     1      19.189  -1.473  19.957  1.00  0.00     0.184 A 
ATOM      5  C   UNL     1      19.097  -0.163  19.443  1.00  0.00     0.025 A 
ATOM      6  C   UNL     1      18.033   0.666  19.820  1.00  0.00     0.062 A 
ATOM      7  C   UNL     1      20.087   0.278  18.557  1.00  0.00     0.020 A 
ATOM      8  C   UNL     1      21.127  -0.582  18.209  1.00  0.00     0.094 A 
ATOM      9  C   UNL     1      21.154  -1.868  18.757  1.00  0.00     0.336 A 
ATOM     10  O   UNL     1      22.085  -2.660  18.456  1.00  0.00    -0.246 OA
ATOM     11  O   UNL     1      20.200  -2.261  19.597  1.00  0.00    -0.419 OA
ENDROOT
BRANCH   1  12
ATOM     12  O   UNL     1      15.971   1.000  21.114  1.00  0.00    -0.493 OA
ATOM     13  C   UNL     1      15.971   2.424  21.096  1.00  0.00     0.278 C 
ENDBRANCH   1  12
BRANCH   2  14
ATOM     14  O   UNL     1      16.185  -1.600  22.112  1.00  0.00    -0.502 OA
ATOM     15  H   UNL     1      16.379  -1.745  23.096  1.00  0.00     0.293 HD
ENDBRANCH   2  14
BRANCH   3  16
ATOM     16  O   UNL     1      18.324  -3.245  21.343  1.00  0.00    -0.502 OA
ATOM     17  H   UNL     1      18.159  -3.465  22.317  1.00  0.00     0.293 HD
ENDBRANCH   3  16
TORSDOF 3
ENDMDL
