MODEL 1
REMARK VINA RESULT:    -3.511      0.000      0.000
REMARK INTER + INTRA:         -14.159
REMARK INTER:                  -9.258
REMARK INTRA:                  -4.901
REMARK UNBOUND:                -4.901
REMARK SMILES CCCCCCCCCCCCCCCCCCCCCCCCCCCCCC(=O)[O-]
REMARK SMILES IDX 16 1 17 2 18 3 19 4 20 5 21 6 22 7 23 8 24 9 25 10 26 11
REMARK SMILES IDX 27 12 28 13 29 14 30 15 31 16 32 17 15 18 14 19 13 20 12 21
REMARK SMILES IDX 11 22 10 23 9 24 8 25 7 26 6 27 5 28 4 29 3 30 2 31 1 32
REMARK H PARENT
REMARK Flexibility Score: inf
ROOT
ATOM      1  C   UNL     1      14.430   7.765  12.015  1.00  0.00     0.000 C 
ENDROOT
BRANCH   1   2
ATOM      2  C   UNL     1      13.254   6.913  12.525  1.00  0.00     0.000 C 
BRANCH   2   3
ATOM      3  C   UNL     1      11.883   7.528  12.199  1.00  0.00     0.000 C 
BRANCH   3   4
ATOM      4  C   UNL     1      11.192   6.829  11.015  1.00  0.00     0.000 C 
BRANCH   4   5
ATOM      5  C   UNL     1      11.745   5.415  10.756  1.00  0.00     0.000 C 
BRANCH   5   6
ATOM      6  C   UNL     1      12.324   5.261   9.341  1.00  0.00     0.000 C 
BRANCH   6   7
ATOM      7  C   UNL     1      11.899   6.401   8.405  1.00  0.00     0.000 C 
BRANCH   7   8
ATOM      8  C   UNL     1      10.901   5.896   7.350  1.00  0.00     0.000 C 
BRANCH   8   9
ATOM      9  C   UNL     1      10.633   6.933   6.249  1.00  0.00     0.000 C 
BRANCH   9  10
ATOM     10  C   UNL     1      10.667   8.379   6.778  1.00  0.00     0.000 C 
BRANCH  10  11
ATOM     11  C   UNL     1       9.983   9.360   5.811  1.00  0.00     0.000 C 
BRANCH  11  12
ATOM     12  C   UNL     1       8.809  10.109   6.468  1.00  0.00     0.000 C 
BRANCH  12  13
ATOM     13  C   UNL     1       9.216  10.782   7.790  1.00  0.00     0.006 C 
BRANCH  13  14
ATOM     14  C   UNL     1       8.028  11.483   8.466  1.00  0.00     0.053 C 
BRANCH  14  15
ATOM     15  C   UNL     1       7.671  12.741   7.742  1.00  0.00     0.041 C 
ATOM     16  O   UNL     1       8.574  13.533   7.368  1.00  0.00    -0.550 OA
ATOM     17  O   UNL     1       6.337  13.060   7.521  1.00  0.00    -0.550 OA
ENDBRANCH  14  15
ENDBRANCH  13  14
ENDBRANCH  12  13
ENDBRANCH  11  12
ENDBRANCH  10  11
ENDBRANCH   9  10
ENDBRANCH   8   9
ENDBRANCH   7   8
ENDBRANCH   6   7
ENDBRANCH   5   6
ENDBRANCH   4   5
ENDBRANCH   3   4
ENDBRANCH   2   3
ENDBRANCH   1   2
BRANCH   1  18
ATOM     18  C   UNL     1      15.107   7.197  10.752  1.00  0.00     0.000 C 
BRANCH  18  19
ATOM     19  C   UNL     1      15.746   5.823  10.999  1.00  0.00     0.000 C 
BRANCH  19  20
ATOM     20  C   UNL     1      16.169   5.169   9.674  1.00  0.00     0.000 C 
BRANCH  20  21
ATOM     21  C   UNL     1      15.772   6.005   8.442  1.00  0.00     0.000 C 
BRANCH  21  22
ATOM     22  C   UNL     1      16.109   5.370   7.076  1.00  0.00     0.000 C 
BRANCH  22  23
ATOM     23  C   UNL     1      14.896   5.056   6.181  1.00  0.00     0.000 C 
BRANCH  23  24
ATOM     24  C   UNL     1      14.225   6.319   5.616  1.00  0.00    -0.000 C 
BRANCH  24  25
ATOM     25  C   UNL     1      13.569   6.061   4.247  1.00  0.00    -0.000 C 
BRANCH  25  26
ATOM     26  C   UNL     1      13.274   7.360   3.472  1.00  0.00    -0.000 C 
BRANCH  26  27
ATOM     27  C   UNL     1      13.506   8.613   4.333  1.00  0.00    -0.000 C 
BRANCH  27  28
ATOM     28  C   UNL     1      14.528   9.571   3.700  1.00  0.00    -0.000 C 
BRANCH  28  29
ATOM     29  C   UNL     1      15.439   8.875   2.662  1.00  0.00    -0.000 C 
BRANCH  29  30
ATOM     30  C   UNL     1      16.918   8.901   3.085  1.00  0.00    -0.000 C 
BRANCH  30  31
ATOM     31  C   UNL     1      17.264   7.809   4.106  1.00  0.00    -0.003 C 
ATOM     32  C   UNL     1      17.517   8.366   5.505  1.00  0.00     0.004 C 
ENDBRANCH  30  31
ENDBRANCH  29  30
ENDBRANCH  28  29
ENDBRANCH  27  28
ENDBRANCH  26  27
ENDBRANCH  25  26
ENDBRANCH  24  25
ENDBRANCH  23  24
ENDBRANCH  22  23
ENDBRANCH  21  22
ENDBRANCH  20  21
ENDBRANCH  19  20
ENDBRANCH  18  19
ENDBRANCH   1  18
TORSDOF 28
ENDMDL
MODEL 2
REMARK VINA RESULT:    -3.502      1.466      2.317
REMARK INTER + INTRA:         -14.136
REMARK INTER:                 -10.202
REMARK INTRA:                  -3.934
REMARK UNBOUND:                -4.901
REMARK SMILES CCCCCCCCCCCCCCCCCCCCCCCCCCCCCC(=O)[O-]
REMARK SMILES IDX 16 1 17 2 18 3 19 4 20 5 21 6 22 7 23 8 24 9 25 10 26 11
REMARK SMILES IDX 27 12 28 13 29 14 30 15 31 16 32 17 15 18 14 19 13 20 12 21
REMARK SMILES IDX 11 22 10 23 9 24 8 25 7 26 6 27 5 28 4 29 3 30 2 31 1 32
REMARK H PARENT
REMARK Flexibility Score: inf
ROOT
ATOM      1  C   UNL     1      13.376   7.299  12.095  1.00  0.00     0.000 C 
ENDROOT
BRANCH   1   2
ATOM      2  C   UNL     1      12.543   6.303  11.267  1.00  0.00     0.000 C 
BRANCH   2   3
ATOM      3  C   UNL     1      11.188   6.879  10.823  1.00  0.00     0.000 C 
BRANCH   3   4
ATOM      4  C   UNL     1      10.715   6.299   9.478  1.00  0.00     0.000 C 
BRANCH   4   5
ATOM      5  C   UNL     1      11.620   6.714   8.303  1.00  0.00     0.000 C 
BRANCH   5   6
ATOM      6  C   UNL     1      12.450   5.541   7.758  1.00  0.00     0.000 C 
BRANCH   6   7
ATOM      7  C   UNL     1      12.283   5.359   6.243  1.00  0.00     0.000 C 
BRANCH   7   8
ATOM      8  C   UNL     1      12.997   6.485   5.477  1.00  0.00     0.000 C 
BRANCH   8   9
ATOM      9  C   UNL     1      12.046   7.265   4.556  1.00  0.00     0.000 C 
BRANCH   9  10
ATOM     10  C   UNL     1      11.642   8.630   5.143  1.00  0.00     0.000 C 
BRANCH  10  11
ATOM     11  C   UNL     1      10.120   8.850   5.090  1.00  0.00     0.000 C 
BRANCH  11  12
ATOM     12  C   UNL     1       9.668  10.037   5.959  1.00  0.00     0.000 C 
BRANCH  12  13
ATOM     13  C   UNL     1       8.920   9.582   7.224  1.00  0.00     0.006 C 
BRANCH  13  14
ATOM     14  C   UNL     1       7.850  10.596   7.654  1.00  0.00     0.053 C 
BRANCH  14  15
ATOM     15  C   UNL     1       8.478  11.784   8.309  1.00  0.00     0.041 C 
ATOM     16  O   UNL     1       8.415  12.915   7.762  1.00  0.00    -0.550 OA
ATOM     17  O   UNL     1       9.173  11.632   9.503  1.00  0.00    -0.550 OA
ENDBRANCH  14  15
ENDBRANCH  13  14
ENDBRANCH  12  13
ENDBRANCH  11  12
ENDBRANCH  10  11
ENDBRANCH   9  10
ENDBRANCH   8   9
ENDBRANCH   7   8
ENDBRANCH   6   7
ENDBRANCH   5   6
ENDBRANCH   4   5
ENDBRANCH   3   4
ENDBRANCH   2   3
ENDBRANCH   1   2
BRANCH   1  18
ATOM     18  C   UNL     1      14.815   7.488  11.574  1.00  0.00     0.000 C 
BRANCH  18  19
ATOM     19  C   UNL     1      15.013   6.888  10.175  1.00  0.00     0.000 C 
BRANCH  19  20
ATOM     20  C   UNL     1      16.019   5.727  10.215  1.00  0.00     0.000 C 
BRANCH  20  21
ATOM     21  C   UNL     1      16.244   5.085   8.833  1.00  0.00     0.000 C 
BRANCH  21  22
ATOM     22  C   UNL     1      15.990   6.011   7.624  1.00  0.00     0.000 C 
BRANCH  22  23
ATOM     23  C   UNL     1      16.534   5.497   6.278  1.00  0.00     0.000 C 
BRANCH  23  24
ATOM     24  C   UNL     1      17.240   6.591   5.460  1.00  0.00    -0.000 C 
BRANCH  24  25
ATOM     25  C   UNL     1      16.480   7.930   5.509  1.00  0.00    -0.000 C 
BRANCH  25  26
ATOM     26  C   UNL     1      16.303   8.568   4.118  1.00  0.00    -0.000 C 
BRANCH  26  27
ATOM     27  C   UNL     1      15.079   9.497   4.058  1.00  0.00    -0.000 C 
BRANCH  27  28
ATOM     28  C   UNL     1      14.383   9.453   2.688  1.00  0.00    -0.000 C 
BRANCH  28  29
ATOM     29  C   UNL     1      15.364   9.168   1.527  1.00  0.00    -0.000 C 
BRANCH  29  30
ATOM     30  C   UNL     1      15.308  10.260   0.445  1.00  0.00    -0.000 C 
BRANCH  30  31
ATOM     31  C   UNL     1      16.671  10.923   0.199  1.00  0.00    -0.003 C 
ATOM     32  C   UNL     1      17.667  10.658   1.325  1.00  0.00     0.004 C 
ENDBRANCH  30  31
ENDBRANCH  29  30
ENDBRANCH  28  29
ENDBRANCH  27  28
ENDBRANCH  26  27
ENDBRANCH  25  26
ENDBRANCH  24  25
ENDBRANCH  23  24
ENDBRANCH  22  23
ENDBRANCH  21  22
ENDBRANCH  20  21
ENDBRANCH  19  20
ENDBRANCH  18  19
ENDBRANCH   1  18
TORSDOF 28
ENDMDL
MODEL 3
REMARK VINA RESULT:    -3.440      2.726      6.693
REMARK INTER + INTRA:         -13.973
REMARK INTER:                  -8.368
REMARK INTRA:                  -5.605
REMARK UNBOUND:                -4.901
REMARK SMILES CCCCCCCCCCCCCCCCCCCCCCCCCCCCCC(=O)[O-]
REMARK SMILES IDX 16 1 17 2 18 3 19 4 20 5 21 6 22 7 23 8 24 9 25 10 26 11
REMARK SMILES IDX 27 12 28 13 29 14 30 15 31 16 32 17 15 18 14 19 13 20 12 21
REMARK SMILES IDX 11 22 10 23 9 24 8 25 7 26 6 27 5 28 4 29 3 30 2 31 1 32
REMARK H PARENT
REMARK Flexibility Score: inf
ROOT
ATOM      1  C   UNL     1      11.072   6.867   8.055  1.00  0.00     0.000 C 
ENDROOT
BRANCH   1   2
ATOM      2  C   UNL     1      11.371   6.689   6.555  1.00  0.00     0.000 C 
BRANCH   2   3
ATOM      3  C   UNL     1      11.284   8.007   5.767  1.00  0.00     0.000 C 
BRANCH   3   4
ATOM      4  C   UNL     1      10.344   9.028   6.431  1.00  0.00     0.000 C 
BRANCH   4   5
ATOM      5  C   UNL     1       9.081   9.302   5.595  1.00  0.00     0.000 C 
BRANCH   5   6
ATOM      6  C   UNL     1       8.538   8.033   4.918  1.00  0.00     0.000 C 
BRANCH   6   7
ATOM      7  C   UNL     1       7.455   7.338   5.755  1.00  0.00     0.000 C 
BRANCH   7   8
ATOM      8  C   UNL     1       6.799   8.332   6.728  1.00  0.00     0.000 C 
BRANCH   8   9
ATOM      9  C   UNL     1       6.665   7.763   8.149  1.00  0.00     0.000 C 
BRANCH   9  10
ATOM     10  C   UNL     1       7.858   8.133   9.050  1.00  0.00     0.000 C 
BRANCH  10  11
ATOM     11  C   UNL     1       7.653   9.490   9.745  1.00  0.00     0.000 C 
BRANCH  11  12
ATOM     12  C   UNL     1       8.949  10.320   9.807  1.00  0.00     0.000 C 
BRANCH  12  13
ATOM     13  C   UNL     1       8.997  11.406   8.718  1.00  0.00     0.006 C 
BRANCH  13  14
ATOM     14  C   UNL     1       7.592  11.799   8.238  1.00  0.00     0.053 C 
BRANCH  14  15
ATOM     15  C   UNL     1       7.605  13.157   7.614  1.00  0.00     0.041 C 
ATOM     16  O   UNL     1       8.683  13.651   7.196  1.00  0.00    -0.550 OA
ATOM     17  O   UNL     1       6.431  13.897   7.537  1.00  0.00    -0.550 OA
ENDBRANCH  14  15
ENDBRANCH  13  14
ENDBRANCH  12  13
ENDBRANCH  11  12
ENDBRANCH  10  11
ENDBRANCH   9  10
ENDBRANCH   8   9
ENDBRANCH   7   8
ENDBRANCH   6   7
ENDBRANCH   5   6
ENDBRANCH   4   5
ENDBRANCH   3   4
ENDBRANCH   2   3
ENDBRANCH   1   2
BRANCH   1  18
ATOM     18  C   UNL     1      10.905   5.537   8.816  1.00  0.00     0.000 C 
BRANCH  18  19
ATOM     19  C   UNL     1      12.034   5.298   9.829  1.00  0.00     0.000 C 
BRANCH  19  20
ATOM     20  C   UNL     1      12.999   6.493   9.865  1.00  0.00     0.000 C 
BRANCH  20  21
ATOM     21  C   UNL     1      14.463   6.085   9.614  1.00  0.00     0.000 C 
BRANCH  21  22
ATOM     22  C   UNL     1      15.475   6.563  10.678  1.00  0.00     0.000 C 
BRANCH  22  23
ATOM     23  C   UNL     1      14.997   7.730  11.562  1.00  0.00     0.000 C 
BRANCH  23  24
ATOM     24  C   UNL     1      15.009   7.390  13.062  1.00  0.00    -0.000 C 
BRANCH  24  25
ATOM     25  C   UNL     1      14.567   5.940  13.329  1.00  0.00    -0.000 C 
BRANCH  25  26
ATOM     26  C   UNL     1      13.044   5.804  13.514  1.00  0.00    -0.000 C 
BRANCH  26  27
ATOM     27  C   UNL     1      12.498   6.788  14.564  1.00  0.00    -0.000 C 
BRANCH  27  28
ATOM     28  C   UNL     1      11.181   7.442  14.115  1.00  0.00    -0.000 C 
BRANCH  28  29
ATOM     29  C   UNL     1      11.292   8.129  12.735  1.00  0.00    -0.000 C 
BRANCH  29  30
ATOM     30  C   UNL     1      10.185   7.668  11.771  1.00  0.00    -0.000 C 
BRANCH  30  31
ATOM     31  C   UNL     1       9.038   6.941  12.487  1.00  0.00    -0.003 C 
ATOM     32  C   UNL     1       8.626   5.652  11.781  1.00  0.00     0.004 C 
ENDBRANCH  30  31
ENDBRANCH  29  30
ENDBRANCH  28  29
ENDBRANCH  27  28
ENDBRANCH  26  27
ENDBRANCH  25  26
ENDBRANCH  24  25
ENDBRANCH  23  24
ENDBRANCH  22  23
ENDBRANCH  21  22
ENDBRANCH  20  21
ENDBRANCH  19  20
ENDBRANCH  18  19
ENDBRANCH   1  18
TORSDOF 28
ENDMDL
MODEL 4
REMARK VINA RESULT:    -3.351      1.062      2.438
REMARK INTER + INTRA:         -13.738
REMARK INTER:                  -8.974
REMARK INTRA:                  -4.764
REMARK UNBOUND:                -4.901
REMARK SMILES CCCCCCCCCCCCCCCCCCCCCCCCCCCCCC(=O)[O-]
REMARK SMILES IDX 16 1 17 2 18 3 19 4 20 5 21 6 22 7 23 8 24 9 25 10 26 11
REMARK SMILES IDX 27 12 28 13 29 14 30 15 31 16 32 17 15 18 14 19 13 20 12 21
REMARK SMILES IDX 11 22 10 23 9 24 8 25 7 26 6 27 5 28 4 29 3 30 2 31 1 32
REMARK H PARENT
REMARK Flexibility Score: inf
ROOT
ATOM      1  C   UNL     1      14.629   7.699  11.970  1.00  0.00     0.000 C 
ENDROOT
BRANCH   1   2
ATOM      2  C   UNL     1      13.171   7.332  12.303  1.00  0.00     0.000 C 
BRANCH   2   3
ATOM      3  C   UNL     1      13.060   6.174  13.309  1.00  0.00     0.000 C 
BRANCH   3   4
ATOM      4  C   UNL     1      12.738   4.832  12.628  1.00  0.00     0.000 C 
BRANCH   4   5
ATOM      5  C   UNL     1      12.047   5.011  11.264  1.00  0.00     0.000 C 
BRANCH   5   6
ATOM      6  C   UNL     1      12.594   4.048  10.198  1.00  0.00     0.000 C 
BRANCH   6   7
ATOM      7  C   UNL     1      12.349   4.554   8.769  1.00  0.00     0.000 C 
BRANCH   7   8
ATOM      8  C   UNL     1      12.206   6.085   8.751  1.00  0.00     0.000 C 
BRANCH   8   9
ATOM      9  C   UNL     1      10.874   6.544   8.138  1.00  0.00     0.000 C 
BRANCH   9  10
ATOM     10  C   UNL     1      11.057   7.663   7.095  1.00  0.00     0.000 C 
BRANCH  10  11
ATOM     11  C   UNL     1      10.320   7.349   5.782  1.00  0.00     0.000 C 
BRANCH  11  12
ATOM     12  C   UNL     1       9.448   8.524   5.303  1.00  0.00     0.000 C 
BRANCH  12  13
ATOM     13  C   UNL     1       9.857   9.856   5.957  1.00  0.00     0.006 C 
BRANCH  13  14
ATOM     14  C   UNL     1       8.695  10.494   6.733  1.00  0.00     0.053 C 
BRANCH  14  15
ATOM     15  C   UNL     1       9.183  11.611   7.597  1.00  0.00     0.041 C 
ATOM     16  O   UNL     1       9.449  11.404   8.809  1.00  0.00    -0.550 OA
ATOM     17  O   UNL     1       9.299  12.893   7.075  1.00  0.00    -0.550 OA
ENDBRANCH  14  15
ENDBRANCH  13  14
ENDBRANCH  12  13
ENDBRANCH  11  12
ENDBRANCH  10  11
ENDBRANCH   9  10
ENDBRANCH   8   9
ENDBRANCH   7   8
ENDBRANCH   6   7
ENDBRANCH   5   6
ENDBRANCH   4   5
ENDBRANCH   3   4
ENDBRANCH   2   3
ENDBRANCH   1   2
BRANCH   1  18
ATOM     18  C   UNL     1      15.136   7.089  10.648  1.00  0.00     0.000 C 
BRANCH  18  19
ATOM     19  C   UNL     1      15.898   5.773  10.866  1.00  0.00     0.000 C 
BRANCH  19  20
ATOM     20  C   UNL     1      16.114   5.039   9.534  1.00  0.00     0.000 C 
BRANCH  20  21
ATOM     21  C   UNL     1      15.884   5.944   8.308  1.00  0.00     0.000 C 
BRANCH  21  22
ATOM     22  C   UNL     1      15.625   5.203   6.978  1.00  0.00     0.000 C 
BRANCH  22  23
ATOM     23  C   UNL     1      15.704   6.078   5.714  1.00  0.00     0.000 C 
BRANCH  23  24
ATOM     24  C   UNL     1      16.679   7.258   5.861  1.00  0.00    -0.000 C 
BRANCH  24  25
ATOM     25  C   UNL     1      17.732   7.281   4.739  1.00  0.00    -0.000 C 
BRANCH  25  26
ATOM     26  C   UNL     1      17.107   7.376   3.334  1.00  0.00    -0.000 C 
BRANCH  26  27
ATOM     27  C   UNL     1      16.905   8.835   2.888  1.00  0.00    -0.000 C 
BRANCH  27  28
ATOM     28  C   UNL     1      15.489   9.084   2.344  1.00  0.00    -0.000 C 
BRANCH  28  29
ATOM     29  C   UNL     1      14.554   9.741   3.385  1.00  0.00    -0.000 C 
BRANCH  29  30
ATOM     30  C   UNL     1      13.681   8.703   4.111  1.00  0.00    -0.000 C 
BRANCH  30  31
ATOM     31  C   UNL     1      12.756   7.933   3.158  1.00  0.00    -0.003 C 
ATOM     32  C   UNL     1      12.983   6.424   3.206  1.00  0.00     0.004 C 
ENDBRANCH  30  31
ENDBRANCH  29  30
ENDBRANCH  28  29
ENDBRANCH  27  28
ENDBRANCH  26  27
ENDBRANCH  25  26
ENDBRANCH  24  25
ENDBRANCH  23  24
ENDBRANCH  22  23
ENDBRANCH  21  22
ENDBRANCH  20  21
ENDBRANCH  19  20
ENDBRANCH  18  19
ENDBRANCH   1  18
TORSDOF 28
ENDMDL
MODEL 5
REMARK VINA RESULT:    -3.347      2.835      6.397
REMARK INTER + INTRA:         -13.727
REMARK INTER:                  -8.788
REMARK INTRA:                  -4.940
REMARK UNBOUND:                -4.901
REMARK SMILES CCCCCCCCCCCCCCCCCCCCCCCCCCCCCC(=O)[O-]
REMARK SMILES IDX 16 1 17 2 18 3 19 4 20 5 21 6 22 7 23 8 24 9 25 10 26 11
REMARK SMILES IDX 27 12 28 13 29 14 30 15 31 16 32 17 15 18 14 19 13 20 12 21
REMARK SMILES IDX 11 22 10 23 9 24 8 25 7 26 6 27 5 28 4 29 3 30 2 31 1 32
REMARK H PARENT
REMARK Flexibility Score: inf
ROOT
ATOM      1  C   UNL     1      16.163   5.272   9.694  1.00  0.00     0.000 C 
ENDROOT
BRANCH   1   2
ATOM      2  C   UNL     1      15.418   5.934   8.521  1.00  0.00     0.000 C 
BRANCH   2   3
ATOM      3  C   UNL     1      14.459   4.972   7.801  1.00  0.00     0.000 C 
BRANCH   3   4
ATOM      4  C   UNL     1      13.072   5.595   7.561  1.00  0.00     0.000 C 
BRANCH   4   5
ATOM      5  C   UNL     1      12.446   6.161   8.849  1.00  0.00     0.000 C 
BRANCH   5   6
ATOM      6  C   UNL     1      11.027   6.705   8.623  1.00  0.00     0.000 C 
BRANCH   6   7
ATOM      7  C   UNL     1      10.601   6.639   7.149  1.00  0.00     0.000 C 
BRANCH   7   8
ATOM      8  C   UNL     1      10.483   8.052   6.554  1.00  0.00     0.000 C 
BRANCH   8   9
ATOM      9  C   UNL     1       9.914   9.067   7.557  1.00  0.00     0.000 C 
BRANCH   9  10
ATOM     10  C   UNL     1       9.053  10.150   6.880  1.00  0.00     0.000 C 
BRANCH  10  11
ATOM     11  C   UNL     1       7.551   9.841   6.989  1.00  0.00     0.000 C 
BRANCH  11  12
ATOM     12  C   UNL     1       6.799  10.877   7.844  1.00  0.00     0.000 C 
BRANCH  12  13
ATOM     13  C   UNL     1       7.598  12.181   8.014  1.00  0.00     0.006 C 
BRANCH  13  14
ATOM     14  C   UNL     1       7.407  12.792   9.410  1.00  0.00     0.053 C 
BRANCH  14  15
ATOM     15  C   UNL     1       8.296  12.124  10.409  1.00  0.00     0.041 C 
ATOM     16  O   UNL     1       9.450  11.749  10.077  1.00  0.00    -0.550 OA
ATOM     17  O   UNL     1       7.831  11.872  11.694  1.00  0.00    -0.550 OA
ENDBRANCH  14  15
ENDBRANCH  13  14
ENDBRANCH  12  13
ENDBRANCH  11  12
ENDBRANCH  10  11
ENDBRANCH   9  10
ENDBRANCH   8   9
ENDBRANCH   7   8
ENDBRANCH   6   7
ENDBRANCH   5   6
ENDBRANCH   4   5
ENDBRANCH   3   4
ENDBRANCH   2   3
ENDBRANCH   1   2
BRANCH   1  18
ATOM     18  C   UNL     1      15.829   5.887  11.068  1.00  0.00     0.000 C 
BRANCH  18  19
ATOM     19  C   UNL     1      15.126   7.246  10.945  1.00  0.00     0.000 C 
BRANCH  19  20
ATOM     20  C   UNL     1      15.155   8.001  12.282  1.00  0.00     0.000 C 
BRANCH  20  21
ATOM     21  C   UNL     1      15.766   7.168  13.425  1.00  0.00     0.000 C 
BRANCH  21  22
ATOM     22  C   UNL     1      14.934   7.119  14.725  1.00  0.00     0.000 C 
BRANCH  22  23
ATOM     23  C   UNL     1      14.504   5.711  15.177  1.00  0.00     0.000 C 
BRANCH  23  24
ATOM     24  C   UNL     1      14.241   4.758  13.999  1.00  0.00    -0.000 C 
BRANCH  24  25
ATOM     25  C   UNL     1      12.738   4.605  13.704  1.00  0.00    -0.000 C 
BRANCH  25  26
ATOM     26  C   UNL     1      12.246   5.555  12.596  1.00  0.00    -0.000 C 
BRANCH  26  27
ATOM     27  C   UNL     1      11.425   6.728  13.161  1.00  0.00    -0.000 C 
BRANCH  27  28
ATOM     28  C   UNL     1      11.499   7.973  12.262  1.00  0.00    -0.000 C 
BRANCH  28  29
ATOM     29  C   UNL     1      10.459   9.050  12.645  1.00  0.00    -0.000 C 
BRANCH  29  30
ATOM     30  C   UNL     1       9.023   8.611  12.308  1.00  0.00    -0.000 C 
BRANCH  30  31
ATOM     31  C   UNL     1       8.805   8.397  10.803  1.00  0.00    -0.003 C 
ATOM     32  C   UNL     1       7.337   8.182  10.444  1.00  0.00     0.004 C 
ENDBRANCH  30  31
ENDBRANCH  29  30
ENDBRANCH  28  29
ENDBRANCH  27  28
ENDBRANCH  26  27
ENDBRANCH  25  26
ENDBRANCH  24  25
ENDBRANCH  23  24
ENDBRANCH  22  23
ENDBRANCH  21  22
ENDBRANCH  20  21
ENDBRANCH  19  20
ENDBRANCH  18  19
ENDBRANCH   1  18
TORSDOF 28
ENDMDL
MODEL 6
REMARK VINA RESULT:    -3.316      1.263      2.070
REMARK INTER + INTRA:         -13.644
REMARK INTER:                  -8.919
REMARK INTRA:                  -4.725
REMARK UNBOUND:                -4.901
REMARK SMILES CCCCCCCCCCCCCCCCCCCCCCCCCCCCCC(=O)[O-]
REMARK SMILES IDX 16 1 17 2 18 3 19 4 20 5 21 6 22 7 23 8 24 9 25 10 26 11
REMARK SMILES IDX 27 12 28 13 29 14 30 15 31 16 32 17 15 18 14 19 13 20 12 21
REMARK SMILES IDX 11 22 10 23 9 24 8 25 7 26 6 27 5 28 4 29 3 30 2 31 1 32
REMARK H PARENT
REMARK Flexibility Score: inf
ROOT
ATOM      1  C   UNL     1      15.761   5.980  11.289  1.00  0.00     0.000 C 
ENDROOT
BRANCH   1   2
ATOM      2  C   UNL     1      15.050   7.335  11.121  1.00  0.00     0.000 C 
BRANCH   2   3
ATOM      3  C   UNL     1      13.893   7.530  12.116  1.00  0.00     0.000 C 
BRANCH   3   4
ATOM      4  C   UNL     1      12.791   6.470  11.951  1.00  0.00     0.000 C 
BRANCH   4   5
ATOM      5  C   UNL     1      12.159   6.485  10.547  1.00  0.00     0.000 C 
BRANCH   5   6
ATOM      6  C   UNL     1      12.118   5.088   9.906  1.00  0.00     0.000 C 
BRANCH   6   7
ATOM      7  C   UNL     1      12.098   5.146   8.372  1.00  0.00     0.000 C 
BRANCH   7   8
ATOM      8  C   UNL     1      11.605   6.519   7.887  1.00  0.00     0.000 C 
BRANCH   8   9
ATOM      9  C   UNL     1      11.976   6.793   6.422  1.00  0.00     0.000 C 
BRANCH   9  10
ATOM     10  C   UNL     1      10.801   7.372   5.611  1.00  0.00     0.000 C 
BRANCH  10  11
ATOM     11  C   UNL     1      10.764   8.909   5.672  1.00  0.00     0.000 C 
BRANCH  11  12
ATOM     12  C   UNL     1       9.330   9.465   5.599  1.00  0.00     0.000 C 
BRANCH  12  13
ATOM     13  C   UNL     1       8.601   9.373   6.951  1.00  0.00     0.006 C 
BRANCH  13  14
ATOM     14  C   UNL     1       7.922  10.699   7.327  1.00  0.00     0.053 C 
BRANCH  14  15
ATOM     15  C   UNL     1       8.926  11.686   7.827  1.00  0.00     0.041 C 
ATOM     16  O   UNL     1       9.304  12.633   7.089  1.00  0.00    -0.550 OA
ATOM     17  O   UNL     1       9.481  11.533   9.092  1.00  0.00    -0.550 OA
ENDBRANCH  14  15
ENDBRANCH  13  14
ENDBRANCH  12  13
ENDBRANCH  11  12
ENDBRANCH  10  11
ENDBRANCH   9  10
ENDBRANCH   8   9
ENDBRANCH   7   8
ENDBRANCH   6   7
ENDBRANCH   5   6
ENDBRANCH   4   5
ENDBRANCH   3   4
ENDBRANCH   2   3
ENDBRANCH   1   2
BRANCH   1  18
ATOM     18  C   UNL     1      16.157   5.318   9.954  1.00  0.00     0.000 C 
BRANCH  18  19
ATOM     19  C   UNL     1      15.589   6.066   8.739  1.00  0.00     0.000 C 
BRANCH  19  20
ATOM     20  C   UNL     1      15.862   5.291   7.441  1.00  0.00     0.000 C 
BRANCH  20  21
ATOM     21  C   UNL     1      15.529   6.106   6.177  1.00  0.00     0.000 C 
BRANCH  21  22
ATOM     22  C   UNL     1      16.510   5.929   4.998  1.00  0.00     0.000 C 
BRANCH  22  23
ATOM     23  C   UNL     1      15.853   5.775   3.615  1.00  0.00     0.000 C 
BRANCH  23  24
ATOM     24  C   UNL     1      14.342   6.060   3.634  1.00  0.00    -0.000 C 
BRANCH  24  25
ATOM     25  C   UNL     1      13.922   7.031   2.515  1.00  0.00    -0.000 C 
BRANCH  25  26
ATOM     26  C   UNL     1      13.195   8.279   3.049  1.00  0.00    -0.000 C 
BRANCH  26  27
ATOM     27  C   UNL     1      14.135   9.202   3.844  1.00  0.00    -0.000 C 
BRANCH  27  28
ATOM     28  C   UNL     1      15.377   9.602   3.031  1.00  0.00    -0.000 C 
BRANCH  28  29
ATOM     29  C   UNL     1      16.697   9.382   3.805  1.00  0.00    -0.000 C 
BRANCH  29  30
ATOM     30  C   UNL     1      17.834   8.910   2.882  1.00  0.00    -0.000 C 
BRANCH  30  31
ATOM     31  C   UNL     1      17.342   8.535   1.477  1.00  0.00    -0.003 C 
ATOM     32  C   UNL     1      17.970   9.396   0.383  1.00  0.00     0.004 C 
ENDBRANCH  30  31
ENDBRANCH  29  30
ENDBRANCH  28  29
ENDBRANCH  27  28
ENDBRANCH  26  27
ENDBRANCH  25  26
ENDBRANCH  24  25
ENDBRANCH  23  24
ENDBRANCH  22  23
ENDBRANCH  21  22
ENDBRANCH  20  21
ENDBRANCH  19  20
ENDBRANCH  18  19
ENDBRANCH   1  18
TORSDOF 28
ENDMDL
MODEL 7
REMARK VINA RESULT:    -3.298      2.868      6.938
REMARK INTER + INTRA:         -13.596
REMARK INTER:                  -8.211
REMARK INTRA:                  -5.385
REMARK UNBOUND:                -4.901
REMARK SMILES CCCCCCCCCCCCCCCCCCCCCCCCCCCCCC(=O)[O-]
REMARK SMILES IDX 16 1 17 2 18 3 19 4 20 5 21 6 22 7 23 8 24 9 25 10 26 11
REMARK SMILES IDX 27 12 28 13 29 14 30 15 31 16 32 17 15 18 14 19 13 20 12 21
REMARK SMILES IDX 11 22 10 23 9 24 8 25 7 26 6 27 5 28 4 29 3 30 2 31 1 32
REMARK H PARENT
REMARK Flexibility Score: inf
ROOT
ATOM      1  C   UNL     1      15.359   5.805   9.015  1.00  0.00     0.000 C 
ENDROOT
BRANCH   1   2
ATOM      2  C   UNL     1      14.110   4.943   8.758  1.00  0.00     0.000 C 
BRANCH   2   3
ATOM      3  C   UNL     1      13.042   5.669   7.924  1.00  0.00     0.000 C 
BRANCH   3   4
ATOM      4  C   UNL     1      11.871   6.179   8.784  1.00  0.00     0.000 C 
BRANCH   4   5
ATOM      5  C   UNL     1      11.036   7.256   8.068  1.00  0.00     0.000 C 
BRANCH   5   6
ATOM      6  C   UNL     1       9.549   6.879   7.973  1.00  0.00     0.000 C 
BRANCH   6   7
ATOM      7  C   UNL     1       8.685   8.030   7.439  1.00  0.00     0.000 C 
BRANCH   7   8
ATOM      8  C   UNL     1       9.560   9.099   6.764  1.00  0.00     0.000 C 
BRANCH   8   9
ATOM      9  C   UNL     1       9.161   9.348   5.302  1.00  0.00     0.000 C 
BRANCH   9  10
ATOM     10  C   UNL     1       9.022   8.043   4.495  1.00  0.00     0.000 C 
BRANCH  10  11
ATOM     11  C   UNL     1      10.302   7.715   3.709  1.00  0.00     0.000 C 
BRANCH  11  12
ATOM     12  C   UNL     1      11.146   6.623   4.390  1.00  0.00     0.000 C 
BRANCH  12  13
ATOM     13  C   UNL     1      12.576   7.101   4.701  1.00  0.00     0.006 C 
BRANCH  13  14
ATOM     14  C   UNL     1      12.717   8.623   4.545  1.00  0.00     0.053 C 
BRANCH  14  15
ATOM     15  C   UNL     1      14.035   8.974   3.933  1.00  0.00     0.041 C 
ATOM     16  O   UNL     1      14.107   9.876   3.060  1.00  0.00    -0.550 OA
ATOM     17  O   UNL     1      15.178   8.271   4.295  1.00  0.00    -0.550 OA
ENDBRANCH  14  15
ENDBRANCH  13  14
ENDBRANCH  12  13
ENDBRANCH  11  12
ENDBRANCH  10  11
ENDBRANCH   9  10
ENDBRANCH   8   9
ENDBRANCH   7   8
ENDBRANCH   6   7
ENDBRANCH   5   6
ENDBRANCH   4   5
ENDBRANCH   3   4
ENDBRANCH   2   3
ENDBRANCH   1   2
BRANCH   1  18
ATOM     18  C   UNL     1      15.540   6.210  10.492  1.00  0.00     0.000 C 
BRANCH  18  19
ATOM     19  C   UNL     1      14.712   7.448  10.864  1.00  0.00     0.000 C 
BRANCH  19  20
ATOM     20  C   UNL     1      15.189   8.044  12.198  1.00  0.00     0.000 C 
BRANCH  20  21
ATOM     21  C   UNL     1      15.805   6.990  13.137  1.00  0.00     0.000 C 
BRANCH  21  22
ATOM     22  C   UNL     1      14.943   6.607  14.359  1.00  0.00     0.000 C 
BRANCH  22  23
ATOM     23  C   UNL     1      14.917   5.106  14.700  1.00  0.00     0.000 C 
BRANCH  23  24
ATOM     24  C   UNL     1      13.611   4.416  14.274  1.00  0.00    -0.000 C 
BRANCH  24  25
ATOM     25  C   UNL     1      13.608   4.057  12.777  1.00  0.00    -0.000 C 
BRANCH  25  26
ATOM     26  C   UNL     1      12.402   4.649  12.023  1.00  0.00    -0.000 C 
BRANCH  26  27
ATOM     27  C   UNL     1      11.598   5.629  12.894  1.00  0.00    -0.000 C 
BRANCH  27  28
ATOM     28  C   UNL     1      11.538   7.036  12.278  1.00  0.00    -0.000 C 
BRANCH  28  29
ATOM     29  C   UNL     1      10.877   8.073  13.216  1.00  0.00    -0.000 C 
BRANCH  29  30
ATOM     30  C   UNL     1      10.327   9.283  12.440  1.00  0.00    -0.000 C 
BRANCH  30  31
ATOM     31  C   UNL     1       9.504   8.876  11.210  1.00  0.00    -0.003 C 
ATOM     32  C   UNL     1       8.956  10.077  10.442  1.00  0.00     0.004 C 
ENDBRANCH  30  31
ENDBRANCH  29  30
ENDBRANCH  28  29
ENDBRANCH  27  28
ENDBRANCH  26  27
ENDBRANCH  25  26
ENDBRANCH  24  25
ENDBRANCH  23  24
ENDBRANCH  22  23
ENDBRANCH  21  22
ENDBRANCH  20  21
ENDBRANCH  19  20
ENDBRANCH  18  19
ENDBRANCH   1  18
TORSDOF 28
ENDMDL
MODEL 8
REMARK VINA RESULT:    -3.296      3.447      8.741
REMARK INTER + INTRA:         -13.592
REMARK INTER:                  -9.108
REMARK INTRA:                  -4.484
REMARK UNBOUND:                -4.901
REMARK SMILES CCCCCCCCCCCCCCCCCCCCCCCCCCCCCC(=O)[O-]
REMARK SMILES IDX 16 1 17 2 18 3 19 4 20 5 21 6 22 7 23 8 24 9 25 10 26 11
REMARK SMILES IDX 27 12 28 13 29 14 30 15 31 16 32 17 15 18 14 19 13 20 12 21
REMARK SMILES IDX 11 22 10 23 9 24 8 25 7 26 6 27 5 28 4 29 3 30 2 31 1 32
REMARK H PARENT
REMARK Flexibility Score: inf
ROOT
ATOM      1  C   UNL     1       7.536  12.864   9.596  1.00  0.00     0.000 C 
ENDROOT
BRANCH   1   2
ATOM      2  C   UNL     1       7.705  11.445  10.167  1.00  0.00     0.000 C 
BRANCH   2   3
ATOM      3  C   UNL     1       9.178  11.044  10.348  1.00  0.00     0.000 C 
BRANCH   3   4
ATOM      4  C   UNL     1       9.536  10.767  11.819  1.00  0.00     0.000 C 
BRANCH   4   5
ATOM      5  C   UNL     1       9.952   9.305  12.062  1.00  0.00     0.000 C 
BRANCH   5   6
ATOM      6  C   UNL     1       8.760   8.336  12.001  1.00  0.00     0.000 C 
BRANCH   6   7
ATOM      7  C   UNL     1       9.021   7.142  11.073  1.00  0.00     0.000 C 
BRANCH   7   8
ATOM      8  C   UNL     1      10.001   7.529   9.953  1.00  0.00     0.000 C 
BRANCH   8   9
ATOM      9  C   UNL     1      10.254   6.376   8.969  1.00  0.00     0.000 C 
BRANCH   9  10
ATOM     10  C   UNL     1      11.733   6.268   8.552  1.00  0.00     0.000 C 
BRANCH  10  11
ATOM     11  C   UNL     1      12.682   6.432   9.751  1.00  0.00     0.000 C 
BRANCH  11  12
ATOM     12  C   UNL     1      14.008   5.675   9.558  1.00  0.00     0.000 C 
BRANCH  12  13
ATOM     13  C   UNL     1      15.227   6.526   9.957  1.00  0.00     0.006 C 
BRANCH  13  14
ATOM     14  C   UNL     1      15.686   6.232  11.393  1.00  0.00     0.053 C 
BRANCH  14  15
ATOM     15  C   UNL     1      15.267   7.327  12.320  1.00  0.00     0.041 C 
ATOM     16  O   UNL     1      14.977   8.464  11.865  1.00  0.00    -0.550 OA
ATOM     17  O   UNL     1      15.241   7.105  13.691  1.00  0.00    -0.550 OA
ENDBRANCH  14  15
ENDBRANCH  13  14
ENDBRANCH  12  13
ENDBRANCH  11  12
ENDBRANCH  10  11
ENDBRANCH   9  10
ENDBRANCH   8   9
ENDBRANCH   7   8
ENDBRANCH   6   7
ENDBRANCH   5   6
ENDBRANCH   4   5
ENDBRANCH   3   4
ENDBRANCH   2   3
ENDBRANCH   1   2
BRANCH   1  18
ATOM     18  C   UNL     1       7.636  12.930   8.058  1.00  0.00     0.000 C 
BRANCH  18  19
ATOM     19  C   UNL     1       6.511  13.768   7.435  1.00  0.00     0.000 C 
BRANCH  19  20
ATOM     20  C   UNL     1       5.472  14.165   8.495  1.00  0.00     0.000 C 
BRANCH  20  21
ATOM     21  C   UNL     1       4.025  14.075   7.976  1.00  0.00     0.000 C 
BRANCH  21  22
ATOM     22  C   UNL     1       3.505  12.646   7.707  1.00  0.00     0.000 C 
BRANCH  22  23
ATOM     23  C   UNL     1       3.928  11.588   8.742  1.00  0.00     0.000 C 
BRANCH  23  24
ATOM     24  C   UNL     1       4.057  10.179   8.140  1.00  0.00    -0.000 C 
BRANCH  24  25
ATOM     25  C   UNL     1       5.436   9.951   7.493  1.00  0.00    -0.000 C 
BRANCH  25  26
ATOM     26  C   UNL     1       6.209   8.782   8.131  1.00  0.00    -0.000 C 
BRANCH  26  27
ATOM     27  C   UNL     1       7.488   8.437   7.347  1.00  0.00    -0.000 C 
BRANCH  27  28
ATOM     28  C   UNL     1       8.210   9.694   6.834  1.00  0.00    -0.000 C 
BRANCH  28  29
ATOM     29  C   UNL     1       9.749   9.562   6.881  1.00  0.00    -0.000 C 
BRANCH  29  30
ATOM     30  C   UNL     1      10.354   9.372   5.479  1.00  0.00    -0.000 C 
BRANCH  30  31
ATOM     31  C   UNL     1      11.422   8.270   5.437  1.00  0.00    -0.003 C 
ATOM     32  C   UNL     1      12.554   8.583   4.460  1.00  0.00     0.004 C 
ENDBRANCH  30  31
ENDBRANCH  29  30
ENDBRANCH  28  29
ENDBRANCH  27  28
ENDBRANCH  26  27
ENDBRANCH  25  26
ENDBRANCH  24  25
ENDBRANCH  23  24
ENDBRANCH  22  23
ENDBRANCH  21  22
ENDBRANCH  20  21
ENDBRANCH  19  20
ENDBRANCH  18  19
ENDBRANCH   1  18
TORSDOF 28
ENDMDL
MODEL 9
REMARK VINA RESULT:    -3.292      2.654      6.477
REMARK INTER + INTRA:         -13.580
REMARK INTER:                  -8.855
REMARK INTRA:                  -4.725
REMARK UNBOUND:                -4.901
REMARK SMILES CCCCCCCCCCCCCCCCCCCCCCCCCCCCCC(=O)[O-]
REMARK SMILES IDX 16 1 17 2 18 3 19 4 20 5 21 6 22 7 23 8 24 9 25 10 26 11
REMARK SMILES IDX 27 12 28 13 29 14 30 15 31 16 32 17 15 18 14 19 13 20 12 21
REMARK SMILES IDX 11 22 10 23 9 24 8 25 7 26 6 27 5 28 4 29 3 30 2 31 1 32
REMARK H PARENT
REMARK Flexibility Score: inf
ROOT
ATOM      1  C   UNL     1      13.764   5.782   8.775  1.00  0.00     0.000 C 
ENDROOT
BRANCH   1   2
ATOM      2  C   UNL     1      13.536   5.453   7.288  1.00  0.00     0.000 C 
BRANCH   2   3
ATOM      3  C   UNL     1      12.229   6.045   6.737  1.00  0.00     0.000 C 
BRANCH   3   4
ATOM      4  C   UNL     1      11.258   6.469   7.854  1.00  0.00     0.000 C 
BRANCH   4   5
ATOM      5  C   UNL     1      10.670   7.873   7.626  1.00  0.00     0.000 C 
BRANCH   5   6
ATOM      6  C   UNL     1      10.901   8.381   6.193  1.00  0.00     0.000 C 
BRANCH   6   7
ATOM      7  C   UNL     1       9.880   9.450   5.778  1.00  0.00     0.000 C 
BRANCH   7   8
ATOM      8  C   UNL     1       8.505   9.159   6.401  1.00  0.00     0.000 C 
BRANCH   8   9
ATOM      9  C   UNL     1       7.926  10.374   7.142  1.00  0.00     0.000 C 
BRANCH   9  10
ATOM     10  C   UNL     1       9.018  11.256   7.776  1.00  0.00     0.000 C 
BRANCH  10  11
ATOM     11  C   UNL     1       9.088  11.075   9.302  1.00  0.00     0.000 C 
BRANCH  11  12
ATOM     12  C   UNL     1       7.764  11.441   9.998  1.00  0.00     0.000 C 
BRANCH  12  13
ATOM     13  C   UNL     1       7.415  12.931   9.838  1.00  0.00     0.006 C 
BRANCH  13  14
ATOM     14  C   UNL     1       5.922  13.141   9.542  1.00  0.00     0.053 C 
BRANCH  14  15
ATOM     15  C   UNL     1       5.665  13.122   8.070  1.00  0.00     0.041 C 
ATOM     16  O   UNL     1       6.465  13.687   7.281  1.00  0.00    -0.550 OA
ATOM     17  O   UNL     1       4.516  12.519   7.574  1.00  0.00    -0.550 OA
ENDBRANCH  14  15
ENDBRANCH  13  14
ENDBRANCH  12  13
ENDBRANCH  11  12
ENDBRANCH  10  11
ENDBRANCH   9  10
ENDBRANCH   8   9
ENDBRANCH   7   8
ENDBRANCH   6   7
ENDBRANCH   5   6
ENDBRANCH   4   5
ENDBRANCH   3   4
ENDBRANCH   2   3
ENDBRANCH   1   2
BRANCH   1  18
ATOM     18  C   UNL     1      15.040   5.148   9.363  1.00  0.00     0.000 C 
BRANCH  18  19
ATOM     19  C   UNL     1      15.658   6.004  10.478  1.00  0.00     0.000 C 
BRANCH  19  20
ATOM     20  C   UNL     1      14.844   7.289  10.696  1.00  0.00     0.000 C 
BRANCH  20  21
ATOM     21  C   UNL     1      15.192   7.998  12.018  1.00  0.00     0.000 C 
BRANCH  21  22
ATOM     22  C   UNL     1      15.648   7.072  13.166  1.00  0.00     0.000 C 
BRANCH  22  23
ATOM     23  C   UNL     1      14.590   6.800  14.250  1.00  0.00     0.000 C 
BRANCH  23  24
ATOM     24  C   UNL     1      14.313   5.301  14.455  1.00  0.00    -0.000 C 
BRANCH  24  25
ATOM     25  C   UNL     1      13.696   4.652  13.202  1.00  0.00    -0.000 C 
BRANCH  25  26
ATOM     26  C   UNL     1      12.185   4.923  13.071  1.00  0.00    -0.000 C 
BRANCH  26  27
ATOM     27  C   UNL     1      11.787   5.297  11.632  1.00  0.00    -0.000 C 
BRANCH  27  28
ATOM     28  C   UNL     1      10.971   6.598  11.575  1.00  0.00    -0.000 C 
BRANCH  28  29
ATOM     29  C   UNL     1      11.570   7.720  12.454  1.00  0.00    -0.000 C 
BRANCH  29  30
ATOM     30  C   UNL     1      10.498   8.414  13.313  1.00  0.00    -0.000 C 
BRANCH  30  31
ATOM     31  C   UNL     1       9.470   9.183  12.472  1.00  0.00    -0.003 C 
ATOM     32  C   UNL     1       8.038   8.711  12.712  1.00  0.00     0.004 C 
ENDBRANCH  30  31
ENDBRANCH  29  30
ENDBRANCH  28  29
ENDBRANCH  27  28
ENDBRANCH  26  27
ENDBRANCH  25  26
ENDBRANCH  24  25
ENDBRANCH  23  24
ENDBRANCH  22  23
ENDBRANCH  21  22
ENDBRANCH  20  21
ENDBRANCH  19  20
ENDBRANCH  18  19
ENDBRANCH   1  18
TORSDOF 28
ENDMDL
