MODEL 1
REMARK VINA RESULT:    -3.784      0.000      0.000
REMARK INTER + INTRA:          -4.976
REMARK INTER:                  -4.890
REMARK INTRA:                  -0.086
REMARK UNBOUND:                -0.086
REMARK SMILES CCCCCCC(=O)[O-]
REMARK SMILES IDX 5 1 6 2 7 3 8 4 9 5 4 6 3 7 2 8 1 9
REMARK H PARENT
REMARK Flexibility Score: inf
ROOT
ATOM      1  C   UNL     1      43.687  12.246 -34.149  1.00  0.00     0.006 C 
ENDROOT
BRANCH   1   2
ATOM      2  C   UNL     1      43.548  12.116 -35.671  1.00  0.00     0.053 C 
BRANCH   2   3
ATOM      3  C   UNL     1      42.216  12.627 -36.122  1.00  0.00     0.041 C 
ATOM      4  O   UNL     1      41.207  11.875 -36.094  1.00  0.00    -0.550 OA
ATOM      5  O   UNL     1      42.080  13.948 -36.526  1.00  0.00    -0.550 OA
ENDBRANCH   2   3
ENDBRANCH   1   2
BRANCH   1   6
ATOM      6  C   UNL     1      45.109  12.672 -33.727  1.00  0.00     0.000 C 
BRANCH   6   7
ATOM      7  C   UNL     1      45.246  12.957 -32.221  1.00  0.00    -0.000 C 
BRANCH   7   8
ATOM      8  C   UNL     1      46.333  12.107 -31.549  1.00  0.00    -0.003 C 
ATOM      9  C   UNL     1      46.073  11.965 -30.052  1.00  0.00     0.004 C 
ENDBRANCH   7   8
ENDBRANCH   6   7
ENDBRANCH   1   6
TORSDOF 5
ENDMDL
MODEL 2
REMARK VINA RESULT:    -3.700      3.902      5.178
REMARK INTER + INTRA:          -4.867
REMARK INTER:                  -4.735
REMARK INTRA:                  -0.132
REMARK UNBOUND:                -0.086
REMARK SMILES CCCCCCC(=O)[O-]
REMARK SMILES IDX 5 1 6 2 7 3 8 4 9 5 4 6 3 7 2 8 1 9
REMARK H PARENT
REMARK Flexibility Score: inf
ROOT
ATOM      1  C   UNL     1      40.180  14.394 -35.732  1.00  0.00     0.006 C 
ENDROOT
BRANCH   1   2
ATOM      2  C   UNL     1      38.953  13.487 -35.891  1.00  0.00     0.053 C 
BRANCH   2   3
ATOM      3  C   UNL     1      37.852  13.929 -34.980  1.00  0.00     0.041 C 
ATOM      4  O   UNL     1      37.672  15.154 -34.752  1.00  0.00    -0.550 OA
ATOM      5  O   UNL     1      36.993  12.991 -34.422  1.00  0.00    -0.550 OA
ENDBRANCH   2   3
ENDBRANCH   1   2
BRANCH   1   6
ATOM      6  C   UNL     1      41.451  13.771 -36.349  1.00  0.00     0.000 C 
BRANCH   6   7
ATOM      7  C   UNL     1      41.623  12.277 -36.027  1.00  0.00    -0.000 C 
BRANCH   7   8
ATOM      8  C   UNL     1      42.987  11.956 -35.400  1.00  0.00    -0.003 C 
ATOM      9  C   UNL     1      44.089  11.945 -36.456  1.00  0.00     0.004 C 
ENDBRANCH   7   8
ENDBRANCH   6   7
ENDBRANCH   1   6
TORSDOF 5
ENDMDL
MODEL 3
REMARK VINA RESULT:    -3.649      3.789      5.736
REMARK INTER + INTRA:          -4.802
REMARK INTER:                  -4.728
REMARK INTRA:                  -0.074
REMARK UNBOUND:                -0.086
REMARK SMILES CCCCCCC(=O)[O-]
REMARK SMILES IDX 5 1 6 2 7 3 8 4 9 5 4 6 3 7 2 8 1 9
REMARK H PARENT
REMARK Flexibility Score: inf
ROOT
ATOM      1  C   UNL     1      45.107  13.070 -32.673  1.00  0.00     0.006 C 
ENDROOT
BRANCH   1   2
ATOM      2  C   UNL     1      46.127  12.183 -31.947  1.00  0.00     0.053 C 
BRANCH   2   3
ATOM      3  C   UNL     1      46.149  12.498 -30.485  1.00  0.00     0.041 C 
ATOM      4  O   UNL     1      46.927  11.875 -29.715  1.00  0.00    -0.550 OA
ATOM      5  O   UNL     1      45.347  13.513 -29.980  1.00  0.00    -0.550 OA
ENDBRANCH   2   3
ENDBRANCH   1   2
BRANCH   1   6
ATOM      6  C   UNL     1      44.849  12.598 -34.120  1.00  0.00     0.000 C 
BRANCH   6   7
ATOM      7  C   UNL     1      43.379  12.240 -34.399  1.00  0.00    -0.000 C 
BRANCH   7   8
ATOM      8  C   UNL     1      43.042  12.222 -35.896  1.00  0.00    -0.003 C 
ATOM      9  C   UNL     1      41.553  12.460 -36.129  1.00  0.00     0.004 C 
ENDBRANCH   7   8
ENDBRANCH   6   7
ENDBRANCH   1   6
TORSDOF 5
ENDMDL
MODEL 4
REMARK VINA RESULT:    -3.595      3.533      6.172
REMARK INTER + INTRA:          -4.732
REMARK INTER:                  -4.594
REMARK INTRA:                  -0.138
REMARK UNBOUND:                -0.086
REMARK SMILES CCCCCCC(=O)[O-]
REMARK SMILES IDX 5 1 6 2 7 3 8 4 9 5 4 6 3 7 2 8 1 9
REMARK H PARENT
REMARK Flexibility Score: inf
ROOT
ATOM      1  C   UNL     1      41.305  13.245 -36.175  1.00  0.00     0.006 C 
ENDROOT
BRANCH   1   2
ATOM      2  C   UNL     1      41.995  11.875 -36.146  1.00  0.00     0.053 C 
BRANCH   2   3
ATOM      3  C   UNL     1      43.439  12.022 -35.782  1.00  0.00     0.041 C 
ATOM      4  O   UNL     1      44.325  11.964 -36.674  1.00  0.00    -0.550 OA
ATOM      5  O   UNL     1      43.802  12.272 -34.466  1.00  0.00    -0.550 OA
ENDBRANCH   2   3
ENDBRANCH   1   2
BRANCH   1   6
ATOM      6  C   UNL     1      39.826  13.163 -35.741  1.00  0.00     0.000 C 
BRANCH   6   7
ATOM      7  C   UNL     1      39.156  14.538 -35.574  1.00  0.00    -0.000 C 
BRANCH   7   8
ATOM      8  C   UNL     1      37.658  14.516 -35.908  1.00  0.00    -0.003 C 
ATOM      9  C   UNL     1      37.311  13.330 -36.804  1.00  0.00     0.004 C 
ENDBRANCH   7   8
ENDBRANCH   6   7
ENDBRANCH   1   6
TORSDOF 5
ENDMDL
MODEL 5
REMARK VINA RESULT:    -3.446     19.459     20.456
REMARK INTER + INTRA:          -4.539
REMARK INTER:                  -4.307
REMARK INTRA:                  -0.232
REMARK UNBOUND:                -0.086
REMARK SMILES CCCCCCC(=O)[O-]
REMARK SMILES IDX 5 1 6 2 7 3 8 4 9 5 4 6 3 7 2 8 1 9
REMARK H PARENT
REMARK Flexibility Score: inf
ROOT
ATOM      1  C   UNL     1      56.579  28.901 -36.449  1.00  0.00     0.006 C 
ENDROOT
BRANCH   1   2
ATOM      2  C   UNL     1      56.941  28.585 -34.992  1.00  0.00     0.053 C 
BRANCH   2   3
ATOM      3  C   UNL     1      55.945  27.640 -34.397  1.00  0.00     0.041 C 
ATOM      4  O   UNL     1      55.373  26.784 -35.122  1.00  0.00    -0.550 OA
ATOM      5  O   UNL     1      55.687  27.670 -33.033  1.00  0.00    -0.550 OA
ENDBRANCH   2   3
ENDBRANCH   1   2
BRANCH   1   6
ATOM      6  C   UNL     1      55.559  30.054 -36.560  1.00  0.00     0.000 C 
BRANCH   6   7
ATOM      7  C   UNL     1      54.674  29.974 -37.816  1.00  0.00    -0.000 C 
BRANCH   7   8
ATOM      8  C   UNL     1      55.147  28.907 -38.812  1.00  0.00    -0.003 C 
ATOM      9  C   UNL     1      54.057  27.870 -39.066  1.00  0.00     0.004 C 
ENDBRANCH   7   8
ENDBRANCH   6   7
ENDBRANCH   1   6
TORSDOF 5
ENDMDL
MODEL 6
REMARK VINA RESULT:    -3.317     19.323     20.432
REMARK INTER + INTRA:          -4.373
REMARK INTER:                  -4.196
REMARK INTRA:                  -0.177
REMARK UNBOUND:                -0.086
REMARK SMILES CCCCCCC(=O)[O-]
REMARK SMILES IDX 5 1 6 2 7 3 8 4 9 5 4 6 3 7 2 8 1 9
REMARK H PARENT
REMARK Flexibility Score: inf
ROOT
ATOM      1  C   UNL     1      56.007  28.058 -32.619  1.00  0.00     0.006 C 
ENDROOT
BRANCH   1   2
ATOM      2  C   UNL     1      56.552  28.181 -31.191  1.00  0.00     0.053 C 
BRANCH   2   3
ATOM      3  C   UNL     1      55.967  29.375 -30.506  1.00  0.00     0.041 C 
ATOM      4  O   UNL     1      56.069  29.503 -29.258  1.00  0.00    -0.550 OA
ATOM      5  O   UNL     1      55.351  30.371 -31.252  1.00  0.00    -0.550 OA
ENDBRANCH   2   3
ENDBRANCH   1   2
BRANCH   1   6
ATOM      6  C   UNL     1      57.125  28.137 -33.680  1.00  0.00     0.000 C 
BRANCH   6   7
ATOM      7  C   UNL     1      56.968  27.115 -34.819  1.00  0.00    -0.000 C 
BRANCH   7   8
ATOM      8  C   UNL     1      55.544  27.072 -35.390  1.00  0.00    -0.003 C 
ATOM      9  C   UNL     1      55.122  25.640 -35.709  1.00  0.00     0.004 C 
ENDBRANCH   7   8
ENDBRANCH   6   7
ENDBRANCH   1   6
TORSDOF 5
ENDMDL
MODEL 7
REMARK VINA RESULT:    -3.289      3.561      5.609
REMARK INTER + INTRA:          -4.336
REMARK INTER:                  -4.234
REMARK INTRA:                  -0.103
REMARK UNBOUND:                -0.086
REMARK SMILES CCCCCCC(=O)[O-]
REMARK SMILES IDX 5 1 6 2 7 3 8 4 9 5 4 6 3 7 2 8 1 9
REMARK H PARENT
REMARK Flexibility Score: inf
ROOT
ATOM      1  C   UNL     1      44.410  12.666 -33.133  1.00  0.00     0.006 C 
ENDROOT
BRANCH   1   2
ATOM      2  C   UNL     1      45.838  12.991 -32.674  1.00  0.00     0.053 C 
BRANCH   2   3
ATOM      3  C   UNL     1      45.957  12.848 -31.189  1.00  0.00     0.041 C 
ATOM      4  O   UNL     1      45.264  13.571 -30.426  1.00  0.00    -0.550 OA
ATOM      5  O   UNL     1      46.797  11.884 -30.649  1.00  0.00    -0.550 OA
ENDBRANCH   2   3
ENDBRANCH   1   2
BRANCH   1   6
ATOM      6  C   UNL     1      44.352  12.272 -34.624  1.00  0.00     0.000 C 
BRANCH   6   7
ATOM      7  C   UNL     1      42.939  11.909 -35.111  1.00  0.00    -0.000 C 
BRANCH   7   8
ATOM      8  C   UNL     1      42.412  12.873 -36.183  1.00  0.00    -0.003 C 
ATOM      9  C   UNL     1      40.976  13.296 -35.885  1.00  0.00     0.004 C 
ENDBRANCH   7   8
ENDBRANCH   6   7
ENDBRANCH   1   6
TORSDOF 5
ENDMDL
MODEL 8
REMARK VINA RESULT:    -3.260     19.343     20.089
REMARK INTER + INTRA:          -4.299
REMARK INTER:                  -4.071
REMARK INTRA:                  -0.229
REMARK UNBOUND:                -0.086
REMARK SMILES CCCCCCC(=O)[O-]
REMARK SMILES IDX 5 1 6 2 7 3 8 4 9 5 4 6 3 7 2 8 1 9
REMARK H PARENT
REMARK Flexibility Score: inf
ROOT
ATOM      1  C   UNL     1      55.670  27.547 -35.632  1.00  0.00     0.006 C 
ENDROOT
BRANCH   1   2
ATOM      2  C   UNL     1      56.106  28.926 -36.144  1.00  0.00     0.053 C 
BRANCH   2   3
ATOM      3  C   UNL     1      55.297  29.322 -37.339  1.00  0.00     0.041 C 
ATOM      4  O   UNL     1      54.745  28.442 -38.051  1.00  0.00    -0.550 OA
ATOM      5  O   UNL     1      55.111  30.666 -37.637  1.00  0.00    -0.550 OA
ENDBRANCH   2   3
ENDBRANCH   1   2
BRANCH   1   6
ATOM      6  C   UNL     1      56.710  26.923 -34.678  1.00  0.00     0.000 C 
BRANCH   6   7
ATOM      7  C   UNL     1      57.097  27.839 -33.504  1.00  0.00    -0.000 C 
BRANCH   7   8
ATOM      8  C   UNL     1      56.002  27.928 -32.432  1.00  0.00    -0.003 C 
ATOM      9  C   UNL     1      55.880  29.348 -31.887  1.00  0.00     0.004 C 
ENDBRANCH   7   8
ENDBRANCH   6   7
ENDBRANCH   1   6
TORSDOF 5
ENDMDL
MODEL 9
REMARK VINA RESULT:    -3.253     18.863     19.741
REMARK INTER + INTRA:          -4.290
REMARK INTER:                  -4.111
REMARK INTRA:                  -0.179
REMARK UNBOUND:                -0.086
REMARK SMILES CCCCCCC(=O)[O-]
REMARK SMILES IDX 5 1 6 2 7 3 8 4 9 5 4 6 3 7 2 8 1 9
REMARK H PARENT
REMARK Flexibility Score: inf
ROOT
ATOM      1  C   UNL     1      56.929  28.088 -33.721  1.00  0.00     0.006 C 
ENDROOT
BRANCH   1   2
ATOM      2  C   UNL     1      56.945  26.825 -34.592  1.00  0.00     0.053 C 
BRANCH   2   3
ATOM      3  C   UNL     1      55.764  26.804 -35.509  1.00  0.00     0.041 C 
ATOM      4  O   UNL     1      55.085  25.752 -35.643  1.00  0.00    -0.550 OA
ATOM      5  O   UNL     1      55.383  27.959 -36.178  1.00  0.00    -0.550 OA
ENDBRANCH   2   3
ENDBRANCH   1   2
BRANCH   1   6
ATOM      6  C   UNL     1      56.013  27.935 -32.488  1.00  0.00     0.000 C 
BRANCH   6   7
ATOM      7  C   UNL     1      56.742  28.145 -31.150  1.00  0.00    -0.000 C 
BRANCH   7   8
ATOM      8  C   UNL     1      56.087  29.223 -30.276  1.00  0.00    -0.003 C 
ATOM      9  C   UNL     1      55.637  30.414 -31.116  1.00  0.00     0.004 C 
ENDBRANCH   7   8
ENDBRANCH   6   7
ENDBRANCH   1   6
TORSDOF 5
ENDMDL
