MODEL 1
REMARK VINA RESULT:    -6.969      0.000      0.000
REMARK INTER + INTRA:         -11.065
REMARK INTER:                  -9.413
REMARK INTRA:                  -1.652
REMARK UNBOUND:                -1.652
REMARK SMILES CC[C@H](CC[C@@H](C)[C@@H]1CC[C@@H]2[C@H]3CC(=O)C4=CC(=O)CC[C@]4(C)[C@@H]3CC[C@]21C)C(C)C
REMARK SMILES IDX 4 1 3 2 2 3 1 4 29 5 30 6 31 7 5 8 6 9 7 10 8 11 9 12 27 13
REMARK SMILES IDX 10 14 11 15 26 16 28 17 12 18 25 19 24 20 13 21 22 22 14 23
REMARK SMILES IDX 16 24 21 25 23 26 15 27 17 28 20 29 18 30 19 31
REMARK H PARENT
REMARK Flexibility Score: inf
ROOT
ATOM      1  C   UNL     1      16.588  27.076  29.942  1.00  0.00     0.004 C 
ENDROOT
BRANCH   1   2
ATOM      2  C   UNL     1      16.382  26.631  28.466  1.00  0.00    -0.009 C 
BRANCH   2   3
ATOM      3  C   UNL     1      17.696  26.587  27.621  1.00  0.00     0.000 C 
ATOM      4  C   UNL     1      18.967  26.174  28.374  1.00  0.00     0.004 C 
ENDBRANCH   2   3
BRANCH   2   5
ATOM      5  C   UNL     1      15.520  25.327  28.379  1.00  0.00    -0.014 C 
ATOM      6  C   UNL     1      15.683  24.557  27.062  1.00  0.00     0.007 C 
ATOM      7  C   UNL     1      14.031  25.591  28.661  1.00  0.00     0.007 C 
ENDBRANCH   2   5
ENDBRANCH   1   2
BRANCH   1   8
ATOM      8  C   UNL     1      15.748  28.312  30.316  1.00  0.00     0.004 C 
BRANCH   8   9
ATOM      9  C   UNL     1      16.072  29.621  29.529  1.00  0.00    -0.011 C 
ATOM     10  C   UNL     1      14.762  30.406  29.335  1.00  0.00     0.008 C 
BRANCH   9  11
ATOM     11  C   UNL     1      17.232  30.583  29.997  1.00  0.00    -0.002 C 
ATOM     12  C   UNL     1      17.134  32.049  29.501  1.00  0.00     0.005 C 
ATOM     13  C   UNL     1      18.745  30.210  29.876  1.00  0.00    -0.026 C 
ATOM     14  C   UNL     1      18.570  32.594  29.455  1.00  0.00     0.005 C 
ATOM     15  C   UNL     1      19.377  31.568  30.236  1.00  0.00    -0.001 C 
ATOM     16  C   UNL     1      19.270  29.196  30.923  1.00  0.00     0.007 C 
ATOM     17  C   UNL     1      19.107  29.739  28.439  1.00  0.00     0.012 C 
ATOM     18  C   UNL     1      20.921  31.608  30.133  1.00  0.00     0.004 C 
ATOM     19  C   UNL     1      20.812  29.113  30.883  1.00  0.00     0.005 C 
ATOM     20  C   UNL     1      21.526  30.495  31.048  1.00  0.00     0.003 C 
ATOM     21  C   UNL     1      21.436  32.983  30.606  1.00  0.00     0.085 C 
ATOM     22  C   UNL     1      23.113  30.422  30.953  1.00  0.00    -0.000 C 
ATOM     23  C   UNL     1      22.928  33.017  30.692  1.00  0.00     0.159 C 
ATOM     24  C   UNL     1      23.719  31.776  30.546  1.00  0.00     0.005 C 
ATOM     25  C   UNL     1      23.591  29.346  29.926  1.00  0.00     0.020 C 
ATOM     26  C   UNL     1      23.662  30.066  32.359  1.00  0.00     0.017 C 
ATOM     27  O   UNL     1      23.505  34.125  30.871  1.00  0.00    -0.295 OA
ATOM     28  C   UNL     1      24.956  31.855  30.024  1.00  0.00     0.055 C 
ATOM     29  C   UNL     1      25.119  29.290  29.760  1.00  0.00     0.081 C 
ATOM     30  C   UNL     1      25.723  30.657  29.658  1.00  0.00     0.156 C 
ATOM     31  O   UNL     1      26.911  30.780  29.256  1.00  0.00    -0.295 OA
ENDBRANCH   9  11
ENDBRANCH   8   9
ENDBRANCH   1   8
TORSDOF 6
ENDMDL
MODEL 2
REMARK VINA RESULT:    -6.519      2.935      8.932
REMARK INTER + INTRA:         -10.458
REMARK INTER:                  -8.961
REMARK INTRA:                  -1.497
REMARK UNBOUND:                -1.652
REMARK SMILES CC[C@H](CC[C@@H](C)[C@@H]1CC[C@@H]2[C@H]3CC(=O)C4=CC(=O)CC[C@]4(C)[C@@H]3CC[C@]21C)C(C)C
REMARK SMILES IDX 4 1 3 2 2 3 1 4 29 5 30 6 31 7 5 8 6 9 7 10 8 11 9 12 27 13
REMARK SMILES IDX 10 14 11 15 26 16 28 17 12 18 25 19 24 20 13 21 22 22 14 23
REMARK SMILES IDX 16 24 21 25 23 26 15 27 17 28 20 29 18 30 19 31
REMARK H PARENT
REMARK Flexibility Score: inf
ROOT
ATOM      1  C   UNL     1      26.627  30.851  29.747  1.00  0.00     0.004 C 
ENDROOT
BRANCH   1   2
ATOM      2  C   UNL     1      27.767  31.909  29.738  1.00  0.00    -0.009 C 
BRANCH   2   3
ATOM      3  C   UNL     1      27.656  32.980  30.870  1.00  0.00     0.000 C 
ATOM      4  C   UNL     1      26.592  34.067  30.666  1.00  0.00     0.004 C 
ENDBRANCH   2   3
BRANCH   2   5
ATOM      5  C   UNL     1      29.174  31.230  29.635  1.00  0.00    -0.014 C 
ATOM      6  C   UNL     1      30.323  32.088  30.180  1.00  0.00     0.007 C 
ATOM      7  C   UNL     1      29.493  30.759  28.205  1.00  0.00     0.007 C 
ENDBRANCH   2   5
ENDBRANCH   1   2
BRANCH   1   8
ATOM      8  C   UNL     1      26.469  30.152  31.111  1.00  0.00     0.004 C 
BRANCH   8   9
ATOM      9  C   UNL     1      25.099  30.360  31.828  1.00  0.00    -0.011 C 
ATOM     10  C   UNL     1      25.346  31.153  33.125  1.00  0.00     0.008 C 
BRANCH   9  11
ATOM     11  C   UNL     1      23.855  30.941  31.050  1.00  0.00    -0.002 C 
ATOM     12  C   UNL     1      23.495  32.417  31.360  1.00  0.00     0.005 C 
ATOM     13  C   UNL     1      22.485  30.195  30.959  1.00  0.00    -0.026 C 
ATOM     14  C   UNL     1      21.990  32.568  31.091  1.00  0.00     0.005 C 
ATOM     15  C   UNL     1      21.626  31.305  30.325  1.00  0.00    -0.001 C 
ATOM     16  C   UNL     1      22.439  28.996  29.979  1.00  0.00     0.007 C 
ATOM     17  C   UNL     1      21.972  29.765  32.363  1.00  0.00     0.012 C 
ATOM     18  C   UNL     1      20.129  30.946  30.158  1.00  0.00     0.004 C 
ATOM     19  C   UNL     1      20.987  28.515  29.767  1.00  0.00     0.005 C 
ATOM     20  C   UNL     1      20.005  29.642  29.306  1.00  0.00     0.003 C 
ATOM     21  C   UNL     1      19.400  32.094  29.430  1.00  0.00     0.085 C 
ATOM     22  C   UNL     1      18.497  29.162  29.139  1.00  0.00    -0.000 C 
ATOM     23  C   UNL     1      17.991  31.727  29.088  1.00  0.00     0.159 C 
ATOM     24  C   UNL     1      17.513  30.338  29.258  1.00  0.00     0.005 C 
ATOM     25  C   UNL     1      18.101  28.087  30.201  1.00  0.00     0.020 C 
ATOM     26  C   UNL     1      18.339  28.560  27.719  1.00  0.00     0.017 C 
ATOM     27  O   UNL     1      17.210  32.626  28.671  1.00  0.00    -0.295 OA
ATOM     28  C   UNL     1      16.215  30.132  29.548  1.00  0.00     0.055 C 
ATOM     29  C   UNL     1      16.631  27.646  30.111  1.00  0.00     0.081 C 
ATOM     30  C   UNL     1      15.706  28.809  29.931  1.00  0.00     0.156 C 
ATOM     31  O   UNL     1      14.468  28.649  30.105  1.00  0.00    -0.295 OA
ENDBRANCH   9  11
ENDBRANCH   8   9
ENDBRANCH   1   8
TORSDOF 6
ENDMDL
MODEL 3
REMARK VINA RESULT:    -6.292      3.353      9.661
REMARK INTER + INTRA:         -10.151
REMARK INTER:                  -9.317
REMARK INTRA:                  -0.834
REMARK UNBOUND:                -1.652
REMARK SMILES CC[C@H](CC[C@@H](C)[C@@H]1CC[C@@H]2[C@H]3CC(=O)C4=CC(=O)CC[C@]4(C)[C@@H]3CC[C@]21C)C(C)C
REMARK SMILES IDX 4 1 3 2 2 3 1 4 29 5 30 6 31 7 5 8 6 9 7 10 8 11 9 12 27 13
REMARK SMILES IDX 10 14 11 15 26 16 28 17 12 18 25 19 24 20 13 21 22 22 14 23
REMARK SMILES IDX 16 24 21 25 23 26 15 27 17 28 20 29 18 30 19 31
REMARK H PARENT
REMARK Flexibility Score: inf
ROOT
ATOM      1  C   UNL     1      28.259  31.487  29.776  1.00  0.00     0.004 C 
ENDROOT
BRANCH   1   2
ATOM      2  C   UNL     1      29.671  31.765  30.368  1.00  0.00    -0.009 C 
BRANCH   2   3
ATOM      3  C   UNL     1      30.122  30.738  31.456  1.00  0.00     0.000 C 
ATOM      4  C   UNL     1      30.455  31.321  32.835  1.00  0.00     0.004 C 
ENDBRANCH   2   3
BRANCH   2   5
ATOM      5  C   UNL     1      30.726  32.006  29.237  1.00  0.00    -0.014 C 
ATOM      6  C   UNL     1      31.544  30.762  28.870  1.00  0.00     0.007 C 
ATOM      7  C   UNL     1      31.662  33.185  29.553  1.00  0.00     0.007 C 
ENDBRANCH   2   5
ENDBRANCH   1   2
BRANCH   1   8
ATOM      8  C   UNL     1      27.130  31.679  30.806  1.00  0.00     0.004 C 
BRANCH   8   9
ATOM      9  C   UNL     1      26.577  30.374  31.461  1.00  0.00    -0.011 C 
ATOM     10  C   UNL     1      26.464  30.606  32.980  1.00  0.00     0.008 C 
BRANCH   9  11
ATOM     11  C   UNL     1      25.275  29.676  30.907  1.00  0.00    -0.002 C 
ATOM     12  C   UNL     1      25.398  29.041  29.497  1.00  0.00     0.005 C 
ATOM     13  C   UNL     1      23.870  30.360  30.927  1.00  0.00    -0.026 C 
ATOM     14  C   UNL     1      23.988  29.050  28.887  1.00  0.00     0.005 C 
ATOM     15  C   UNL     1      23.078  29.356  30.068  1.00  0.00    -0.001 C 
ATOM     16  C   UNL     1      23.166  30.402  32.306  1.00  0.00     0.007 C 
ATOM     17  C   UNL     1      23.915  31.784  30.301  1.00  0.00     0.012 C 
ATOM     18  C   UNL     1      21.612  29.763  29.788  1.00  0.00     0.004 C 
ATOM     19  C   UNL     1      21.693  30.844  32.159  1.00  0.00     0.005 C 
ATOM     20  C   UNL     1      20.870  29.982  31.146  1.00  0.00     0.003 C 
ATOM     21  C   UNL     1      20.904  28.638  29.004  1.00  0.00     0.085 C 
ATOM     22  C   UNL     1      19.367  30.468  30.949  1.00  0.00    -0.000 C 
ATOM     23  C   UNL     1      19.439  28.902  28.857  1.00  0.00     0.159 C 
ATOM     24  C   UNL     1      18.796  30.008  29.598  1.00  0.00     0.005 C 
ATOM     25  C   UNL     1      19.237  32.022  31.029  1.00  0.00     0.020 C 
ATOM     26  C   UNL     1      18.505  29.825  32.066  1.00  0.00     0.017 C 
ATOM     27  O   UNL     1      18.764  28.178  28.075  1.00  0.00    -0.295 OA
ATOM     28  C   UNL     1      17.729  30.618  29.051  1.00  0.00     0.055 C 
ATOM     29  C   UNL     1      17.808  32.533  30.781  1.00  0.00     0.081 C 
ATOM     30  C   UNL     1      17.161  31.847  29.618  1.00  0.00     0.156 C 
ATOM     31  O   UNL     1      16.107  32.330  29.123  1.00  0.00    -0.295 OA
ENDBRANCH   9  11
ENDBRANCH   8   9
ENDBRANCH   1   8
TORSDOF 6
ENDMDL
MODEL 4
REMARK VINA RESULT:    -6.272      3.155      8.135
REMARK INTER + INTRA:         -10.124
REMARK INTER:                  -8.265
REMARK INTRA:                  -1.859
REMARK UNBOUND:                -1.652
REMARK SMILES CC[C@H](CC[C@@H](C)[C@@H]1CC[C@@H]2[C@H]3CC(=O)C4=CC(=O)CC[C@]4(C)[C@@H]3CC[C@]21C)C(C)C
REMARK SMILES IDX 4 1 3 2 2 3 1 4 29 5 30 6 31 7 5 8 6 9 7 10 8 11 9 12 27 13
REMARK SMILES IDX 10 14 11 15 26 16 28 17 12 18 25 19 24 20 13 21 22 22 14 23
REMARK SMILES IDX 16 24 21 25 23 26 15 27 17 28 20 29 18 30 19 31
REMARK H PARENT
REMARK Flexibility Score: inf
ROOT
ATOM      1  C   UNL     1      24.665  32.454  30.169  1.00  0.00     0.004 C 
ENDROOT
BRANCH   1   2
ATOM      2  C   UNL     1      25.124  31.504  31.312  1.00  0.00    -0.009 C 
BRANCH   2   3
ATOM      3  C   UNL     1      24.783  29.999  31.069  1.00  0.00     0.000 C 
ATOM      4  C   UNL     1      24.825  29.526  29.611  1.00  0.00     0.004 C 
ENDBRANCH   2   3
BRANCH   2   5
ATOM      5  C   UNL     1      26.616  31.768  31.707  1.00  0.00    -0.014 C 
ATOM      6  C   UNL     1      27.443  32.444  30.606  1.00  0.00     0.007 C 
ATOM      7  C   UNL     1      27.325  30.495  32.200  1.00  0.00     0.007 C 
ENDBRANCH   2   5
ENDBRANCH   1   2
BRANCH   1   8
ATOM      8  C   UNL     1      23.637  33.502  30.640  1.00  0.00     0.004 C 
BRANCH   8   9
ATOM      9  C   UNL     1      22.531  32.983  31.611  1.00  0.00    -0.011 C 
ATOM     10  C   UNL     1      22.439  33.954  32.803  1.00  0.00     0.008 C 
BRANCH   9  11
ATOM     11  C   UNL     1      21.091  32.615  31.081  1.00  0.00    -0.002 C 
ATOM     12  C   UNL     1      19.905  33.125  31.940  1.00  0.00     0.005 C 
ATOM     13  C   UNL     1      20.690  31.170  30.644  1.00  0.00    -0.026 C 
ATOM     14  C   UNL     1      18.736  32.158  31.693  1.00  0.00     0.005 C 
ATOM     15  C   UNL     1      19.171  31.362  30.472  1.00  0.00    -0.001 C 
ATOM     16  C   UNL     1      21.229  30.713  29.266  1.00  0.00     0.007 C 
ATOM     17  C   UNL     1      21.044  30.121  31.737  1.00  0.00     0.012 C 
ATOM     18  C   UNL     1      18.394  30.072  30.115  1.00  0.00     0.004 C 
ATOM     19  C   UNL     1      20.554  29.397  28.820  1.00  0.00     0.005 C 
ATOM     20  C   UNL     1      18.991  29.457  28.808  1.00  0.00     0.003 C 
ATOM     21  C   UNL     1      16.908  30.411  29.878  1.00  0.00     0.085 C 
ATOM     22  C   UNL     1      18.291  28.086  28.402  1.00  0.00    -0.000 C 
ATOM     23  C   UNL     1      16.146  29.233  29.361  1.00  0.00     0.159 C 
ATOM     24  C   UNL     1      16.853  28.004  28.942  1.00  0.00     0.005 C 
ATOM     25  C   UNL     1      19.080  26.845  28.929  1.00  0.00     0.020 C 
ATOM     26  C   UNL     1      18.216  28.025  26.855  1.00  0.00     0.017 C 
ATOM     27  O   UNL     1      14.887  29.296  29.307  1.00  0.00    -0.295 OA
ATOM     28  C   UNL     1      16.226  26.821  29.073  1.00  0.00     0.055 C 
ATOM     29  C   UNL     1      18.399  25.503  28.611  1.00  0.00     0.081 C 
ATOM     30  C   UNL     1      16.926  25.545  28.874  1.00  0.00     0.156 C 
ATOM     31  O   UNL     1      16.274  24.467  28.919  1.00  0.00    -0.295 OA
ENDBRANCH   9  11
ENDBRANCH   8   9
ENDBRANCH   1   8
TORSDOF 6
ENDMDL
MODEL 5
REMARK VINA RESULT:    -6.006      3.094      9.247
REMARK INTER + INTRA:          -9.764
REMARK INTER:                  -8.515
REMARK INTRA:                  -1.249
REMARK UNBOUND:                -1.652
REMARK SMILES CC[C@H](CC[C@@H](C)[C@@H]1CC[C@@H]2[C@H]3CC(=O)C4=CC(=O)CC[C@]4(C)[C@@H]3CC[C@]21C)C(C)C
REMARK SMILES IDX 4 1 3 2 2 3 1 4 29 5 30 6 31 7 5 8 6 9 7 10 8 11 9 12 27 13
REMARK SMILES IDX 10 14 11 15 26 16 28 17 12 18 25 19 24 20 13 21 22 22 14 23
REMARK SMILES IDX 16 24 21 25 23 26 15 27 17 28 20 29 18 30 19 31
REMARK H PARENT
REMARK Flexibility Score: inf
ROOT
ATOM      1  C   UNL     1      27.690  31.461  30.231  1.00  0.00     0.004 C 
ENDROOT
BRANCH   1   2
ATOM      2  C   UNL     1      29.188  31.862  30.356  1.00  0.00    -0.009 C 
BRANCH   2   3
ATOM      3  C   UNL     1      29.853  31.440  31.706  1.00  0.00     0.000 C 
ATOM      4  C   UNL     1      30.340  32.585  32.603  1.00  0.00     0.004 C 
ENDBRANCH   2   3
BRANCH   2   5
ATOM      5  C   UNL     1      29.998  31.444  29.083  1.00  0.00    -0.014 C 
ATOM      6  C   UNL     1      29.128  30.913  27.936  1.00  0.00     0.007 C 
ATOM      7  C   UNL     1      31.121  30.444  29.407  1.00  0.00     0.007 C 
ENDBRANCH   2   5
ENDBRANCH   1   2
BRANCH   1   8
ATOM      8  C   UNL     1      27.139  30.797  31.508  1.00  0.00     0.004 C 
BRANCH   8   9
ATOM      9  C   UNL     1      25.951  31.534  32.201  1.00  0.00    -0.011 C 
ATOM     10  C   UNL     1      26.528  32.622  33.125  1.00  0.00     0.008 C 
BRANCH   9  11
ATOM     11  C   UNL     1      24.746  32.104  31.356  1.00  0.00    -0.002 C 
ATOM     12  C   UNL     1      24.499  33.630  31.478  1.00  0.00     0.005 C 
ATOM     13  C   UNL     1      23.324  31.457  31.360  1.00  0.00    -0.026 C 
ATOM     14  C   UNL     1      23.006  33.858  31.193  1.00  0.00     0.005 C 
ATOM     15  C   UNL     1      22.542  32.539  30.592  1.00  0.00    -0.001 C 
ATOM     16  C   UNL     1      23.180  30.152  30.539  1.00  0.00     0.007 C 
ATOM     17  C   UNL     1      22.794  31.245  32.808  1.00  0.00     0.012 C 
ATOM     18  C   UNL     1      21.022  32.275  30.472  1.00  0.00     0.004 C 
ATOM     19  C   UNL     1      21.694  29.757  30.389  1.00  0.00     0.005 C 
ATOM     20  C   UNL     1      20.794  30.887  29.790  1.00  0.00     0.003 C 
ATOM     21  C   UNL     1      20.372  33.374  29.606  1.00  0.00     0.085 C 
ATOM     22  C   UNL     1      19.252  30.504  29.685  1.00  0.00    -0.000 C 
ATOM     23  C   UNL     1      18.937  33.073  29.314  1.00  0.00     0.159 C 
ATOM     24  C   UNL     1      18.359  31.756  29.657  1.00  0.00     0.005 C 
ATOM     25  C   UNL     1      18.789  29.603  30.874  1.00  0.00     0.020 C 
ATOM     26  C   UNL     1      19.037  29.743  28.352  1.00  0.00     0.017 C 
ATOM     27  O   UNL     1      18.220  33.968  28.787  1.00  0.00    -0.295 OA
ATOM     28  C   UNL     1      17.053  31.685  29.971  1.00  0.00     0.055 C 
ATOM     29  C   UNL     1      17.289  29.264  30.841  1.00  0.00     0.081 C 
ATOM     30  C   UNL     1      16.451  30.462  30.517  1.00  0.00     0.156 C 
ATOM     31  O   UNL     1      15.206  30.417  30.711  1.00  0.00    -0.295 OA
ENDBRANCH   9  11
ENDBRANCH   8   9
ENDBRANCH   1   8
TORSDOF 6
ENDMDL
MODEL 6
REMARK VINA RESULT:    -5.930      2.916      8.310
REMARK INTER + INTRA:          -9.662
REMARK INTER:                  -8.448
REMARK INTRA:                  -1.214
REMARK UNBOUND:                -1.652
REMARK SMILES CC[C@H](CC[C@@H](C)[C@@H]1CC[C@@H]2[C@H]3CC(=O)C4=CC(=O)CC[C@]4(C)[C@@H]3CC[C@]21C)C(C)C
REMARK SMILES IDX 4 1 3 2 2 3 1 4 29 5 30 6 31 7 5 8 6 9 7 10 8 11 9 12 27 13
REMARK SMILES IDX 10 14 11 15 26 16 28 17 12 18 25 19 24 20 13 21 22 22 14 23
REMARK SMILES IDX 16 24 21 25 23 26 15 27 17 28 20 29 18 30 19 31
REMARK H PARENT
REMARK Flexibility Score: inf
ROOT
ATOM      1  C   UNL     1      26.235  31.143  32.680  1.00  0.00     0.004 C 
ENDROOT
BRANCH   1   2
ATOM      2  C   UNL     1      26.606  30.518  31.304  1.00  0.00    -0.009 C 
BRANCH   2   3
ATOM      3  C   UNL     1      25.452  29.698  30.642  1.00  0.00     0.000 C 
ATOM      4  C   UNL     1      25.331  29.816  29.117  1.00  0.00     0.004 C 
ENDBRANCH   2   3
BRANCH   2   5
ATOM      5  C   UNL     1      27.267  31.575  30.357  1.00  0.00    -0.014 C 
ATOM      6  C   UNL     1      28.796  31.635  30.459  1.00  0.00     0.007 C 
ATOM      7  C   UNL     1      26.665  32.979  30.537  1.00  0.00     0.007 C 
ENDBRANCH   2   5
ENDBRANCH   1   2
BRANCH   1   8
ATOM      8  C   UNL     1      24.740  30.994  33.021  1.00  0.00     0.004 C 
BRANCH   8   9
ATOM      9  C   UNL     1      23.917  32.319  33.067  1.00  0.00    -0.011 C 
ATOM     10  C   UNL     1      24.902  33.503  33.032  1.00  0.00     0.008 C 
BRANCH   9  11
ATOM     11  C   UNL     1      22.718  32.565  32.071  1.00  0.00    -0.002 C 
ATOM     12  C   UNL     1      21.960  33.907  32.244  1.00  0.00     0.005 C 
ATOM     13  C   UNL     1      21.607  31.500  31.801  1.00  0.00    -0.026 C 
ATOM     14  C   UNL     1      20.531  33.675  31.730  1.00  0.00     0.005 C 
ATOM     15  C   UNL     1      20.621  32.354  30.981  1.00  0.00    -0.001 C 
ATOM     16  C   UNL     1      22.020  30.318  30.888  1.00  0.00     0.007 C 
ATOM     17  C   UNL     1      20.986  30.968  33.124  1.00  0.00     0.012 C 
ATOM     18  C   UNL     1      19.308  31.631  30.595  1.00  0.00     0.004 C 
ATOM     19  C   UNL     1      20.787  29.487  30.471  1.00  0.00     0.005 C 
ATOM     20  C   UNL     1      19.651  30.329  29.801  1.00  0.00     0.003 C 
ATOM     21  C   UNL     1      18.452  32.554  29.702  1.00  0.00     0.085 C 
ATOM     22  C   UNL     1      18.356  29.487  29.419  1.00  0.00    -0.000 C 
ATOM     23  C   UNL     1      17.254  31.844  29.159  1.00  0.00     0.159 C 
ATOM     24  C   UNL     1      17.109  30.381  29.320  1.00  0.00     0.005 C 
ATOM     25  C   UNL     1      18.063  28.357  30.458  1.00  0.00     0.020 C 
ATOM     26  C   UNL     1      18.591  28.851  28.025  1.00  0.00     0.017 C 
ATOM     27  O   UNL     1      16.358  32.515  28.577  1.00  0.00    -0.295 OA
ATOM     28  C   UNL     1      15.871  29.860  29.408  1.00  0.00     0.055 C 
ATOM     29  C   UNL     1      16.782  27.562  30.156  1.00  0.00     0.081 C 
ATOM     30  C   UNL     1      15.644  28.456  29.771  1.00  0.00     0.156 C 
ATOM     31  O   UNL     1      14.472  27.993  29.754  1.00  0.00    -0.295 OA
ENDBRANCH   9  11
ENDBRANCH   8   9
ENDBRANCH   1   8
TORSDOF 6
ENDMDL
MODEL 7
REMARK VINA RESULT:    -5.777      3.178      9.020
REMARK INTER + INTRA:          -9.455
REMARK INTER:                  -8.465
REMARK INTRA:                  -0.990
REMARK UNBOUND:                -1.652
REMARK SMILES CC[C@H](CC[C@@H](C)[C@@H]1CC[C@@H]2[C@H]3CC(=O)C4=CC(=O)CC[C@]4(C)[C@@H]3CC[C@]21C)C(C)C
REMARK SMILES IDX 4 1 3 2 2 3 1 4 29 5 30 6 31 7 5 8 6 9 7 10 8 11 9 12 27 13
REMARK SMILES IDX 10 14 11 15 26 16 28 17 12 18 25 19 24 20 13 21 22 22 14 23
REMARK SMILES IDX 16 24 21 25 23 26 15 27 17 28 20 29 18 30 19 31
REMARK H PARENT
REMARK Flexibility Score: inf
ROOT
ATOM      1  C   UNL     1      26.467  32.451  30.332  1.00  0.00     0.004 C 
ENDROOT
BRANCH   1   2
ATOM      2  C   UNL     1      27.441  31.268  30.062  1.00  0.00    -0.009 C 
BRANCH   2   3
ATOM      3  C   UNL     1      27.959  31.188  28.591  1.00  0.00     0.000 C 
ATOM      4  C   UNL     1      27.656  29.885  27.840  1.00  0.00     0.004 C 
ENDBRANCH   2   3
BRANCH   2   5
ATOM      5  C   UNL     1      28.570  31.201  31.145  1.00  0.00    -0.014 C 
ATOM      6  C   UNL     1      28.066  30.848  32.551  1.00  0.00     0.007 C 
ATOM      7  C   UNL     1      29.415  32.485  31.188  1.00  0.00     0.007 C 
ENDBRANCH   2   5
ENDBRANCH   1   2
BRANCH   1   8
ATOM      8  C   UNL     1      24.987  32.020  30.329  1.00  0.00     0.004 C 
BRANCH   8   9
ATOM      9  C   UNL     1      24.632  30.799  31.234  1.00  0.00    -0.011 C 
ATOM     10  C   UNL     1      24.438  31.304  32.676  1.00  0.00     0.008 C 
BRANCH   9  11
ATOM     11  C   UNL     1      23.475  29.802  30.834  1.00  0.00    -0.002 C 
ATOM     12  C   UNL     1      23.654  29.069  29.479  1.00  0.00     0.005 C 
ATOM     13  C   UNL     1      21.962  30.188  30.895  1.00  0.00    -0.026 C 
ATOM     14  C   UNL     1      22.243  28.734  28.971  1.00  0.00     0.005 C 
ATOM     15  C   UNL     1      21.352  28.966  30.183  1.00  0.00    -0.001 C 
ATOM     16  C   UNL     1      21.336  30.223  32.311  1.00  0.00     0.007 C 
ATOM     17  C   UNL     1      21.680  31.523  30.147  1.00  0.00     0.012 C 
ATOM     18  C   UNL     1      19.821  29.040  29.972  1.00  0.00     0.004 C 
ATOM     19  C   UNL     1      19.798  30.343  32.230  1.00  0.00     0.005 C 
ATOM     20  C   UNL     1      19.121  29.238  31.356  1.00  0.00     0.003 C 
ATOM     21  C   UNL     1      19.321  27.724  29.339  1.00  0.00     0.085 C 
ATOM     22  C   UNL     1      17.542  29.390  31.225  1.00  0.00    -0.000 C 
ATOM     23  C   UNL     1      17.828  27.673  29.274  1.00  0.00     0.159 C 
ATOM     24  C   UNL     1      17.009  28.694  29.961  1.00  0.00     0.005 C 
ATOM     25  C   UNL     1      17.097  30.887  31.180  1.00  0.00     0.020 C 
ATOM     26  C   UNL     1      16.890  28.700  32.450  1.00  0.00     0.017 C 
ATOM     27  O   UNL     1      17.278  26.754  28.606  1.00  0.00    -0.295 OA
ATOM     28  C   UNL     1      15.812  29.020  29.440  1.00  0.00     0.055 C 
ATOM     29  C   UNL     1      15.583  31.074  30.990  1.00  0.00     0.081 C 
ATOM     30  C   UNL     1      15.032  30.160  29.939  1.00  0.00     0.156 C 
ATOM     31  O   UNL     1      13.878  30.370  29.479  1.00  0.00    -0.295 OA
ENDBRANCH   9  11
ENDBRANCH   8   9
ENDBRANCH   1   8
TORSDOF 6
ENDMDL
MODEL 8
REMARK VINA RESULT:    -5.773      1.830      2.798
REMARK INTER + INTRA:          -9.450
REMARK INTER:                  -8.176
REMARK INTRA:                  -1.274
REMARK UNBOUND:                -1.652
REMARK SMILES CC[C@H](CC[C@@H](C)[C@@H]1CC[C@@H]2[C@H]3CC(=O)C4=CC(=O)CC[C@]4(C)[C@@H]3CC[C@]21C)C(C)C
REMARK SMILES IDX 4 1 3 2 2 3 1 4 29 5 30 6 31 7 5 8 6 9 7 10 8 11 9 12 27 13
REMARK SMILES IDX 10 14 11 15 26 16 28 17 12 18 25 19 24 20 13 21 22 22 14 23
REMARK SMILES IDX 16 24 21 25 23 26 15 27 17 28 20 29 18 30 19 31
REMARK H PARENT
REMARK Flexibility Score: inf
ROOT
ATOM      1  C   UNL     1      18.872  25.644  28.039  1.00  0.00     0.004 C 
ENDROOT
BRANCH   1   2
ATOM      2  C   UNL     1      20.286  25.294  27.495  1.00  0.00    -0.009 C 
BRANCH   2   3
ATOM      3  C   UNL     1      21.419  25.354  28.570  1.00  0.00     0.000 C 
ATOM      4  C   UNL     1      22.657  26.180  28.198  1.00  0.00     0.004 C 
ENDBRANCH   2   3
BRANCH   2   5
ATOM      5  C   UNL     1      20.264  23.970  26.659  1.00  0.00    -0.014 C 
ATOM      6  C   UNL     1      21.111  24.025  25.381  1.00  0.00     0.007 C 
ATOM      7  C   UNL     1      18.834  23.509  26.332  1.00  0.00     0.007 C 
ENDBRANCH   2   5
ENDBRANCH   1   2
BRANCH   1   8
ATOM      8  C   UNL     1      18.356  27.006  27.533  1.00  0.00     0.004 C 
BRANCH   8   9
ATOM      9  C   UNL     1      17.436  27.794  28.517  1.00  0.00    -0.011 C 
ATOM     10  C   UNL     1      16.592  26.778  29.310  1.00  0.00     0.008 C 
BRANCH   9  11
ATOM     11  C   UNL     1      18.031  28.894  29.480  1.00  0.00    -0.002 C 
ATOM     12  C   UNL     1      17.299  30.261  29.476  1.00  0.00     0.005 C 
ATOM     13  C   UNL     1      19.553  29.244  29.532  1.00  0.00    -0.026 C 
ATOM     14  C   UNL     1      18.339  31.317  29.880  1.00  0.00     0.005 C 
ATOM     15  C   UNL     1      19.501  30.499  30.423  1.00  0.00    -0.001 C 
ATOM     16  C   UNL     1      20.450  28.221  30.274  1.00  0.00     0.007 C 
ATOM     17  C   UNL     1      20.124  29.535  28.115  1.00  0.00     0.012 C 
ATOM     18  C   UNL     1      20.866  31.199  30.631  1.00  0.00     0.004 C 
ATOM     19  C   UNL     1      21.866  28.795  30.500  1.00  0.00     0.005 C 
ATOM     20  C   UNL     1      21.882  30.176  31.234  1.00  0.00     0.003 C 
ATOM     21  C   UNL     1      20.698  32.379  31.612  1.00  0.00     0.085 C 
ATOM     22  C   UNL     1      23.336  30.796  31.421  1.00  0.00    -0.000 C 
ATOM     23  C   UNL     1      22.015  32.982  31.983  1.00  0.00     0.159 C 
ATOM     24  C   UNL     1      23.281  32.324  31.595  1.00  0.00     0.005 C 
ATOM     25  C   UNL     1      24.270  30.478  30.210  1.00  0.00     0.020 C 
ATOM     26  C   UNL     1      23.951  30.199  32.712  1.00  0.00     0.017 C 
ATOM     27  O   UNL     1      22.030  34.073  32.616  1.00  0.00    -0.295 OA
ATOM     28  C   UNL     1      24.364  33.088  31.369  1.00  0.00     0.055 C 
ATOM     29  C   UNL     1      25.665  31.115  30.326  1.00  0.00     0.081 C 
ATOM     30  C   UNL     1      25.595  32.539  30.786  1.00  0.00     0.156 C 
ATOM     31  O   UNL     1      26.612  33.275  30.677  1.00  0.00    -0.295 OA
ENDBRANCH   9  11
ENDBRANCH   8   9
ENDBRANCH   1   8
TORSDOF 6
ENDMDL
MODEL 9
REMARK VINA RESULT:    -5.536      1.391      2.035
REMARK INTER + INTRA:          -9.129
REMARK INTER:                  -8.060
REMARK INTRA:                  -1.069
REMARK UNBOUND:                -1.652
REMARK SMILES CC[C@H](CC[C@@H](C)[C@@H]1CC[C@@H]2[C@H]3CC(=O)C4=CC(=O)CC[C@]4(C)[C@@H]3CC[C@]21C)C(C)C
REMARK SMILES IDX 4 1 3 2 2 3 1 4 29 5 30 6 31 7 5 8 6 9 7 10 8 11 9 12 27 13
REMARK SMILES IDX 10 14 11 15 26 16 28 17 12 18 25 19 24 20 13 21 22 22 14 23
REMARK SMILES IDX 16 24 21 25 23 26 15 27 17 28 20 29 18 30 19 31
REMARK H PARENT
REMARK Flexibility Score: inf
ROOT
ATOM      1  C   UNL     1      17.585  27.828  29.423  1.00  0.00     0.004 C 
ENDROOT
BRANCH   1   2
ATOM      2  C   UNL     1      16.743  26.535  29.225  1.00  0.00    -0.009 C 
BRANCH   2   3
ATOM      3  C   UNL     1      15.244  26.676  29.642  1.00  0.00     0.000 C 
ATOM      4  C   UNL     1      14.819  25.907  30.899  1.00  0.00     0.004 C 
ENDBRANCH   2   3
BRANCH   2   5
ATOM      5  C   UNL     1      16.957  25.928  27.798  1.00  0.00    -0.014 C 
ATOM      6  C   UNL     1      16.101  24.687  27.512  1.00  0.00     0.007 C 
ATOM      7  C   UNL     1      18.438  25.632  27.504  1.00  0.00     0.007 C 
ENDBRANCH   2   5
ENDBRANCH   1   2
BRANCH   1   8
ATOM      8  C   UNL     1      16.960  28.798  30.445  1.00  0.00     0.004 C 
BRANCH   8   9
ATOM      9  C   UNL     1      17.259  30.313  30.216  1.00  0.00    -0.011 C 
ATOM     10  C   UNL     1      15.950  31.099  30.417  1.00  0.00     0.008 C 
BRANCH   9  11
ATOM     11  C   UNL     1      18.455  31.025  30.960  1.00  0.00    -0.002 C 
ATOM     12  C   UNL     1      18.298  32.552  31.182  1.00  0.00     0.005 C 
ATOM     13  C   UNL     1      19.950  30.822  30.552  1.00  0.00    -0.026 C 
ATOM     14  C   UNL     1      19.718  33.133  31.257  1.00  0.00     0.005 C 
ATOM     15  C   UNL     1      20.607  31.909  31.422  1.00  0.00    -0.001 C 
ATOM     16  C   UNL     1      20.585  29.477  30.985  1.00  0.00     0.007 C 
ATOM     17  C   UNL     1      20.167  31.056  29.030  1.00  0.00     0.012 C 
ATOM     18  C   UNL     1      22.132  32.069  31.212  1.00  0.00     0.004 C 
ATOM     19  C   UNL     1      22.115  29.499  30.776  1.00  0.00     0.005 C 
ATOM     20  C   UNL     1      22.834  30.698  31.477  1.00  0.00     0.003 C 
ATOM     21  C   UNL     1      22.684  33.116  32.202  1.00  0.00     0.085 C 
ATOM     22  C   UNL     1      24.404  30.755  31.219  1.00  0.00    -0.000 C 
ATOM     23  C   UNL     1      24.178  33.184  32.161  1.00  0.00     0.159 C 
ATOM     24  C   UNL     1      24.956  32.178  31.408  1.00  0.00     0.005 C 
ATOM     25  C   UNL     1      24.781  30.273  29.782  1.00  0.00     0.020 C 
ATOM     26  C   UNL     1      25.095  29.841  32.263  1.00  0.00     0.017 C 
ATOM     27  O   UNL     1      24.763  34.125  32.765  1.00  0.00    -0.295 OA
ATOM     28  C   UNL     1      26.134  32.544  30.869  1.00  0.00     0.055 C 
ATOM     29  C   UNL     1      26.284  30.374  29.475  1.00  0.00     0.081 C 
ATOM     30  C   UNL     1      26.866  31.673  29.941  1.00  0.00     0.156 C 
ATOM     31  O   UNL     1      28.007  32.022  29.533  1.00  0.00    -0.295 OA
ENDBRANCH   9  11
ENDBRANCH   8   9
ENDBRANCH   1   8
TORSDOF 6
ENDMDL
