MODEL 1
REMARK VINA RESULT:    -3.422      0.000      0.000
REMARK INTER + INTRA:          -8.052
REMARK INTER:                  -6.322
REMARK INTRA:                  -1.729
REMARK UNBOUND:                -1.729
REMARK SMILES CCCCCCCCCCCCCCCCO
REMARK SMILES IDX 9 1 8 2 7 3 6 4 5 5 4 6 3 7 2 8 1 9 10 10 11 11 12 12 13 13
REMARK SMILES IDX 14 14 15 15 16 16 17 17
REMARK H PARENT 17 18
REMARK Flexibility Score: inf
ROOT
ATOM      1  C   UNL     1      10.068  21.144  20.366  1.00  0.00     0.000 C 
ENDROOT
BRANCH   1   2
ATOM      2  C   UNL     1      11.523  21.294  19.887  1.00  0.00    -0.000 C 
BRANCH   2   3
ATOM      3  C   UNL     1      11.879  22.746  19.535  1.00  0.00    -0.000 C 
BRANCH   3   4
ATOM      4  C   UNL     1      12.927  22.840  18.411  1.00  0.00    -0.000 C 
BRANCH   4   5
ATOM      5  C   UNL     1      12.300  22.735  17.011  1.00  0.00    -0.000 C 
BRANCH   5   6
ATOM      6  C   UNL     1      12.863  21.560  16.199  1.00  0.00    -0.000 C 
BRANCH   6   7
ATOM      7  C   UNL     1      11.764  20.540  15.875  1.00  0.00    -0.000 C 
BRANCH   7   8
ATOM      8  C   UNL     1      10.395  21.033  16.359  1.00  0.00    -0.003 C 
ATOM      9  C   UNL     1       9.566  19.886  16.930  1.00  0.00     0.004 C 
ENDBRANCH   7   8
ENDBRANCH   6   7
ENDBRANCH   5   6
ENDBRANCH   4   5
ENDBRANCH   3   4
ENDBRANCH   2   3
ENDBRANCH   1   2
BRANCH   1  10
ATOM     10  C   UNL     1       9.217  22.391  20.078  1.00  0.00     0.000 C 
BRANCH  10  11
ATOM     11  C   UNL     1       7.834  22.046  19.502  1.00  0.00     0.000 C 
BRANCH  11  12
ATOM     12  C   UNL     1       7.257  20.745  20.101  1.00  0.00     0.000 C 
BRANCH  12  13
ATOM     13  C   UNL     1       6.263  20.981  21.253  1.00  0.00     0.000 C 
BRANCH  13  14
ATOM     14  C   UNL     1       6.906  21.142  22.644  1.00  0.00     0.002 C 
BRANCH  14  15
ATOM     15  C   UNL     1       5.938  20.972  23.831  1.00  0.00     0.028 C 
BRANCH  15  16
ATOM     16  C   UNL     1       5.388  19.550  23.985  1.00  0.00     0.156 C 
BRANCH  16  17
ATOM     17  O   UNL     1       6.132  18.840  24.935  1.00  0.00    -0.396 OA
ATOM     18  H   UNL     1       6.658  19.517  25.437  1.00  0.00     0.210 HD
ENDBRANCH  16  17
ENDBRANCH  15  16
ENDBRANCH  14  15
ENDBRANCH  13  14
ENDBRANCH  12  13
ENDBRANCH  11  12
ENDBRANCH  10  11
ENDBRANCH   1  10
TORSDOF 15
ENDMDL
MODEL 2
REMARK VINA RESULT:    -3.409      2.672      3.486
REMARK INTER + INTRA:          -8.028
REMARK INTER:                  -5.753
REMARK INTRA:                  -2.274
REMARK UNBOUND:                -1.729
REMARK SMILES CCCCCCCCCCCCCCCCO
REMARK SMILES IDX 9 1 8 2 7 3 6 4 5 5 4 6 3 7 2 8 1 9 10 10 11 11 12 12 13 13
REMARK SMILES IDX 14 14 15 15 16 16 17 17
REMARK H PARENT 17 18
REMARK Flexibility Score: inf
ROOT
ATOM      1  C   UNL     1      11.521  21.202  20.164  1.00  0.00     0.000 C 
ENDROOT
BRANCH   1   2
ATOM      2  C   UNL     1      12.280  22.541  20.123  1.00  0.00    -0.000 C 
BRANCH   2   3
ATOM      3  C   UNL     1      12.978  22.780  18.775  1.00  0.00    -0.000 C 
BRANCH   3   4
ATOM      4  C   UNL     1      12.048  22.519  17.576  1.00  0.00    -0.000 C 
BRANCH   4   5
ATOM      5  C   UNL     1      12.679  21.582  16.533  1.00  0.00    -0.000 C 
BRANCH   5   6
ATOM      6  C   UNL     1      11.712  20.488  16.059  1.00  0.00    -0.000 C 
BRANCH   6   7
ATOM      7  C   UNL     1      10.322  20.679  16.678  1.00  0.00    -0.000 C 
BRANCH   7   8
ATOM      8  C   UNL     1       9.615  19.332  16.869  1.00  0.00    -0.003 C 
ATOM      9  C   UNL     1      10.153  18.595  18.092  1.00  0.00     0.004 C 
ENDBRANCH   7   8
ENDBRANCH   6   7
ENDBRANCH   5   6
ENDBRANCH   4   5
ENDBRANCH   3   4
ENDBRANCH   2   3
ENDBRANCH   1   2
BRANCH   1  10
ATOM     10  C   UNL     1      10.121  21.334  20.786  1.00  0.00     0.000 C 
BRANCH  10  11
ATOM     11  C   UNL     1       9.327  22.520  20.213  1.00  0.00     0.000 C 
BRANCH  11  12
ATOM     12  C   UNL     1       8.238  22.070  19.216  1.00  0.00     0.000 C 
BRANCH  12  13
ATOM     13  C   UNL     1       7.518  20.773  19.630  1.00  0.00     0.000 C 
BRANCH  13  14
ATOM     14  C   UNL     1       6.186  20.508  18.903  1.00  0.00     0.002 C 
BRANCH  14  15
ATOM     15  C   UNL     1       6.222  20.732  17.378  1.00  0.00     0.028 C 
BRANCH  15  16
ATOM     16  C   UNL     1       5.863  19.488  16.559  1.00  0.00     0.156 C 
BRANCH  16  17
ATOM     17  O   UNL     1       5.022  18.645  17.295  1.00  0.00    -0.396 OA
ATOM     18  H   UNL     1       4.468  19.238  17.866  1.00  0.00     0.210 HD
ENDBRANCH  16  17
ENDBRANCH  15  16
ENDBRANCH  14  15
ENDBRANCH  13  14
ENDBRANCH  12  13
ENDBRANCH  11  12
ENDBRANCH  10  11
ENDBRANCH   1  10
TORSDOF 15
ENDMDL
MODEL 3
REMARK VINA RESULT:    -3.376      0.926      1.899
REMARK INTER + INTRA:          -7.966
REMARK INTER:                  -5.570
REMARK INTRA:                  -2.396
REMARK UNBOUND:                -1.729
REMARK SMILES CCCCCCCCCCCCCCCCO
REMARK SMILES IDX 9 1 8 2 7 3 6 4 5 5 4 6 3 7 2 8 1 9 10 10 11 11 12 12 13 13
REMARK SMILES IDX 14 14 15 15 16 16 17 17
REMARK H PARENT 17 18
REMARK Flexibility Score: inf
ROOT
ATOM      1  C   UNL     1      11.685  21.474  19.736  1.00  0.00     0.000 C 
ENDROOT
BRANCH   1   2
ATOM      2  C   UNL     1      12.024  22.834  19.101  1.00  0.00    -0.000 C 
BRANCH   2   3
ATOM      3  C   UNL     1      13.012  22.707  17.931  1.00  0.00    -0.000 C 
BRANCH   3   4
ATOM      4  C   UNL     1      12.413  21.950  16.733  1.00  0.00    -0.000 C 
BRANCH   4   5
ATOM      5  C   UNL     1      11.095  22.570  16.242  1.00  0.00    -0.000 C 
BRANCH   5   6
ATOM      6  C   UNL     1       9.999  21.521  16.006  1.00  0.00    -0.000 C 
BRANCH   6   7
ATOM      7  C   UNL     1      10.439  20.143  16.516  1.00  0.00    -0.000 C 
BRANCH   7   8
ATOM      8  C   UNL     1       9.241  19.339  17.033  1.00  0.00    -0.003 C 
ATOM      9  C   UNL     1       9.675  18.306  18.069  1.00  0.00     0.004 C 
ENDBRANCH   7   8
ENDBRANCH   6   7
ENDBRANCH   5   6
ENDBRANCH   4   5
ENDBRANCH   3   4
ENDBRANCH   2   3
ENDBRANCH   1   2
BRANCH   1  10
ATOM     10  C   UNL     1      10.196  21.342  20.096  1.00  0.00     0.000 C 
BRANCH  10  11
ATOM     11  C   UNL     1       9.366  22.553  19.638  1.00  0.00     0.000 C 
BRANCH  11  12
ATOM     12  C   UNL     1       7.952  22.152  19.168  1.00  0.00     0.000 C 
BRANCH  12  13
ATOM     13  C   UNL     1       7.430  20.854  19.813  1.00  0.00     0.000 C 
BRANCH  13  14
ATOM     14  C   UNL     1       6.410  21.058  20.949  1.00  0.00     0.002 C 
BRANCH  14  15
ATOM     15  C   UNL     1       7.024  21.237  22.351  1.00  0.00     0.028 C 
BRANCH  15  16
ATOM     16  C   UNL     1       5.995  21.539  23.445  1.00  0.00     0.156 C 
BRANCH  16  17
ATOM     17  O   UNL     1       6.158  20.661  24.524  1.00  0.00    -0.396 OA
ATOM     18  H   UNL     1       5.272  20.237  24.671  1.00  0.00     0.210 HD
ENDBRANCH  16  17
ENDBRANCH  15  16
ENDBRANCH  14  15
ENDBRANCH  13  14
ENDBRANCH  12  13
ENDBRANCH  11  12
ENDBRANCH  10  11
ENDBRANCH   1  10
TORSDOF 15
ENDMDL
MODEL 4
REMARK VINA RESULT:    -3.322     20.296     22.472
REMARK INTER + INTRA:          -7.867
REMARK INTER:                  -5.491
REMARK INTRA:                  -2.376
REMARK UNBOUND:                -1.729
REMARK SMILES CCCCCCCCCCCCCCCCO
REMARK SMILES IDX 9 1 8 2 7 3 6 4 5 5 4 6 3 7 2 8 1 9 10 10 11 11 12 12 13 13
REMARK SMILES IDX 14 14 15 15 16 16 17 17
REMARK H PARENT 17 18
REMARK Flexibility Score: inf
ROOT
ATOM      1  C   UNL     1       8.723   6.807  34.177  1.00  0.00     0.000 C 
ENDROOT
BRANCH   1   2
ATOM      2  C   UNL     1       8.059   6.634  35.555  1.00  0.00    -0.000 C 
BRANCH   2   3
ATOM      3  C   UNL     1       6.550   6.365  35.451  1.00  0.00    -0.000 C 
BRANCH   3   4
ATOM      4  C   UNL     1       6.183   4.917  35.823  1.00  0.00    -0.000 C 
BRANCH   4   5
ATOM      5  C   UNL     1       7.421   4.033  36.046  1.00  0.00    -0.000 C 
BRANCH   5   6
ATOM      6  C   UNL     1       7.509   2.875  35.042  1.00  0.00    -0.000 C 
BRANCH   6   7
ATOM      7  C   UNL     1       6.700   3.182  33.776  1.00  0.00    -0.000 C 
BRANCH   7   8
ATOM      8  C   UNL     1       7.612   3.666  32.643  1.00  0.00    -0.003 C 
ATOM      9  C   UNL     1       6.887   4.656  31.736  1.00  0.00     0.004 C 
ENDBRANCH   7   8
ENDBRANCH   6   7
ENDBRANCH   5   6
ENDBRANCH   4   5
ENDBRANCH   3   4
ENDBRANCH   2   3
ENDBRANCH   1   2
BRANCH   1  10
ATOM     10  C   UNL     1      10.178   6.313  34.154  1.00  0.00     0.000 C 
BRANCH  10  11
ATOM     11  C   UNL     1      10.556   5.524  35.419  1.00  0.00     0.000 C 
BRANCH  11  12
ATOM     12  C   UNL     1      11.305   4.214  35.091  1.00  0.00     0.000 C 
BRANCH  12  13
ATOM     13  C   UNL     1      11.017   3.674  33.678  1.00  0.00     0.000 C 
BRANCH  13  14
ATOM     14  C   UNL     1      12.254   3.536  32.771  1.00  0.00     0.002 C 
BRANCH  14  15
ATOM     15  C   UNL     1      11.970   3.657  31.261  1.00  0.00     0.028 C 
BRANCH  15  16
ATOM     16  C   UNL     1      10.761   4.536  30.925  1.00  0.00     0.156 C 
BRANCH  16  17
ATOM     17  O   UNL     1      11.137   5.884  30.874  1.00  0.00    -0.396 OA
ATOM     18  H   UNL     1      11.266   6.170  31.816  1.00  0.00     0.210 HD
ENDBRANCH  16  17
ENDBRANCH  15  16
ENDBRANCH  14  15
ENDBRANCH  13  14
ENDBRANCH  12  13
ENDBRANCH  11  12
ENDBRANCH  10  11
ENDBRANCH   1  10
TORSDOF 15
ENDMDL
MODEL 5
REMARK VINA RESULT:    -3.321     20.034     21.721
REMARK INTER + INTRA:          -7.865
REMARK INTER:                  -5.726
REMARK INTRA:                  -2.139
REMARK UNBOUND:                -1.729
REMARK SMILES CCCCCCCCCCCCCCCCO
REMARK SMILES IDX 9 1 8 2 7 3 6 4 5 5 4 6 3 7 2 8 1 9 10 10 11 11 12 12 13 13
REMARK SMILES IDX 14 14 15 15 16 16 17 17
REMARK H PARENT 17 18
REMARK Flexibility Score: inf
ROOT
ATOM      1  C   UNL     1      11.246   4.545  31.508  1.00  0.00     0.000 C 
ENDROOT
BRANCH   1   2
ATOM      2  C   UNL     1      11.791   3.186  31.983  1.00  0.00    -0.000 C 
BRANCH   2   3
ATOM      3  C   UNL     1      12.595   3.298  33.288  1.00  0.00    -0.000 C 
BRANCH   3   4
ATOM      4  C   UNL     1      11.693   3.318  34.535  1.00  0.00    -0.000 C 
BRANCH   4   5
ATOM      5  C   UNL     1      12.261   4.199  35.659  1.00  0.00    -0.000 C 
BRANCH   5   6
ATOM      6  C   UNL     1      11.290   5.309  36.088  1.00  0.00    -0.000 C 
BRANCH   6   7
ATOM      7  C   UNL     1      10.188   5.509  35.041  1.00  0.00    -0.000 C 
BRANCH   7   8
ATOM      8  C   UNL     1      10.436   6.777  34.215  1.00  0.00    -0.003 C 
ATOM      9  C   UNL     1       9.126   7.369  33.706  1.00  0.00     0.004 C 
ENDBRANCH   7   8
ENDBRANCH   6   7
ENDBRANCH   5   6
ENDBRANCH   4   5
ENDBRANCH   3   4
ENDBRANCH   2   3
ENDBRANCH   1   2
BRANCH   1  10
ATOM     10  C   UNL     1       9.726   4.527  31.282  1.00  0.00     0.000 C 
BRANCH  10  11
ATOM     11  C   UNL     1       9.000   3.540  32.212  1.00  0.00     0.000 C 
BRANCH  11  12
ATOM     12  C   UNL     1       7.470   3.560  32.010  1.00  0.00     0.000 C 
BRANCH  12  13
ATOM     13  C   UNL     1       6.903   4.961  31.713  1.00  0.00     0.000 C 
BRANCH  13  14
ATOM     14  C   UNL     1       5.977   5.532  32.802  1.00  0.00     0.002 C 
BRANCH  14  15
ATOM     15  C   UNL     1       6.307   5.080  34.238  1.00  0.00     0.028 C 
BRANCH  15  16
ATOM     16  C   UNL     1       5.528   5.835  35.321  1.00  0.00     0.156 C 
BRANCH  16  17
ATOM     17  O   UNL     1       5.976   7.158  35.412  1.00  0.00    -0.396 OA
ATOM     18  H   UNL     1       6.403   7.366  34.540  1.00  0.00     0.210 HD
ENDBRANCH  16  17
ENDBRANCH  15  16
ENDBRANCH  14  15
ENDBRANCH  13  14
ENDBRANCH  12  13
ENDBRANCH  11  12
ENDBRANCH  10  11
ENDBRANCH   1  10
TORSDOF 15
ENDMDL
MODEL 6
REMARK VINA RESULT:    -3.313      1.015      2.723
REMARK INTER + INTRA:          -7.851
REMARK INTER:                  -6.140
REMARK INTRA:                  -1.712
REMARK UNBOUND:                -1.729
REMARK SMILES CCCCCCCCCCCCCCCCO
REMARK SMILES IDX 9 1 8 2 7 3 6 4 5 5 4 6 3 7 2 8 1 9 10 10 11 11 12 12 13 13
REMARK SMILES IDX 14 14 15 15 16 16 17 17
REMARK H PARENT 17 18
REMARK Flexibility Score: inf
ROOT
ATOM      1  C   UNL     1       9.197  19.118  18.469  1.00  0.00     0.000 C 
ENDROOT
BRANCH   1   2
ATOM      2  C   UNL     1      10.331  19.387  17.464  1.00  0.00    -0.000 C 
BRANCH   2   3
ATOM      3  C   UNL     1       9.856  20.183  16.239  1.00  0.00    -0.000 C 
BRANCH   3   4
ATOM      4  C   UNL     1      10.648  21.488  16.041  1.00  0.00    -0.000 C 
BRANCH   4   5
ATOM      5  C   UNL     1      12.062  21.417  16.640  1.00  0.00    -0.000 C 
BRANCH   5   6
ATOM      6  C   UNL     1      12.441  22.688  17.414  1.00  0.00    -0.000 C 
BRANCH   6   7
ATOM      7  C   UNL     1      12.628  22.387  18.906  1.00  0.00    -0.000 C 
BRANCH   7   8
ATOM      8  C   UNL     1      11.275  22.233  19.610  1.00  0.00    -0.003 C 
ATOM      9  C   UNL     1      11.330  21.143  20.677  1.00  0.00     0.004 C 
ENDBRANCH   7   8
ENDBRANCH   6   7
ENDBRANCH   5   6
ENDBRANCH   4   5
ENDBRANCH   3   4
ENDBRANCH   2   3
ENDBRANCH   1   2
BRANCH   1  10
ATOM     10  C   UNL     1       7.838  19.648  17.983  1.00  0.00     0.000 C 
BRANCH  10  11
ATOM     11  C   UNL     1       6.953  20.153  19.135  1.00  0.00     0.000 C 
BRANCH  11  12
ATOM     12  C   UNL     1       7.462  21.483  19.728  1.00  0.00     0.000 C 
BRANCH  12  13
ATOM     13  C   UNL     1       7.517  21.494  21.268  1.00  0.00     0.000 C 
BRANCH  13  14
ATOM     14  C   UNL     1       6.276  20.907  21.966  1.00  0.00     0.002 C 
BRANCH  14  15
ATOM     15  C   UNL     1       6.177  21.204  23.475  1.00  0.00     0.028 C 
BRANCH  15  16
ATOM     16  C   UNL     1       5.254  20.248  24.237  1.00  0.00     0.156 C 
BRANCH  16  17
ATOM     17  O   UNL     1       5.966  19.120  24.665  1.00  0.00    -0.396 OA
ATOM     18  H   UNL     1       5.297  18.393  24.765  1.00  0.00     0.210 HD
ENDBRANCH  16  17
ENDBRANCH  15  16
ENDBRANCH  14  15
ENDBRANCH  13  14
ENDBRANCH  12  13
ENDBRANCH  11  12
ENDBRANCH  10  11
ENDBRANCH   1  10
TORSDOF 15
ENDMDL
MODEL 7
REMARK VINA RESULT:    -3.308      1.509      3.225
REMARK INTER + INTRA:          -7.841
REMARK INTER:                  -5.720
REMARK INTRA:                  -2.122
REMARK UNBOUND:                -1.729
REMARK SMILES CCCCCCCCCCCCCCCCO
REMARK SMILES IDX 9 1 8 2 7 3 6 4 5 5 4 6 3 7 2 8 1 9 10 10 11 11 12 12 13 13
REMARK SMILES IDX 14 14 15 15 16 16 17 17
REMARK H PARENT 17 18
REMARK Flexibility Score: inf
ROOT
ATOM      1  C   UNL     1       9.488  19.789  16.537  1.00  0.00     0.000 C 
ENDROOT
BRANCH   1   2
ATOM      2  C   UNL     1      10.472  20.771  15.876  1.00  0.00    -0.000 C 
BRANCH   2   3
ATOM      3  C   UNL     1      11.931  20.301  15.979  1.00  0.00    -0.000 C 
BRANCH   3   4
ATOM      4  C   UNL     1      12.915  21.472  16.153  1.00  0.00    -0.000 C 
BRANCH   4   5
ATOM      5  C   UNL     1      12.266  22.694  16.822  1.00  0.00    -0.000 C 
BRANCH   5   6
ATOM      6  C   UNL     1      12.648  22.831  18.303  1.00  0.00    -0.000 C 
BRANCH   6   7
ATOM      7  C   UNL     1      11.405  22.775  19.198  1.00  0.00    -0.000 C 
BRANCH   7   8
ATOM      8  C   UNL     1      11.538  21.675  20.258  1.00  0.00    -0.003 C 
ATOM      9  C   UNL     1      10.826  20.398  19.820  1.00  0.00     0.004 C 
ENDBRANCH   7   8
ENDBRANCH   6   7
ENDBRANCH   5   6
ENDBRANCH   4   5
ENDBRANCH   3   4
ENDBRANCH   2   3
ENDBRANCH   1   2
BRANCH   1  10
ATOM     10  C   UNL     1       8.176  20.464  16.967  1.00  0.00     0.000 C 
BRANCH  10  11
ATOM     11  C   UNL     1       8.313  21.990  17.109  1.00  0.00     0.000 C 
BRANCH  11  12
ATOM     12  C   UNL     1       7.765  22.506  18.457  1.00  0.00     0.000 C 
BRANCH  12  13
ATOM     13  C   UNL     1       7.198  21.394  19.360  1.00  0.00     0.000 C 
BRANCH  13  14
ATOM     14  C   UNL     1       6.306  21.887  20.515  1.00  0.00     0.002 C 
BRANCH  14  15
ATOM     15  C   UNL     1       6.448  21.094  21.829  1.00  0.00     0.028 C 
BRANCH  15  16
ATOM     16  C   UNL     1       7.342  21.775  22.871  1.00  0.00     0.156 C 
BRANCH  16  17
ATOM     17  O   UNL     1       8.642  21.261  22.809  1.00  0.00    -0.396 OA
ATOM     18  H   UNL     1       8.546  20.289  22.628  1.00  0.00     0.210 HD
ENDBRANCH  16  17
ENDBRANCH  15  16
ENDBRANCH  14  15
ENDBRANCH  13  14
ENDBRANCH  12  13
ENDBRANCH  11  12
ENDBRANCH  10  11
ENDBRANCH   1  10
TORSDOF 15
ENDMDL
MODEL 8
REMARK VINA RESULT:    -3.288      2.343      5.666
REMARK INTER + INTRA:          -7.804
REMARK INTER:                  -6.138
REMARK INTRA:                  -1.667
REMARK UNBOUND:                -1.729
REMARK SMILES CCCCCCCCCCCCCCCCO
REMARK SMILES IDX 9 1 8 2 7 3 6 4 5 5 4 6 3 7 2 8 1 9 10 10 11 11 12 12 13 13
REMARK SMILES IDX 14 14 15 15 16 16 17 17
REMARK H PARENT 17 18
REMARK Flexibility Score: inf
ROOT
ATOM      1  C   UNL     1      12.332  22.155  18.791  1.00  0.00     0.000 C 
ENDROOT
BRANCH   1   2
ATOM      2  C   UNL     1      12.935  22.750  20.076  1.00  0.00    -0.000 C 
BRANCH   2   3
ATOM      3  C   UNL     1      12.252  22.220  21.346  1.00  0.00    -0.000 C 
BRANCH   3   4
ATOM      4  C   UNL     1      11.212  21.127  21.043  1.00  0.00    -0.000 C 
BRANCH   4   5
ATOM      5  C   UNL     1       9.814  21.477  21.579  1.00  0.00    -0.000 C 
BRANCH   5   6
ATOM      6  C   UNL     1       9.061  22.457  20.669  1.00  0.00    -0.000 C 
BRANCH   6   7
ATOM      7  C   UNL     1       7.584  22.554  21.069  1.00  0.00    -0.000 C 
BRANCH   7   8
ATOM      8  C   UNL     1       6.858  21.226  20.822  1.00  0.00    -0.003 C 
ATOM      9  C   UNL     1       5.963  20.859  22.003  1.00  0.00     0.004 C 
ENDBRANCH   7   8
ENDBRANCH   6   7
ENDBRANCH   5   6
ENDBRANCH   4   5
ENDBRANCH   3   4
ENDBRANCH   2   3
ENDBRANCH   1   2
BRANCH   1  10
ATOM     10  C   UNL     1      12.685  22.972  17.538  1.00  0.00     0.000 C 
BRANCH  10  11
ATOM     11  C   UNL     1      12.077  22.382  16.255  1.00  0.00     0.000 C 
BRANCH  11  12
ATOM     12  C   UNL     1      11.861  20.856  16.354  1.00  0.00     0.000 C 
BRANCH  12  13
ATOM     13  C   UNL     1      10.400  20.423  16.134  1.00  0.00     0.000 C 
BRANCH  13  14
ATOM     14  C   UNL     1       9.436  20.779  17.281  1.00  0.00     0.002 C 
BRANCH  14  15
ATOM     15  C   UNL     1       9.152  19.633  18.271  1.00  0.00     0.028 C 
BRANCH  15  16
ATOM     16  C   UNL     1       9.557  18.249  17.752  1.00  0.00     0.156 C 
BRANCH  16  17
ATOM     17  O   UNL     1       8.504  17.670  17.033  1.00  0.00    -0.396 OA
ATOM     18  H   UNL     1       7.669  17.966  17.481  1.00  0.00     0.210 HD
ENDBRANCH  16  17
ENDBRANCH  15  16
ENDBRANCH  14  15
ENDBRANCH  13  14
ENDBRANCH  12  13
ENDBRANCH  11  12
ENDBRANCH  10  11
ENDBRANCH   1  10
TORSDOF 15
ENDMDL
MODEL 9
REMARK VINA RESULT:    -3.241      2.789      5.713
REMARK INTER + INTRA:          -7.717
REMARK INTER:                  -5.689
REMARK INTRA:                  -2.028
REMARK UNBOUND:                -1.729
REMARK SMILES CCCCCCCCCCCCCCCCO
REMARK SMILES IDX 9 1 8 2 7 3 6 4 5 5 4 6 3 7 2 8 1 9 10 10 11 11 12 12 13 13
REMARK SMILES IDX 14 14 15 15 16 16 17 17
REMARK H PARENT 17 18
REMARK Flexibility Score: inf
ROOT
ATOM      1  C   UNL     1      11.867  21.939  19.557  1.00  0.00     0.000 C 
ENDROOT
BRANCH   1   2
ATOM      2  C   UNL     1      10.538  22.666  19.828  1.00  0.00    -0.000 C 
BRANCH   2   3
ATOM      3  C   UNL     1       9.411  21.702  20.229  1.00  0.00    -0.000 C 
BRANCH   3   4
ATOM      4  C   UNL     1       8.269  21.669  19.198  1.00  0.00    -0.000 C 
BRANCH   4   5
ATOM      5  C   UNL     1       7.138  20.708  19.599  1.00  0.00    -0.000 C 
BRANCH   5   6
ATOM      6  C   UNL     1       6.443  20.074  18.386  1.00  0.00    -0.000 C 
BRANCH   6   7
ATOM      7  C   UNL     1       6.311  21.082  17.239  1.00  0.00    -0.000 C 
BRANCH   7   8
ATOM      8  C   UNL     1       5.399  20.541  16.132  1.00  0.00    -0.003 C 
ATOM      9  C   UNL     1       5.648  19.055  15.889  1.00  0.00     0.004 C 
ENDBRANCH   7   8
ENDBRANCH   6   7
ENDBRANCH   5   6
ENDBRANCH   4   5
ENDBRANCH   3   4
ENDBRANCH   2   3
ENDBRANCH   1   2
BRANCH   1  10
ATOM     10  C   UNL     1      12.840  22.778  18.713  1.00  0.00     0.000 C 
BRANCH  10  11
ATOM     11  C   UNL     1      12.501  22.749  17.213  1.00  0.00     0.000 C 
BRANCH  11  12
ATOM     12  C   UNL     1      12.083  21.343  16.733  1.00  0.00     0.000 C 
BRANCH  12  13
ATOM     13  C   UNL     1      10.665  21.290  16.134  1.00  0.00     0.000 C 
BRANCH  13  14
ATOM     14  C   UNL     1       9.861  20.022  16.477  1.00  0.00     0.002 C 
BRANCH  14  15
ATOM     15  C   UNL     1      10.421  19.195  17.651  1.00  0.00     0.028 C 
BRANCH  15  16
ATOM     16  C   UNL     1       9.496  18.063  18.110  1.00  0.00     0.156 C 
BRANCH  16  17
ATOM     17  O   UNL     1       8.656  17.664  17.063  1.00  0.00    -0.396 OA
ATOM     18  H   UNL     1       8.301  18.499  16.661  1.00  0.00     0.210 HD
ENDBRANCH  16  17
ENDBRANCH  15  16
ENDBRANCH  14  15
ENDBRANCH  13  14
ENDBRANCH  12  13
ENDBRANCH  11  12
ENDBRANCH  10  11
ENDBRANCH   1  10
TORSDOF 15
ENDMDL
