MODEL 1
REMARK VINA RESULT:    -4.234      0.000      0.000
REMARK INTER + INTRA:          -4.234
REMARK INTER:                  -4.234
REMARK INTRA:                   0.000
REMARK UNBOUND:                 0.000
REMARK SMILES CC1=CC[C@H]2[C@@H](C1)C2(C)C
REMARK SMILES IDX 1 1 2 2 3 3 4 4 5 5 6 6 7 7 8 8 9 9 10 10
REMARK H PARENT
REMARK Flexibility Score: inf
ROOT
ATOM      1  C   UNL     1      27.261  24.117  12.549  1.00  0.00     0.039 C 
ATOM      2  C   UNL     1      28.477  24.941  12.223  1.00  0.00    -0.077 C 
ATOM      3  C   UNL     1      29.694  24.374  12.279  1.00  0.00    -0.028 C 
ATOM      4  C   UNL     1      30.941  25.153  11.969  1.00  0.00     0.031 C 
ATOM      5  C   UNL     1      30.725  26.145  10.807  1.00  0.00     0.003 C 
ATOM      6  C   UNL     1      29.330  26.807  10.737  1.00  0.00     0.003 C 
ATOM      7  C   UNL     1      28.329  26.394  11.840  1.00  0.00     0.034 C 
ATOM      8  C   UNL     1      30.569  27.649  11.084  1.00  0.00    -0.029 C 
ATOM      9  C   UNL     1      31.057  28.560   9.952  1.00  0.00     0.012 C 
ATOM     10  C   UNL     1      30.760  28.202  12.511  1.00  0.00     0.012 C 
ENDROOT
TORSDOF 0
ENDMDL
MODEL 2
REMARK VINA RESULT:    -4.228      2.361      4.892
REMARK INTER + INTRA:          -4.228
REMARK INTER:                  -4.228
REMARK INTRA:                   0.000
REMARK UNBOUND:                 0.000
REMARK SMILES CC1=CC[C@H]2[C@@H](C1)C2(C)C
REMARK SMILES IDX 1 1 2 2 3 3 4 4 5 5 6 6 7 7 8 8 9 9 10 10
REMARK H PARENT
REMARK Flexibility Score: inf
ROOT
ATOM      1  C   UNL     1      29.687  26.498  11.646  1.00  0.00     0.039 C 
ATOM      2  C   UNL     1      30.297  25.251  12.228  1.00  0.00    -0.077 C 
ATOM      3  C   UNL     1      31.410  25.346  12.974  1.00  0.00    -0.028 C 
ATOM      4  C   UNL     1      32.063  24.132  13.574  1.00  0.00     0.031 C 
ATOM      5  C   UNL     1      31.022  23.104  14.064  1.00  0.00     0.003 C 
ATOM      6  C   UNL     1      29.739  22.982  13.208  1.00  0.00     0.003 C 
ATOM      7  C   UNL     1      29.662  23.905  11.972  1.00  0.00     0.034 C 
ATOM      8  C   UNL     1      30.750  21.824  13.256  1.00  0.00    -0.029 C 
ATOM      9  C   UNL     1      30.302  20.622  14.096  1.00  0.00     0.012 C 
ATOM     10  C   UNL     1      31.606  21.487  12.020  1.00  0.00     0.012 C 
ENDROOT
TORSDOF 0
ENDMDL
MODEL 3
REMARK VINA RESULT:    -4.182      2.277      3.394
REMARK INTER + INTRA:          -4.182
REMARK INTER:                  -4.182
REMARK INTRA:                   0.000
REMARK UNBOUND:                 0.000
REMARK SMILES CC1=CC[C@H]2[C@@H](C1)C2(C)C
REMARK SMILES IDX 1 1 2 2 3 3 4 4 5 5 6 6 7 7 8 8 9 9 10 10
REMARK H PARENT
REMARK Flexibility Score: inf
ROOT
ATOM      1  C   UNL     1      30.324  20.535  14.123  1.00  0.00     0.039 C 
ATOM      2  C   UNL     1      30.578  21.759  13.285  1.00  0.00    -0.077 C 
ATOM      3  C   UNL     1      31.411  21.678  12.234  1.00  0.00    -0.028 C 
ATOM      4  C   UNL     1      31.705  22.870  11.367  1.00  0.00     0.031 C 
ATOM      5  C   UNL     1      30.453  23.747  11.154  1.00  0.00     0.003 C 
ATOM      6  C   UNL     1      29.490  23.852  12.360  1.00  0.00     0.003 C 
ATOM      7  C   UNL     1      29.903  23.066  13.625  1.00  0.00     0.034 C 
ATOM      8  C   UNL     1      30.297  25.079  11.906  1.00  0.00    -0.029 C 
ATOM      9  C   UNL     1      29.478  26.140  11.162  1.00  0.00     0.012 C 
ATOM     10  C   UNL     1      31.448  25.620  12.778  1.00  0.00     0.012 C 
ENDROOT
TORSDOF 0
ENDMDL
MODEL 4
REMARK VINA RESULT:    -4.180      1.413      3.601
REMARK INTER + INTRA:          -4.180
REMARK INTER:                  -4.180
REMARK INTRA:                   0.000
REMARK UNBOUND:                 0.000
REMARK SMILES CC1=CC[C@H]2[C@@H](C1)C2(C)C
REMARK SMILES IDX 1 1 2 2 3 3 4 4 5 5 6 6 7 7 8 8 9 9 10 10
REMARK H PARENT
REMARK Flexibility Score: inf
ROOT
ATOM      1  C   UNL     1      28.899  28.531  11.713  1.00  0.00     0.039 C 
ATOM      2  C   UNL     1      29.087  27.042  11.831  1.00  0.00    -0.077 C 
ATOM      3  C   UNL     1      28.008  26.243  11.893  1.00  0.00    -0.028 C 
ATOM      4  C   UNL     1      28.138  24.752  12.017  1.00  0.00     0.031 C 
ATOM      5  C   UNL     1      29.320  24.207  11.187  1.00  0.00     0.003 C 
ATOM      6  C   UNL     1      30.569  25.117  11.116  1.00  0.00     0.003 C 
ATOM      7  C   UNL     1      30.476  26.453  11.884  1.00  0.00     0.034 C 
ATOM      8  C   UNL     1      30.627  23.782  11.877  1.00  0.00    -0.029 C 
ATOM      9  C   UNL     1      31.396  22.670  11.155  1.00  0.00     0.012 C 
ATOM     10  C   UNL     1      30.726  23.767  13.415  1.00  0.00     0.012 C 
ENDROOT
TORSDOF 0
ENDMDL
MODEL 5
REMARK VINA RESULT:    -4.076      1.575      2.094
REMARK INTER + INTRA:          -4.076
REMARK INTER:                  -4.076
REMARK INTRA:                   0.000
REMARK UNBOUND:                 0.000
REMARK SMILES CC1=CC[C@H]2[C@@H](C1)C2(C)C
REMARK SMILES IDX 1 1 2 2 3 3 4 4 5 5 6 6 7 7 8 8 9 9 10 10
REMARK H PARENT
REMARK Flexibility Score: inf
ROOT
ATOM      1  C   UNL     1      30.343  23.824  11.422  1.00  0.00     0.039 C 
ATOM      2  C   UNL     1      30.584  25.276  11.738  1.00  0.00    -0.077 C 
ATOM      3  C   UNL     1      31.525  25.610  12.637  1.00  0.00    -0.028 C 
ATOM      4  C   UNL     1      31.803  27.042  12.993  1.00  0.00     0.031 C 
ATOM      5  C   UNL     1      31.703  27.970  11.764  1.00  0.00     0.003 C 
ATOM      6  C   UNL     1      30.619  27.598  10.726  1.00  0.00     0.003 C 
ATOM      7  C   UNL     1      29.772  26.348  11.051  1.00  0.00     0.034 C 
ATOM      8  C   UNL     1      30.477  28.877  11.568  1.00  0.00    -0.029 C 
ATOM      9  C   UNL     1      30.761  30.177  10.806  1.00  0.00     0.012 C 
ATOM     10  C   UNL     1      29.397  28.972  12.663  1.00  0.00     0.012 C 
ENDROOT
TORSDOF 0
ENDMDL
MODEL 6
REMARK VINA RESULT:    -4.070      1.664      4.059
REMARK INTER + INTRA:          -4.070
REMARK INTER:                  -4.070
REMARK INTRA:                   0.000
REMARK UNBOUND:                 0.000
REMARK SMILES CC1=CC[C@H]2[C@@H](C1)C2(C)C
REMARK SMILES IDX 1 1 2 2 3 3 4 4 5 5 6 6 7 7 8 8 9 9 10 10
REMARK H PARENT
REMARK Flexibility Score: inf
ROOT
ATOM      1  C   UNL     1      28.566  27.440  11.500  1.00  0.00     0.039 C 
ATOM      2  C   UNL     1      29.465  26.282  11.841  1.00  0.00    -0.077 C 
ATOM      3  C   UNL     1      30.718  26.520  12.265  1.00  0.00    -0.028 C 
ATOM      4  C   UNL     1      31.659  25.402  12.613  1.00  0.00     0.031 C 
ATOM      5  C   UNL     1      30.932  24.238  13.318  1.00  0.00     0.003 C 
ATOM      6  C   UNL     1      29.491  23.951  12.833  1.00  0.00     0.003 C 
ATOM      7  C   UNL     1      28.963  24.864  11.705  1.00  0.00     0.034 C 
ATOM      8  C   UNL     1      30.616  22.940  12.557  1.00  0.00    -0.029 C 
ATOM      9  C   UNL     1      30.571  21.682  13.432  1.00  0.00     0.012 C 
ATOM     10  C   UNL     1      31.140  22.732  11.122  1.00  0.00     0.012 C 
ENDROOT
TORSDOF 0
ENDMDL
MODEL 7
REMARK VINA RESULT:    -4.058      0.863      0.884
REMARK INTER + INTRA:          -4.058
REMARK INTER:                  -4.058
REMARK INTRA:                   0.000
REMARK UNBOUND:                 0.000
REMARK SMILES CC1=CC[C@H]2[C@@H](C1)C2(C)C
REMARK SMILES IDX 1 1 2 2 3 3 4 4 5 5 6 6 7 7 8 8 9 9 10 10
REMARK H PARENT
REMARK Flexibility Score: inf
ROOT
ATOM      1  C   UNL     1      27.259  24.014  12.760  1.00  0.00     0.039 C 
ATOM      2  C   UNL     1      28.611  24.571  12.407  1.00  0.00    -0.077 C 
ATOM      3  C   UNL     1      29.703  23.802  12.559  1.00  0.00    -0.028 C 
ATOM      4  C   UNL     1      31.077  24.310  12.227  1.00  0.00     0.031 C 
ATOM      5  C   UNL     1      31.070  25.210  10.973  1.00  0.00     0.003 C 
ATOM      6  C   UNL     1      29.821  26.104  10.793  1.00  0.00     0.003 C 
ATOM      7  C   UNL     1      28.740  25.984  11.890  1.00  0.00     0.034 C 
ATOM      8  C   UNL     1      31.186  26.737  11.109  1.00  0.00    -0.029 C 
ATOM      9  C   UNL     1      31.856  27.434   9.919  1.00  0.00     0.012 C 
ATOM     10  C   UNL     1      31.446  27.379  12.486  1.00  0.00     0.012 C 
ENDROOT
TORSDOF 0
ENDMDL
MODEL 8
REMARK VINA RESULT:    -3.916      1.800      4.551
REMARK INTER + INTRA:          -3.916
REMARK INTER:                  -3.916
REMARK INTRA:                   0.000
REMARK UNBOUND:                 0.000
REMARK SMILES CC1=CC[C@H]2[C@@H](C1)C2(C)C
REMARK SMILES IDX 1 1 2 2 3 3 4 4 5 5 6 6 7 7 8 8 9 9 10 10
REMARK H PARENT
REMARK Flexibility Score: inf
ROOT
ATOM      1  C   UNL     1      31.962  27.471  11.875  1.00  0.00     0.039 C 
ATOM      2  C   UNL     1      31.274  26.132  11.908  1.00  0.00    -0.077 C 
ATOM      3  C   UNL     1      30.604  25.706  10.824  1.00  0.00    -0.028 C 
ATOM      4  C   UNL     1      29.895  24.382  10.805  1.00  0.00     0.031 C 
ATOM      5  C   UNL     1      30.686  23.296  11.564  1.00  0.00     0.003 C 
ATOM      6  C   UNL     1      31.456  23.775  12.817  1.00  0.00     0.003 C 
ATOM      7  C   UNL     1      31.334  25.278  13.152  1.00  0.00     0.034 C 
ATOM      8  C   UNL     1      30.242  22.842  12.964  1.00  0.00    -0.029 C 
ATOM      9  C   UNL     1      30.593  21.389  13.305  1.00  0.00     0.012 C 
ATOM     10  C   UNL     1      28.926  23.367  13.571  1.00  0.00     0.012 C 
ENDROOT
TORSDOF 0
ENDMDL
MODEL 9
REMARK VINA RESULT:    -3.876      2.726      4.317
REMARK INTER + INTRA:          -3.876
REMARK INTER:                  -3.876
REMARK INTRA:                   0.000
REMARK UNBOUND:                 0.000
REMARK SMILES CC1=CC[C@H]2[C@@H](C1)C2(C)C
REMARK SMILES IDX 1 1 2 2 3 3 4 4 5 5 6 6 7 7 8 8 9 9 10 10
REMARK H PARENT
REMARK Flexibility Score: inf
ROOT
ATOM      1  C   UNL     1      31.363  19.640  13.404  1.00  0.00     0.039 C 
ATOM      2  C   UNL     1      30.952  21.059  13.120  1.00  0.00    -0.077 C 
ATOM      3  C   UNL     1      29.897  21.583  13.766  1.00  0.00    -0.028 C 
ATOM      4  C   UNL     1      29.440  22.993  13.516  1.00  0.00     0.031 C 
ATOM      5  C   UNL     1      30.629  23.953  13.303  1.00  0.00     0.003 C 
ATOM      6  C   UNL     1      31.847  23.361  12.554  1.00  0.00     0.003 C 
ATOM      7  C   UNL     1      31.718  21.886  12.115  1.00  0.00     0.034 C 
ATOM      8  C   UNL     1      30.987  24.450  11.892  1.00  0.00    -0.029 C 
ATOM      9  C   UNL     1      31.637  25.838  11.851  1.00  0.00     0.012 C 
ATOM     10  C   UNL     1      30.082  24.105  10.693  1.00  0.00     0.012 C 
ENDROOT
TORSDOF 0
ENDMDL
