MODEL 1
REMARK VINA RESULT:    -4.193      0.000      0.000
REMARK INTER + INTRA:          -5.922
REMARK INTER:                  -5.663
REMARK INTRA:                  -0.259
REMARK UNBOUND:                -0.259
REMARK SMILES CCCCCCCC(=O)[O-]
REMARK SMILES IDX 5 1 6 2 7 3 8 4 9 5 10 6 4 7 3 8 2 9 1 10
REMARK H PARENT
REMARK Flexibility Score: inf
ROOT
ATOM      1  C   UNL     1      14.176  29.846  61.936  1.00  0.00     0.000 C 
ENDROOT
BRANCH   1   2
ATOM      2  C   UNL     1      13.172  28.680  61.921  1.00  0.00     0.006 C 
BRANCH   2   3
ATOM      3  C   UNL     1      12.239  28.735  60.704  1.00  0.00     0.053 C 
BRANCH   3   4
ATOM      4  C   UNL     1      10.981  29.494  61.002  1.00  0.00     0.041 C 
ATOM      5  O   UNL     1      10.704  29.824  62.186  1.00  0.00    -0.550 OA
ATOM      6  O   UNL     1      10.129  29.860  59.968  1.00  0.00    -0.550 OA
ENDBRANCH   3   4
ENDBRANCH   2   3
ENDBRANCH   1   2
BRANCH   1   7
ATOM      7  C   UNL     1      15.565  29.435  61.424  1.00  0.00     0.000 C 
BRANCH   7   8
ATOM      8  C   UNL     1      16.639  29.478  62.525  1.00  0.00    -0.000 C 
BRANCH   8   9
ATOM      9  C   UNL     1      16.090  29.066  63.899  1.00  0.00    -0.003 C 
ATOM     10  C   UNL     1      16.170  27.559  64.139  1.00  0.00     0.004 C 
ENDBRANCH   8   9
ENDBRANCH   7   8
ENDBRANCH   1   7
TORSDOF 6
ENDMDL
MODEL 2
REMARK VINA RESULT:    -4.187      3.027      5.664
REMARK INTER + INTRA:          -5.915
REMARK INTER:                  -5.739
REMARK INTRA:                  -0.175
REMARK UNBOUND:                -0.259
REMARK SMILES CCCCCCCC(=O)[O-]
REMARK SMILES IDX 5 1 6 2 7 3 8 4 9 5 10 6 4 7 3 8 2 9 1 10
REMARK H PARENT
REMARK Flexibility Score: inf
ROOT
ATOM      1  C   UNL     1      12.398  29.319  61.384  1.00  0.00     0.000 C 
ENDROOT
BRANCH   1   2
ATOM      2  C   UNL     1      13.286  28.359  62.195  1.00  0.00     0.006 C 
BRANCH   2   3
ATOM      3  C   UNL     1      14.717  28.889  62.354  1.00  0.00     0.053 C 
BRANCH   3   4
ATOM      4  C   UNL     1      15.343  28.426  63.634  1.00  0.00     0.041 C 
ATOM      5  O   UNL     1      16.097  29.195  64.287  1.00  0.00    -0.550 OA
ATOM      6  O   UNL     1      15.069  27.154  64.121  1.00  0.00    -0.550 OA
ENDBRANCH   3   4
ENDBRANCH   2   3
ENDBRANCH   1   2
BRANCH   1   7
ATOM      7  C   UNL     1      11.712  28.626  60.196  1.00  0.00     0.000 C 
BRANCH   7   8
ATOM      8  C   UNL     1      10.815  29.581  59.390  1.00  0.00    -0.000 C 
BRANCH   8   9
ATOM      9  C   UNL     1       9.361  29.091  59.304  1.00  0.00    -0.003 C 
ATOM     10  C   UNL     1       8.656  29.091  60.660  1.00  0.00     0.004 C 
ENDBRANCH   8   9
ENDBRANCH   7   8
ENDBRANCH   1   7
TORSDOF 6
ENDMDL
MODEL 3
REMARK VINA RESULT:    -4.141      2.835      5.385
REMARK INTER + INTRA:          -5.853
REMARK INTER:                  -5.545
REMARK INTRA:                  -0.308
REMARK UNBOUND:                -0.259
REMARK SMILES CCCCCCCC(=O)[O-]
REMARK SMILES IDX 5 1 6 2 7 3 8 4 9 5 10 6 4 7 3 8 2 9 1 10
REMARK H PARENT
REMARK Flexibility Score: inf
ROOT
ATOM      1  C   UNL     1      12.172  29.570  61.925  1.00  0.00     0.000 C 
ENDROOT
BRANCH   1   2
ATOM      2  C   UNL     1      13.570  30.121  62.256  1.00  0.00     0.006 C 
BRANCH   2   3
ATOM      3  C   UNL     1      14.663  29.053  62.113  1.00  0.00     0.053 C 
BRANCH   3   4
ATOM      4  C   UNL     1      15.119  28.542  63.446  1.00  0.00     0.041 C 
ATOM      5  O   UNL     1      14.724  27.422  63.865  1.00  0.00    -0.550 OA
ATOM      6  O   UNL     1      16.003  29.291  64.212  1.00  0.00    -0.550 OA
ENDBRANCH   3   4
ENDBRANCH   2   3
ENDBRANCH   1   2
BRANCH   1   7
ATOM      7  C   UNL     1      12.188  28.598  60.734  1.00  0.00     0.000 C 
BRANCH   7   8
ATOM      8  C   UNL     1      11.028  28.843  59.754  1.00  0.00    -0.000 C 
BRANCH   8   9
ATOM      9  C   UNL     1       9.948  29.767  60.339  1.00  0.00    -0.003 C 
ATOM     10  C   UNL     1       8.645  29.030  60.646  1.00  0.00     0.004 C 
ENDBRANCH   8   9
ENDBRANCH   7   8
ENDBRANCH   1   7
TORSDOF 6
ENDMDL
MODEL 4
REMARK VINA RESULT:    -4.110      2.813      5.797
REMARK INTER + INTRA:          -5.811
REMARK INTER:                  -5.612
REMARK INTRA:                  -0.199
REMARK UNBOUND:                -0.259
REMARK SMILES CCCCCCCC(=O)[O-]
REMARK SMILES IDX 5 1 6 2 7 3 8 4 9 5 10 6 4 7 3 8 2 9 1 10
REMARK H PARENT
REMARK Flexibility Score: inf
ROOT
ATOM      1  C   UNL     1      11.304  29.341  61.055  1.00  0.00     0.000 C 
ENDROOT
BRANCH   1   2
ATOM      2  C   UNL     1      12.837  29.319  61.183  1.00  0.00     0.006 C 
BRANCH   2   3
ATOM      3  C   UNL     1      13.317  28.292  62.216  1.00  0.00     0.053 C 
BRANCH   3   4
ATOM      4  C   UNL     1      14.729  28.552  62.646  1.00  0.00     0.041 C 
ATOM      5  O   UNL     1      15.131  28.165  63.775  1.00  0.00    -0.550 OA
ATOM      6  O   UNL     1      15.608  29.198  61.786  1.00  0.00    -0.550 OA
ENDBRANCH   3   4
ENDBRANCH   2   3
ENDBRANCH   1   2
BRANCH   1   7
ATOM      7  C   UNL     1      10.836  29.707  59.637  1.00  0.00     0.000 C 
BRANCH   7   8
ATOM      8  C   UNL     1       9.309  29.875  59.542  1.00  0.00    -0.000 C 
BRANCH   8   9
ATOM      9  C   UNL     1       8.570  29.211  60.714  1.00  0.00    -0.003 C 
ATOM     10  C   UNL     1       7.450  30.085  61.277  1.00  0.00     0.004 C 
ENDBRANCH   8   9
ENDBRANCH   7   8
ENDBRANCH   1   7
TORSDOF 6
ENDMDL
MODEL 5
REMARK VINA RESULT:    -4.102      2.858      5.093
REMARK INTER + INTRA:          -5.800
REMARK INTER:                  -5.466
REMARK INTRA:                  -0.333
REMARK UNBOUND:                -0.259
REMARK SMILES CCCCCCCC(=O)[O-]
REMARK SMILES IDX 5 1 6 2 7 3 8 4 9 5 10 6 4 7 3 8 2 9 1 10
REMARK H PARENT
REMARK Flexibility Score: inf
ROOT
ATOM      1  C   UNL     1      15.735  29.395  61.509  1.00  0.00     0.000 C 
ENDROOT
BRANCH   1   2
ATOM      2  C   UNL     1      16.604  29.783  62.719  1.00  0.00     0.006 C 
BRANCH   2   3
ATOM      3  C   UNL     1      16.058  29.206  64.032  1.00  0.00     0.053 C 
BRANCH   3   4
ATOM      4  C   UNL     1      16.011  27.708  64.005  1.00  0.00     0.041 C 
ATOM      5  O   UNL     1      17.073  27.042  63.889  1.00  0.00    -0.550 OA
ATOM      6  O   UNL     1      14.795  27.049  64.136  1.00  0.00    -0.550 OA
ENDBRANCH   3   4
ENDBRANCH   2   3
ENDBRANCH   1   2
BRANCH   1   7
ATOM      7  C   UNL     1      14.339  30.034  61.557  1.00  0.00     0.000 C 
BRANCH   7   8
ATOM      8  C   UNL     1      13.216  28.995  61.720  1.00  0.00    -0.000 C 
BRANCH   8   9
ATOM      9  C   UNL     1      11.817  29.630  61.694  1.00  0.00    -0.003 C 
ATOM     10  C   UNL     1      11.094  29.410  60.366  1.00  0.00     0.004 C 
ENDBRANCH   8   9
ENDBRANCH   7   8
ENDBRANCH   1   7
TORSDOF 6
ENDMDL
MODEL 6
REMARK VINA RESULT:    -4.094      0.979      1.257
REMARK INTER + INTRA:          -5.788
REMARK INTER:                  -5.487
REMARK INTRA:                  -0.302
REMARK UNBOUND:                -0.259
REMARK SMILES CCCCCCCC(=O)[O-]
REMARK SMILES IDX 5 1 6 2 7 3 8 4 9 5 10 6 4 7 3 8 2 9 1 10
REMARK H PARENT
REMARK Flexibility Score: inf
ROOT
ATOM      1  C   UNL     1      14.042  30.069  61.897  1.00  0.00     0.000 C 
ENDROOT
BRANCH   1   2
ATOM      2  C   UNL     1      12.917  29.513  61.007  1.00  0.00     0.006 C 
BRANCH   2   3
ATOM      3  C   UNL     1      11.557  29.523  61.719  1.00  0.00     0.053 C 
BRANCH   3   4
ATOM      4  C   UNL     1      10.421  29.410  60.748  1.00  0.00     0.041 C 
ATOM      5  O   UNL     1      10.631  29.024  59.567  1.00  0.00    -0.550 OA
ATOM      6  O   UNL     1       9.126  29.703  61.157  1.00  0.00    -0.550 OA
ENDBRANCH   3   4
ENDBRANCH   2   3
ENDBRANCH   1   2
BRANCH   1   7
ATOM      7  C   UNL     1      15.441  29.679  61.392  1.00  0.00     0.000 C 
BRANCH   7   8
ATOM      8  C   UNL     1      16.298  29.008  62.479  1.00  0.00    -0.000 C 
BRANCH   8   9
ATOM      9  C   UNL     1      15.536  28.828  63.801  1.00  0.00    -0.003 C 
ATOM     10  C   UNL     1      15.234  27.362  64.114  1.00  0.00     0.004 C 
ENDBRANCH   8   9
ENDBRANCH   7   8
ENDBRANCH   1   7
TORSDOF 6
ENDMDL
MODEL 7
REMARK VINA RESULT:    -4.052      1.096      1.684
REMARK INTER + INTRA:          -5.732
REMARK INTER:                  -5.426
REMARK INTRA:                  -0.305
REMARK UNBOUND:                -0.259
REMARK SMILES CCCCCCCC(=O)[O-]
REMARK SMILES IDX 5 1 6 2 7 3 8 4 9 5 10 6 4 7 3 8 2 9 1 10
REMARK H PARENT
REMARK Flexibility Score: inf
ROOT
ATOM      1  C   UNL     1      13.492  29.602  62.212  1.00  0.00     0.000 C 
ENDROOT
BRANCH   1   2
ATOM      2  C   UNL     1      13.062  29.574  60.735  1.00  0.00     0.006 C 
BRANCH   2   3
ATOM      3  C   UNL     1      12.016  28.486  60.457  1.00  0.00     0.053 C 
BRANCH   3   4
ATOM      4  C   UNL     1      10.642  29.063  60.300  1.00  0.00     0.041 C 
ATOM      5  O   UNL     1      10.110  29.703  61.245  1.00  0.00    -0.550 OA
ATOM      6  O   UNL     1       9.961  28.917  59.098  1.00  0.00    -0.550 OA
ENDBRANCH   3   4
ENDBRANCH   2   3
ENDBRANCH   1   2
BRANCH   1   7
ATOM      7  C   UNL     1      14.216  28.315  62.640  1.00  0.00     0.000 C 
BRANCH   7   8
ATOM      8  C   UNL     1      15.554  28.595  63.346  1.00  0.00    -0.000 C 
BRANCH   8   9
ATOM      9  C   UNL     1      16.736  28.652  62.366  1.00  0.00    -0.003 C 
ATOM     10  C   UNL     1      17.240  30.076  62.130  1.00  0.00     0.004 C 
ENDBRANCH   8   9
ENDBRANCH   7   8
ENDBRANCH   1   7
TORSDOF 6
ENDMDL
MODEL 8
REMARK VINA RESULT:    -3.889      2.864      4.039
REMARK INTER + INTRA:          -5.512
REMARK INTER:                  -5.335
REMARK INTRA:                  -0.176
REMARK UNBOUND:                -0.259
REMARK SMILES CCCCCCCC(=O)[O-]
REMARK SMILES IDX 5 1 6 2 7 3 8 4 9 5 10 6 4 7 3 8 2 9 1 10
REMARK H PARENT
REMARK Flexibility Score: inf
ROOT
ATOM      1  C   UNL     1      16.604  27.140  64.153  1.00  0.00     0.000 C 
ENDROOT
BRANCH   1   2
ATOM      2  C   UNL     1      15.710  28.385  64.025  1.00  0.00     0.006 C 
BRANCH   2   3
ATOM      3  C   UNL     1      15.439  28.756  62.561  1.00  0.00     0.053 C 
BRANCH   3   4
ATOM      4  C   UNL     1      13.971  28.842  62.270  1.00  0.00     0.041 C 
ATOM      5  O   UNL     1      13.258  27.803  62.294  1.00  0.00    -0.550 OA
ATOM      6  O   UNL     1      13.387  30.073  62.003  1.00  0.00    -0.550 OA
ENDBRANCH   3   4
ENDBRANCH   2   3
ENDBRANCH   1   2
BRANCH   1   7
ATOM      7  C   UNL     1      17.717  27.102  63.093  1.00  0.00     0.000 C 
BRANCH   7   8
ATOM      8  C   UNL     1      18.722  25.962  63.330  1.00  0.00    -0.000 C 
BRANCH   8   9
ATOM      9  C   UNL     1      19.979  26.094  62.457  1.00  0.00    -0.003 C 
ATOM     10  C   UNL     1      19.873  25.312  61.148  1.00  0.00     0.004 C 
ENDBRANCH   8   9
ENDBRANCH   7   8
ENDBRANCH   1   7
TORSDOF 6
ENDMDL
MODEL 9
REMARK VINA RESULT:    -3.842      1.710      2.303
REMARK INTER + INTRA:          -5.449
REMARK INTER:                  -5.193
REMARK INTRA:                  -0.255
REMARK UNBOUND:                -0.259
REMARK SMILES CCCCCCCC(=O)[O-]
REMARK SMILES IDX 5 1 6 2 7 3 8 4 9 5 10 6 4 7 3 8 2 9 1 10
REMARK H PARENT
REMARK Flexibility Score: inf
ROOT
ATOM      1  C   UNL     1      12.620  28.948  61.810  1.00  0.00     0.000 C 
ENDROOT
BRANCH   1   2
ATOM      2  C   UNL     1      11.851  28.468  60.567  1.00  0.00     0.006 C 
BRANCH   2   3
ATOM      3  C   UNL     1      10.538  29.235  60.366  1.00  0.00     0.053 C 
BRANCH   3   4
ATOM      4  C   UNL     1      10.435  29.809  58.986  1.00  0.00     0.041 C 
ATOM      5  O   UNL     1       9.432  29.557  58.266  1.00  0.00    -0.550 OA
ATOM      6  O   UNL     1      11.434  30.647  58.505  1.00  0.00    -0.550 OA
ENDBRANCH   3   4
ENDBRANCH   2   3
ENDBRANCH   1   2
BRANCH   1   7
ATOM      7  C   UNL     1      13.502  30.174  61.520  1.00  0.00     0.000 C 
BRANCH   7   8
ATOM      8  C   UNL     1      14.967  29.798  61.243  1.00  0.00    -0.000 C 
BRANCH   8   9
ATOM      9  C   UNL     1      15.716  29.370  62.516  1.00  0.00    -0.003 C 
ATOM     10  C   UNL     1      16.995  28.590  62.214  1.00  0.00     0.004 C 
ENDBRANCH   8   9
ENDBRANCH   7   8
ENDBRANCH   1   7
TORSDOF 6
ENDMDL
