MODEL 1
REMARK VINA RESULT:    -3.507      0.000      0.000
REMARK INTER + INTRA:          -4.194
REMARK INTER:                  -4.122
REMARK INTRA:                  -0.072
REMARK UNBOUND:                -0.072
REMARK SMILES O=C([O-])CCC(=O)[O-]
REMARK SMILES IDX 4 1 2 2 1 3 3 4 5 5 6 6 7 7 8 8
REMARK H PARENT
REMARK Flexibility Score: inf
ROOT
ATOM      1  C   UNL     1      -7.605  25.982   2.484  1.00  0.00     0.059 C 
ENDROOT
BRANCH   1   2
ATOM      2  C   UNL     1      -7.806  24.748   1.657  1.00  0.00     0.042 C 
ATOM      3  O   UNL     1      -8.762  24.681   0.840  1.00  0.00    -0.550 OA
ATOM      4  O   UNL     1      -6.913  23.688   1.759  1.00  0.00    -0.550 OA
ENDBRANCH   1   2
BRANCH   1   5
ATOM      5  C   UNL     1      -8.395  25.918   3.795  1.00  0.00     0.059 C 
BRANCH   5   6
ATOM      6  C   UNL     1      -7.487  25.891   4.986  1.00  0.00     0.042 C 
ATOM      7  O   UNL     1      -6.294  26.283   4.883  1.00  0.00    -0.550 OA
ATOM      8  O   UNL     1      -7.969  25.474   6.221  1.00  0.00    -0.550 OA
ENDBRANCH   5   6
ENDBRANCH   1   5
TORSDOF 3
ENDMDL
MODEL 2
REMARK VINA RESULT:    -3.500      0.097      3.966
REMARK INTER + INTRA:          -4.185
REMARK INTER:                  -4.119
REMARK INTRA:                  -0.066
REMARK UNBOUND:                -0.072
REMARK SMILES O=C([O-])CCC(=O)[O-]
REMARK SMILES IDX 4 1 2 2 1 3 3 4 5 5 6 6 7 7 8 8
REMARK H PARENT
REMARK Flexibility Score: inf
ROOT
ATOM      1  C   UNL     1      -8.422  25.877   3.827  1.00  0.00     0.059 C 
ENDROOT
BRANCH   1   2
ATOM      2  C   UNL     1      -7.490  25.865   5.000  1.00  0.00     0.042 C 
ATOM      3  O   UNL     1      -7.874  25.410   6.109  1.00  0.00    -0.550 OA
ATOM      4  O   UNL     1      -6.184  26.319   4.856  1.00  0.00    -0.550 OA
ENDBRANCH   1   2
BRANCH   1   5
ATOM      5  C   UNL     1      -7.661  25.998   2.502  1.00  0.00     0.059 C 
BRANCH   5   6
ATOM      6  C   UNL     1      -7.852  24.786   1.643  1.00  0.00     0.042 C 
ATOM      7  O   UNL     1      -8.846  24.704   0.873  1.00  0.00    -0.550 OA
ATOM      8  O   UNL     1      -6.910  23.764   1.660  1.00  0.00    -0.550 OA
ENDBRANCH   5   6
ENDBRANCH   1   5
TORSDOF 3
ENDMDL
MODEL 3
REMARK VINA RESULT:    -3.481      0.545      3.882
REMARK INTER + INTRA:          -4.163
REMARK INTER:                  -4.054
REMARK INTRA:                  -0.109
REMARK UNBOUND:                -0.072
REMARK SMILES O=C([O-])CCC(=O)[O-]
REMARK SMILES IDX 4 1 2 2 1 3 3 4 5 5 6 6 7 7 8 8
REMARK H PARENT
REMARK Flexibility Score: inf
ROOT
ATOM      1  C   UNL     1      -8.344  25.902   3.469  1.00  0.00     0.059 C 
ENDROOT
BRANCH   1   2
ATOM      2  C   UNL     1      -7.544  25.912   4.735  1.00  0.00     0.042 C 
ATOM      3  O   UNL     1      -6.345  26.296   4.725  1.00  0.00    -0.550 OA
ATOM      4  O   UNL     1      -8.135  25.534   5.935  1.00  0.00    -0.550 OA
ENDBRANCH   1   2
BRANCH   1   5
ATOM      5  C   UNL     1      -7.445  25.796   2.233  1.00  0.00     0.059 C 
BRANCH   5   6
ATOM      6  C   UNL     1      -7.310  24.378   1.768  1.00  0.00     0.042 C 
ATOM      7  O   UNL     1      -6.489  23.603   2.328  1.00  0.00    -0.550 OA
ATOM      8  O   UNL     1      -8.120  23.899   0.746  1.00  0.00    -0.550 OA
ENDBRANCH   5   6
ENDBRANCH   1   5
TORSDOF 3
ENDMDL
MODEL 4
REMARK VINA RESULT:    -3.451      0.327      1.182
REMARK INTER + INTRA:          -4.128
REMARK INTER:                  -4.088
REMARK INTRA:                  -0.040
REMARK UNBOUND:                -0.072
REMARK SMILES O=C([O-])CCC(=O)[O-]
REMARK SMILES IDX 4 1 2 2 1 3 3 4 5 5 6 6 7 7 8 8
REMARK H PARENT
REMARK Flexibility Score: inf
ROOT
ATOM      1  C   UNL     1      -7.196  25.798   2.760  1.00  0.00     0.059 C 
ENDROOT
BRANCH   1   2
ATOM      2  C   UNL     1      -7.571  24.726   1.783  1.00  0.00     0.042 C 
ATOM      3  O   UNL     1      -6.819  23.731   1.613  1.00  0.00    -0.550 OA
ATOM      4  O   UNL     1      -8.773  24.807   1.089  1.00  0.00    -0.550 OA
ENDBRANCH   1   2
BRANCH   1   5
ATOM      5  C   UNL     1      -8.184  25.867   3.929  1.00  0.00     0.059 C 
BRANCH   5   6
ATOM      6  C   UNL     1      -7.476  25.899   5.249  1.00  0.00     0.042 C 
ATOM      7  O   UNL     1      -6.310  26.370   5.333  1.00  0.00    -0.550 OA
ATOM      8  O   UNL     1      -8.118  25.447   6.396  1.00  0.00    -0.550 OA
ENDBRANCH   5   6
ENDBRANCH   1   5
TORSDOF 3
ENDMDL
MODEL 5
REMARK VINA RESULT:    -3.358      8.002     10.024
REMARK INTER + INTRA:          -4.019
REMARK INTER:                  -3.943
REMARK INTRA:                  -0.076
REMARK UNBOUND:                -0.072
REMARK SMILES O=C([O-])CCC(=O)[O-]
REMARK SMILES IDX 4 1 2 2 1 3 3 4 5 5 6 6 7 7 8 8
REMARK H PARENT
REMARK Flexibility Score: inf
ROOT
ATOM      1  C   UNL     1     -12.361  25.973  -6.166  1.00  0.00     0.059 C 
ENDROOT
BRANCH   1   2
ATOM      2  C   UNL     1     -13.804  26.370  -6.097  1.00  0.00     0.042 C 
ATOM      3  O   UNL     1     -14.657  25.580  -5.615  1.00  0.00    -0.550 OA
ATOM      4  O   UNL     1     -14.200  27.631  -6.528  1.00  0.00    -0.550 OA
ENDBRANCH   1   2
BRANCH   1   5
ATOM      5  C   UNL     1     -12.034  24.856  -5.169  1.00  0.00     0.059 C 
BRANCH   5   6
ATOM      6  C   UNL     1     -11.170  25.351  -4.049  1.00  0.00     0.042 C 
ATOM      7  O   UNL     1     -11.026  24.659  -3.006  1.00  0.00    -0.550 OA
ATOM      8  O   UNL     1     -10.491  26.557  -4.174  1.00  0.00    -0.550 OA
ENDBRANCH   5   6
ENDBRANCH   1   5
TORSDOF 3
ENDMDL
MODEL 6
REMARK VINA RESULT:    -3.339      8.073     10.384
REMARK INTER + INTRA:          -3.997
REMARK INTER:                  -3.915
REMARK INTRA:                  -0.082
REMARK UNBOUND:                -0.072
REMARK SMILES O=C([O-])CCC(=O)[O-]
REMARK SMILES IDX 4 1 2 2 1 3 3 4 5 5 6 6 7 7 8 8
REMARK H PARENT
REMARK Flexibility Score: inf
ROOT
ATOM      1  C   UNL     1     -11.892  25.052  -5.410  1.00  0.00     0.059 C 
ENDROOT
BRANCH   1   2
ATOM      2  C   UNL     1     -11.106  25.510  -4.220  1.00  0.00     0.042 C 
ATOM      3  O   UNL     1     -10.491  26.608  -4.251  1.00  0.00    -0.550 OA
ATOM      4  O   UNL     1     -11.087  24.744  -3.061  1.00  0.00    -0.550 OA
ENDBRANCH   1   2
BRANCH   1   5
ATOM      5  C   UNL     1     -12.303  26.227  -6.303  1.00  0.00     0.059 C 
BRANCH   5   6
ATOM      6  C   UNL     1     -13.757  26.555  -6.151  1.00  0.00     0.042 C 
ATOM      7  O   UNL     1     -14.198  27.672  -6.532  1.00  0.00    -0.550 OA
ATOM      8  O   UNL     1     -14.633  25.613  -5.627  1.00  0.00    -0.550 OA
ENDBRANCH   5   6
ENDBRANCH   1   5
TORSDOF 3
ENDMDL
MODEL 7
REMARK VINA RESULT:    -3.275      2.614      4.479
REMARK INTER + INTRA:          -3.921
REMARK INTER:                  -3.801
REMARK INTRA:                  -0.120
REMARK UNBOUND:                -0.072
REMARK SMILES O=C([O-])CCC(=O)[O-]
REMARK SMILES IDX 4 1 2 2 1 3 3 4 5 5 6 6 7 7 8 8
REMARK H PARENT
REMARK Flexibility Score: inf
ROOT
ATOM      1  C   UNL     1      -4.665  24.865   1.658  1.00  0.00     0.059 C 
ENDROOT
BRANCH   1   2
ATOM      2  C   UNL     1      -4.262  25.700   2.835  1.00  0.00     0.042 C 
ATOM      3  O   UNL     1      -5.130  26.341   3.484  1.00  0.00    -0.550 OA
ATOM      4  O   UNL     1      -2.933  25.737   3.240  1.00  0.00    -0.550 OA
ENDBRANCH   1   2
BRANCH   1   5
ATOM      5  C   UNL     1      -5.966  24.102   1.926  1.00  0.00     0.059 C 
BRANCH   5   6
ATOM      6  C   UNL     1      -7.074  24.566   1.030  1.00  0.00     0.042 C 
ATOM      7  O   UNL     1      -8.036  23.799   0.761  1.00  0.00    -0.550 OA
ATOM      8  O   UNL     1      -7.065  25.861   0.525  1.00  0.00    -0.550 OA
ENDBRANCH   5   6
ENDBRANCH   1   5
TORSDOF 3
ENDMDL
MODEL 8
REMARK VINA RESULT:    -3.209      2.611      3.322
REMARK INTER + INTRA:          -3.843
REMARK INTER:                  -3.682
REMARK INTRA:                  -0.161
REMARK UNBOUND:                -0.072
REMARK SMILES O=C([O-])CCC(=O)[O-]
REMARK SMILES IDX 4 1 2 2 1 3 3 4 5 5 6 6 7 7 8 8
REMARK H PARENT
REMARK Flexibility Score: inf
ROOT
ATOM      1  C   UNL     1      -4.749  25.074   2.207  1.00  0.00     0.059 C 
ENDROOT
BRANCH   1   2
ATOM      2  C   UNL     1      -5.581  23.993   1.586  1.00  0.00     0.042 C 
ATOM      3  O   UNL     1      -5.382  23.647   0.392  1.00  0.00    -0.550 OA
ATOM      4  O   UNL     1      -6.549  23.340   2.340  1.00  0.00    -0.550 OA
ENDBRANCH   1   2
BRANCH   1   5
ATOM      5  C   UNL     1      -5.604  26.039   3.036  1.00  0.00     0.059 C 
BRANCH   5   6
ATOM      6  C   UNL     1      -6.566  26.802   2.177  1.00  0.00     0.042 C 
ATOM      7  O   UNL     1      -7.801  26.766   2.422  1.00  0.00    -0.550 OA
ATOM      8  O   UNL     1      -6.095  27.588   1.132  1.00  0.00    -0.550 OA
ENDBRANCH   5   6
ENDBRANCH   1   5
TORSDOF 3
ENDMDL
MODEL 9
REMARK VINA RESULT:    -3.198      1.692      2.326
REMARK INTER + INTRA:          -3.831
REMARK INTER:                  -3.697
REMARK INTRA:                  -0.134
REMARK UNBOUND:                -0.072
REMARK SMILES O=C([O-])CCC(=O)[O-]
REMARK SMILES IDX 4 1 2 2 1 3 3 4 5 5 6 6 7 7 8 8
REMARK H PARENT
REMARK Flexibility Score: inf
ROOT
ATOM      1  C   UNL     1      -6.460  24.262   1.844  1.00  0.00     0.059 C 
ENDROOT
BRANCH   1   2
ATOM      2  C   UNL     1      -7.358  24.567   0.684  1.00  0.00     0.042 C 
ATOM      3  O   UNL     1      -7.093  25.527  -0.087  1.00  0.00    -0.550 OA
ATOM      4  O   UNL     1      -8.464  23.765   0.429  1.00  0.00    -0.550 OA
ENDBRANCH   1   2
BRANCH   1   5
ATOM      5  C   UNL     1      -6.069  25.533   2.605  1.00  0.00     0.059 C 
BRANCH   5   6
ATOM      6  C   UNL     1      -7.258  26.179   3.250  1.00  0.00     0.042 C 
ATOM      7  O   UNL     1      -7.816  25.634   4.238  1.00  0.00    -0.550 OA
ATOM      8  O   UNL     1      -7.723  27.403   2.785  1.00  0.00    -0.550 OA
ENDBRANCH   5   6
ENDBRANCH   1   5
TORSDOF 3
ENDMDL
