MODEL 1
REMARK VINA RESULT:    26.345      0.000      0.000
REMARK INTER + INTRA:          30.701
REMARK INTER:                  30.966
REMARK INTRA:                  -0.265
REMARK UNBOUND:                -0.265
REMARK SMILES O=c1cc(-c2ccc(O)c(O)c2)oc2cc(O)cc(O)c12
REMARK SMILES IDX 4 1 3 2 2 3 1 4 21 5 19 6 18 7 16 8 15 9 14 10 13 11 5 12
REMARK SMILES IDX 6 13 7 14 8 15 12 16 10 17 9 18 11 20 20 22 17 24
REMARK H PARENT 9 19 11 21 20 23 17 25
REMARK Flexibility Score: inf
ROOT
ATOM      1  C   UNL     1      20.185 -12.687 -16.314  1.00  0.00     0.138 A 
ATOM      2  C   UNL     1      20.090 -12.995 -17.677  1.00  0.00     0.100 A 
ATOM      3  C   UNL     1      21.097 -12.580 -18.550  1.00  0.00     0.197 A 
ATOM      4  O   UNL     1      21.015 -12.924 -19.758  1.00  0.00    -0.289 OA
ATOM      5  C   UNL     1      22.189 -11.827 -18.057  1.00  0.00     0.107 A 
ATOM      6  C   UNL     1      23.252 -11.317 -18.861  1.00  0.00     0.134 A 
ATOM      7  C   UNL     1      24.340 -10.685 -18.245  1.00  0.00     0.093 A 
ATOM      8  C   UNL     1      24.374 -10.491 -16.864  1.00  0.00     0.123 A 
ATOM      9  C   UNL     1      23.314 -10.938 -16.074  1.00  0.00     0.094 A 
ATOM     10  C   UNL     1      22.231 -11.603 -16.655  1.00  0.00     0.146 A 
ATOM     11  O   UNL     1      21.248 -12.026 -15.868  1.00  0.00    -0.456 OA
ENDROOT
BRANCH   1  12
ATOM     12  C   UNL     1      19.142 -13.101 -15.342  1.00  0.00     0.021 A 
ATOM     13  C   UNL     1      18.335 -12.125 -14.733  1.00  0.00     0.016 A 
ATOM     14  C   UNL     1      17.342 -12.490 -13.821  1.00  0.00     0.051 A 
ATOM     15  C   UNL     1      17.130 -13.834 -13.507  1.00  0.00     0.157 A 
ATOM     16  C   UNL     1      18.916 -14.458 -15.031  1.00  0.00     0.062 A 
ATOM     17  C   UNL     1      17.919 -14.825 -14.116  1.00  0.00     0.158 A 
BRANCH  15  18
ATOM     18  O   UNL     1      16.134 -14.169 -12.591  1.00  0.00    -0.504 OA
ATOM     19  H   UNL     1      16.345 -14.582 -11.691  1.00  0.00     0.293 HD
ENDBRANCH  15  18
BRANCH  17  20
ATOM     20  O   UNL     1      17.705 -16.169 -13.816  1.00  0.00    -0.504 OA
ATOM     21  H   UNL     1      18.118 -16.910 -14.370  1.00  0.00     0.293 HD
ENDBRANCH  17  20
ENDBRANCH   1  12
BRANCH   6  22
ATOM     22  O   UNL     1      23.277 -11.381 -20.257  1.00  0.00    -0.507 OA
ATOM     23  H   UNL     1      22.760 -12.044 -20.812  1.00  0.00     0.293 HD
ENDBRANCH   6  22
BRANCH   8  24
ATOM     24  O   UNL     1      25.465  -9.844 -16.287  1.00  0.00    -0.508 OA
ATOM     25  H   UNL     1      26.025  -9.181 -16.811  1.00  0.00     0.293 HD
ENDBRANCH   8  24
TORSDOF 5
ENDMDL
MODEL 2
REMARK VINA RESULT:    26.961      1.151      2.642
REMARK INTER + INTRA:          31.424
REMARK INTER:                  31.691
REMARK INTRA:                  -0.267
REMARK UNBOUND:                -0.265
REMARK SMILES O=c1cc(-c2ccc(O)c(O)c2)oc2cc(O)cc(O)c12
REMARK SMILES IDX 4 1 3 2 2 3 1 4 21 5 19 6 18 7 16 8 15 9 14 10 13 11 5 12
REMARK SMILES IDX 6 13 7 14 8 15 12 16 10 17 9 18 11 20 20 22 17 24
REMARK H PARENT 9 19 11 21 20 23 17 25
REMARK Flexibility Score: inf
ROOT
ATOM      1  C   UNL     1      20.326 -12.662 -15.632  1.00  0.00     0.138 A 
ATOM      2  C   UNL     1      21.479 -12.205 -14.980  1.00  0.00     0.100 A 
ATOM      3  C   UNL     1      22.586 -11.808 -15.732  1.00  0.00     0.197 A 
ATOM      4  O   UNL     1      23.584 -11.344 -15.121  1.00  0.00    -0.289 OA
ATOM      5  C   UNL     1      22.546 -11.899 -17.144  1.00  0.00     0.107 A 
ATOM      6  C   UNL     1      23.629 -11.561 -18.010  1.00  0.00     0.134 A 
ATOM      7  C   UNL     1      23.435 -11.580 -19.397  1.00  0.00     0.093 A 
ATOM      8  C   UNL     1      22.219 -11.983 -19.949  1.00  0.00     0.123 A 
ATOM      9  C   UNL     1      21.170 -12.368 -19.112  1.00  0.00     0.094 A 
ATOM     10  C   UNL     1      21.322 -12.326 -17.724  1.00  0.00     0.146 A 
ATOM     11  O   UNL     1      20.296 -12.686 -16.961  1.00  0.00    -0.456 OA
ENDROOT
BRANCH   1  12
ATOM     12  C   UNL     1      19.122 -13.098 -14.882  1.00  0.00     0.021 A 
ATOM     13  C   UNL     1      18.249 -12.132 -14.352  1.00  0.00     0.016 A 
ATOM     14  C   UNL     1      17.105 -12.517 -13.649  1.00  0.00     0.051 A 
ATOM     15  C   UNL     1      16.806 -13.869 -13.470  1.00  0.00     0.157 A 
ATOM     16  C   UNL     1      18.809 -14.462 -14.710  1.00  0.00     0.062 A 
ATOM     17  C   UNL     1      17.660 -14.848 -14.005  1.00  0.00     0.158 A 
BRANCH  15  18
ATOM     18  O   UNL     1      15.659 -14.223 -12.762  1.00  0.00    -0.504 OA
ATOM     19  H   UNL     1      15.700 -14.738 -11.891  1.00  0.00     0.293 HD
ENDBRANCH  15  18
BRANCH  17  20
ATOM     20  O   UNL     1      17.362 -16.200 -13.840  1.00  0.00    -0.504 OA
ATOM     21  H   UNL     1      17.808 -16.915 -14.402  1.00  0.00     0.293 HD
ENDBRANCH  17  20
ENDBRANCH   1  12
BRANCH   6  22
ATOM     22  O   UNL     1      24.911 -11.227 -17.565  1.00  0.00    -0.507 OA
ATOM     23  H   UNL     1      25.570 -11.877 -17.167  1.00  0.00     0.293 HD
ENDBRANCH   6  22
BRANCH   8  24
ATOM     24  O   UNL     1      22.066 -12.006 -21.334  1.00  0.00    -0.508 OA
ATOM     25  H   UNL     1      22.190 -12.858 -21.867  1.00  0.00     0.293 HD
ENDBRANCH   8  24
TORSDOF 5
ENDMDL
MODEL 3
REMARK VINA RESULT:    28.316      1.416      7.340
REMARK INTER + INTRA:          33.017
REMARK INTER:                  33.282
REMARK INTRA:                  -0.265
REMARK UNBOUND:                -0.265
REMARK SMILES O=c1cc(-c2ccc(O)c(O)c2)oc2cc(O)cc(O)c12
REMARK SMILES IDX 4 1 3 2 2 3 1 4 21 5 19 6 18 7 16 8 15 9 14 10 13 11 5 12
REMARK SMILES IDX 6 13 7 14 8 15 12 16 10 17 9 18 11 20 20 22 17 24
REMARK H PARENT 9 19 11 21 20 23 17 25
REMARK Flexibility Score: inf
ROOT
ATOM      1  C   UNL     1      20.036 -12.734 -15.624  1.00  0.00     0.138 A 
ATOM      2  C   UNL     1      19.178 -11.857 -14.947  1.00  0.00     0.100 A 
ATOM      3  C   UNL     1      18.099 -12.369 -14.224  1.00  0.00     0.197 A 
ATOM      4  O   UNL     1      17.382 -11.563 -13.576  1.00  0.00    -0.289 OA
ATOM      5  C   UNL     1      17.863 -13.765 -14.205  1.00  0.00     0.107 A 
ATOM      6  C   UNL     1      16.772 -14.395 -13.536  1.00  0.00     0.134 A 
ATOM      7  C   UNL     1      16.706 -15.793 -13.489  1.00  0.00     0.093 A 
ATOM      8  C   UNL     1      17.657 -16.582 -14.138  1.00  0.00     0.123 A 
ATOM      9  C   UNL     1      18.698 -15.975 -14.842  1.00  0.00     0.094 A 
ATOM     10  C   UNL     1      18.810 -14.583 -14.877  1.00  0.00     0.146 A 
ATOM     11  O   UNL     1      19.824 -14.043 -15.545  1.00  0.00    -0.456 OA
ENDROOT
BRANCH   1  12
ATOM     12  C   UNL     1      21.197 -12.244 -16.408  1.00  0.00     0.021 A 
ATOM     13  C   UNL     1      22.416 -11.990 -15.757  1.00  0.00     0.016 A 
ATOM     14  C   UNL     1      23.525 -11.536 -16.474  1.00  0.00     0.051 A 
ATOM     15  C   UNL     1      23.442 -11.335 -17.853  1.00  0.00     0.157 A 
ATOM     16  C   UNL     1      21.121 -12.053 -17.803  1.00  0.00     0.062 A 
ATOM     17  C   UNL     1      22.235 -11.597 -18.523  1.00  0.00     0.158 A 
BRANCH  15  18
ATOM     18  O   UNL     1      24.564 -10.879 -18.543  1.00  0.00    -0.504 OA
ATOM     19  H   UNL     1      25.442 -10.687 -18.076  1.00  0.00     0.293 HD
ENDBRANCH  15  18
BRANCH  17  20
ATOM     20  O   UNL     1      22.148 -11.411 -19.903  1.00  0.00    -0.504 OA
ATOM     21  H   UNL     1      21.433 -11.868 -20.457  1.00  0.00     0.293 HD
ENDBRANCH  17  20
ENDBRANCH   1  12
BRANCH   6  22
ATOM     22  O   UNL     1      15.722 -13.701 -12.928  1.00  0.00    -0.507 OA
ATOM     23  H   UNL     1      15.075 -13.097 -13.410  1.00  0.00     0.293 HD
ENDBRANCH   6  22
BRANCH   8  24
ATOM     24  O   UNL     1      17.551 -17.970 -14.084  1.00  0.00    -0.508 OA
ATOM     25  H   UNL     1      18.040 -18.564 -14.743  1.00  0.00     0.293 HD
ENDBRANCH   8  24
TORSDOF 5
ENDMDL
MODEL 4
REMARK VINA RESULT:    29.335      4.389      7.959
REMARK INTER + INTRA:          34.214
REMARK INTER:                  34.478
REMARK INTRA:                  -0.263
REMARK UNBOUND:                -0.265
REMARK SMILES O=c1cc(-c2ccc(O)c(O)c2)oc2cc(O)cc(O)c12
REMARK SMILES IDX 4 1 3 2 2 3 1 4 21 5 19 6 18 7 16 8 15 9 14 10 13 11 5 12
REMARK SMILES IDX 6 13 7 14 8 15 12 16 10 17 9 18 11 20 20 22 17 24
REMARK H PARENT 9 19 11 21 20 23 17 25
REMARK Flexibility Score: inf
ROOT
ATOM      1  C   UNL     1      22.539  -8.159 -18.432  1.00  0.00     0.138 A 
ATOM      2  C   UNL     1      23.243  -8.465 -17.260  1.00  0.00     0.100 A 
ATOM      3  C   UNL     1      23.493  -9.798 -16.932  1.00  0.00     0.197 A 
ATOM      4  O   UNL     1      24.180 -10.039 -15.906  1.00  0.00    -0.289 OA
ATOM      5  C   UNL     1      23.007 -10.831 -17.770  1.00  0.00     0.107 A 
ATOM      6  C   UNL     1      23.166 -12.226 -17.514  1.00  0.00     0.134 A 
ATOM      7  C   UNL     1      22.745 -13.155 -18.473  1.00  0.00     0.093 A 
ATOM      8  C   UNL     1      22.117 -12.744 -19.649  1.00  0.00     0.123 A 
ATOM      9  C   UNL     1      21.907 -11.384 -19.884  1.00  0.00     0.094 A 
ATOM     10  C   UNL     1      22.347 -10.431 -18.962  1.00  0.00     0.146 A 
ATOM     11  O   UNL     1      22.142  -9.146 -19.229  1.00  0.00    -0.456 OA
ENDROOT
BRANCH   1  12
ATOM     12  C   UNL     1      22.244  -6.759 -18.828  1.00  0.00     0.021 A 
ATOM     13  C   UNL     1      20.959  -6.233 -18.610  1.00  0.00     0.016 A 
ATOM     14  C   UNL     1      20.659  -4.916 -18.967  1.00  0.00     0.051 A 
ATOM     15  C   UNL     1      21.637  -4.098 -19.537  1.00  0.00     0.157 A 
ATOM     16  C   UNL     1      23.231  -5.925 -19.392  1.00  0.00     0.062 A 
ATOM     17  C   UNL     1      22.931  -4.603 -19.749  1.00  0.00     0.158 A 
BRANCH  15  18
ATOM     18  O   UNL     1      21.308  -2.789 -19.885  1.00  0.00    -0.504 OA
ATOM     19  H   UNL     1      20.514  -2.307 -19.481  1.00  0.00     0.293 HD
ENDBRANCH  15  18
BRANCH  17  20
ATOM     20  O   UNL     1      23.915  -3.788 -20.307  1.00  0.00    -0.504 OA
ATOM     21  H   UNL     1      23.710  -3.157 -21.074  1.00  0.00     0.293 HD
ENDBRANCH  17  20
ENDBRANCH   1  12
BRANCH   6  22
ATOM     22  O   UNL     1      23.704 -12.748 -16.334  1.00  0.00    -0.507 OA
ATOM     23  H   UNL     1      24.687 -12.797 -16.122  1.00  0.00     0.293 HD
ENDBRANCH   6  22
BRANCH   8  24
ATOM     24  O   UNL     1      21.696 -13.697 -20.574  1.00  0.00    -0.508 OA
ATOM     25  H   UNL     1      21.228 -14.547 -20.282  1.00  0.00     0.293 HD
ENDBRANCH   8  24
TORSDOF 5
ENDMDL
