MODEL 1
REMARK VINA RESULT:    -4.554      0.000      0.000
REMARK INTER + INTRA:          -5.618
REMARK INTER:                  -5.486
REMARK INTRA:                  -0.132
REMARK UNBOUND:                -0.132
REMARK SMILES CC[C@@H](C)[C@H]([NH3+])C(=O)[O-]
REMARK SMILES IDX 3 1 4 2 5 3 6 4 7 8 8 9 9 10 2 11 1 12
REMARK H PARENT 6 5 6 6 6 7
REMARK Flexibility Score: inf
ROOT
ATOM      1  C   UNL     1     -13.984 -32.358  -8.667  1.00  0.00     0.050 C 
ATOM      2  C   UNL     1     -15.343 -32.364  -9.392  1.00  0.00     0.014 C 
ENDROOT
BRANCH   1   3
ATOM      3  C   UNL     1     -14.161 -32.636  -7.137  1.00  0.00     0.230 C 
BRANCH   3   4
ATOM      4  N   UNL     1     -15.047 -31.651  -6.496  1.00  0.00    -0.350 N 
ATOM      5  H   UNL     1     -15.151 -31.869  -5.478  1.00  0.00     0.345 HD
ATOM      6  H   UNL     1     -16.003 -31.697  -6.916  1.00  0.00     0.345 HD
ATOM      7  H   UNL     1     -14.663 -30.684  -6.599  1.00  0.00     0.345 HD
ENDBRANCH   3   4
BRANCH   3   8
ATOM      8  C   UNL     1     -12.829 -32.646  -6.431  1.00  0.00     0.099 C 
ATOM      9  O   UNL     1     -12.086 -31.629  -6.457  1.00  0.00    -0.544 OA
ATOM     10  O   UNL     1     -12.408 -33.786  -5.758  1.00  0.00    -0.544 OA
ENDBRANCH   3   8
ENDBRANCH   1   3
BRANCH   1  11
ATOM     11  C   UNL     1     -13.037 -33.397  -9.340  1.00  0.00     0.006 C 
ATOM     12  C   UNL     1     -11.993 -32.747 -10.250  1.00  0.00     0.004 C 
ENDBRANCH   1  11
TORSDOF 4
ENDMDL
MODEL 2
REMARK VINA RESULT:    -4.533      2.237      2.949
REMARK INTER + INTRA:          -5.593
REMARK INTER:                  -5.537
REMARK INTRA:                  -0.056
REMARK UNBOUND:                -0.132
REMARK SMILES CC[C@@H](C)[C@H]([NH3+])C(=O)[O-]
REMARK SMILES IDX 3 1 4 2 5 3 6 4 7 8 8 9 9 10 2 11 1 12
REMARK H PARENT 6 5 6 6 6 7
REMARK Flexibility Score: inf
ROOT
ATOM      1  C   UNL     1     -12.758 -32.793  -7.250  1.00  0.00     0.050 C 
ATOM      2  C   UNL     1     -12.534 -32.712  -5.729  1.00  0.00     0.014 C 
ENDROOT
BRANCH   1   3
ATOM      3  C   UNL     1     -14.061 -32.036  -7.669  1.00  0.00     0.230 C 
BRANCH   3   4
ATOM      4  N   UNL     1     -14.923 -31.739  -6.514  1.00  0.00    -0.350 N 
ATOM      5  H   UNL     1     -15.817 -32.279  -6.582  1.00  0.00     0.345 HD
ATOM      6  H   UNL     1     -15.180 -30.726  -6.504  1.00  0.00     0.345 HD
ATOM      7  H   UNL     1     -14.443 -31.989  -5.619  1.00  0.00     0.345 HD
ENDBRANCH   3   4
BRANCH   3   8
ATOM      8  C   UNL     1     -14.843 -32.824  -8.688  1.00  0.00     0.099 C 
ATOM      9  O   UNL     1     -15.726 -32.262  -9.389  1.00  0.00    -0.544 OA
ATOM     10  O   UNL     1     -14.603 -34.183  -8.849  1.00  0.00    -0.544 OA
ENDBRANCH   3   8
ENDBRANCH   1   3
BRANCH   1  11
ATOM     11  C   UNL     1     -11.502 -32.239  -7.988  1.00  0.00     0.006 C 
ATOM     12  C   UNL     1     -11.416 -32.700  -9.444  1.00  0.00     0.004 C 
ENDBRANCH   1  11
TORSDOF 4
ENDMDL
MODEL 3
REMARK VINA RESULT:    -4.529      2.006      2.335
REMARK INTER + INTRA:          -5.588
REMARK INTER:                  -5.625
REMARK INTRA:                   0.037
REMARK UNBOUND:                -0.132
REMARK SMILES CC[C@@H](C)[C@H]([NH3+])C(=O)[O-]
REMARK SMILES IDX 3 1 4 2 5 3 6 4 7 8 8 9 9 10 2 11 1 12
REMARK H PARENT 6 5 6 6 6 7
REMARK Flexibility Score: inf
ROOT
ATOM      1  C   UNL     1     -13.823 -32.119  -7.764  1.00  0.00     0.050 C 
ATOM      2  C   UNL     1     -15.024 -31.684  -8.625  1.00  0.00     0.014 C 
ENDROOT
BRANCH   1   3
ATOM      3  C   UNL     1     -14.227 -33.256  -6.767  1.00  0.00     0.230 C 
BRANCH   3   4
ATOM      4  N   UNL     1     -13.557 -33.111  -5.464  1.00  0.00    -0.350 N 
ATOM      5  H   UNL     1     -12.851 -32.340  -5.505  1.00  0.00     0.345 HD
ATOM      6  H   UNL     1     -13.038 -33.986  -5.225  1.00  0.00     0.345 HD
ATOM      7  H   UNL     1     -14.251 -32.897  -4.712  1.00  0.00     0.345 HD
ENDBRANCH   3   4
BRANCH   3   8
ATOM      8  C   UNL     1     -13.919 -34.615  -7.340  1.00  0.00     0.099 C 
ATOM      9  O   UNL     1     -13.026 -35.338  -6.825  1.00  0.00    -0.544 OA
ATOM     10  O   UNL     1     -14.612 -35.073  -8.455  1.00  0.00    -0.544 OA
ENDBRANCH   3   8
ENDBRANCH   1   3
BRANCH   1  11
ATOM     11  C   UNL     1     -12.651 -32.554  -8.695  1.00  0.00     0.006 C 
ATOM     12  C   UNL     1     -11.276 -32.196  -8.125  1.00  0.00     0.004 C 
ENDBRANCH   1  11
TORSDOF 4
ENDMDL
MODEL 4
REMARK VINA RESULT:    -4.520      1.862      2.433
REMARK INTER + INTRA:          -5.577
REMARK INTER:                  -5.439
REMARK INTRA:                  -0.138
REMARK UNBOUND:                -0.132
REMARK SMILES CC[C@@H](C)[C@H]([NH3+])C(=O)[O-]
REMARK SMILES IDX 3 1 4 2 5 3 6 4 7 8 8 9 9 10 2 11 1 12
REMARK H PARENT 6 5 6 6 6 7
REMARK Flexibility Score: inf
ROOT
ATOM      1  C   UNL     1     -12.482 -33.343  -8.821  1.00  0.00     0.050 C 
ATOM      2  C   UNL     1     -11.955 -32.670 -10.102  1.00  0.00     0.014 C 
ENDROOT
BRANCH   1   3
ATOM      3  C   UNL     1     -12.546 -32.324  -7.635  1.00  0.00     0.230 C 
BRANCH   3   4
ATOM      4  N   UNL     1     -11.214 -31.812  -7.274  1.00  0.00    -0.350 N 
ATOM      5  H   UNL     1     -10.981 -30.972  -7.853  1.00  0.00     0.345 HD
ATOM      6  H   UNL     1     -10.484 -32.532  -7.474  1.00  0.00     0.345 HD
ATOM      7  H   UNL     1     -11.180 -31.547  -6.263  1.00  0.00     0.345 HD
ENDBRANCH   3   4
BRANCH   3   8
ATOM      8  C   UNL     1     -13.190 -32.944  -6.422  1.00  0.00     0.099 C 
ATOM      9  O   UNL     1     -14.256 -32.467  -5.951  1.00  0.00    -0.544 OA
ATOM     10  O   UNL     1     -12.600 -34.041  -5.805  1.00  0.00    -0.544 OA
ENDBRANCH   3   8
ENDBRANCH   1   3
BRANCH   1  11
ATOM     11  C   UNL     1     -13.873 -33.985  -9.109  1.00  0.00     0.006 C 
ATOM     12  C   UNL     1     -13.851 -35.513  -9.025  1.00  0.00     0.004 C 
ENDBRANCH   1  11
TORSDOF 4
ENDMDL
MODEL 5
REMARK VINA RESULT:    -4.487      1.886      2.260
REMARK INTER + INTRA:          -5.538
REMARK INTER:                  -5.428
REMARK INTRA:                  -0.110
REMARK UNBOUND:                -0.132
REMARK SMILES CC[C@@H](C)[C@H]([NH3+])C(=O)[O-]
REMARK SMILES IDX 3 1 4 2 5 3 6 4 7 8 8 9 9 10 2 11 1 12
REMARK H PARENT 6 5 6 6 6 7
REMARK Flexibility Score: inf
ROOT
ATOM      1  C   UNL     1     -13.843 -34.093  -8.404  1.00  0.00     0.050 C 
ATOM      2  C   UNL     1     -13.764 -35.533  -8.944  1.00  0.00     0.014 C 
ENDROOT
BRANCH   1   3
ATOM      3  C   UNL     1     -12.953 -33.919  -7.130  1.00  0.00     0.230 C 
BRANCH   3   4
ATOM      4  N   UNL     1     -13.101 -35.045  -6.194  1.00  0.00    -0.350 N 
ATOM      5  H   UNL     1     -12.306 -35.057  -5.514  1.00  0.00     0.345 HD
ATOM      6  H   UNL     1     -13.072 -35.952  -6.712  1.00  0.00     0.345 HD
ATOM      7  H   UNL     1     -14.000 -34.971  -5.664  1.00  0.00     0.345 HD
ENDBRANCH   3   4
BRANCH   3   8
ATOM      8  C   UNL     1     -13.272 -32.630  -6.417  1.00  0.00     0.099 C 
ATOM      9  O   UNL     1     -14.454 -32.371  -6.066  1.00  0.00    -0.544 OA
ATOM     10  O   UNL     1     -12.262 -31.712  -6.154  1.00  0.00    -0.544 OA
ENDBRANCH   3   8
ENDBRANCH   1   3
BRANCH   1  11
ATOM     11  C   UNL     1     -13.442 -33.096  -9.533  1.00  0.00     0.006 C 
ATOM     12  C   UNL     1     -11.927 -32.992  -9.723  1.00  0.00     0.004 C 
ENDBRANCH   1  11
TORSDOF 4
ENDMDL
MODEL 6
REMARK VINA RESULT:    -4.450      1.046      2.205
REMARK INTER + INTRA:          -5.493
REMARK INTER:                  -5.475
REMARK INTRA:                  -0.017
REMARK UNBOUND:                -0.132
REMARK SMILES CC[C@@H](C)[C@H]([NH3+])C(=O)[O-]
REMARK SMILES IDX 3 1 4 2 5 3 6 4 7 8 8 9 9 10 2 11 1 12
REMARK H PARENT 6 5 6 6 6 7
REMARK Flexibility Score: inf
ROOT
ATOM      1  C   UNL     1     -13.967 -32.929  -8.575  1.00  0.00     0.050 C 
ATOM      2  C   UNL     1     -12.520 -32.444  -8.773  1.00  0.00     0.014 C 
ENDROOT
BRANCH   1   3
ATOM      3  C   UNL     1     -14.307 -33.082  -7.055  1.00  0.00     0.230 C 
BRANCH   3   4
ATOM      4  N   UNL     1     -14.692 -31.800  -6.444  1.00  0.00    -0.350 N 
ATOM      5  H   UNL     1     -15.266 -31.968  -5.585  1.00  0.00     0.345 HD
ATOM      6  H   UNL     1     -15.285 -31.248  -7.103  1.00  0.00     0.345 HD
ATOM      7  H   UNL     1     -13.845 -31.244  -6.182  1.00  0.00     0.345 HD
ENDBRANCH   3   4
BRANCH   3   8
ATOM      8  C   UNL     1     -13.145 -33.670  -6.296  1.00  0.00     0.099 C 
ATOM      9  O   UNL     1     -12.859 -34.891  -6.413  1.00  0.00    -0.544 OA
ATOM     10  O   UNL     1     -12.390 -32.867  -5.449  1.00  0.00    -0.544 OA
ENDBRANCH   3   8
ENDBRANCH   1   3
BRANCH   1  11
ATOM     11  C   UNL     1     -14.944 -31.950  -9.292  1.00  0.00     0.006 C 
ATOM     12  C   UNL     1     -15.942 -32.667 -10.203  1.00  0.00     0.004 C 
ENDBRANCH   1  11
TORSDOF 4
ENDMDL
MODEL 7
REMARK VINA RESULT:    -4.421      1.851      2.544
REMARK INTER + INTRA:          -5.458
REMARK INTER:                  -5.562
REMARK INTRA:                   0.104
REMARK UNBOUND:                -0.132
REMARK SMILES CC[C@@H](C)[C@H]([NH3+])C(=O)[O-]
REMARK SMILES IDX 3 1 4 2 5 3 6 4 7 8 8 9 9 10 2 11 1 12
REMARK H PARENT 6 5 6 6 6 7
REMARK Flexibility Score: inf
ROOT
ATOM      1  C   UNL     1     -14.039 -34.115  -7.753  1.00  0.00     0.050 C 
ATOM      2  C   UNL     1     -13.767 -35.312  -8.683  1.00  0.00     0.014 C 
ENDROOT
BRANCH   1   3
ATOM      3  C   UNL     1     -12.817 -33.842  -6.815  1.00  0.00     0.230 C 
BRANCH   3   4
ATOM      4  N   UNL     1     -13.238 -33.459  -5.458  1.00  0.00    -0.350 N 
ATOM      5  H   UNL     1     -13.554 -32.461  -5.446  1.00  0.00     0.345 HD
ATOM      6  H   UNL     1     -12.434 -33.531  -4.795  1.00  0.00     0.345 HD
ATOM      7  H   UNL     1     -14.023 -34.066  -5.127  1.00  0.00     0.345 HD
ENDBRANCH   3   4
BRANCH   3   8
ATOM      8  C   UNL     1     -11.925 -32.769  -7.384  1.00  0.00     0.099 C 
ATOM      9  O   UNL     1     -11.860 -31.637  -6.837  1.00  0.00    -0.544 OA
ATOM     10  O   UNL     1     -11.177 -33.021  -8.528  1.00  0.00    -0.544 OA
ENDBRANCH   3   8
ENDBRANCH   1   3
BRANCH   1  11
ATOM     11  C   UNL     1     -14.401 -32.865  -8.612  1.00  0.00     0.006 C 
ATOM     12  C   UNL     1     -15.280 -31.863  -7.861  1.00  0.00     0.004 C 
ENDBRANCH   1  11
TORSDOF 4
ENDMDL
MODEL 8
REMARK VINA RESULT:    -4.398      2.624      3.517
REMARK INTER + INTRA:          -5.430
REMARK INTER:                  -5.390
REMARK INTRA:                  -0.040
REMARK UNBOUND:                -0.132
REMARK SMILES CC[C@@H](C)[C@H]([NH3+])C(=O)[O-]
REMARK SMILES IDX 3 1 4 2 5 3 6 4 7 8 8 9 9 10 2 11 1 12
REMARK H PARENT 6 5 6 6 6 7
REMARK Flexibility Score: inf
ROOT
ATOM      1  C   UNL     1     -13.164 -33.407  -6.990  1.00  0.00     0.050 C 
ATOM      2  C   UNL     1     -12.998 -32.828  -5.573  1.00  0.00     0.014 C 
ENDROOT
BRANCH   1   3
ATOM      3  C   UNL     1     -11.974 -32.984  -7.914  1.00  0.00     0.230 C 
BRANCH   3   4
ATOM      4  N   UNL     1     -11.168 -31.907  -7.318  1.00  0.00    -0.350 N 
ATOM      5  H   UNL     1     -10.494 -31.527  -8.024  1.00  0.00     0.345 HD
ATOM      6  H   UNL     1     -10.599 -32.277  -6.524  1.00  0.00     0.345 HD
ATOM      7  H   UNL     1     -11.780 -31.129  -6.981  1.00  0.00     0.345 HD
ENDBRANCH   3   4
BRANCH   3   8
ATOM      8  C   UNL     1     -12.469 -32.548  -9.269  1.00  0.00     0.099 C 
ATOM      9  O   UNL     1     -11.662 -32.400 -10.226  1.00  0.00    -0.544 OA
ATOM     10  O   UNL     1     -13.820 -32.292  -9.467  1.00  0.00    -0.544 OA
ENDBRANCH   3   8
ENDBRANCH   1   3
BRANCH   1  11
ATOM     11  C   UNL     1     -13.307 -34.956  -6.902  1.00  0.00     0.006 C 
ATOM     12  C   UNL     1     -13.818 -35.581  -8.202  1.00  0.00     0.004 C 
ENDBRANCH   1  11
TORSDOF 4
ENDMDL
MODEL 9
REMARK VINA RESULT:    -4.298      2.795      3.636
REMARK INTER + INTRA:          -5.309
REMARK INTER:                  -5.175
REMARK INTRA:                  -0.134
REMARK UNBOUND:                -0.132
REMARK SMILES CC[C@@H](C)[C@H]([NH3+])C(=O)[O-]
REMARK SMILES IDX 3 1 4 2 5 3 6 4 7 8 8 9 9 10 2 11 1 12
REMARK H PARENT 6 5 6 6 6 7
REMARK Flexibility Score: inf
ROOT
ATOM      1  C   UNL     1     -12.705 -32.670  -7.594  1.00  0.00     0.050 C 
ATOM      2  C   UNL     1     -11.288 -32.379  -8.122  1.00  0.00     0.014 C 
ENDROOT
BRANCH   1   3
ATOM      3  C   UNL     1     -13.679 -33.029  -8.765  1.00  0.00     0.230 C 
BRANCH   3   4
ATOM      4  N   UNL     1     -13.040 -32.876 -10.082  1.00  0.00    -0.350 N 
ATOM      5  H   UNL     1     -12.865 -31.864 -10.282  1.00  0.00     0.345 HD
ATOM      6  H   UNL     1     -13.673 -33.230 -10.834  1.00  0.00     0.345 HD
ATOM      7  H   UNL     1     -12.130 -33.391 -10.115  1.00  0.00     0.345 HD
ENDBRANCH   3   4
BRANCH   3   8
ATOM      8  C   UNL     1     -14.926 -32.184  -8.711  1.00  0.00     0.099 C 
ATOM      9  O   UNL     1     -15.052 -31.288  -7.836  1.00  0.00    -0.544 OA
ATOM     10  O   UNL     1     -15.952 -32.400  -9.623  1.00  0.00    -0.544 OA
ENDBRANCH   3   8
ENDBRANCH   1   3
BRANCH   1  11
ATOM     11  C   UNL     1     -12.636 -33.804  -6.528  1.00  0.00     0.006 C 
ATOM     12  C   UNL     1     -13.420 -35.053  -6.937  1.00  0.00     0.004 C 
ENDBRANCH   1  11
TORSDOF 4
ENDMDL
