MODEL 1
REMARK VINA RESULT:    -3.934      0.000      0.000
REMARK INTER + INTRA:          -9.389
REMARK INTER:                  -7.385
REMARK INTRA:                  -2.004
REMARK UNBOUND:                -2.004
REMARK SMILES O=C([O-])CCCCCCCCCCCCCCC(=O)[O-]
REMARK SMILES IDX 10 1 9 2 8 3 7 4 6 5 5 6 4 7 2 8 1 9 3 10 11 11 12 12 13 13
REMARK SMILES IDX 14 14 15 15 16 16 17 17 18 18 19 19 20 20
REMARK H PARENT
REMARK Flexibility Score: inf
ROOT
ATOM      1  C   UNL     1      -7.061  17.247  -9.841  1.00  0.00     0.000 C 
ENDROOT
BRANCH   1   2
ATOM      2  C   UNL     1      -7.041  16.571  -8.459  1.00  0.00     0.000 C 
BRANCH   2   3
ATOM      3  C   UNL     1      -5.623  16.218  -7.986  1.00  0.00     0.000 C 
BRANCH   3   4
ATOM      4  C   UNL     1      -5.364  16.765  -6.574  1.00  0.00     0.000 C 
BRANCH   4   5
ATOM      5  C   UNL     1      -4.095  17.628  -6.497  1.00  0.00     0.000 C 
BRANCH   5   6
ATOM      6  C   UNL     1      -4.220  18.938  -7.288  1.00  0.00     0.006 C 
BRANCH   6   7
ATOM      7  C   UNL     1      -5.441  19.741  -6.828  1.00  0.00     0.053 C 
BRANCH   7   8
ATOM      8  C   UNL     1      -6.105  20.402  -7.996  1.00  0.00     0.041 C 
ATOM      9  O   UNL     1      -7.351  20.315  -8.149  1.00  0.00    -0.550 OA
ATOM     10  O   UNL     1      -5.339  21.071  -8.942  1.00  0.00    -0.550 OA
ENDBRANCH   7   8
ENDBRANCH   6   7
ENDBRANCH   5   6
ENDBRANCH   4   5
ENDBRANCH   3   4
ENDBRANCH   2   3
ENDBRANCH   1   2
BRANCH   1  11
ATOM     11  C   UNL     1      -5.672  17.506 -10.462  1.00  0.00     0.000 C 
BRANCH  11  12
ATOM     12  C   UNL     1      -5.633  18.611 -11.533  1.00  0.00     0.000 C 
BRANCH  12  13
ATOM     13  C   UNL     1      -6.926  19.438 -11.581  1.00  0.00     0.000 C 
BRANCH  13  14
ATOM     14  C   UNL     1      -7.672  19.213 -12.904  1.00  0.00     0.000 C 
BRANCH  14  15
ATOM     15  C   UNL     1      -9.164  18.897 -12.703  1.00  0.00     0.000 C 
BRANCH  15  16
ATOM     16  C   UNL     1      -9.729  19.406 -11.360  1.00  0.00     0.006 C 
BRANCH  16  17
ATOM     17  C   UNL     1     -11.113  18.819 -11.053  1.00  0.00     0.053 C 
BRANCH  17  18
ATOM     18  C   UNL     1     -11.155  17.366 -11.405  1.00  0.00     0.041 C 
ATOM     19  O   UNL     1     -11.860  16.969 -12.371  1.00  0.00    -0.550 OA
ATOM     20  O   UNL     1     -10.379  16.456 -10.700  1.00  0.00    -0.550 OA
ENDBRANCH  17  18
ENDBRANCH  16  17
ENDBRANCH  15  16
ENDBRANCH  14  15
ENDBRANCH  13  14
ENDBRANCH  12  13
ENDBRANCH  11  12
ENDBRANCH   1  11
TORSDOF 15
ENDMDL
MODEL 2
REMARK VINA RESULT:    -3.896      0.851      6.319
REMARK INTER + INTRA:          -9.317
REMARK INTER:                  -7.369
REMARK INTRA:                  -1.948
REMARK UNBOUND:                -2.004
REMARK SMILES O=C([O-])CCCCCCCCCCCCCCC(=O)[O-]
REMARK SMILES IDX 10 1 9 2 8 3 7 4 6 5 5 6 4 7 2 8 1 9 3 10 11 11 12 12 13 13
REMARK SMILES IDX 14 14 15 15 16 16 17 17 18 18 19 19 20 20
REMARK H PARENT
REMARK Flexibility Score: inf
ROOT
ATOM      1  C   UNL     1      -4.925  17.757 -10.256  1.00  0.00     0.000 C 
ENDROOT
BRANCH   1   2
ATOM      2  C   UNL     1      -4.927  17.819 -11.794  1.00  0.00     0.000 C 
BRANCH   2   3
ATOM      3  C   UNL     1      -5.605  19.084 -12.340  1.00  0.00     0.000 C 
BRANCH   3   4
ATOM      4  C   UNL     1      -6.468  19.753 -11.259  1.00  0.00     0.000 C 
BRANCH   4   5
ATOM      5  C   UNL     1      -7.939  19.898 -11.680  1.00  0.00     0.000 C 
BRANCH   5   6
ATOM      6  C   UNL     1      -8.665  18.548 -11.769  1.00  0.00     0.006 C 
BRANCH   6   7
ATOM      7  C   UNL     1     -10.110  18.669 -11.276  1.00  0.00     0.053 C 
BRANCH   7   8
ATOM      8  C   UNL     1     -10.792  17.338 -11.315  1.00  0.00     0.041 C 
ATOM      9  O   UNL     1     -11.786  17.157 -12.067  1.00  0.00    -0.550 OA
ATOM     10  O   UNL     1     -10.361  16.312 -10.484  1.00  0.00    -0.550 OA
ENDBRANCH   7   8
ENDBRANCH   6   7
ENDBRANCH   5   6
ENDBRANCH   4   5
ENDBRANCH   3   4
ENDBRANCH   2   3
ENDBRANCH   1   2
BRANCH   1  11
ATOM     11  C   UNL     1      -5.546  16.479  -9.653  1.00  0.00     0.000 C 
BRANCH  11  12
ATOM     12  C   UNL     1      -6.894  16.685  -8.939  1.00  0.00     0.000 C 
BRANCH  12  13
ATOM     13  C   UNL     1      -6.743  16.847  -7.419  1.00  0.00     0.000 C 
BRANCH  13  14
ATOM     14  C   UNL     1      -5.386  16.310  -6.942  1.00  0.00     0.000 C 
BRANCH  14  15
ATOM     15  C   UNL     1      -4.674  17.265  -5.968  1.00  0.00     0.000 C 
BRANCH  15  16
ATOM     16  C   UNL     1      -4.028  18.485  -6.659  1.00  0.00     0.006 C 
BRANCH  16  17
ATOM     17  C   UNL     1      -4.760  19.793  -6.329  1.00  0.00     0.053 C 
BRANCH  17  18
ATOM     18  C   UNL     1      -5.394  20.363  -7.558  1.00  0.00     0.041 C 
ATOM     19  O   UNL     1      -6.645  20.325  -7.700  1.00  0.00    -0.550 OA
ATOM     20  O   UNL     1      -4.609  20.979  -8.524  1.00  0.00    -0.550 OA
ENDBRANCH  17  18
ENDBRANCH  16  17
ENDBRANCH  15  16
ENDBRANCH  14  15
ENDBRANCH  13  14
ENDBRANCH  12  13
ENDBRANCH  11  12
ENDBRANCH   1  11
TORSDOF 15
ENDMDL
MODEL 3
REMARK VINA RESULT:    -3.761      1.704      2.875
REMARK INTER + INTRA:          -9.063
REMARK INTER:                  -7.265
REMARK INTRA:                  -1.798
REMARK UNBOUND:                -2.004
REMARK SMILES O=C([O-])CCCCCCCCCCCCCCC(=O)[O-]
REMARK SMILES IDX 10 1 9 2 8 3 7 4 6 5 5 6 4 7 2 8 1 9 3 10 11 11 12 12 13 13
REMARK SMILES IDX 14 14 15 15 16 16 17 17 18 18 19 19 20 20
REMARK H PARENT
REMARK Flexibility Score: inf
ROOT
ATOM      1  C   UNL     1      -6.768  19.887  -7.901  1.00  0.00     0.000 C 
ENDROOT
BRANCH   1   2
ATOM      2  C   UNL     1      -5.266  20.222  -7.871  1.00  0.00     0.000 C 
BRANCH   2   3
ATOM      3  C   UNL     1      -4.623  19.964  -6.500  1.00  0.00     0.000 C 
BRANCH   3   4
ATOM      4  C   UNL     1      -3.877  18.621  -6.489  1.00  0.00     0.000 C 
BRANCH   4   5
ATOM      5  C   UNL     1      -4.635  17.529  -5.719  1.00  0.00     0.000 C 
BRANCH   5   6
ATOM      6  C   UNL     1      -5.321  16.516  -6.647  1.00  0.00     0.006 C 
BRANCH   6   7
ATOM      7  C   UNL     1      -4.654  16.498  -8.026  1.00  0.00     0.053 C 
BRANCH   7   8
ATOM      8  C   UNL     1      -5.685  16.404  -9.106  1.00  0.00     0.041 C 
ATOM      9  O   UNL     1      -5.336  16.400 -10.316  1.00  0.00    -0.550 OA
ATOM     10  O   UNL     1      -7.035  16.372  -8.778  1.00  0.00    -0.550 OA
ENDBRANCH   7   8
ENDBRANCH   6   7
ENDBRANCH   5   6
ENDBRANCH   4   5
ENDBRANCH   3   4
ENDBRANCH   2   3
ENDBRANCH   1   2
BRANCH   1  11
ATOM     11  C   UNL     1      -7.412  19.896  -9.303  1.00  0.00     0.000 C 
BRANCH  11  12
ATOM     12  C   UNL     1      -6.422  19.767 -10.475  1.00  0.00     0.000 C 
BRANCH  12  13
ATOM     13  C   UNL     1      -7.046  19.099 -11.709  1.00  0.00     0.000 C 
BRANCH  13  14
ATOM     14  C   UNL     1      -8.014  20.056 -12.420  1.00  0.00     0.000 C 
BRANCH  14  15
ATOM     15  C   UNL     1      -9.192  19.327 -13.089  1.00  0.00     0.000 C 
BRANCH  15  16
ATOM     16  C   UNL     1     -10.562  19.656 -12.458  1.00  0.00     0.006 C 
BRANCH  16  17
ATOM     17  C   UNL     1     -10.783  18.915 -11.132  1.00  0.00     0.053 C 
BRANCH  17  18
ATOM     18  C   UNL     1     -11.007  17.457 -11.379  1.00  0.00     0.041 C 
ATOM     19  O   UNL     1     -10.348  16.597 -10.735  1.00  0.00    -0.550 OA
ATOM     20  O   UNL     1     -11.978  17.045 -12.282  1.00  0.00    -0.550 OA
ENDBRANCH  17  18
ENDBRANCH  16  17
ENDBRANCH  15  16
ENDBRANCH  14  15
ENDBRANCH  13  14
ENDBRANCH  12  13
ENDBRANCH  11  12
ENDBRANCH   1  11
TORSDOF 15
ENDMDL
MODEL 4
REMARK VINA RESULT:    -3.734      1.715      6.328
REMARK INTER + INTRA:          -9.013
REMARK INTER:                  -7.291
REMARK INTRA:                  -1.722
REMARK UNBOUND:                -2.004
REMARK SMILES O=C([O-])CCCCCCCCCCCCCCC(=O)[O-]
REMARK SMILES IDX 10 1 9 2 8 3 7 4 6 5 5 6 4 7 2 8 1 9 3 10 11 11 12 12 13 13
REMARK SMILES IDX 14 14 15 15 16 16 17 17 18 18 19 19 20 20
REMARK H PARENT
REMARK Flexibility Score: inf
ROOT
ATOM      1  C   UNL     1      -6.817  20.389  -8.275  1.00  0.00     0.000 C 
ENDROOT
BRANCH   1   2
ATOM      2  C   UNL     1      -5.798  20.048  -9.376  1.00  0.00     0.000 C 
BRANCH   2   3
ATOM      3  C   UNL     1      -6.385  20.166 -10.791  1.00  0.00     0.000 C 
BRANCH   3   4
ATOM      4  C   UNL     1      -7.912  19.989 -10.766  1.00  0.00     0.000 C 
BRANCH   4   5
ATOM      5  C   UNL     1      -8.445  19.271 -12.017  1.00  0.00     0.000 C 
BRANCH   5   6
ATOM      6  C   UNL     1      -9.944  19.516 -12.246  1.00  0.00     0.006 C 
BRANCH   6   7
ATOM      7  C   UNL     1     -10.776  18.935 -11.100  1.00  0.00     0.053 C 
BRANCH   7   8
ATOM      8  C   UNL     1     -11.138  17.511 -11.384  1.00  0.00     0.041 C 
ATOM      9  O   UNL     1     -10.633  16.581 -10.703  1.00  0.00    -0.550 OA
ATOM     10  O   UNL     1     -11.996  17.209 -12.434  1.00  0.00    -0.550 OA
ENDBRANCH   7   8
ENDBRANCH   6   7
ENDBRANCH   5   6
ENDBRANCH   4   5
ENDBRANCH   3   4
ENDBRANCH   2   3
ENDBRANCH   1   2
BRANCH   1  11
ATOM     11  C   UNL     1      -6.204  20.879  -6.946  1.00  0.00     0.000 C 
BRANCH  11  12
ATOM     12  C   UNL     1      -4.726  20.504  -6.734  1.00  0.00     0.000 C 
BRANCH  12  13
ATOM     13  C   UNL     1      -4.439  20.001  -5.311  1.00  0.00     0.000 C 
BRANCH  13  14
ATOM     14  C   UNL     1      -4.184  18.487  -5.304  1.00  0.00     0.000 C 
BRANCH  14  15
ATOM     15  C   UNL     1      -4.184  17.875  -6.715  1.00  0.00     0.000 C 
BRANCH  15  16
ATOM     16  C   UNL     1      -5.002  16.571  -6.824  1.00  0.00     0.006 C 
BRANCH  16  17
ATOM     17  C   UNL     1      -6.394  16.807  -7.426  1.00  0.00     0.053 C 
BRANCH  17  18
ATOM     18  C   UNL     1      -6.389  16.505  -8.891  1.00  0.00     0.041 C 
ATOM     19  O   UNL     1      -5.375  15.985  -9.427  1.00  0.00    -0.550 OA
ATOM     20  O   UNL     1      -7.522  16.752  -9.656  1.00  0.00    -0.550 OA
ENDBRANCH  17  18
ENDBRANCH  16  17
ENDBRANCH  15  16
ENDBRANCH  14  15
ENDBRANCH  13  14
ENDBRANCH  12  13
ENDBRANCH  11  12
ENDBRANCH   1  11
TORSDOF 15
ENDMDL
MODEL 5
REMARK VINA RESULT:    -3.693      2.605      3.349
REMARK INTER + INTRA:          -8.935
REMARK INTER:                  -7.435
REMARK INTRA:                  -1.501
REMARK UNBOUND:                -2.004
REMARK SMILES O=C([O-])CCCCCCCCCCCCCCC(=O)[O-]
REMARK SMILES IDX 10 1 9 2 8 3 7 4 6 5 5 6 4 7 2 8 1 9 3 10 11 11 12 12 13 13
REMARK SMILES IDX 14 14 15 15 16 16 17 17 18 18 19 19 20 20
REMARK H PARENT
REMARK Flexibility Score: inf
ROOT
ATOM      1  C   UNL     1      -6.557  16.957  -7.223  1.00  0.00     0.000 C 
ENDROOT
BRANCH   1   2
ATOM      2  C   UNL     1      -5.136  16.567  -6.780  1.00  0.00     0.000 C 
BRANCH   2   3
ATOM      3  C   UNL     1      -4.229  17.784  -6.543  1.00  0.00     0.000 C 
BRANCH   3   4
ATOM      4  C   UNL     1      -4.941  19.084  -6.948  1.00  0.00     0.000 C 
BRANCH   4   5
ATOM      5  C   UNL     1      -4.254  20.337  -6.382  1.00  0.00     0.000 C 
BRANCH   5   6
ATOM      6  C   UNL     1      -5.045  20.979  -5.232  1.00  0.00     0.006 C 
BRANCH   6   7
ATOM      7  C   UNL     1      -4.179  21.105  -3.975  1.00  0.00     0.053 C 
BRANCH   7   8
ATOM      8  C   UNL     1      -4.550  20.056  -2.975  1.00  0.00     0.041 C 
ATOM      9  O   UNL     1      -4.278  18.847  -3.195  1.00  0.00    -0.550 OA
ATOM     10  O   UNL     1      -5.241  20.408  -1.823  1.00  0.00    -0.550 OA
ENDBRANCH   7   8
ENDBRANCH   6   7
ENDBRANCH   5   6
ENDBRANCH   4   5
ENDBRANCH   3   4
ENDBRANCH   2   3
ENDBRANCH   1   2
BRANCH   1  11
ATOM     11  C   UNL     1      -6.904  16.608  -8.686  1.00  0.00     0.000 C 
BRANCH  11  12
ATOM     12  C   UNL     1      -5.700  16.242  -9.572  1.00  0.00     0.000 C 
BRANCH  12  13
ATOM     13  C   UNL     1      -5.303  17.373 -10.532  1.00  0.00     0.000 C 
BRANCH  13  14
ATOM     14  C   UNL     1      -6.351  18.495 -10.523  1.00  0.00     0.000 C 
BRANCH  14  15
ATOM     15  C   UNL     1      -6.883  18.828 -11.927  1.00  0.00     0.000 C 
BRANCH  15  16
ATOM     16  C   UNL     1      -8.407  19.071 -11.971  1.00  0.00     0.006 C 
BRANCH  16  17
ATOM     17  C   UNL     1      -9.191  17.968 -11.246  1.00  0.00     0.053 C 
BRANCH  17  18
ATOM     18  C   UNL     1     -10.656  18.268 -11.266  1.00  0.00     0.041 C 
ATOM     19  O   UNL     1     -11.484  17.361 -11.546  1.00  0.00    -0.550 OA
ATOM     20  O   UNL     1     -11.110  19.536 -10.926  1.00  0.00    -0.550 OA
ENDBRANCH  17  18
ENDBRANCH  16  17
ENDBRANCH  15  16
ENDBRANCH  14  15
ENDBRANCH  13  14
ENDBRANCH  12  13
ENDBRANCH  11  12
ENDBRANCH   1  11
TORSDOF 15
ENDMDL
MODEL 6
REMARK VINA RESULT:    -3.693      1.433      6.004
REMARK INTER + INTRA:          -8.935
REMARK INTER:                  -6.651
REMARK INTRA:                  -2.284
REMARK UNBOUND:                -2.004
REMARK SMILES O=C([O-])CCCCCCCCCCCCCCC(=O)[O-]
REMARK SMILES IDX 10 1 9 2 8 3 7 4 6 5 5 6 4 7 2 8 1 9 3 10 11 11 12 12 13 13
REMARK SMILES IDX 14 14 15 15 16 16 17 17 18 18 19 19 20 20
REMARK H PARENT
REMARK Flexibility Score: inf
ROOT
ATOM      1  C   UNL     1      -5.854  19.932  -7.311  1.00  0.00     0.000 C 
ENDROOT
BRANCH   1   2
ATOM      2  C   UNL     1      -6.269  20.863  -8.464  1.00  0.00     0.000 C 
BRANCH   2   3
ATOM      3  C   UNL     1      -7.630  20.493  -9.070  1.00  0.00     0.000 C 
BRANCH   3   4
ATOM      4  C   UNL     1      -7.647  20.762 -10.583  1.00  0.00     0.000 C 
BRANCH   4   5
ATOM      5  C   UNL     1      -8.522  19.759 -11.353  1.00  0.00     0.000 C 
BRANCH   5   6
ATOM      6  C   UNL     1      -9.726  19.271 -10.534  1.00  0.00     0.006 C 
BRANCH   6   7
ATOM      7  C   UNL     1     -10.930  18.998 -11.439  1.00  0.00     0.053 C 
BRANCH   7   8
ATOM      8  C   UNL     1     -11.172  17.526 -11.561  1.00  0.00     0.041 C 
ATOM      9  O   UNL     1     -12.021  17.089 -12.380  1.00  0.00    -0.550 OA
ATOM     10  O   UNL     1     -10.495  16.640 -10.732  1.00  0.00    -0.550 OA
ENDBRANCH   7   8
ENDBRANCH   6   7
ENDBRANCH   5   6
ENDBRANCH   4   5
ENDBRANCH   3   4
ENDBRANCH   2   3
ENDBRANCH   1   2
BRANCH   1  11
ATOM     11  C   UNL     1      -4.342  19.641  -7.218  1.00  0.00     0.000 C 
BRANCH  11  12
ATOM     12  C   UNL     1      -3.978  18.192  -6.848  1.00  0.00     0.000 C 
BRANCH  12  13
ATOM     13  C   UNL     1      -5.209  17.341  -6.498  1.00  0.00     0.000 C 
BRANCH  13  14
ATOM     14  C   UNL     1      -5.466  16.279  -7.577  1.00  0.00     0.000 C 
BRANCH  14  15
ATOM     15  C   UNL     1      -6.816  16.466  -8.290  1.00  0.00     0.000 C 
BRANCH  15  16
ATOM     16  C   UNL     1      -6.692  17.100  -9.692  1.00  0.00     0.006 C 
BRANCH  16  17
ATOM     17  C   UNL     1      -5.266  16.998 -10.251  1.00  0.00     0.053 C 
BRANCH  17  18
ATOM     18  C   UNL     1      -4.946  18.195 -11.089  1.00  0.00     0.041 C 
ATOM     19  O   UNL     1      -4.184  19.094 -10.643  1.00  0.00    -0.550 OA
ATOM     20  O   UNL     1      -5.448  18.295 -12.380  1.00  0.00    -0.550 OA
ENDBRANCH  17  18
ENDBRANCH  16  17
ENDBRANCH  15  16
ENDBRANCH  14  15
ENDBRANCH  13  14
ENDBRANCH  12  13
ENDBRANCH  11  12
ENDBRANCH   1  11
TORSDOF 15
ENDMDL
MODEL 7
REMARK VINA RESULT:    -3.687      2.050      6.757
REMARK INTER + INTRA:          -8.925
REMARK INTER:                  -7.079
REMARK INTRA:                  -1.846
REMARK UNBOUND:                -2.004
REMARK SMILES O=C([O-])CCCCCCCCCCCCCCC(=O)[O-]
REMARK SMILES IDX 10 1 9 2 8 3 7 4 6 5 5 6 4 7 2 8 1 9 3 10 11 11 12 12 13 13
REMARK SMILES IDX 14 14 15 15 16 16 17 17 18 18 19 19 20 20
REMARK H PARENT
REMARK Flexibility Score: inf
ROOT
ATOM      1  C   UNL     1      -6.973  20.807 -10.260  1.00  0.00     0.000 C 
ENDROOT
BRANCH   1   2
ATOM      2  C   UNL     1      -8.367  20.164 -10.363  1.00  0.00     0.000 C 
BRANCH   2   3
ATOM      3  C   UNL     1      -8.871  20.059 -11.810  1.00  0.00     0.000 C 
BRANCH   3   4
ATOM      4  C   UNL     1      -8.872  18.598 -12.286  1.00  0.00     0.000 C 
BRANCH   4   5
ATOM      5  C   UNL     1      -9.514  17.644 -11.266  1.00  0.00     0.000 C 
BRANCH   5   6
ATOM      6  C   UNL     1     -11.029  17.855 -11.129  1.00  0.00     0.006 C 
BRANCH   6   7
ATOM      7  C   UNL     1     -11.767  17.357 -12.374  1.00  0.00     0.053 C 
BRANCH   7   8
ATOM      8  C   UNL     1     -12.431  18.496 -13.083  1.00  0.00     0.041 C 
ATOM      9  O   UNL     1     -12.315  19.669 -12.642  1.00  0.00    -0.550 OA
ATOM     10  O   UNL     1     -13.219  18.254 -14.201  1.00  0.00    -0.550 OA
ENDBRANCH   7   8
ENDBRANCH   6   7
ENDBRANCH   5   6
ENDBRANCH   4   5
ENDBRANCH   3   4
ENDBRANCH   2   3
ENDBRANCH   1   2
BRANCH   1  11
ATOM     11  C   UNL     1      -5.912  19.954  -9.535  1.00  0.00     0.000 C 
BRANCH  11  12
ATOM     12  C   UNL     1      -4.972  19.159 -10.460  1.00  0.00     0.000 C 
BRANCH  12  13
ATOM     13  C   UNL     1      -5.553  17.798 -10.871  1.00  0.00     0.000 C 
BRANCH  13  14
ATOM     14  C   UNL     1      -5.459  16.790  -9.717  1.00  0.00     0.000 C 
BRANCH  14  15
ATOM     15  C   UNL     1      -6.782  16.637  -8.947  1.00  0.00     0.000 C 
BRANCH  15  16
ATOM     16  C   UNL     1      -6.651  16.906  -7.433  1.00  0.00     0.006 C 
BRANCH  16  17
ATOM     17  C   UNL     1      -5.325  16.381  -6.863  1.00  0.00     0.053 C 
BRANCH  17  18
ATOM     18  C   UNL     1      -4.663  17.430  -6.028  1.00  0.00     0.041 C 
ATOM     19  O   UNL     1      -4.264  17.156  -4.866  1.00  0.00    -0.550 OA
ATOM     20  O   UNL     1      -4.441  18.698  -6.551  1.00  0.00    -0.550 OA
ENDBRANCH  17  18
ENDBRANCH  16  17
ENDBRANCH  15  16
ENDBRANCH  14  15
ENDBRANCH  13  14
ENDBRANCH  12  13
ENDBRANCH  11  12
ENDBRANCH   1  11
TORSDOF 15
ENDMDL
MODEL 8
REMARK VINA RESULT:    -3.567      2.078      6.671
REMARK INTER + INTRA:          -8.699
REMARK INTER:                  -7.123
REMARK INTRA:                  -1.576
REMARK UNBOUND:                -2.004
REMARK SMILES O=C([O-])CCCCCCCCCCCCCCC(=O)[O-]
REMARK SMILES IDX 10 1 9 2 8 3 7 4 6 5 5 6 4 7 2 8 1 9 3 10 11 11 12 12 13 13
REMARK SMILES IDX 14 14 15 15 16 16 17 17 18 18 19 19 20 20
REMARK H PARENT
REMARK Flexibility Score: inf
ROOT
ATOM      1  C   UNL     1      -7.218  19.711  -9.396  1.00  0.00     0.000 C 
ENDROOT
BRANCH   1   2
ATOM      2  C   UNL     1      -6.973  19.308 -10.860  1.00  0.00     0.000 C 
BRANCH   2   3
ATOM      3  C   UNL     1      -8.265  19.252 -11.689  1.00  0.00     0.000 C 
BRANCH   3   4
ATOM      4  C   UNL     1      -9.108  18.026 -11.306  1.00  0.00     0.000 C 
BRANCH   4   5
ATOM      5  C   UNL     1     -10.582  18.377 -11.048  1.00  0.00     0.000 C 
BRANCH   5   6
ATOM      6  C   UNL     1     -10.888  19.863 -11.290  1.00  0.00     0.006 C 
BRANCH   6   7
ATOM      7  C   UNL     1     -12.134  20.030 -12.164  1.00  0.00     0.053 C 
BRANCH   7   8
ATOM      8  C   UNL     1     -12.007  19.226 -13.420  1.00  0.00     0.041 C 
ATOM      9  O   UNL     1     -11.077  19.466 -14.233  1.00  0.00    -0.550 OA
ATOM     10  O   UNL     1     -12.945  18.245 -13.715  1.00  0.00    -0.550 OA
ENDBRANCH   7   8
ENDBRANCH   6   7
ENDBRANCH   5   6
ENDBRANCH   4   5
ENDBRANCH   3   4
ENDBRANCH   2   3
ENDBRANCH   1   2
BRANCH   1  11
ATOM     11  C   UNL     1      -5.943  19.981  -8.570  1.00  0.00     0.000 C 
BRANCH  11  12
ATOM     12  C   UNL     1      -6.179  20.666  -7.212  1.00  0.00     0.000 C 
BRANCH  12  13
ATOM     13  C   UNL     1      -5.049  20.400  -6.207  1.00  0.00     0.000 C 
BRANCH  13  14
ATOM     14  C   UNL     1      -4.243  19.154  -6.603  1.00  0.00     0.000 C 
BRANCH  14  15
ATOM     15  C   UNL     1      -4.559  17.933  -5.722  1.00  0.00     0.000 C 
BRANCH  15  16
ATOM     16  C   UNL     1      -5.262  16.788  -6.481  1.00  0.00     0.006 C 
BRANCH  16  17
ATOM     17  C   UNL     1      -4.637  16.535  -7.860  1.00  0.00     0.053 C 
BRANCH  17  18
ATOM     18  C   UNL     1      -5.703  16.343  -8.891  1.00  0.00     0.041 C 
ATOM     19  O   UNL     1      -6.912  16.274  -8.546  1.00  0.00    -0.550 OA
ATOM     20  O   UNL     1      -5.366  16.288 -10.237  1.00  0.00    -0.550 OA
ENDBRANCH  17  18
ENDBRANCH  16  17
ENDBRANCH  15  16
ENDBRANCH  14  15
ENDBRANCH  13  14
ENDBRANCH  12  13
ENDBRANCH  11  12
ENDBRANCH   1  11
TORSDOF 15
ENDMDL
MODEL 9
REMARK VINA RESULT:    -3.552      1.713      3.398
REMARK INTER + INTRA:          -8.671
REMARK INTER:                  -7.140
REMARK INTRA:                  -1.531
REMARK UNBOUND:                -2.004
REMARK SMILES O=C([O-])CCCCCCCCCCCCCCC(=O)[O-]
REMARK SMILES IDX 10 1 9 2 8 3 7 4 6 5 5 6 4 7 2 8 1 9 3 10 11 11 12 12 13 13
REMARK SMILES IDX 14 14 15 15 16 16 17 17 18 18 19 19 20 20
REMARK H PARENT
REMARK Flexibility Score: inf
ROOT
ATOM      1  C   UNL     1      -4.941  19.758  -7.339  1.00  0.00     0.000 C 
ENDROOT
BRANCH   1   2
ATOM      2  C   UNL     1      -4.597  18.798  -6.187  1.00  0.00     0.000 C 
BRANCH   2   3
ATOM      3  C   UNL     1      -4.419  17.345  -6.652  1.00  0.00     0.000 C 
BRANCH   3   4
ATOM      4  C   UNL     1      -5.760  16.746  -7.103  1.00  0.00     0.000 C 
BRANCH   4   5
ATOM      5  C   UNL     1      -5.771  16.375  -8.595  1.00  0.00     0.000 C 
BRANCH   5   6
ATOM      6  C   UNL     1      -4.360  16.275  -9.191  1.00  0.00     0.006 C 
BRANCH   6   7
ATOM      7  C   UNL     1      -4.412  16.254 -10.722  1.00  0.00     0.053 C 
BRANCH   7   8
ATOM      8  C   UNL     1      -4.415  17.648 -11.266  1.00  0.00     0.041 C 
ATOM      9  O   UNL     1      -4.087  18.615 -10.531  1.00  0.00    -0.550 OA
ATOM     10  O   UNL     1      -4.828  17.883 -12.571  1.00  0.00    -0.550 OA
ENDBRANCH   7   8
ENDBRANCH   6   7
ENDBRANCH   5   6
ENDBRANCH   4   5
ENDBRANCH   3   4
ENDBRANCH   2   3
ENDBRANCH   1   2
BRANCH   1  11
ATOM     11  C   UNL     1      -6.005  20.824  -7.006  1.00  0.00     0.000 C 
BRANCH  11  12
ATOM     12  C   UNL     1      -7.163  20.926  -8.014  1.00  0.00     0.000 C 
BRANCH  12  13
ATOM     13  C   UNL     1      -7.210  19.740  -8.989  1.00  0.00     0.000 C 
BRANCH  13  14
ATOM     14  C   UNL     1      -7.908  20.133 -10.299  1.00  0.00     0.000 C 
BRANCH  14  15
ATOM     15  C   UNL     1      -9.375  20.550 -10.093  1.00  0.00     0.000 C 
BRANCH  15  16
ATOM     16  C   UNL     1     -10.377  19.715 -10.918  1.00  0.00     0.006 C 
BRANCH  16  17
ATOM     17  C   UNL     1      -9.743  18.433 -11.477  1.00  0.00     0.053 C 
BRANCH  17  18
ATOM     18  C   UNL     1     -10.676  17.275 -11.320  1.00  0.00     0.041 C 
ATOM     19  O   UNL     1     -10.389  16.333 -10.535  1.00  0.00    -0.550 OA
ATOM     20  O   UNL     1     -11.886  17.260 -12.002  1.00  0.00    -0.550 OA
ENDBRANCH  17  18
ENDBRANCH  16  17
ENDBRANCH  15  16
ENDBRANCH  14  15
ENDBRANCH  13  14
ENDBRANCH  12  13
ENDBRANCH  11  12
ENDBRANCH   1  11
TORSDOF 15
ENDMDL
