MODEL 1
REMARK VINA RESULT:    -3.881      0.000      0.000
REMARK INTER + INTRA:          -4.714
REMARK INTER:                  -4.448
REMARK INTRA:                  -0.265
REMARK UNBOUND:                -0.265
REMARK SMILES COC(=O)c1ccccc1O
REMARK SMILES IDX 5 1 6 2 7 3 8 4 9 5 10 6 3 7 4 8 2 9 1 10 11 11
REMARK H PARENT 11 12
REMARK Flexibility Score: inf
ROOT
ATOM      1  C   UNL     1     150.260 150.131 145.844  1.00  0.00     0.101 A 
ATOM      2  C   UNL     1     149.807 148.804 145.728  1.00  0.00     0.019 A 
ATOM      3  C   UNL     1     150.716 147.746 145.637  1.00  0.00     0.001 A 
ATOM      4  C   UNL     1     152.086 147.999 145.662  1.00  0.00     0.004 A 
ATOM      5  C   UNL     1     152.553 149.307 145.798  1.00  0.00     0.047 A 
ATOM      6  C   UNL     1     151.656 150.376 145.912  1.00  0.00     0.130 A 
ENDROOT
BRANCH   1   7
ATOM      7  C   UNL     1     149.254 151.215 145.860  1.00  0.00     0.341 C 
ATOM      8  O   UNL     1     148.046 150.962 146.125  1.00  0.00    -0.246 OA
BRANCH   7   9
ATOM      9  O   UNL     1     149.661 152.536 145.641  1.00  0.00    -0.465 OA
ATOM     10  C   UNL     1     148.763 153.637 145.703  1.00  0.00     0.282 C 
ENDBRANCH   7   9
ENDBRANCH   1   7
BRANCH   6  11
ATOM     11  O   UNL     1     152.188 151.650 146.124  1.00  0.00    -0.507 OA
ATOM     12  H   UNL     1     151.955 152.454 145.557  1.00  0.00     0.293 HD
ENDBRANCH   6  11
TORSDOF 3
ENDMDL
MODEL 2
REMARK VINA RESULT:    -3.489     10.017     11.421
REMARK INTER + INTRA:          -4.264
REMARK INTER:                  -3.961
REMARK INTRA:                  -0.303
REMARK UNBOUND:                -0.265
REMARK SMILES COC(=O)c1ccccc1O
REMARK SMILES IDX 5 1 6 2 7 3 8 4 9 5 10 6 3 7 4 8 2 9 1 10 11 11
REMARK H PARENT 11 12
REMARK Flexibility Score: inf
ROOT
ATOM      1  C   UNL     1     147.251 158.876 139.088  1.00  0.00     0.101 A 
ATOM      2  C   UNL     1     147.184 158.886 137.683  1.00  0.00     0.019 A 
ATOM      3  C   UNL     1     146.779 157.748 136.980  1.00  0.00     0.001 A 
ATOM      4  C   UNL     1     146.434 156.588 137.670  1.00  0.00     0.004 A 
ATOM      5  C   UNL     1     146.473 156.566 139.065  1.00  0.00     0.047 A 
ATOM      6  C   UNL     1     146.857 157.704 139.785  1.00  0.00     0.130 A 
ENDROOT
BRANCH   1   7
ATOM      7  C   UNL     1     147.760 160.084 139.774  1.00  0.00     0.341 C 
ATOM      8  O   UNL     1     147.242 160.468 140.858  1.00  0.00    -0.246 OA
BRANCH   7   9
ATOM      9  O   UNL     1     148.862 160.763 139.244  1.00  0.00    -0.465 OA
ATOM     10  C   UNL     1     150.195 160.523 139.680  1.00  0.00     0.282 C 
ENDBRANCH   7   9
ENDBRANCH   1   7
BRANCH   6  11
ATOM     11  O   UNL     1     146.800 157.640 141.179  1.00  0.00    -0.507 OA
ATOM     12  H   UNL     1     147.617 157.543 141.768  1.00  0.00     0.293 HD
ENDBRANCH   6  11
TORSDOF 3
ENDMDL
MODEL 3
REMARK VINA RESULT:    -3.488     10.273     11.871
REMARK INTER + INTRA:          -4.263
REMARK INTER:                  -3.951
REMARK INTRA:                  -0.312
REMARK UNBOUND:                -0.265
REMARK SMILES COC(=O)c1ccccc1O
REMARK SMILES IDX 5 1 6 2 7 3 8 4 9 5 10 6 3 7 4 8 2 9 1 10 11 11
REMARK H PARENT 11 12
REMARK Flexibility Score: inf
ROOT
ATOM      1  C   UNL     1     158.837 154.046 139.048  1.00  0.00     0.101 A 
ATOM      2  C   UNL     1     158.841 154.128 137.644  1.00  0.00     0.019 A 
ATOM      3  C   UNL     1     157.699 154.537 136.950  1.00  0.00     0.001 A 
ATOM      4  C   UNL     1     156.540 154.868 137.648  1.00  0.00     0.004 A 
ATOM      5  C   UNL     1     156.523 154.813 139.043  1.00  0.00     0.047 A 
ATOM      6  C   UNL     1     157.667 154.427 139.754  1.00  0.00     0.130 A 
ENDROOT
BRANCH   1   7
ATOM      7  C   UNL     1     160.050 153.535 139.723  1.00  0.00     0.341 C 
ATOM      8  O   UNL     1     160.454 154.062 140.796  1.00  0.00    -0.246 OA
BRANCH   7   9
ATOM      9  O   UNL     1     160.713 152.420 139.197  1.00  0.00    -0.465 OA
ATOM     10  C   UNL     1     160.306 151.085 139.471  1.00  0.00     0.282 C 
ENDBRANCH   7   9
ENDBRANCH   1   7
BRANCH   6  11
ATOM     11  O   UNL     1     157.608 154.467 141.149  1.00  0.00    -0.507 OA
ATOM     12  H   UNL     1     156.762 154.664 141.667  1.00  0.00     0.293 HD
ENDBRANCH   6  11
TORSDOF 3
ENDMDL
MODEL 4
REMARK VINA RESULT:    -3.455      9.814     11.236
REMARK INTER + INTRA:          -4.225
REMARK INTER:                  -3.907
REMARK INTRA:                  -0.319
REMARK UNBOUND:                -0.265
REMARK SMILES COC(=O)c1ccccc1O
REMARK SMILES IDX 5 1 6 2 7 3 8 4 9 5 10 6 3 7 4 8 2 9 1 10 11 11
REMARK H PARENT 11 12
REMARK Flexibility Score: inf
ROOT
ATOM      1  C   UNL     1     154.050 142.662 138.904  1.00  0.00     0.101 A 
ATOM      2  C   UNL     1     154.196 142.701 137.505  1.00  0.00     0.019 A 
ATOM      3  C   UNL     1     154.640 143.862 136.867  1.00  0.00     0.001 A 
ATOM      4  C   UNL     1     154.946 144.997 137.615  1.00  0.00     0.004 A 
ATOM      5  C   UNL     1     154.827 144.971 139.005  1.00  0.00     0.047 A 
ATOM      6  C   UNL     1     154.404 143.809 139.663  1.00  0.00     0.130 A 
ENDROOT
BRANCH   1   7
ATOM      7  C   UNL     1     153.504 141.432 139.517  1.00  0.00     0.341 C 
ATOM      8  O   UNL     1     154.062 140.919 140.526  1.00  0.00    -0.246 OA
BRANCH   7   9
ATOM      9  O   UNL     1     152.325 140.875 139.009  1.00  0.00    -0.465 OA
ATOM     10  C   UNL     1     151.038 141.404 139.300  1.00  0.00     0.282 C 
ENDBRANCH   7   9
ENDBRANCH   1   7
BRANCH   6  11
ATOM     11  O   UNL     1     154.382 143.824 141.059  1.00  0.00    -0.507 OA
ATOM     12  H   UNL     1     154.952 143.219 141.634  1.00  0.00     0.293 HD
ENDBRANCH   6  11
TORSDOF 3
ENDMDL
MODEL 5
REMARK VINA RESULT:    -3.443      9.825     10.746
REMARK INTER + INTRA:          -4.212
REMARK INTER:                  -3.897
REMARK INTRA:                  -0.315
REMARK UNBOUND:                -0.265
REMARK SMILES COC(=O)c1ccccc1O
REMARK SMILES IDX 5 1 6 2 7 3 8 4 9 5 10 6 3 7 4 8 2 9 1 10 11 11
REMARK H PARENT 11 12
REMARK Flexibility Score: inf
ROOT
ATOM      1  C   UNL     1     142.683 147.214 138.911  1.00  0.00     0.101 A 
ATOM      2  C   UNL     1     142.731 147.084 137.511  1.00  0.00     0.019 A 
ATOM      3  C   UNL     1     143.892 146.633 136.877  1.00  0.00     0.001 A 
ATOM      4  C   UNL     1     145.018 146.306 137.630  1.00  0.00     0.004 A 
ATOM      5  C   UNL     1     144.981 146.409 139.022  1.00  0.00     0.047 A 
ATOM      6  C   UNL     1     143.819 146.838 139.675  1.00  0.00     0.130 A 
ENDROOT
BRANCH   1   7
ATOM      7  C   UNL     1     141.454 147.767 139.521  1.00  0.00     0.341 C 
ATOM      8  O   UNL     1     140.962 147.241 140.557  1.00  0.00    -0.246 OA
BRANCH   7   9
ATOM      9  O   UNL     1     140.875 148.919 138.978  1.00  0.00    -0.465 OA
ATOM     10  C   UNL     1     141.328 150.230 139.295  1.00  0.00     0.282 C 
ENDBRANCH   7   9
ENDBRANCH   1   7
BRANCH   6  11
ATOM     11  O   UNL     1     143.824 146.843 141.071  1.00  0.00    -0.507 OA
ATOM     12  H   UNL     1     144.331 146.172 141.631  1.00  0.00     0.293 HD
ENDBRANCH   6  11
TORSDOF 3
ENDMDL
MODEL 6
REMARK VINA RESULT:    -3.311      9.603     10.780
REMARK INTER + INTRA:          -4.060
REMARK INTER:                  -3.776
REMARK INTRA:                  -0.285
REMARK UNBOUND:                -0.265
REMARK SMILES COC(=O)c1ccccc1O
REMARK SMILES IDX 5 1 6 2 7 3 8 4 9 5 10 6 3 7 4 8 2 9 1 10 11 11
REMARK H PARENT 11 12
REMARK Flexibility Score: inf
ROOT
ATOM      1  C   UNL     1     158.122 153.677 139.215  1.00  0.00     0.101 A 
ATOM      2  C   UNL     1     158.660 152.876 138.190  1.00  0.00     0.019 A 
ATOM      3  C   UNL     1     160.037 152.659 138.103  1.00  0.00     0.001 A 
ATOM      4  C   UNL     1     160.896 153.235 139.037  1.00  0.00     0.004 A 
ATOM      5  C   UNL     1     160.379 154.015 140.073  1.00  0.00     0.047 A 
ATOM      6  C   UNL     1     158.999 154.225 140.187  1.00  0.00     0.130 A 
ENDROOT
BRANCH   1   7
ATOM      7  C   UNL     1     156.666 153.934 139.212  1.00  0.00     0.341 C 
ATOM      8  O   UNL     1     156.226 155.114 139.141  1.00  0.00    -0.246 OA
BRANCH   7   9
ATOM      9  O   UNL     1     155.776 152.854 139.226  1.00  0.00    -0.465 OA
ATOM     10  C   UNL     1     155.736 151.906 140.285  1.00  0.00     0.282 C 
ENDBRANCH   7   9
ENDBRANCH   1   7
BRANCH   6  11
ATOM     11  O   UNL     1     158.541 154.949 141.290  1.00  0.00    -0.507 OA
ATOM     12  H   UNL     1     158.735 154.690 142.248  1.00  0.00     0.293 HD
ENDBRANCH   6  11
TORSDOF 3
ENDMDL
MODEL 7
REMARK VINA RESULT:    -3.123     10.209     11.155
REMARK INTER + INTRA:          -3.845
REMARK INTER:                  -3.565
REMARK INTRA:                  -0.280
REMARK UNBOUND:                -0.265
REMARK SMILES COC(=O)c1ccccc1O
REMARK SMILES IDX 5 1 6 2 7 3 8 4 9 5 10 6 3 7 4 8 2 9 1 10 11 11
REMARK H PARENT 11 12
REMARK Flexibility Score: inf
ROOT
ATOM      1  C   UNL     1     157.854 154.408 138.491  1.00  0.00     0.101 A 
ATOM      2  C   UNL     1     158.809 154.224 137.473  1.00  0.00     0.019 A 
ATOM      3  C   UNL     1     160.142 153.947 137.788  1.00  0.00     0.001 A 
ATOM      4  C   UNL     1     160.539 153.849 139.120  1.00  0.00     0.004 A 
ATOM      5  C   UNL     1     159.602 154.007 140.142  1.00  0.00     0.047 A 
ATOM      6  C   UNL     1     158.257 154.264 139.844  1.00  0.00     0.130 A 
ENDROOT
BRANCH   1   7
ATOM      7  C   UNL     1     156.475 154.774 138.100  1.00  0.00     0.341 C 
ATOM      8  O   UNL     1     155.995 154.374 137.004  1.00  0.00    -0.246 OA
BRANCH   7   9
ATOM      9  O   UNL     1     155.684 155.516 138.983  1.00  0.00    -0.465 OA
ATOM     10  C   UNL     1     154.485 156.166 138.579  1.00  0.00     0.282 C 
ENDBRANCH   7   9
ENDBRANCH   1   7
BRANCH   6  11
ATOM     11  O   UNL     1     157.358 154.334 140.910  1.00  0.00    -0.507 OA
ATOM     12  H   UNL     1     156.913 155.191 141.210  1.00  0.00     0.293 HD
ENDBRANCH   6  11
TORSDOF 3
ENDMDL
MODEL 8
REMARK VINA RESULT:    -3.095      8.629     11.457
REMARK INTER + INTRA:          -3.812
REMARK INTER:                  -3.511
REMARK INTRA:                  -0.301
REMARK UNBOUND:                -0.265
REMARK SMILES COC(=O)c1ccccc1O
REMARK SMILES IDX 5 1 6 2 7 3 8 4 9 5 10 6 3 7 4 8 2 9 1 10 11 11
REMARK H PARENT 11 12
REMARK Flexibility Score: inf
ROOT
ATOM      1  C   UNL     1     147.442 158.363 138.974  1.00  0.00     0.101 A 
ATOM      2  C   UNL     1     148.142 159.045 137.962  1.00  0.00     0.019 A 
ATOM      3  C   UNL     1     148.390 160.416 138.067  1.00  0.00     0.001 A 
ATOM      4  C   UNL     1     147.944 161.123 139.182  1.00  0.00     0.004 A 
ATOM      5  C   UNL     1     147.266 160.459 140.206  1.00  0.00     0.047 A 
ATOM      6  C   UNL     1     147.029 159.081 140.127  1.00  0.00     0.130 A 
ENDROOT
BRANCH   1   7
ATOM      7  C   UNL     1     147.143 156.928 138.774  1.00  0.00     0.341 C 
ATOM      8  O   UNL     1     146.448 156.552 137.790  1.00  0.00    -0.246 OA
BRANCH   7   9
ATOM      9  O   UNL     1     147.689 155.982 139.649  1.00  0.00    -0.465 OA
ATOM     10  C   UNL     1     149.069 155.960 139.992  1.00  0.00     0.282 C 
ENDBRANCH   7   9
ENDBRANCH   1   7
BRANCH   6  11
ATOM     11  O   UNL     1     146.415 158.464 141.219  1.00  0.00    -0.507 OA
ATOM     12  H   UNL     1     145.588 157.887 141.143  1.00  0.00     0.293 HD
ENDBRANCH   6  11
TORSDOF 3
ENDMDL
MODEL 9
REMARK VINA RESULT:    -3.078      9.894     11.239
REMARK INTER + INTRA:          -3.794
REMARK INTER:                  -3.515
REMARK INTRA:                  -0.278
REMARK UNBOUND:                -0.265
REMARK SMILES COC(=O)c1ccccc1O
REMARK SMILES IDX 5 1 6 2 7 3 8 4 9 5 10 6 3 7 4 8 2 9 1 10 11 11
REMARK H PARENT 11 12
REMARK Flexibility Score: inf
ROOT
ATOM      1  C   UNL     1     143.584 146.880 138.427  1.00  0.00     0.101 A 
ATOM      2  C   UNL     1     142.675 147.072 137.371  1.00  0.00     0.019 A 
ATOM      3  C   UNL     1     141.330 147.348 137.630  1.00  0.00     0.001 A 
ATOM      4  C   UNL     1     140.875 147.436 138.944  1.00  0.00     0.004 A 
ATOM      5  C   UNL     1     141.767 147.270 140.005  1.00  0.00     0.047 A 
ATOM      6  C   UNL     1     143.123 147.014 139.762  1.00  0.00     0.130 A 
ENDROOT
BRANCH   1   7
ATOM      7  C   UNL     1     144.979 146.516 138.093  1.00  0.00     0.341 C 
ATOM      8  O   UNL     1     145.500 146.908 137.013  1.00  0.00    -0.246 OA
BRANCH   7   9
ATOM      9  O   UNL     1     145.738 145.785 139.013  1.00  0.00    -0.465 OA
ATOM     10  C   UNL     1     146.893 145.043 138.639  1.00  0.00     0.282 C 
ENDBRANCH   7   9
ENDBRANCH   1   7
BRANCH   6  11
ATOM     11  O   UNL     1     143.976 146.936 140.866  1.00  0.00    -0.507 OA
ATOM     12  H   UNL     1     143.665 147.047 141.821  1.00  0.00     0.293 HD
ENDBRANCH   6  11
TORSDOF 3
ENDMDL
