MODEL 1
REMARK VINA RESULT:    -4.969      0.000      0.000
REMARK INTER + INTRA:          -4.994
REMARK INTER:                  -6.131
REMARK INTRA:                   1.137
REMARK UNBOUND:                 1.137
REMARK SMILES C=C1CC[C@H]2[C@@H]1[C@@H]1[C@H](CC[C@H]2C)C1(C)C
REMARK SMILES IDX 6 1 5 2 4 3 3 4 2 5 1 6 11 7 12 8 10 9 7 11 8 12 13 13 14 14
REMARK SMILES IDX 15 15 9 16
REMARK H PARENT
REMARK Flexibility Score: 80.00
ROOT
ATOM      1  C   UNL     1      -0.152   2.155  12.989  1.00  0.00     0.022 C 
ATOM      2  C   UNL     1      -0.699   0.707  12.849  1.00  0.00    -0.000 C 
ATOM      3  C   UNL     1      -1.592   0.671  11.587  1.00  0.00     0.009 C 
ATOM      4  C   UNL     1      -1.393   1.989  10.836  1.00  0.00     0.031 C 
ATOM      5  C   UNL     1      -0.529   2.827  11.713  1.00  0.00    -0.074 C 
ATOM      6  C   UNL     1       0.022   3.975  11.294  1.00  0.00     0.008 C 
ENDROOT
BRANCH   2   7
ATOM      7  C   UNL     1      -1.333   0.070  14.126  1.00  0.00    -0.011 C 
ATOM      8  C   UNL     1      -1.394  -1.460  13.994  1.00  0.00     0.008 C 
BRANCH   7   9
ATOM      9  C   UNL     1      -2.734   0.610  14.515  1.00  0.00     0.004 CG0
ATOM     10  G   UNL     1      -2.890   2.119  14.337  1.00  0.00     0.000 G0
ENDBRANCH   7   9
ENDBRANCH   2   7
BRANCH   1  11
ATOM     11  C   UNL     1      -0.397   2.924  14.334  1.00  0.00     0.006 C 
ATOM     12  C   UNL     1      -1.756   2.864  15.053  1.00  0.00    -0.001 C 
ATOM     13  C   UNL     1      -1.249   4.209  14.508  1.00  0.00    -0.029 C 
ATOM     14  C   UNL     1      -0.754   5.162  15.604  1.00  0.00     0.012 C 
ATOM     15  C   UNL     1      -2.110   4.888  13.423  1.00  0.00     0.012 C 
BRANCH  12  16
ATOM     16  C   UNL     1      -2.889   2.116  14.342  1.00  0.00     0.005 CG0
ATOM     17  G   UNL     1      -2.729   0.605  14.512  1.00  0.00     0.000 G0
ENDBRANCH  12  16
ENDBRANCH   1  11
TORSDOF 0
ENDMDL
MODEL 2
REMARK VINA RESULT:    -4.393      1.875      3.514
REMARK INTER + INTRA:          -4.284
REMARK INTER:                  -5.426
REMARK INTRA:                   1.143
REMARK UNBOUND:                 1.137
REMARK SMILES C=C1CC[C@H]2[C@@H]1[C@@H]1[C@H](CC[C@H]2C)C1(C)C
REMARK SMILES IDX 6 1 5 2 4 3 3 4 2 5 1 6 11 7 12 8 10 9 7 11 8 12 13 13 14 14
REMARK SMILES IDX 15 15 9 16
REMARK H PARENT
REMARK Flexibility Score: 80.00
ROOT
ATOM      1  C   UNL     1      -1.827   4.099  13.763  1.00  0.00     0.022 C 
ATOM      2  C   UNL     1      -1.360   2.723  14.315  1.00  0.00    -0.000 C 
ATOM      3  C   UNL     1       0.147   2.844  14.642  1.00  0.00     0.009 C 
ATOM      4  C   UNL     1       0.531   4.320  14.534  1.00  0.00     0.031 C 
ATOM      5  C   UNL     1      -0.678   5.016  14.012  1.00  0.00    -0.074 C 
ATOM      6  C   UNL     1      -0.781   6.352  13.978  1.00  0.00     0.008 C 
ENDROOT
BRANCH   2   7
ATOM      7  C   UNL     1      -1.757   1.462  13.483  1.00  0.00    -0.011 C 
ATOM      8  C   UNL     1      -1.663   0.194  14.345  1.00  0.00     0.008 C 
BRANCH   7   9
ATOM      9  C   UNL     1      -0.960   1.252  12.169  1.00  0.00     0.004 CG0
ATOM     10  G   UNL     1      -0.699   2.540  11.388  1.00  0.00     0.000 G0
ENDBRANCH   7   9
ENDBRANCH   2   7
BRANCH   1  11
ATOM     11  C   UNL     1      -2.526   4.148  12.360  1.00  0.00     0.006 C 
ATOM     12  C   UNL     1      -1.997   3.321  11.174  1.00  0.00    -0.001 C 
ATOM     13  C   UNL     1      -1.979   4.857  11.093  1.00  0.00    -0.029 C 
ATOM     14  C   UNL     1      -3.057   5.429  10.163  1.00  0.00     0.012 C 
ATOM     15  C   UNL     1      -0.598   5.528  10.946  1.00  0.00     0.012 C 
BRANCH  12  16
ATOM     16  C   UNL     1      -0.697   2.541  11.393  1.00  0.00     0.005 CG0
ATOM     17  G   UNL     1      -0.966   1.250  12.166  1.00  0.00     0.000 G0
ENDBRANCH  12  16
ENDBRANCH   1  11
TORSDOF 0
ENDMDL
MODEL 3
REMARK VINA RESULT:    -4.339      1.569      2.194
REMARK INTER + INTRA:          -4.216
REMARK INTER:                  -5.349
REMARK INTRA:                   1.133
REMARK UNBOUND:                 1.137
REMARK SMILES C=C1CC[C@H]2[C@@H]1[C@@H]1[C@H](CC[C@H]2C)C1(C)C
REMARK SMILES IDX 6 1 5 2 4 3 3 4 2 5 1 6 11 7 12 8 10 9 7 11 8 12 13 13 14 14
REMARK SMILES IDX 15 15 9 16
REMARK H PARENT
REMARK Flexibility Score: 80.00
ROOT
ATOM      1  C   UNL     1      -0.206   4.076  11.584  1.00  0.00     0.022 C 
ATOM      2  C   UNL     1      -0.875   2.697  11.322  1.00  0.00    -0.000 C 
ATOM      3  C   UNL     1      -2.304   2.969  10.797  1.00  0.00     0.009 C 
ATOM      4  C   UNL     1      -2.417   4.467  10.506  1.00  0.00     0.031 C 
ATOM      5  C   UNL     1      -1.143   5.070  10.989  1.00  0.00    -0.074 C 
ATOM      6  C   UNL     1      -0.799   6.336  10.718  1.00  0.00     0.008 C 
ENDROOT
BRANCH   2   7
ATOM      7  C   UNL     1      -0.782   1.642  12.470  1.00  0.00    -0.011 C 
ATOM      8  C   UNL     1      -1.040   0.228  11.928  1.00  0.00     0.008 C 
BRANCH   7   9
ATOM      9  C   UNL     1      -1.703   1.902  13.691  1.00  0.00     0.004 CG0
ATOM     10  G   UNL     1      -1.779   3.370  14.110  1.00  0.00     0.000 G0
ENDBRANCH   7   9
ENDBRANCH   2   7
BRANCH   1  11
ATOM     11  C   UNL     1       0.380   4.367  13.010  1.00  0.00     0.006 C 
ATOM     12  C   UNL     1      -0.380   3.963  14.285  1.00  0.00    -0.001 C 
ATOM     13  C   UNL     1      -0.123   5.452  13.998  1.00  0.00    -0.029 C 
ATOM     14  C   UNL     1       0.967   6.063  14.888  1.00  0.00     0.012 C 
ATOM     15  C   UNL     1      -1.365   6.348  13.816  1.00  0.00     0.012 C 
BRANCH  12  16
ATOM     16  C   UNL     1      -1.781   3.369  14.103  1.00  0.00     0.005 CG0
ATOM     17  G   UNL     1      -1.695   1.898  13.696  1.00  0.00     0.000 G0
ENDBRANCH  12  16
ENDBRANCH   1  11
TORSDOF 0
ENDMDL
MODEL 4
REMARK VINA RESULT:    -4.231      2.075      4.622
REMARK INTER + INTRA:          -4.083
REMARK INTER:                  -5.215
REMARK INTRA:                   1.132
REMARK UNBOUND:                 1.137
REMARK SMILES C=C1CC[C@H]2[C@@H]1[C@@H]1[C@H](CC[C@H]2C)C1(C)C
REMARK SMILES IDX 6 1 5 2 4 3 3 4 2 5 1 6 11 7 12 8 10 9 7 11 8 12 13 13 14 14
REMARK SMILES IDX 15 15 9 16
REMARK H PARENT
REMARK Flexibility Score: 80.00
ROOT
ATOM      1  C   UNL     1      -2.380   4.425  12.268  1.00  0.00     0.022 C 
ATOM      2  C   UNL     1      -2.065   5.947  12.320  1.00  0.00    -0.000 C 
ATOM      3  C   UNL     1      -0.865   6.203  11.378  1.00  0.00     0.009 C 
ATOM      4  C   UNL     1      -0.616   4.921  10.581  1.00  0.00     0.031 C 
ATOM      5  C   UNL     1      -1.544   3.904  11.148  1.00  0.00    -0.074 C 
ATOM      6  C   UNL     1      -1.751   2.715  10.567  1.00  0.00     0.008 C 
ENDROOT
BRANCH   2   7
ATOM      7  C   UNL     1      -1.942   6.590  13.737  1.00  0.00    -0.011 C 
ATOM      8  C   UNL     1      -2.104   8.116  13.655  1.00  0.00     0.008 C 
BRANCH   7   9
ATOM      9  C   UNL     1      -0.643   6.251  14.513  1.00  0.00     0.004 CG0
ATOM     10  G   UNL     1      -0.198   4.795  14.374  1.00  0.00     0.000 G0
ENDBRANCH   7   9
ENDBRANCH   2   7
BRANCH   1  11
ATOM     11  C   UNL     1      -2.408   3.618  13.612  1.00  0.00     0.006 C 
ATOM     12  C   UNL     1      -1.346   3.843  14.703  1.00  0.00    -0.001 C 
ATOM     13  C   UNL     1      -1.439   2.474  14.009  1.00  0.00    -0.029 C 
ATOM     14  C   UNL     1      -2.062   1.385  14.894  1.00  0.00     0.012 C 
ATOM     15  C   UNL     1      -0.200   2.010  13.217  1.00  0.00     0.012 C 
BRANCH  12  16
ATOM     16  C   UNL     1      -0.199   4.803  14.371  1.00  0.00     0.005 CG0
ATOM     17  G   UNL     1      -0.651   6.256  14.518  1.00  0.00     0.000 G0
ENDBRANCH  12  16
ENDBRANCH   1  11
TORSDOF 0
ENDMDL
MODEL 5
REMARK VINA RESULT:    -3.953      2.471      4.576
REMARK INTER + INTRA:          -3.740
REMARK INTER:                  -4.879
REMARK INTRA:                   1.139
REMARK UNBOUND:                 1.137
REMARK SMILES C=C1CC[C@H]2[C@@H]1[C@@H]1[C@H](CC[C@H]2C)C1(C)C
REMARK SMILES IDX 6 1 5 2 4 3 3 4 2 5 1 6 11 7 12 8 10 9 7 11 8 12 13 13 14 14
REMARK SMILES IDX 15 15 9 16
REMARK H PARENT
REMARK Flexibility Score: 80.00
ROOT
ATOM      1  C   UNL     1      -0.238   4.070  11.662  1.00  0.00     0.022 C 
ATOM      2  C   UNL     1       0.480   4.156  13.039  1.00  0.00    -0.000 C 
ATOM      3  C   UNL     1      -0.228   3.165  13.991  1.00  0.00     0.009 C 
ATOM      4  C   UNL     1      -1.184   2.314  13.153  1.00  0.00     0.031 C 
ATOM      5  C   UNL     1      -1.146   2.894  11.782  1.00  0.00    -0.074 C 
ATOM      6  C   UNL     1      -1.705   2.285  10.727  1.00  0.00     0.008 C 
ENDROOT
BRANCH   2   7
ATOM      7  C   UNL     1       0.708   5.586  13.623  1.00  0.00    -0.011 C 
ATOM      8  C   UNL     1       1.810   5.564  14.694  1.00  0.00     0.008 C 
BRANCH   7   9
ATOM      9  C   UNL     1      -0.554   6.281  14.197  1.00  0.00     0.004 CG0
ATOM     10  G   UNL     1      -1.811   6.082  13.351  1.00  0.00     0.000 G0
ENDBRANCH   7   9
ENDBRANCH   2   7
BRANCH   1  11
ATOM     11  C   UNL     1      -0.806   5.387  11.029  1.00  0.00     0.006 C 
ATOM     12  C   UNL     1      -1.554   6.427  11.882  1.00  0.00    -0.001 C 
ATOM     13  C   UNL     1      -2.302   5.695  10.755  1.00  0.00    -0.029 C 
ATOM     14  C   UNL     1      -2.561   6.576   9.525  1.00  0.00     0.012 C 
ATOM     15  C   UNL     1      -3.505   4.824  11.171  1.00  0.00     0.012 C 
BRANCH  12  16
ATOM     16  C   UNL     1      -1.817   6.067  13.348  1.00  0.00     0.005 CG0
ATOM     17  G   UNL     1      -0.561   6.287  14.191  1.00  0.00     0.000 G0
ENDBRANCH  12  16
ENDBRANCH   1  11
TORSDOF 0
ENDMDL
MODEL 6
REMARK VINA RESULT:    -3.833      3.129      5.671
REMARK INTER + INTRA:          -3.592
REMARK INTER:                  -4.721
REMARK INTRA:                   1.129
REMARK UNBOUND:                 1.137
REMARK SMILES C=C1CC[C@H]2[C@@H]1[C@@H]1[C@H](CC[C@H]2C)C1(C)C
REMARK SMILES IDX 6 1 5 2 4 3 3 4 2 5 1 6 11 7 12 8 10 9 7 11 8 12 13 13 14 14
REMARK SMILES IDX 15 15 9 16
REMARK H PARENT
REMARK Flexibility Score: 80.00
ROOT
ATOM      1  C   UNL     1      -0.649   4.509  12.649  1.00  0.00     0.022 C 
ATOM      2  C   UNL     1       0.422   5.527  13.134  1.00  0.00    -0.000 C 
ATOM      3  C   UNL     1       0.140   5.816  14.627  1.00  0.00     0.009 C 
ATOM      4  C   UNL     1      -0.912   4.814  15.106  1.00  0.00     0.031 C 
ATOM      5  C   UNL     1      -1.340   4.065  13.892  1.00  0.00    -0.074 C 
ATOM      6  C   UNL     1      -2.105   2.967  13.957  1.00  0.00     0.008 C 
ENDROOT
BRANCH   2   7
ATOM      7  C   UNL     1       0.641   6.792  12.246  1.00  0.00    -0.011 C 
ATOM      8  C   UNL     1       2.001   7.439  12.551  1.00  0.00     0.008 C 
BRANCH   7   9
ATOM      9  C   UNL     1      -0.473   7.868  12.331  1.00  0.00     0.004 CG0
ATOM     10  G   UNL     1      -1.889   7.295  12.370  1.00  0.00     0.000 G0
ENDBRANCH   7   9
ENDBRANCH   2   7
BRANCH   1  11
ATOM     11  C   UNL     1      -1.526   4.879  11.402  1.00  0.00     0.006 C 
ATOM     12  C   UNL     1      -2.107   6.293  11.224  1.00  0.00    -0.001 C 
ATOM     13  C   UNL     1      -3.061   5.101  11.401  1.00  0.00    -0.029 C 
ATOM     14  C   UNL     1      -3.767   4.689  10.102  1.00  0.00     0.012 C 
ATOM     15  C   UNL     1      -3.981   5.125  12.639  1.00  0.00     0.012 C 
BRANCH  12  16
ATOM     16  C   UNL     1      -1.886   7.287  12.370  1.00  0.00     0.005 CG0
ATOM     17  G   UNL     1      -0.471   7.861  12.321  1.00  0.00     0.000 G0
ENDBRANCH  12  16
ENDBRANCH   1  11
TORSDOF 0
ENDMDL
MODEL 7
REMARK VINA RESULT:    -3.645      3.110      5.014
REMARK INTER + INTRA:          -3.361
REMARK INTER:                  -4.496
REMARK INTRA:                   1.135
REMARK UNBOUND:                 1.137
REMARK SMILES C=C1CC[C@H]2[C@@H]1[C@@H]1[C@H](CC[C@H]2C)C1(C)C
REMARK SMILES IDX 6 1 5 2 4 3 3 4 2 5 1 6 11 7 12 8 10 9 7 11 8 12 13 13 14 14
REMARK SMILES IDX 15 15 9 16
REMARK H PARENT
REMARK Flexibility Score: 80.00
ROOT
ATOM      1  C   UNL     1      -2.389   4.429  10.930  1.00  0.00     0.022 C 
ATOM      2  C   UNL     1      -1.899   3.826  12.277  1.00  0.00    -0.000 C 
ATOM      3  C   UNL     1      -2.906   4.256  13.369  1.00  0.00     0.009 C 
ATOM      4  C   UNL     1      -4.111   4.887  12.671  1.00  0.00     0.031 C 
ATOM      5  C   UNL     1      -3.750   4.961  11.227  1.00  0.00    -0.074 C 
ATOM      6  C   UNL     1      -4.641   5.274  10.277  1.00  0.00     0.008 C 
ENDROOT
BRANCH   2   7
ATOM      7  C   UNL     1      -0.396   4.048  12.639  1.00  0.00    -0.011 C 
ATOM      8  C   UNL     1       0.060   3.036  13.702  1.00  0.00     0.008 C 
BRANCH   7   9
ATOM      9  C   UNL     1      -0.025   5.481  13.100  1.00  0.00     0.004 CG0
ATOM     10  G   UNL     1      -0.714   6.588  12.302  1.00  0.00     0.000 G0
ENDBRANCH   7   9
ENDBRANCH   2   7
BRANCH   1  11
ATOM     11  C   UNL     1      -1.403   5.328  10.107  1.00  0.00     0.006 C 
ATOM     12  C   UNL     1      -0.511   6.376  10.796  1.00  0.00    -0.001 C 
ATOM     13  C   UNL     1      -1.587   6.837   9.798  1.00  0.00    -0.029 C 
ATOM     14  C   UNL     1      -1.010   7.289   8.449  1.00  0.00     0.012 C 
ATOM     15  C   UNL     1      -2.698   7.753  10.348  1.00  0.00     0.012 C 
BRANCH  12  16
ATOM     16  C   UNL     1      -0.712   6.581  12.301  1.00  0.00     0.005 CG0
ATOM     17  G   UNL     1      -0.011   5.478  13.094  1.00  0.00     0.000 G0
ENDBRANCH  12  16
ENDBRANCH   1  11
TORSDOF 0
ENDMDL
MODEL 8
REMARK VINA RESULT:    -3.585      2.976      4.969
REMARK INTER + INTRA:          -3.287
REMARK INTER:                  -4.418
REMARK INTRA:                   1.131
REMARK UNBOUND:                 1.137
REMARK SMILES C=C1CC[C@H]2[C@@H]1[C@@H]1[C@H](CC[C@H]2C)C1(C)C
REMARK SMILES IDX 6 1 5 2 4 3 3 4 2 5 1 6 11 7 12 8 10 9 7 11 8 12 13 13 14 14
REMARK SMILES IDX 15 15 9 16
REMARK H PARENT
REMARK Flexibility Score: 80.00
ROOT
ATOM      1  C   UNL     1      -2.209   5.126  10.081  1.00  0.00     0.022 C 
ATOM      2  C   UNL     1      -3.631   5.748  10.169  1.00  0.00    -0.000 C 
ATOM      3  C   UNL     1      -3.457   7.263  10.426  1.00  0.00     0.009 C 
ATOM      4  C   UNL     1      -1.976   7.600  10.248  1.00  0.00     0.031 C 
ATOM      5  C   UNL     1      -1.286   6.295  10.043  1.00  0.00    -0.074 C 
ATOM      6  C   UNL     1      -0.007   6.211   9.653  1.00  0.00     0.008 C 
ENDROOT
BRANCH   2   7
ATOM      7  C   UNL     1      -4.654   5.031  11.105  1.00  0.00    -0.011 C 
ATOM      8  C   UNL     1      -6.093   5.427  10.739  1.00  0.00     0.008 C 
BRANCH   7   9
ATOM      9  C   UNL     1      -4.432   5.246  12.625  1.00  0.00     0.004 CG0
ATOM     10  G   UNL     1      -2.965   5.199  13.051  1.00  0.00     0.000 G0
ENDBRANCH   7   9
ENDBRANCH   2   7
BRANCH   1  11
ATOM     11  C   UNL     1      -1.854   3.929  11.031  1.00  0.00     0.006 C 
ATOM     12  C   UNL     1      -2.279   3.928  12.510  1.00  0.00    -0.001 C 
ATOM     13  C   UNL     1      -0.783   3.943  12.153  1.00  0.00    -0.029 C 
ATOM     14  C   UNL     1      -0.088   2.595  12.392  1.00  0.00     0.012 C 
ATOM     15  C   UNL     1       0.031   5.165  12.624  1.00  0.00     0.012 C 
BRANCH  12  16
ATOM     16  C   UNL     1      -2.962   5.193  13.040  1.00  0.00     0.005 CG0
ATOM     17  G   UNL     1      -4.430   5.232  12.614  1.00  0.00     0.000 G0
ENDBRANCH  12  16
ENDBRANCH   1  11
TORSDOF 0
ENDMDL
MODEL 9
REMARK VINA RESULT:    -3.565     11.738     13.456
REMARK INTER + INTRA:          -3.262
REMARK INTER:                  -4.397
REMARK INTRA:                   1.135
REMARK UNBOUND:                 1.137
REMARK SMILES C=C1CC[C@H]2[C@@H]1[C@@H]1[C@H](CC[C@H]2C)C1(C)C
REMARK SMILES IDX 6 1 5 2 4 3 3 4 2 5 1 6 11 7 12 8 10 9 7 11 8 12 13 13 14 14
REMARK SMILES IDX 15 15 9 16
REMARK H PARENT
REMARK Flexibility Score: 80.00
ROOT
ATOM      1  C   UNL     1      -0.673  -9.321  11.373  1.00  0.00     0.022 C 
ATOM      2  C   UNL     1      -1.559 -10.154  10.404  1.00  0.00    -0.000 C 
ATOM      3  C   UNL     1      -2.454 -11.071  11.269  1.00  0.00     0.009 C 
ATOM      4  C   UNL     1      -2.302 -10.632  12.726  1.00  0.00     0.031 C 
ATOM      5  C   UNL     1      -1.236  -9.591  12.727  1.00  0.00    -0.074 C 
ATOM      6  C   UNL     1      -0.971  -8.833  13.799  1.00  0.00     0.008 C 
ENDROOT
BRANCH   2   7
ATOM      7  C   UNL     1      -0.828 -10.866   9.222  1.00  0.00    -0.011 C 
ATOM      8  C   UNL     1      -1.825 -11.238   8.114  1.00  0.00     0.008 C 
BRANCH   7   9
ATOM      9  C   UNL     1       0.002 -12.117   9.609  1.00  0.00     0.004 CG0
ATOM     10  G   UNL     1       0.780 -11.967  10.916  1.00  0.00     0.000 G0
ENDBRANCH   7   9
ENDBRANCH   2   7
BRANCH   1  11
ATOM     11  C   UNL     1       0.885  -9.368  11.193  1.00  0.00     0.006 C 
ATOM     12  C   UNL     1       1.618 -10.690  10.903  1.00  0.00    -0.001 C 
ATOM     13  C   UNL     1       1.904  -9.939  12.215  1.00  0.00    -0.029 C 
ATOM     14  C   UNL     1       3.265  -9.231  12.225  1.00  0.00     0.012 C 
ATOM     15  C   UNL     1       1.566 -10.678  13.526  1.00  0.00     0.012 C 
BRANCH  12  16
ATOM     16  C   UNL     1       0.775 -11.970  10.911  1.00  0.00     0.005 CG0
ATOM     17  G   UNL     1       0.005 -12.117   9.599  1.00  0.00     0.000 G0
ENDBRANCH  12  16
ENDBRANCH   1  11
TORSDOF 0
ENDMDL
