MODEL 1
REMARK VINA RESULT:    -5.605      0.000      0.000
REMARK INTER + INTRA:          -6.381
REMARK INTER:                  -6.424
REMARK INTRA:                   0.043
REMARK UNBOUND:                 0.043
REMARK SMILES O=C([O-])C=Cc1ccc(O)cc1
REMARK SMILES IDX 6 1 7 2 12 3 8 4 11 5 9 6 5 7 4 8 2 9 1 10 3 11 10 12
REMARK H PARENT 10 13
REMARK Flexibility Score: inf
ROOT
ATOM      1  C   UNL     1     -32.355  10.507 -37.894  1.00  0.00    -0.025 A 
ATOM      2  C   UNL     1     -32.518  11.834 -37.470  1.00  0.00     0.012 A 
ATOM      3  C   UNL     1     -33.132  10.027 -38.964  1.00  0.00     0.012 A 
ATOM      4  C   UNL     1     -33.404  12.686 -38.137  1.00  0.00     0.047 A 
ATOM      5  C   UNL     1     -34.017  10.881 -39.631  1.00  0.00     0.047 A 
ATOM      6  C   UNL     1     -34.152  12.213 -39.220  1.00  0.00     0.115 A 
ENDROOT
BRANCH   1   7
ATOM      7  C   UNL     1     -31.454   9.611 -37.141  1.00  0.00     0.010 C 
ATOM      8  C   UNL     1     -31.454   9.447 -35.808  1.00  0.00     0.025 C 
BRANCH   8   9
ATOM      9  C   UNL     1     -32.460   9.988 -34.874  1.00  0.00     0.064 C 
ATOM     10  O   UNL     1     -33.630   9.523 -34.822  1.00  0.00    -0.545 OA
ATOM     11  O   UNL     1     -32.089  10.986 -33.983  1.00  0.00    -0.545 OA
ENDBRANCH   8   9
ENDBRANCH   1   7
BRANCH   6  12
ATOM     12  O   UNL     1     -35.030  13.074 -39.876  1.00  0.00    -0.508 OA
ATOM     13  H   UNL     1     -36.018  12.862 -39.956  1.00  0.00     0.293 HD
ENDBRANCH   6  12
TORSDOF 3
ENDMDL
MODEL 2
REMARK VINA RESULT:    -5.598      0.205      1.693
REMARK INTER + INTRA:          -6.373
REMARK INTER:                  -6.370
REMARK INTRA:                  -0.003
REMARK UNBOUND:                 0.043
REMARK SMILES O=C([O-])C=Cc1ccc(O)cc1
REMARK SMILES IDX 6 1 7 2 12 3 8 4 11 5 9 6 5 7 4 8 2 9 1 10 3 11 10 12
REMARK H PARENT 10 13
REMARK Flexibility Score: inf
ROOT
ATOM      1  C   UNL     1     -32.579  10.407 -37.831  1.00  0.00    -0.025 A 
ATOM      2  C   UNL     1     -33.275   9.985 -38.973  1.00  0.00     0.012 A 
ATOM      3  C   UNL     1     -32.666  11.752 -37.431  1.00  0.00     0.012 A 
ATOM      4  C   UNL     1     -34.089  10.879 -39.676  1.00  0.00     0.047 A 
ATOM      5  C   UNL     1     -33.481  12.645 -38.134  1.00  0.00     0.047 A 
ATOM      6  C   UNL     1     -34.197  12.209 -39.257  1.00  0.00     0.115 A 
ENDROOT
BRANCH   1   7
ATOM      7  C   UNL     1     -31.684   9.458 -37.136  1.00  0.00     0.010 C 
ATOM      8  C   UNL     1     -31.635   9.265 -35.808  1.00  0.00     0.025 C 
BRANCH   8   9
ATOM      9  C   UNL     1     -32.577   9.823 -34.820  1.00  0.00     0.064 C 
ATOM     10  O   UNL     1     -32.230  10.730 -34.016  1.00  0.00    -0.545 OA
ATOM     11  O   UNL     1     -33.896   9.390 -34.822  1.00  0.00    -0.545 OA
ENDBRANCH   8   9
ENDBRANCH   1   7
BRANCH   6  12
ATOM     12  O   UNL     1     -35.012  13.089 -39.966  1.00  0.00    -0.508 OA
ATOM     13  H   UNL     1     -35.571  12.776 -40.751  1.00  0.00     0.293 HD
ENDBRANCH   6  12
TORSDOF 3
ENDMDL
MODEL 3
REMARK VINA RESULT:    -5.414      2.118      4.029
REMARK INTER + INTRA:          -6.162
REMARK INTER:                  -6.171
REMARK INTRA:                   0.009
REMARK UNBOUND:                 0.043
REMARK SMILES O=C([O-])C=Cc1ccc(O)cc1
REMARK SMILES IDX 6 1 7 2 12 3 8 4 11 5 9 6 5 7 4 8 2 9 1 10 3 11 10 12
REMARK H PARENT 10 13
REMARK Flexibility Score: inf
ROOT
ATOM      1  C   UNL     1     -32.024  10.324 -36.758  1.00  0.00    -0.025 A 
ATOM      2  C   UNL     1     -32.384   9.765 -35.522  1.00  0.00     0.012 A 
ATOM      3  C   UNL     1     -32.525  11.589 -37.111  1.00  0.00     0.012 A 
ATOM      4  C   UNL     1     -33.187  10.481 -34.630  1.00  0.00     0.047 A 
ATOM      5  C   UNL     1     -33.329  12.304 -36.217  1.00  0.00     0.047 A 
ATOM      6  C   UNL     1     -33.658  11.752 -34.972  1.00  0.00     0.115 A 
ENDROOT
BRANCH   1   7
ATOM      7  C   UNL     1     -31.219   9.527 -37.707  1.00  0.00     0.010 C 
ATOM      8  C   UNL     1     -31.686   8.932 -38.816  1.00  0.00     0.025 C 
BRANCH   8   9
ATOM      9  C   UNL     1     -33.036   9.108 -39.385  1.00  0.00     0.064 C 
ATOM     10  O   UNL     1     -34.073   8.876 -38.708  1.00  0.00    -0.545 OA
ATOM     11  O   UNL     1     -33.167   9.606 -40.674  1.00  0.00    -0.545 OA
ENDBRANCH   8   9
ENDBRANCH   1   7
BRANCH   6  12
ATOM     12  O   UNL     1     -34.457  12.454 -34.073  1.00  0.00    -0.508 OA
ATOM     13  H   UNL     1     -35.451  12.271 -33.992  1.00  0.00     0.293 HD
ENDBRANCH   6  12
TORSDOF 3
ENDMDL
MODEL 4
REMARK VINA RESULT:    -5.348      1.794      4.389
REMARK INTER + INTRA:          -6.086
REMARK INTER:                  -6.033
REMARK INTRA:                  -0.054
REMARK UNBOUND:                 0.043
REMARK SMILES O=C([O-])C=Cc1ccc(O)cc1
REMARK SMILES IDX 6 1 7 2 12 3 8 4 11 5 9 6 5 7 4 8 2 9 1 10 3 11 10 12
REMARK H PARENT 10 13
REMARK Flexibility Score: inf
ROOT
ATOM      1  C   UNL     1     -33.241  10.576 -37.682  1.00  0.00    -0.025 A 
ATOM      2  C   UNL     1     -32.915  11.897 -37.338  1.00  0.00     0.012 A 
ATOM      3  C   UNL     1     -33.923   9.772 -36.751  1.00  0.00     0.012 A 
ATOM      4  C   UNL     1     -33.311  12.424 -36.104  1.00  0.00     0.047 A 
ATOM      5  C   UNL     1     -34.319  10.302 -35.518  1.00  0.00     0.047 A 
ATOM      6  C   UNL     1     -34.016  11.631 -35.194  1.00  0.00     0.115 A 
ENDROOT
BRANCH   1   7
ATOM      7  C   UNL     1     -32.766  10.024 -38.967  1.00  0.00     0.010 C 
ATOM      8  C   UNL     1     -33.434  10.077 -40.131  1.00  0.00     0.025 C 
BRANCH   8   9
ATOM      9  C   UNL     1     -34.670  10.843 -40.382  1.00  0.00     0.064 C 
ATOM     10  O   UNL     1     -35.718  10.285 -40.803  1.00  0.00    -0.545 OA
ATOM     11  O   UNL     1     -34.699  12.198 -40.081  1.00  0.00    -0.545 OA
ENDBRANCH   8   9
ENDBRANCH   1   7
BRANCH   6  12
ATOM     12  O   UNL     1     -34.405  12.169 -33.970  1.00  0.00    -0.508 OA
ATOM     13  H   UNL     1     -33.853  12.882 -33.505  1.00  0.00     0.293 HD
ENDBRANCH   6  12
TORSDOF 3
ENDMDL
MODEL 5
REMARK VINA RESULT:    -5.265      2.409      4.872
REMARK INTER + INTRA:          -5.991
REMARK INTER:                  -5.916
REMARK INTRA:                  -0.075
REMARK UNBOUND:                 0.043
REMARK SMILES O=C([O-])C=Cc1ccc(O)cc1
REMARK SMILES IDX 6 1 7 2 12 3 8 4 11 5 9 6 5 7 4 8 2 9 1 10 3 11 10 12
REMARK H PARENT 10 13
REMARK Flexibility Score: inf
ROOT
ATOM      1  C   UNL     1     -33.291  10.927 -35.199  1.00  0.00    -0.025 A 
ATOM      2  C   UNL     1     -34.039  12.097 -34.999  1.00  0.00     0.012 A 
ATOM      3  C   UNL     1     -32.146  10.702 -34.414  1.00  0.00     0.012 A 
ATOM      4  C   UNL     1     -33.682  13.002 -33.995  1.00  0.00     0.047 A 
ATOM      5  C   UNL     1     -31.790  11.608 -33.410  1.00  0.00     0.047 A 
ATOM      6  C   UNL     1     -32.561  12.758 -33.196  1.00  0.00     0.115 A 
ENDROOT
BRANCH   1   7
ATOM      7  C   UNL     1     -33.656  10.013 -36.301  1.00  0.00     0.010 C 
ATOM      8  C   UNL     1     -33.671  10.333 -37.605  1.00  0.00     0.025 C 
BRANCH   8   9
ATOM      9  C   UNL     1     -33.160  11.586 -38.191  1.00  0.00     0.064 C 
ATOM     10  O   UNL     1     -31.941  11.897 -38.125  1.00  0.00    -0.545 OA
ATOM     11  O   UNL     1     -34.032  12.410 -38.892  1.00  0.00    -0.545 OA
ENDBRANCH   8   9
ENDBRANCH   1   7
BRANCH   6  12
ATOM     12  O   UNL     1     -32.217  13.668 -32.199  1.00  0.00    -0.508 OA
ATOM     13  H   UNL     1     -31.250  13.911 -32.014  1.00  0.00     0.293 HD
ENDBRANCH   6  12
TORSDOF 3
ENDMDL
MODEL 6
REMARK VINA RESULT:    -5.163      2.545      4.552
REMARK INTER + INTRA:          -5.874
REMARK INTER:                  -5.590
REMARK INTRA:                  -0.284
REMARK UNBOUND:                 0.043
REMARK SMILES O=C([O-])C=Cc1ccc(O)cc1
REMARK SMILES IDX 6 1 7 2 12 3 8 4 11 5 9 6 5 7 4 8 2 9 1 10 3 11 10 12
REMARK H PARENT 10 13
REMARK Flexibility Score: inf
ROOT
ATOM      1  C   UNL     1     -33.376  10.476 -35.155  1.00  0.00    -0.025 A 
ATOM      2  C   UNL     1     -32.266  10.355 -34.305  1.00  0.00     0.012 A 
ATOM      3  C   UNL     1     -34.100  11.682 -35.172  1.00  0.00     0.012 A 
ATOM      4  C   UNL     1     -31.853  11.439 -33.524  1.00  0.00     0.047 A 
ATOM      5  C   UNL     1     -33.684  12.765 -34.391  1.00  0.00     0.047 A 
ATOM      6  C   UNL     1     -32.557  12.646 -33.567  1.00  0.00     0.115 A 
ENDROOT
BRANCH   1   7
ATOM      7  C   UNL     1     -33.826   9.302 -35.930  1.00  0.00     0.010 C 
ATOM      8  C   UNL     1     -33.464   9.018 -37.192  1.00  0.00     0.025 C 
BRANCH   8   9
ATOM      9  C   UNL     1     -32.424   9.717 -37.970  1.00  0.00     0.064 C 
ATOM     10  O   UNL     1     -32.667  10.794 -38.578  1.00  0.00    -0.545 OA
ATOM     11  O   UNL     1     -31.129   9.214 -37.974  1.00  0.00    -0.545 OA
ENDBRANCH   8   9
ENDBRANCH   1   7
BRANCH   6  12
ATOM     12  O   UNL     1     -32.133  13.718 -32.785  1.00  0.00    -0.508 OA
ATOM     13  H   UNL     1     -32.424  13.816 -31.818  1.00  0.00     0.293 HD
ENDBRANCH   6  12
TORSDOF 3
ENDMDL
MODEL 7
REMARK VINA RESULT:    -4.973      2.347      3.321
REMARK INTER + INTRA:          -5.656
REMARK INTER:                  -5.725
REMARK INTRA:                   0.068
REMARK UNBOUND:                 0.043
REMARK SMILES O=C([O-])C=Cc1ccc(O)cc1
REMARK SMILES IDX 6 1 7 2 12 3 8 4 11 5 9 6 5 7 4 8 2 9 1 10 3 11 10 12
REMARK H PARENT 10 13
REMARK Flexibility Score: inf
ROOT
ATOM      1  C   UNL     1     -33.467  11.723 -36.050  1.00  0.00    -0.025 A 
ATOM      2  C   UNL     1     -32.678  12.275 -37.071  1.00  0.00     0.012 A 
ATOM      3  C   UNL     1     -33.767  10.350 -36.080  1.00  0.00     0.012 A 
ATOM      4  C   UNL     1     -32.152  11.458 -38.077  1.00  0.00     0.047 A 
ATOM      5  C   UNL     1     -33.239   9.535 -37.086  1.00  0.00     0.047 A 
ATOM      6  C   UNL     1     -32.428  10.087 -38.086  1.00  0.00     0.115 A 
ENDROOT
BRANCH   1   7
ATOM      7  C   UNL     1     -34.055  12.613 -35.028  1.00  0.00     0.010 C 
ATOM      8  C   UNL     1     -33.537  12.852 -33.812  1.00  0.00     0.025 C 
BRANCH   8   9
ATOM      9  C   UNL     1     -32.208  12.418 -33.341  1.00  0.00     0.064 C 
ATOM     10  O   UNL     1     -31.453  13.191 -32.693  1.00  0.00    -0.545 OA
ATOM     11  O   UNL     1     -31.809  11.105 -33.556  1.00  0.00    -0.545 OA
ENDBRANCH   8   9
ENDBRANCH   1   7
BRANCH   6  12
ATOM     12  O   UNL     1     -31.896   9.286 -39.093  1.00  0.00    -0.508 OA
ATOM     13  H   UNL     1     -32.381   9.151 -39.974  1.00  0.00     0.293 HD
ENDBRANCH   6  12
TORSDOF 3
ENDMDL
MODEL 8
REMARK VINA RESULT:    -4.881      1.747      2.426
REMARK INTER + INTRA:          -5.551
REMARK INTER:                  -5.534
REMARK INTRA:                  -0.017
REMARK UNBOUND:                 0.043
REMARK SMILES O=C([O-])C=Cc1ccc(O)cc1
REMARK SMILES IDX 6 1 7 2 12 3 8 4 11 5 9 6 5 7 4 8 2 9 1 10 3 11 10 12
REMARK H PARENT 10 13
REMARK Flexibility Score: inf
ROOT
ATOM      1  C   UNL     1     -33.244  11.556 -37.992  1.00  0.00    -0.025 A 
ATOM      2  C   UNL     1     -34.218  11.883 -38.947  1.00  0.00     0.012 A 
ATOM      3  C   UNL     1     -32.481  10.387 -38.162  1.00  0.00     0.012 A 
ATOM      4  C   UNL     1     -34.391  11.086 -40.083  1.00  0.00     0.047 A 
ATOM      5  C   UNL     1     -32.655   9.591 -39.299  1.00  0.00     0.047 A 
ATOM      6  C   UNL     1     -33.608   9.941 -40.263  1.00  0.00     0.115 A 
ENDROOT
BRANCH   1   7
ATOM      7  C   UNL     1     -33.117  12.383 -36.774  1.00  0.00     0.010 C 
ATOM      8  C   UNL     1     -33.331  11.958 -35.519  1.00  0.00     0.025 C 
BRANCH   8   9
ATOM      9  C   UNL     1     -33.556  10.559 -35.109  1.00  0.00     0.064 C 
ATOM     10  O   UNL     1     -34.701  10.035 -35.150  1.00  0.00    -0.545 OA
ATOM     11  O   UNL     1     -32.469   9.780 -34.734  1.00  0.00    -0.545 OA
ENDBRANCH   8   9
ENDBRANCH   1   7
BRANCH   6  12
ATOM     12  O   UNL     1     -33.790   9.156 -41.400  1.00  0.00    -0.508 OA
ATOM     13  H   UNL     1     -34.507   8.441 -41.440  1.00  0.00     0.293 HD
ENDBRANCH   6  12
TORSDOF 3
ENDMDL
MODEL 9
REMARK VINA RESULT:    -4.847      1.272      4.710
REMARK INTER + INTRA:          -5.513
REMARK INTER:                  -5.704
REMARK INTRA:                   0.192
REMARK UNBOUND:                 0.043
REMARK SMILES O=C([O-])C=Cc1ccc(O)cc1
REMARK SMILES IDX 6 1 7 2 12 3 8 4 11 5 9 6 5 7 4 8 2 9 1 10 3 11 10 12
REMARK H PARENT 10 13
REMARK Flexibility Score: inf
ROOT
ATOM      1  C   UNL     1     -33.158   9.431 -37.606  1.00  0.00    -0.025 A 
ATOM      2  C   UNL     1     -34.233   9.480 -36.706  1.00  0.00     0.012 A 
ATOM      3  C   UNL     1     -31.863   9.725 -37.145  1.00  0.00     0.012 A 
ATOM      4  C   UNL     1     -34.012   9.765 -35.355  1.00  0.00     0.047 A 
ATOM      5  C   UNL     1     -31.643  10.010 -35.794  1.00  0.00     0.047 A 
ATOM      6  C   UNL     1     -32.717  10.027 -34.895  1.00  0.00     0.115 A 
ENDROOT
BRANCH   1   7
ATOM      7  C   UNL     1     -33.423   9.180 -39.038  1.00  0.00     0.010 C 
ATOM      8  C   UNL     1     -33.950  10.066 -39.898  1.00  0.00     0.025 C 
BRANCH   8   9
ATOM      9  C   UNL     1     -34.193  11.495 -39.624  1.00  0.00     0.064 C 
ATOM     10  O   UNL     1     -33.498  12.134 -38.789  1.00  0.00    -0.545 OA
ATOM     11  O   UNL     1     -35.164  12.169 -40.353  1.00  0.00    -0.545 OA
ENDBRANCH   8   9
ENDBRANCH   1   7
BRANCH   6  12
ATOM     12  O   UNL     1     -32.511  10.309 -33.546  1.00  0.00    -0.508 OA
ATOM     13  H   UNL     1     -31.967  11.111 -33.250  1.00  0.00     0.293 HD
ENDBRANCH   6  12
TORSDOF 3
ENDMDL
