MODEL 1
REMARK VINA RESULT:    -2.307      0.000      0.000
REMARK INTER + INTRA:          -3.863
REMARK INTER:                  -3.521
REMARK INTRA:                  -0.343
REMARK UNBOUND:                -0.343
REMARK SMILES CC1=CCC[C@@H](C)C(=O)C[C@H](C(C)C)C(=O)C1
REMARK SMILES IDX 8 1 9 2 6 3 7 4 5 5 4 6 3 7 2 8 1 9 10 11 11 12 15 13 16 14
REMARK SMILES IDX 17 15 12 17 13 18 14 19
REMARK H PARENT
REMARK Flexibility Score: 70.00
ROOT
ATOM      1  C   UNL     1      72.543   5.406  32.921  1.00  0.00     0.136 C 
ATOM      2  O   UNL     1      72.588   6.235  33.819  1.00  0.00    -0.299 OA
ENDROOT
BRANCH   1   3
ATOM      3  C   UNL     1      71.744   5.699  31.671  1.00  0.00     0.053 C 
ATOM      4  C   UNL     1      72.156   7.036  31.047  1.00  0.00     0.016 C 
BRANCH   3   5
ATOM      5  C   UNL     1      70.236   5.673  32.020  1.00  0.00     0.015 C 
BRANCH   5   6
ATOM      6  C   UNL     1      69.499   4.350  31.729  1.00  0.00     0.028 C 
BRANCH   6   7
ATOM      7  C   UNL     1      70.226   3.328  30.880  1.00  0.00    -0.028 C 
ATOM      8  C   UNL     1      70.672   2.111  31.273  1.00  0.00    -0.070 CG0
ATOM      9  C   UNL     1      71.267   1.210  30.218  1.00  0.00     0.039 C 
ATOM     10  G   UNL     1      70.688   1.631  32.713  1.00  0.00     0.000 G0
ENDBRANCH   6   7
ENDBRANCH   5   6
ENDBRANCH   3   5
ENDBRANCH   1   3
BRANCH   1  11
ATOM     11  C   UNL     1      73.231   4.073  33.112  1.00  0.00     0.087 C 
BRANCH  11  12
ATOM     12  C   UNL     1      72.437   3.124  34.055  1.00  0.00     0.066 C 
BRANCH  12  13
ATOM     13  C   UNL     1      72.071   1.825  33.348  1.00  0.00     0.140 C 
ATOM     14  O   UNL     1      72.890   0.918  33.306  1.00  0.00    -0.299 OA
BRANCH  13  15
ATOM     15  C   UNL     1      70.711   1.611  32.713  1.00  0.00     0.106 CG0
ATOM     16  G   UNL     1      70.697   2.123  31.283  1.00  0.00     0.000 G0
ENDBRANCH  13  15
ENDBRANCH  12  13
BRANCH  12  17
ATOM     17  C   UNL     1      73.192   2.873  35.398  1.00  0.00    -0.006 C 
ATOM     18  C   UNL     1      72.776   3.817  36.539  1.00  0.00     0.008 C 
ATOM     19  C   UNL     1      74.715   2.918  35.203  1.00  0.00     0.008 C 
ENDBRANCH  12  17
ENDBRANCH  11  12
ENDBRANCH   1  11
TORSDOF 1
ENDMDL
MODEL 2
REMARK VINA RESULT:    -2.246      2.866      3.792
REMARK INTER + INTRA:          -3.770
REMARK INTER:                  -3.387
REMARK INTRA:                  -0.383
REMARK UNBOUND:                -0.343
REMARK SMILES CC1=CCC[C@@H](C)C(=O)C[C@H](C(C)C)C(=O)C1
REMARK SMILES IDX 8 1 9 2 6 3 7 4 5 5 4 6 3 7 2 8 1 9 10 11 11 12 15 13 16 14
REMARK SMILES IDX 17 15 12 17 13 18 14 19
REMARK H PARENT
REMARK Flexibility Score: 70.00
ROOT
ATOM      1  C   UNL     1      70.866   2.362  32.390  1.00  0.00     0.136 C 
ATOM      2  O   UNL     1      71.883   3.041  32.355  1.00  0.00    -0.299 OA
ENDROOT
BRANCH   1   3
ATOM      3  C   UNL     1      69.594   2.887  31.761  1.00  0.00     0.053 C 
ATOM      4  C   UNL     1      69.828   3.320  30.310  1.00  0.00     0.016 C 
BRANCH   3   5
ATOM      5  C   UNL     1      69.050   4.052  32.623  1.00  0.00     0.015 C 
BRANCH   5   6
ATOM      6  C   UNL     1      67.990   3.673  33.677  1.00  0.00     0.028 C 
BRANCH   6   7
ATOM      7  C   UNL     1      67.204   2.402  33.438  1.00  0.00    -0.028 C 
ATOM      8  C   UNL     1      67.159   1.309  34.237  1.00  0.00    -0.070 CG0
ATOM      9  C   UNL     1      66.208   0.201  33.853  1.00  0.00     0.039 C 
ATOM     10  G   UNL     1      68.061   1.091  35.439  1.00  0.00     0.000 G0
ENDBRANCH   6   7
ENDBRANCH   5   6
ENDBRANCH   3   5
ENDBRANCH   1   3
BRANCH   1  11
ATOM     11  C   UNL     1      70.884   1.042  33.125  1.00  0.00     0.087 C 
BRANCH  11  12
ATOM     12  C   UNL     1      70.595   1.204  34.646  1.00  0.00     0.066 C 
BRANCH  12  13
ATOM     13  C   UNL     1      69.367   0.405  35.062  1.00  0.00     0.140 C 
ATOM     14  O   UNL     1      69.437  -0.816  35.104  1.00  0.00    -0.299 OA
BRANCH  13  15
ATOM     15  C   UNL     1      68.064   1.075  35.448  1.00  0.00     0.106 CG0
ATOM     16  G   UNL     1      67.194   1.309  34.225  1.00  0.00     0.000 G0
ENDBRANCH  13  15
ENDBRANCH  12  13
BRANCH  12  17
ATOM     17  C   UNL     1      71.845   0.862  35.516  1.00  0.00    -0.006 C 
ATOM     18  C   UNL     1      72.699   2.083  35.899  1.00  0.00     0.008 C 
ATOM     19  C   UNL     1      72.722  -0.206  34.843  1.00  0.00     0.008 C 
ENDBRANCH  12  17
ENDBRANCH  11  12
ENDBRANCH   1  11
TORSDOF 1
ENDMDL
MODEL 3
REMARK VINA RESULT:    -2.176     17.648     19.118
REMARK INTER + INTRA:          -3.663
REMARK INTER:                  -3.387
REMARK INTRA:                  -0.276
REMARK UNBOUND:                -0.343
REMARK SMILES CC1=CCC[C@@H](C)C(=O)C[C@H](C(C)C)C(=O)C1
REMARK SMILES IDX 8 1 9 2 6 3 7 4 5 5 4 6 3 7 2 8 1 9 10 11 11 12 15 13 16 14
REMARK SMILES IDX 17 15 12 17 13 18 14 19
REMARK H PARENT
REMARK Flexibility Score: 70.00
ROOT
ATOM      1  C   UNL     1      63.116  11.462  46.945  1.00  0.00     0.136 C 
ATOM      2  O   UNL     1      62.044  10.927  47.195  1.00  0.00    -0.299 OA
ENDROOT
BRANCH   1   3
ATOM      3  C   UNL     1      64.048  11.834  48.076  1.00  0.00     0.053 C 
ATOM      4  C   UNL     1      64.184  10.688  49.085  1.00  0.00     0.016 C 
BRANCH   3   5
ATOM      5  C   UNL     1      63.532  13.128  48.751  1.00  0.00     0.015 C 
BRANCH   5   6
ATOM      6  C   UNL     1      64.473  14.348  48.677  1.00  0.00     0.028 C 
BRANCH   6   7
ATOM      7  C   UNL     1      65.740  14.193  47.864  1.00  0.00    -0.028 C 
ATOM      8  C   UNL     1      65.954  14.623  46.597  1.00  0.00    -0.070 CG0
ATOM      9  C   UNL     1      67.343  14.461  46.029  1.00  0.00     0.039 C 
ATOM     10  G   UNL     1      64.871  15.178  45.689  1.00  0.00     0.000 G0
ENDBRANCH   6   7
ENDBRANCH   5   6
ENDBRANCH   3   5
ENDBRANCH   1   3
BRANCH   1  11
ATOM     11  C   UNL     1      63.453  11.807  45.512  1.00  0.00     0.087 C 
BRANCH  11  12
ATOM     12  C   UNL     1      63.077  13.273  45.150  1.00  0.00     0.066 C 
BRANCH  12  13
ATOM     13  C   UNL     1      64.314  14.084  44.786  1.00  0.00     0.140 C 
ATOM     14  O   UNL     1      64.874  13.871  43.720  1.00  0.00    -0.299 OA
BRANCH  13  15
ATOM     15  C   UNL     1      64.861  15.168  45.694  1.00  0.00     0.106 CG0
ATOM     16  G   UNL     1      65.972  14.623  46.575  1.00  0.00     0.000 G0
ENDBRANCH  13  15
ENDBRANCH  12  13
BRANCH  12  17
ATOM     17  C   UNL     1      61.982  13.335  44.039  1.00  0.00    -0.006 C 
ATOM     18  C   UNL     1      61.564  14.764  43.648  1.00  0.00     0.008 C 
ATOM     19  C   UNL     1      60.745  12.509  44.423  1.00  0.00     0.008 C 
ENDBRANCH  12  17
ENDBRANCH  11  12
ENDBRANCH   1  11
TORSDOF 1
ENDMDL
MODEL 4
REMARK VINA RESULT:    -2.164      2.189      5.478
REMARK INTER + INTRA:          -3.644
REMARK INTER:                  -3.477
REMARK INTRA:                  -0.167
REMARK UNBOUND:                -0.343
REMARK SMILES CC1=CCC[C@@H](C)C(=O)C[C@H](C(C)C)C(=O)C1
REMARK SMILES IDX 8 1 9 2 6 3 7 4 5 5 4 6 3 7 2 8 1 9 10 11 11 12 15 13 16 14
REMARK SMILES IDX 17 15 12 17 13 18 14 19
REMARK H PARENT
REMARK Flexibility Score: 70.00
ROOT
ATOM      1  C   UNL     1      71.485   0.594  33.385  1.00  0.00     0.136 C 
ATOM      2  O   UNL     1      70.455   0.067  33.781  1.00  0.00    -0.299 OA
ENDROOT
BRANCH   1   3
ATOM      3  C   UNL     1      72.814   0.178  33.973  1.00  0.00     0.053 C 
ATOM      4  C   UNL     1      73.176  -1.256  33.571  1.00  0.00     0.016 C 
BRANCH   3   5
ATOM      5  C   UNL     1      72.756   0.340  35.512  1.00  0.00     0.015 C 
BRANCH   5   6
ATOM      6  C   UNL     1      72.328   1.729  36.028  1.00  0.00     0.028 C 
BRANCH   6   7
ATOM      7  C   UNL     1      73.276   2.881  35.773  1.00  0.00    -0.028 C 
ATOM      8  C   UNL     1      72.959   4.105  35.286  1.00  0.00    -0.070 CG0
ATOM      9  C   UNL     1      74.057   5.140  35.228  1.00  0.00     0.039 C 
ATOM     10  G   UNL     1      71.599   4.474  34.720  1.00  0.00     0.000 G0
ENDBRANCH   6   7
ENDBRANCH   5   6
ENDBRANCH   3   5
ENDBRANCH   1   3
BRANCH   1  11
ATOM     11  C   UNL     1      71.400   1.705  32.363  1.00  0.00     0.087 C 
BRANCH  11  12
ATOM     12  C   UNL     1      70.558   2.913  32.867  1.00  0.00     0.066 C 
BRANCH  12  13
ATOM     13  C   UNL     1      71.453   4.074  33.282  1.00  0.00     0.140 C 
ATOM     14  O   UNL     1      72.059   4.696  32.421  1.00  0.00    -0.299 OA
BRANCH  13  15
ATOM     15  C   UNL     1      71.599   4.499  34.729  1.00  0.00     0.106 CG0
ATOM     16  G   UNL     1      72.951   4.081  35.281  1.00  0.00     0.000 G0
ENDBRANCH  13  15
ENDBRANCH  12  13
BRANCH  12  17
ATOM     17  C   UNL     1      69.477   3.344  31.827  1.00  0.00    -0.006 C 
ATOM     18  C   UNL     1      68.077   2.764  32.097  1.00  0.00     0.008 C 
ATOM     19  C   UNL     1      69.917   3.015  30.391  1.00  0.00     0.008 C 
ENDBRANCH  12  17
ENDBRANCH  11  12
ENDBRANCH   1  11
TORSDOF 1
ENDMDL
MODEL 5
REMARK VINA RESULT:    -2.125     17.128     18.727
REMARK INTER + INTRA:          -3.585
REMARK INTER:                  -3.223
REMARK INTRA:                  -0.362
REMARK UNBOUND:                -0.343
REMARK SMILES CC1=CCC[C@@H](C)C(=O)C[C@H](C(C)C)C(=O)C1
REMARK SMILES IDX 8 1 9 2 6 3 7 4 5 5 4 6 3 7 2 8 1 9 10 11 11 12 15 13 16 14
REMARK SMILES IDX 17 15 12 17 13 18 14 19
REMARK H PARENT
REMARK Flexibility Score: 70.00
ROOT
ATOM      1  C   UNL     1      62.669  11.112  45.617  1.00  0.00     0.136 C 
ATOM      2  O   UNL     1      61.448  11.145  45.669  1.00  0.00    -0.299 OA
ENDROOT
BRANCH   1   3
ATOM      3  C   UNL     1      63.418   9.996  46.308  1.00  0.00     0.053 C 
ATOM      4  C   UNL     1      62.985   8.624  45.780  1.00  0.00     0.016 C 
BRANCH   3   5
ATOM      5  C   UNL     1      63.199  10.112  47.837  1.00  0.00     0.015 C 
BRANCH   5   6
ATOM      6  C   UNL     1      64.213  10.990  48.598  1.00  0.00     0.028 C 
BRANCH   6   7
ATOM      7  C   UNL     1      65.535  11.267  47.914  1.00  0.00    -0.028 C 
ATOM      8  C   UNL     1      66.010  12.472  47.517  1.00  0.00    -0.070 CG0
ATOM      9  C   UNL     1      67.412  12.522  46.960  1.00  0.00     0.039 C 
ATOM     10  G   UNL     1      65.196  13.754  47.516  1.00  0.00     0.000 G0
ENDBRANCH   6   7
ENDBRANCH   5   6
ENDBRANCH   3   5
ENDBRANCH   1   3
BRANCH   1  11
ATOM     11  C   UNL     1      63.409  12.234  44.923  1.00  0.00     0.087 C 
BRANCH  11  12
ATOM     12  C   UNL     1      63.289  13.586  45.684  1.00  0.00     0.066 C 
BRANCH  12  13
ATOM     13  C   UNL     1      64.653  14.081  46.146  1.00  0.00     0.140 C 
ATOM     14  O   UNL     1      65.328  14.763  45.387  1.00  0.00    -0.299 OA
BRANCH  13  15
ATOM     15  C   UNL     1      65.194  13.775  47.528  1.00  0.00     0.106 CG0
ATOM     16  G   UNL     1      65.998  12.487  47.520  1.00  0.00     0.000 G0
ENDBRANCH  13  15
ENDBRANCH  12  13
BRANCH  12  17
ATOM     17  C   UNL     1      62.524  14.658  44.848  1.00  0.00    -0.006 C 
ATOM     18  C   UNL     1      61.143  15.033  45.416  1.00  0.00     0.008 C 
ATOM     19  C   UNL     1      62.392  14.234  43.376  1.00  0.00     0.008 C 
ENDBRANCH  12  17
ENDBRANCH  11  12
ENDBRANCH   1  11
TORSDOF 1
ENDMDL
MODEL 6
REMARK VINA RESULT:    -2.117      2.881      4.006
REMARK INTER + INTRA:          -3.573
REMARK INTER:                  -3.370
REMARK INTRA:                  -0.203
REMARK UNBOUND:                -0.343
REMARK SMILES CC1=CCC[C@@H](C)C(=O)C[C@H](C(C)C)C(=O)C1
REMARK SMILES IDX 8 1 9 2 6 3 7 4 5 5 4 6 3 7 2 8 1 9 10 11 11 12 15 13 16 14
REMARK SMILES IDX 17 15 12 17 13 18 14 19
REMARK H PARENT
REMARK Flexibility Score: 70.00
ROOT
ATOM      1  C   UNL     1      71.671   2.085  32.654  1.00  0.00     0.136 C 
ATOM      2  O   UNL     1      71.561   3.203  32.171  1.00  0.00    -0.299 OA
ENDROOT
BRANCH   1   3
ATOM      3  C   UNL     1      70.733   0.984  32.214  1.00  0.00     0.053 C 
ATOM      4  C   UNL     1      71.040   0.530  30.783  1.00  0.00     0.016 C 
BRANCH   3   5
ATOM      5  C   UNL     1      69.273   1.480  32.353  1.00  0.00     0.015 C 
BRANCH   5   6
ATOM      6  C   UNL     1      68.656   1.373  33.763  1.00  0.00     0.028 C 
BRANCH   6   7
ATOM      7  C   UNL     1      68.706   0.018  34.436  1.00  0.00    -0.028 C 
ATOM      8  C   UNL     1      69.310  -0.288  35.609  1.00  0.00    -0.070 CG0
ATOM      9  C   UNL     1      69.127  -1.687  36.147  1.00  0.00     0.039 C 
ATOM     10  G   UNL     1      70.224   0.656  36.371  1.00  0.00     0.000 G0
ENDBRANCH   6   7
ENDBRANCH   5   6
ENDBRANCH   3   5
ENDBRANCH   1   3
BRANCH   1  11
ATOM     11  C   UNL     1      72.699   1.847  33.737  1.00  0.00     0.087 C 
BRANCH  11  12
ATOM     12  C   UNL     1      72.118   2.061  35.165  1.00  0.00     0.066 C 
BRANCH  12  13
ATOM     13  C   UNL     1      71.590   0.756  35.746  1.00  0.00     0.140 C 
ATOM     14  O   UNL     1      72.297  -0.242  35.712  1.00  0.00    -0.299 OA
BRANCH  13  15
ATOM     15  C   UNL     1      70.221   0.657  36.389  1.00  0.00     0.106 CG0
ATOM     16  G   UNL     1      69.323  -0.283  35.604  1.00  0.00     0.000 G0
ENDBRANCH  13  15
ENDBRANCH  12  13
BRANCH  12  17
ATOM     17  C   UNL     1      73.145   2.756  36.113  1.00  0.00    -0.006 C 
ATOM     18  C   UNL     1      72.502   3.634  37.201  1.00  0.00     0.008 C 
ATOM     19  C   UNL     1      74.179   3.571  35.319  1.00  0.00     0.008 C 
ENDBRANCH  12  17
ENDBRANCH  11  12
ENDBRANCH   1  11
TORSDOF 1
ENDMDL
MODEL 7
REMARK VINA RESULT:    -2.113     16.956     18.455
REMARK INTER + INTRA:          -3.568
REMARK INTER:                  -3.331
REMARK INTRA:                  -0.237
REMARK UNBOUND:                -0.343
REMARK SMILES CC1=CCC[C@@H](C)C(=O)C[C@H](C(C)C)C(=O)C1
REMARK SMILES IDX 8 1 9 2 6 3 7 4 5 5 4 6 3 7 2 8 1 9 10 11 11 12 15 13 16 14
REMARK SMILES IDX 17 15 12 17 13 18 14 19
REMARK H PARENT
REMARK Flexibility Score: 70.00
ROOT
ATOM      1  C   UNL     1      66.561  14.442  46.986  1.00  0.00     0.136 C 
ATOM      2  O   UNL     1      65.737  14.610  46.098  1.00  0.00    -0.299 OA
ENDROOT
BRANCH   1   3
ATOM      3  C   UNL     1      67.998  14.857  46.762  1.00  0.00     0.053 C 
ATOM      4  C   UNL     1      68.088  16.075  45.836  1.00  0.00     0.016 C 
BRANCH   3   5
ATOM      5  C   UNL     1      68.788  13.652  46.197  1.00  0.00     0.015 C 
BRANCH   5   6
ATOM      6  C   UNL     1      69.567  12.812  47.230  1.00  0.00     0.028 C 
BRANCH   6   7
ATOM      7  C   UNL     1      69.305  11.322  47.245  1.00  0.00    -0.028 C 
ATOM      8  C   UNL     1      68.452  10.652  48.058  1.00  0.00    -0.070 CG0
ATOM      9  C   UNL     1      68.266   9.175  47.812  1.00  0.00     0.039 C 
ATOM     10  G   UNL     1      67.742  11.273  49.248  1.00  0.00     0.000 G0
ENDBRANCH   6   7
ENDBRANCH   5   6
ENDBRANCH   3   5
ENDBRANCH   1   3
BRANCH   1  11
ATOM     11  C   UNL     1      66.139  13.755  48.265  1.00  0.00     0.087 C 
BRANCH  11  12
ATOM     12  C   UNL     1      65.625  12.307  48.020  1.00  0.00     0.066 C 
BRANCH  12  13
ATOM     13  C   UNL     1      66.248  11.328  49.007  1.00  0.00     0.140 C 
ATOM     14  O   UNL     1      65.524  10.551  49.614  1.00  0.00    -0.299 OA
BRANCH  13  15
ATOM     15  C   UNL     1      67.744  11.267  49.244  1.00  0.00     0.106 CG0
ATOM     16  G   UNL     1      68.454  10.647  48.054  1.00  0.00     0.000 G0
ENDBRANCH  13  15
ENDBRANCH  12  13
BRANCH  12  17
ATOM     17  C   UNL     1      64.066  12.234  48.021  1.00  0.00    -0.006 C 
ATOM     18  C   UNL     1      63.454  11.839  46.665  1.00  0.00     0.008 C 
ATOM     19  C   UNL     1      63.443  13.547  48.520  1.00  0.00     0.008 C 
ENDBRANCH  12  17
ENDBRANCH  11  12
ENDBRANCH   1  11
TORSDOF 1
ENDMDL
MODEL 8
REMARK VINA RESULT:    -2.085     16.266     17.963
REMARK INTER + INTRA:          -3.525
REMARK INTER:                  -3.090
REMARK INTRA:                  -0.435
REMARK UNBOUND:                -0.343
REMARK SMILES CC1=CCC[C@@H](C)C(=O)C[C@H](C(C)C)C(=O)C1
REMARK SMILES IDX 8 1 9 2 6 3 7 4 5 5 4 6 3 7 2 8 1 9 10 11 11 12 15 13 16 14
REMARK SMILES IDX 17 15 12 17 13 18 14 19
REMARK H PARENT
REMARK Flexibility Score: 70.00
ROOT
ATOM      1  C   UNL     1      65.158  14.029  43.849  1.00  0.00     0.136 C 
ATOM      2  O   UNL     1      65.742  15.071  43.582  1.00  0.00    -0.299 OA
ENDROOT
BRANCH   1   3
ATOM      3  C   UNL     1      63.920  13.644  43.072  1.00  0.00     0.053 C 
ATOM      4  C   UNL     1      64.179  13.675  41.562  1.00  0.00     0.016 C 
BRANCH   3   5
ATOM      5  C   UNL     1      62.761  14.590  43.470  1.00  0.00     0.015 C 
BRANCH   5   6
ATOM      6  C   UNL     1      61.835  14.085  44.596  1.00  0.00     0.028 C 
BRANCH   6   7
ATOM      7  C   UNL     1      61.803  12.591  44.843  1.00  0.00    -0.028 C 
ATOM      8  C   UNL     1      62.143  11.947  45.985  1.00  0.00    -0.070 CG0
ATOM      9  C   UNL     1      61.917  10.455  46.041  1.00  0.00     0.039 C 
ATOM     10  G   UNL     1      62.811  12.612  47.176  1.00  0.00     0.000 G0
ENDBRANCH   6   7
ENDBRANCH   5   6
ENDBRANCH   3   5
ENDBRANCH   1   3
BRANCH   1  11
ATOM     11  C   UNL     1      65.648  13.184  45.003  1.00  0.00     0.087 C 
BRANCH  11  12
ATOM     12  C   UNL     1      65.102  13.676  46.374  1.00  0.00     0.066 C 
BRANCH  12  13
ATOM     13  C   UNL     1      64.322  12.576  47.083  1.00  0.00     0.140 C 
ATOM     14  O   UNL     1      64.932  11.649  47.597  1.00  0.00    -0.299 OA
BRANCH  13  15
ATOM     15  C   UNL     1      62.810  12.605  47.193  1.00  0.00     0.106 CG0
ATOM     16  G   UNL     1      62.169  11.948  45.983  1.00  0.00     0.000 G0
ENDBRANCH  13  15
ENDBRANCH  12  13
BRANCH  12  17
ATOM     17  C   UNL     1      66.232  14.270  47.272  1.00  0.00    -0.006 C 
ATOM     18  C   UNL     1      66.212  15.806  47.374  1.00  0.00     0.008 C 
ATOM     19  C   UNL     1      67.619  13.788  46.821  1.00  0.00     0.008 C 
ENDBRANCH  12  17
ENDBRANCH  11  12
ENDBRANCH   1  11
TORSDOF 1
ENDMDL
MODEL 9
REMARK VINA RESULT:    -2.031      2.282      4.621
REMARK INTER + INTRA:          -3.443
REMARK INTER:                  -3.276
REMARK INTRA:                  -0.167
REMARK UNBOUND:                -0.343
REMARK SMILES CC1=CCC[C@@H](C)C(=O)C[C@H](C(C)C)C(=O)C1
REMARK SMILES IDX 8 1 9 2 6 3 7 4 5 5 4 6 3 7 2 8 1 9 10 11 11 12 15 13 16 14
REMARK SMILES IDX 17 15 12 17 13 18 14 19
REMARK H PARENT
REMARK Flexibility Score: 70.00
ROOT
ATOM      1  C   UNL     1      71.978   3.943  34.786  1.00  0.00     0.136 C 
ATOM      2  O   UNL     1      72.400   4.846  34.076  1.00  0.00    -0.299 OA
ENDROOT
BRANCH   1   3
ATOM      3  C   UNL     1      72.952   3.045  35.514  1.00  0.00     0.053 C 
ATOM      4  C   UNL     1      73.927   3.859  36.371  1.00  0.00     0.016 C 
BRANCH   3   5
ATOM      5  C   UNL     1      73.699   2.168  34.479  1.00  0.00     0.015 C 
BRANCH   5   6
ATOM      6  C   UNL     1      72.939   0.924  33.976  1.00  0.00     0.028 C 
BRANCH   6   7
ATOM      7  C   UNL     1      72.164   0.128  35.004  1.00  0.00    -0.028 C 
ATOM      8  C   UNL     1      70.872  -0.272  34.921  1.00  0.00    -0.070 CG0
ATOM      9  C   UNL     1      70.343  -1.162  36.020  1.00  0.00     0.039 C 
ATOM     10  G   UNL     1      69.904   0.185  33.844  1.00  0.00     0.000 G0
ENDBRANCH   6   7
ENDBRANCH   5   6
ENDBRANCH   3   5
ENDBRANCH   1   3
BRANCH   1  11
ATOM     11  C   UNL     1      70.487   3.701  34.863  1.00  0.00     0.087 C 
BRANCH  11  12
ATOM     12  C   UNL     1      69.962   2.845  33.674  1.00  0.00     0.066 C 
BRANCH  12  13
ATOM     13  C   UNL     1      69.320   1.554  34.166  1.00  0.00     0.140 C 
ATOM     14  O   UNL     1      68.296   1.614  34.832  1.00  0.00    -0.299 OA
BRANCH  13  15
ATOM     15  C   UNL     1      69.897   0.192  33.836  1.00  0.00     0.106 CG0
ATOM     16  G   UNL     1      70.863  -0.261  34.917  1.00  0.00     0.000 G0
ENDBRANCH  13  15
ENDBRANCH  12  13
BRANCH  12  17
ATOM     17  C   UNL     1      69.010   3.661  32.745  1.00  0.00    -0.006 C 
ATOM     18  C   UNL     1      68.528   2.889  31.504  1.00  0.00     0.008 C 
ATOM     19  C   UNL     1      69.645   4.996  32.323  1.00  0.00     0.008 C 
ENDBRANCH  12  17
ENDBRANCH  11  12
ENDBRANCH   1  11
TORSDOF 1
ENDMDL
