MODEL 1
REMARK VINA RESULT:    -8.702      0.000      0.000
REMARK INTER + INTRA:         -12.480
REMARK INTER:                 -11.500
REMARK INTRA:                  -0.979
REMARK UNBOUND:                -0.979
REMARK SMILES CC[C@@H](C=C[C@@H](C)[C@@H]1CC[C@@H]2C3=CC[C@@H]4C[C@@H](O)CC[C@@]4(C)[C@@H]3CC[C@]21C)C(C)C
REMARK SMILES IDX 6 1 7 2 5 3 4 4 3 5 2 6 1 7 28 8 29 9 30 10 8 11 9 12 26 13
REMARK SMILES IDX 10 14 11 15 25 16 27 17 12 18 24 19 23 20 13 21 21 22 14 23
REMARK SMILES IDX 15 24 20 25 22 26 16 27 19 28 17 29 18 30
REMARK H PARENT 18 31
REMARK Flexibility Score: inf
ROOT
ATOM      1  C   UNL     1      -0.513  18.161  46.006  1.00  0.00     0.012 C 
ATOM      2  C   UNL     1      -1.107  16.875  45.410  1.00  0.00     0.012 C 
ENDROOT
BRANCH   1   3
ATOM      3  C   UNL     1       0.961  17.982  46.316  1.00  0.00    -0.028 C 
ATOM      4  C   UNL     1       1.838  17.619  45.363  1.00  0.00    -0.027 C 
BRANCH   4   5
ATOM      5  C   UNL     1       3.316  17.388  45.627  1.00  0.00     0.014 C 
BRANCH   5   6
ATOM      6  C   UNL     1       3.660  17.387  47.138  1.00  0.00     0.004 C 
ATOM      7  C   UNL     1       5.108  16.973  47.401  1.00  0.00     0.004 C 
ENDBRANCH   5   6
BRANCH   5   8
ATOM      8  C   UNL     1       4.248  18.325  44.799  1.00  0.00    -0.011 C 
ATOM      9  C   UNL     1       3.610  19.666  44.400  1.00  0.00     0.008 C 
ATOM     10  C   UNL     1       4.789  17.611  43.551  1.00  0.00     0.008 C 
ENDBRANCH   5   8
ENDBRANCH   4   5
ENDBRANCH   1   3
BRANCH   1  11
ATOM     11  C   UNL     1      -1.384  18.727  47.180  1.00  0.00     0.002 C 
ATOM     12  C   UNL     1      -2.586  17.820  47.558  1.00  0.00     0.005 C 
ATOM     13  C   UNL     1      -1.965  20.178  47.127  1.00  0.00    -0.023 C 
ATOM     14  C   UNL     1      -3.698  18.747  48.075  1.00  0.00     0.009 C 
ATOM     15  C   UNL     1      -2.992  20.084  48.261  1.00  0.00     0.021 C 
ATOM     16  C   UNL     1      -0.949  21.330  47.442  1.00  0.00     0.008 C 
ATOM     17  C   UNL     1      -2.657  20.471  45.765  1.00  0.00     0.012 C 
ATOM     18  C   UNL     1      -3.742  21.386  48.389  1.00  0.00    -0.067 C 
ATOM     19  C   UNL     1      -1.350  22.317  48.584  1.00  0.00     0.009 C 
ATOM     20  C   UNL     1      -2.884  22.562  48.842  1.00  0.00     0.021 C 
ATOM     21  C   UNL     1      -5.061  21.515  48.129  1.00  0.00    -0.027 C 
ATOM     22  C   UNL     1      -3.454  23.959  48.404  1.00  0.00    -0.023 C 
ATOM     23  C   UNL     1      -5.767  22.847  48.105  1.00  0.00     0.031 C 
ATOM     24  C   UNL     1      -4.968  23.964  48.804  1.00  0.00     0.002 C 
ATOM     25  C   UNL     1      -2.740  25.103  49.192  1.00  0.00     0.010 C 
ATOM     26  C   UNL     1      -3.252  24.179  46.879  1.00  0.00     0.012 C 
ATOM     27  C   UNL     1      -5.636  25.338  48.596  1.00  0.00     0.036 C 
ATOM     28  C   UNL     1      -3.423  26.477  49.046  1.00  0.00     0.032 C 
ATOM     29  C   UNL     1      -4.915  26.431  49.400  1.00  0.00     0.114 C 
BRANCH  29  30
ATOM     30  O   UNL     1      -5.063  26.208  50.779  1.00  0.00    -0.393 OA
ATOM     31  H   UNL     1      -5.868  26.713  51.067  1.00  0.00     0.210 HD
ENDBRANCH  29  30
ENDBRANCH   1  11
TORSDOF 6
ENDMDL
MODEL 2
REMARK VINA RESULT:    -7.686      3.808     10.435
REMARK INTER + INTRA:         -11.137
REMARK INTER:                 -10.542
REMARK INTRA:                  -0.595
REMARK UNBOUND:                -0.979
REMARK SMILES CC[C@@H](C=C[C@@H](C)[C@@H]1CC[C@@H]2C3=CC[C@@H]4C[C@@H](O)CC[C@@]4(C)[C@@H]3CC[C@]21C)C(C)C
REMARK SMILES IDX 6 1 7 2 5 3 4 4 3 5 2 6 1 7 28 8 29 9 30 10 8 11 9 12 26 13
REMARK SMILES IDX 10 14 11 15 25 16 27 17 12 18 24 19 23 20 13 21 21 22 14 23
REMARK SMILES IDX 15 24 20 25 22 26 16 27 19 28 17 29 18 30
REMARK H PARENT 18 31
REMARK Flexibility Score: inf
ROOT
ATOM      1  C   UNL     1      -5.666  27.553  49.109  1.00  0.00     0.012 C 
ATOM      2  C   UNL     1      -6.676  26.939  50.091  1.00  0.00     0.012 C 
ENDROOT
BRANCH   1   3
ATOM      3  C   UNL     1      -6.337  27.910  47.797  1.00  0.00    -0.028 C 
ATOM      4  C   UNL     1      -7.427  28.698  47.760  1.00  0.00    -0.027 C 
BRANCH   4   5
ATOM      5  C   UNL     1      -8.161  29.055  46.479  1.00  0.00     0.014 C 
BRANCH   5   6
ATOM      6  C   UNL     1      -8.109  30.572  46.163  1.00  0.00     0.004 C 
ATOM      7  C   UNL     1      -7.313  31.353  47.208  1.00  0.00     0.004 C 
ENDBRANCH   5   6
BRANCH   5   8
ATOM      8  C   UNL     1      -9.608  28.477  46.410  1.00  0.00    -0.011 C 
ATOM      9  C   UNL     1     -10.660  29.461  45.874  1.00  0.00     0.008 C 
ATOM     10  C   UNL     1     -10.053  27.926  47.773  1.00  0.00     0.008 C 
ENDBRANCH   5   8
ENDBRANCH   4   5
ENDBRANCH   1   3
BRANCH   1  11
ATOM     11  C   UNL     1      -4.362  26.693  48.985  1.00  0.00     0.002 C 
ATOM     12  C   UNL     1      -3.254  27.360  48.125  1.00  0.00     0.005 C 
ATOM     13  C   UNL     1      -4.417  25.207  48.500  1.00  0.00    -0.023 C 
ATOM     14  C   UNL     1      -2.456  26.224  47.466  1.00  0.00     0.009 C 
ATOM     15  C   UNL     1      -2.931  24.979  48.204  1.00  0.00     0.021 C 
ATOM     16  C   UNL     1      -4.900  24.161  49.564  1.00  0.00     0.008 C 
ATOM     17  C   UNL     1      -5.277  25.053  47.212  1.00  0.00     0.012 C 
ATOM     18  C   UNL     1      -2.719  23.586  47.664  1.00  0.00    -0.067 C 
ATOM     19  C   UNL     1      -3.945  22.957  49.838  1.00  0.00     0.009 C 
ATOM     20  C   UNL     1      -3.012  22.475  48.665  1.00  0.00     0.021 C 
ATOM     21  C   UNL     1      -2.305  23.331  46.404  1.00  0.00    -0.027 C 
ATOM     22  C   UNL     1      -3.386  21.106  47.989  1.00  0.00    -0.023 C 
ATOM     23  C   UNL     1      -2.249  21.939  45.824  1.00  0.00     0.031 C 
ATOM     24  C   UNL     1      -2.293  20.838  46.900  1.00  0.00     0.002 C 
ATOM     25  C   UNL     1      -3.318  19.951  49.039  1.00  0.00     0.010 C 
ATOM     26  C   UNL     1      -4.814  21.167  47.381  1.00  0.00     0.012 C 
ATOM     27  C   UNL     1      -2.420  19.441  46.259  1.00  0.00     0.036 C 
ATOM     28  C   UNL     1      -3.385  18.542  48.417  1.00  0.00     0.032 C 
ATOM     29  C   UNL     1      -2.332  18.334  47.321  1.00  0.00     0.114 C 
BRANCH  29  30
ATOM     30  O   UNL     1      -1.052  18.306  47.900  1.00  0.00    -0.393 OA
ATOM     31  H   UNL     1      -1.026  17.518  48.504  1.00  0.00     0.210 HD
ENDBRANCH  29  30
ENDBRANCH   1  11
TORSDOF 6
ENDMDL
MODEL 3
REMARK VINA RESULT:    -7.561      4.019      9.218
REMARK INTER + INTRA:         -10.972
REMARK INTER:                  -9.728
REMARK INTRA:                  -1.244
REMARK UNBOUND:                -0.979
REMARK SMILES CC[C@@H](C=C[C@@H](C)[C@@H]1CC[C@@H]2C3=CC[C@@H]4C[C@@H](O)CC[C@@]4(C)[C@@H]3CC[C@]21C)C(C)C
REMARK SMILES IDX 6 1 7 2 5 3 4 4 3 5 2 6 1 7 28 8 29 9 30 10 8 11 9 12 26 13
REMARK SMILES IDX 10 14 11 15 25 16 27 17 12 18 24 19 23 20 13 21 21 22 14 23
REMARK SMILES IDX 15 24 20 25 22 26 16 27 19 28 17 29 18 30
REMARK H PARENT 18 31
REMARK Flexibility Score: inf
ROOT
ATOM      1  C   UNL     1      -4.718  27.027  48.642  1.00  0.00     0.012 C 
ATOM      2  C   UNL     1      -4.786  28.187  47.637  1.00  0.00     0.012 C 
ENDROOT
BRANCH   1   3
ATOM      3  C   UNL     1      -4.746  27.545  50.067  1.00  0.00    -0.028 C 
ATOM      4  C   UNL     1      -3.649  27.519  50.844  1.00  0.00    -0.027 C 
BRANCH   4   5
ATOM      5  C   UNL     1      -3.632  27.988  52.289  1.00  0.00     0.014 C 
BRANCH   5   6
ATOM      6  C   UNL     1      -2.497  29.005  52.574  1.00  0.00     0.004 C 
ATOM      7  C   UNL     1      -2.702  30.323  51.828  1.00  0.00     0.004 C 
ENDBRANCH   5   6
BRANCH   5   8
ATOM      8  C   UNL     1      -3.664  26.820  53.322  1.00  0.00    -0.011 C 
ATOM      9  C   UNL     1      -2.364  26.646  54.125  1.00  0.00     0.008 C 
ATOM     10  C   UNL     1      -4.045  25.492  52.649  1.00  0.00     0.008 C 
ENDBRANCH   5   8
ENDBRANCH   4   5
ENDBRANCH   1   3
BRANCH   1  11
ATOM     11  C   UNL     1      -3.560  26.024  48.313  1.00  0.00     0.002 C 
ATOM     12  C   UNL     1      -2.703  26.442  47.088  1.00  0.00     0.005 C 
ATOM     13  C   UNL     1      -3.844  24.500  48.114  1.00  0.00    -0.023 C 
ATOM     14  C   UNL     1      -2.199  25.146  46.434  1.00  0.00     0.009 C 
ATOM     15  C   UNL     1      -2.521  24.074  47.468  1.00  0.00     0.021 C 
ATOM     16  C   UNL     1      -4.069  23.672  49.428  1.00  0.00     0.008 C 
ATOM     17  C   UNL     1      -5.043  24.258  47.152  1.00  0.00     0.012 C 
ATOM     18  C   UNL     1      -2.559  22.605  47.129  1.00  0.00    -0.067 C 
ATOM     19  C   UNL     1      -3.152  22.423  49.627  1.00  0.00     0.009 C 
ATOM     20  C   UNL     1      -2.624  21.684  48.341  1.00  0.00     0.021 C 
ATOM     21  C   UNL     1      -2.538  22.132  45.864  1.00  0.00    -0.027 C 
ATOM     22  C   UNL     1      -3.260  20.281  48.029  1.00  0.00    -0.023 C 
ATOM     23  C   UNL     1      -2.737  20.675  45.529  1.00  0.00     0.031 C 
ATOM     24  C   UNL     1      -2.541  19.747  46.744  1.00  0.00     0.002 C 
ATOM     25  C   UNL     1      -2.969  19.285  49.197  1.00  0.00     0.010 C 
ATOM     26  C   UNL     1      -4.795  20.408  47.830  1.00  0.00     0.012 C 
ATOM     27  C   UNL     1      -2.933  18.295  46.401  1.00  0.00     0.036 C 
ATOM     28  C   UNL     1      -3.298  17.818  48.858  1.00  0.00     0.032 C 
ATOM     29  C   UNL     1      -2.615  17.346  47.568  1.00  0.00     0.114 C 
BRANCH  29  30
ATOM     30  O   UNL     1      -1.228  17.264  47.774  1.00  0.00    -0.393 OA
ATOM     31  H   UNL     1      -1.064  17.503  48.724  1.00  0.00     0.210 HD
ENDBRANCH  29  30
ENDBRANCH   1  11
TORSDOF 6
ENDMDL
MODEL 4
REMARK VINA RESULT:    -7.425      5.923      8.496
REMARK INTER + INTRA:         -10.791
REMARK INTER:                  -9.472
REMARK INTRA:                  -1.319
REMARK UNBOUND:                -0.979
REMARK SMILES CC[C@@H](C=C[C@@H](C)[C@@H]1CC[C@@H]2C3=CC[C@@H]4C[C@@H](O)CC[C@@]4(C)[C@@H]3CC[C@]21C)C(C)C
REMARK SMILES IDX 6 1 7 2 5 3 4 4 3 5 2 6 1 7 28 8 29 9 30 10 8 11 9 12 26 13
REMARK SMILES IDX 10 14 11 15 25 16 27 17 12 18 24 19 23 20 13 21 21 22 14 23
REMARK SMILES IDX 15 24 20 25 22 26 16 27 19 28 17 29 18 30
REMARK H PARENT 18 31
REMARK Flexibility Score: inf
ROOT
ATOM      1  C   UNL     1      -3.472  23.967  49.459  1.00  0.00     0.012 C 
ATOM      2  C   UNL     1      -3.996  22.551  49.170  1.00  0.00     0.012 C 
ENDROOT
BRANCH   1   3
ATOM      3  C   UNL     1      -2.347  23.930  50.474  1.00  0.00    -0.028 C 
ATOM      4  C   UNL     1      -2.564  24.213  51.771  1.00  0.00    -0.027 C 
BRANCH   4   5
ATOM      5  C   UNL     1      -1.467  24.230  52.822  1.00  0.00     0.014 C 
BRANCH   5   6
ATOM      6  C   UNL     1      -1.306  22.866  53.540  1.00  0.00     0.004 C 
ATOM      7  C   UNL     1       0.094  22.681  54.125  1.00  0.00     0.004 C 
ENDBRANCH   5   6
BRANCH   5   8
ATOM      8  C   UNL     1      -1.579  25.423  53.819  1.00  0.00    -0.011 C 
ATOM      9  C   UNL     1      -2.850  26.273  53.652  1.00  0.00     0.008 C 
ATOM     10  C   UNL     1      -0.336  26.324  53.751  1.00  0.00     0.008 C 
ENDBRANCH   5   8
ENDBRANCH   4   5
ENDBRANCH   1   3
BRANCH   1  11
ATOM     11  C   UNL     1      -4.631  24.974  49.773  1.00  0.00     0.002 C 
ATOM     12  C   UNL     1      -6.049  24.363  49.611  1.00  0.00     0.005 C 
ATOM     13  C   UNL     1      -4.702  26.368  49.069  1.00  0.00    -0.023 C 
ATOM     14  C   UNL     1      -6.981  25.508  49.185  1.00  0.00     0.009 C 
ATOM     15  C   UNL     1      -6.143  26.759  49.418  1.00  0.00     0.021 C 
ATOM     16  C   UNL     1      -3.721  27.461  49.622  1.00  0.00     0.008 C 
ATOM     17  C   UNL     1      -4.510  26.247  47.530  1.00  0.00     0.012 C 
ATOM     18  C   UNL     1      -6.482  28.091  48.798  1.00  0.00    -0.067 C 
ATOM     19  C   UNL     1      -4.366  28.808  50.077  1.00  0.00     0.009 C 
ATOM     20  C   UNL     1      -5.695  29.266  49.366  1.00  0.00     0.021 C 
ATOM     21  C   UNL     1      -7.404  28.245  47.823  1.00  0.00    -0.027 C 
ATOM     22  C   UNL     1      -5.577  30.479  48.374  1.00  0.00    -0.023 C 
ATOM     23  C   UNL     1      -7.623  29.550  47.099  1.00  0.00     0.031 C 
ATOM     24  C   UNL     1      -7.024  30.759  47.844  1.00  0.00     0.002 C 
ATOM     25  C   UNL     1      -5.085  31.751  49.136  1.00  0.00     0.010 C 
ATOM     26  C   UNL     1      -4.586  30.151  47.224  1.00  0.00     0.012 C 
ATOM     27  C   UNL     1      -7.108  32.037  46.986  1.00  0.00     0.036 C 
ATOM     28  C   UNL     1      -5.213  33.052  48.319  1.00  0.00     0.032 C 
ATOM     29  C   UNL     1      -6.632  33.266  47.775  1.00  0.00     0.114 C 
BRANCH  29  30
ATOM     30  O   UNL     1      -7.506  33.537  48.842  1.00  0.00    -0.393 OA
ATOM     31  H   UNL     1      -7.722  34.505  48.797  1.00  0.00     0.210 HD
ENDBRANCH  29  30
ENDBRANCH   1  11
TORSDOF 6
ENDMDL
MODEL 5
REMARK VINA RESULT:    -7.417      3.133      9.511
REMARK INTER + INTRA:         -10.781
REMARK INTER:                  -9.952
REMARK INTRA:                  -0.829
REMARK UNBOUND:                -0.979
REMARK SMILES CC[C@@H](C=C[C@@H](C)[C@@H]1CC[C@@H]2C3=CC[C@@H]4C[C@@H](O)CC[C@@]4(C)[C@@H]3CC[C@]21C)C(C)C
REMARK SMILES IDX 6 1 7 2 5 3 4 4 3 5 2 6 1 7 28 8 29 9 30 10 8 11 9 12 26 13
REMARK SMILES IDX 10 14 11 15 25 16 27 17 12 18 24 19 23 20 13 21 21 22 14 23
REMARK SMILES IDX 15 24 20 25 22 26 16 27 19 28 17 29 18 30
REMARK H PARENT 18 31
REMARK Flexibility Score: inf
ROOT
ATOM      1  C   UNL     1      -6.156  26.041  50.056  1.00  0.00     0.012 C 
ATOM      2  C   UNL     1      -7.335  25.447  49.270  1.00  0.00     0.012 C 
ENDROOT
BRANCH   1   3
ATOM      3  C   UNL     1      -5.597  27.262  49.350  1.00  0.00    -0.028 C 
ATOM      4  C   UNL     1      -6.309  27.919  48.417  1.00  0.00    -0.027 C 
BRANCH   4   5
ATOM      5  C   UNL     1      -5.783  29.121  47.653  1.00  0.00     0.014 C 
BRANCH   5   6
ATOM      6  C   UNL     1      -6.899  30.134  47.291  1.00  0.00     0.004 C 
ATOM      7  C   UNL     1      -8.215  29.442  46.933  1.00  0.00     0.004 C 
ENDBRANCH   5   6
BRANCH   5   8
ATOM      8  C   UNL     1      -4.898  28.740  46.427  1.00  0.00    -0.011 C 
ATOM      9  C   UNL     1      -4.823  29.822  45.337  1.00  0.00     0.008 C 
ATOM     10  C   UNL     1      -5.345  27.406  45.811  1.00  0.00     0.008 C 
ENDBRANCH   5   8
ENDBRANCH   4   5
ENDBRANCH   1   3
BRANCH   1  11
ATOM     11  C   UNL     1      -5.101  24.953  50.455  1.00  0.00     0.002 C 
ATOM     12  C   UNL     1      -3.998  25.476  51.415  1.00  0.00     0.005 C 
ATOM     13  C   UNL     1      -4.339  24.129  49.366  1.00  0.00    -0.023 C 
ATOM     14  C   UNL     1      -2.725  24.670  51.113  1.00  0.00     0.009 C 
ATOM     15  C   UNL     1      -3.223  23.532  50.231  1.00  0.00     0.021 C 
ATOM     16  C   UNL     1      -5.154  22.967  48.698  1.00  0.00     0.008 C 
ATOM     17  C   UNL     1      -3.758  25.046  48.251  1.00  0.00     0.012 C 
ATOM     18  C   UNL     1      -2.296  22.701  49.378  1.00  0.00    -0.067 C 
ATOM     19  C   UNL     1      -4.509  21.546  48.751  1.00  0.00     0.009 C 
ATOM     20  C   UNL     1      -2.938  21.450  48.790  1.00  0.00     0.021 C 
ATOM     21  C   UNL     1      -1.006  23.026  49.147  1.00  0.00    -0.027 C 
ATOM     22  C   UNL     1      -2.234  20.941  47.481  1.00  0.00    -0.023 C 
ATOM     23  C   UNL     1      -0.134  22.280  48.168  1.00  0.00     0.031 C 
ATOM     24  C   UNL     1      -0.700  20.897  47.792  1.00  0.00     0.002 C 
ATOM     25  C   UNL     1      -2.704  19.489  47.146  1.00  0.00     0.010 C 
ATOM     26  C   UNL     1      -2.561  21.877  46.284  1.00  0.00     0.012 C 
ATOM     27  C   UNL     1       0.120  20.252  46.657  1.00  0.00     0.036 C 
ATOM     28  C   UNL     1      -1.862  18.801  46.054  1.00  0.00     0.032 C 
ATOM     29  C   UNL     1      -0.361  18.820  46.371  1.00  0.00     0.114 C 
BRANCH  29  30
ATOM     30  O   UNL     1      -0.103  17.983  47.470  1.00  0.00    -0.393 OA
ATOM     31  H   UNL     1       0.354  18.539  48.154  1.00  0.00     0.210 HD
ENDBRANCH  29  30
ENDBRANCH   1  11
TORSDOF 6
ENDMDL
MODEL 6
REMARK VINA RESULT:    -7.388      6.251      8.788
REMARK INTER + INTRA:         -10.742
REMARK INTER:                  -9.508
REMARK INTRA:                  -1.234
REMARK UNBOUND:                -0.979
REMARK SMILES CC[C@@H](C=C[C@@H](C)[C@@H]1CC[C@@H]2C3=CC[C@@H]4C[C@@H](O)CC[C@@]4(C)[C@@H]3CC[C@]21C)C(C)C
REMARK SMILES IDX 6 1 7 2 5 3 4 4 3 5 2 6 1 7 28 8 29 9 30 10 8 11 9 12 26 13
REMARK SMILES IDX 10 14 11 15 25 16 27 17 12 18 24 19 23 20 13 21 21 22 14 23
REMARK SMILES IDX 15 24 20 25 22 26 16 27 19 28 17 29 18 30
REMARK H PARENT 18 31
REMARK Flexibility Score: inf
ROOT
ATOM      1  C   UNL     1      -4.031  24.244  49.467  1.00  0.00     0.012 C 
ATOM      2  C   UNL     1      -4.613  22.923  48.940  1.00  0.00     0.012 C 
ENDROOT
BRANCH   1   3
ATOM      3  C   UNL     1      -3.099  23.995  50.637  1.00  0.00    -0.028 C 
ATOM      4  C   UNL     1      -3.289  24.599  51.824  1.00  0.00    -0.027 C 
BRANCH   4   5
ATOM      5  C   UNL     1      -2.364  24.416  53.015  1.00  0.00     0.014 C 
BRANCH   5   6
ATOM      6  C   UNL     1      -1.995  25.758  53.696  1.00  0.00     0.004 C 
ATOM      7  C   UNL     1      -3.193  26.701  53.805  1.00  0.00     0.004 C 
ENDBRANCH   5   6
BRANCH   5   8
ATOM      8  C   UNL     1      -1.114  23.538  52.702  1.00  0.00    -0.011 C 
ATOM      9  C   UNL     1      -0.775  22.506  53.791  1.00  0.00     0.008 C 
ATOM     10  C   UNL     1       0.117  24.407  52.404  1.00  0.00     0.008 C 
ENDBRANCH   5   8
ENDBRANCH   4   5
ENDBRANCH   1   3
BRANCH   1  11
ATOM     11  C   UNL     1      -5.139  25.326  49.707  1.00  0.00     0.002 C 
ATOM     12  C   UNL     1      -6.576  24.741  49.782  1.00  0.00     0.005 C 
ATOM     13  C   UNL     1      -5.257  26.581  48.782  1.00  0.00    -0.023 C 
ATOM     14  C   UNL     1      -7.527  25.825  49.251  1.00  0.00     0.009 C 
ATOM     15  C   UNL     1      -6.651  27.070  49.188  1.00  0.00     0.021 C 
ATOM     16  C   UNL     1      -4.211  27.720  49.045  1.00  0.00     0.008 C 
ATOM     17  C   UNL     1      -5.213  26.192  47.275  1.00  0.00     0.012 C 
ATOM     18  C   UNL     1      -7.029  28.287  48.380  1.00  0.00    -0.067 C 
ATOM     19  C   UNL     1      -4.790  29.145  49.317  1.00  0.00     0.009 C 
ATOM     20  C   UNL     1      -6.173  29.516  48.662  1.00  0.00     0.021 C 
ATOM     21  C   UNL     1      -8.036  28.300  47.481  1.00  0.00    -0.027 C 
ATOM     22  C   UNL     1      -6.132  30.538  47.469  1.00  0.00    -0.023 C 
ATOM     23  C   UNL     1      -8.304  29.469  46.565  1.00  0.00     0.031 C 
ATOM     24  C   UNL     1      -7.619  30.767  47.032  1.00  0.00     0.002 C 
ATOM     25  C   UNL     1      -5.551  31.905  47.951  1.00  0.00     0.010 C 
ATOM     26  C   UNL     1      -5.260  29.988  46.307  1.00  0.00     0.012 C 
ATOM     27  C   UNL     1      -7.765  31.882  45.977  1.00  0.00     0.036 C 
ATOM     28  C   UNL     1      -5.736  33.050  46.936  1.00  0.00     0.032 C 
ATOM     29  C   UNL     1      -7.197  33.213  46.495  1.00  0.00     0.114 C 
BRANCH  29  30
ATOM     30  O   UNL     1      -7.962  33.689  47.574  1.00  0.00    -0.393 OA
ATOM     31  H   UNL     1      -7.746  33.115  48.354  1.00  0.00     0.210 HD
ENDBRANCH  29  30
ENDBRANCH   1  11
TORSDOF 6
ENDMDL
MODEL 7
REMARK VINA RESULT:    -7.352      4.242     11.312
REMARK INTER + INTRA:         -10.696
REMARK INTER:                  -9.680
REMARK INTRA:                  -1.016
REMARK UNBOUND:                -0.979
REMARK SMILES CC[C@@H](C=C[C@@H](C)[C@@H]1CC[C@@H]2C3=CC[C@@H]4C[C@@H](O)CC[C@@]4(C)[C@@H]3CC[C@]21C)C(C)C
REMARK SMILES IDX 6 1 7 2 5 3 4 4 3 5 2 6 1 7 28 8 29 9 30 10 8 11 9 12 26 13
REMARK SMILES IDX 10 14 11 15 25 16 27 17 12 18 24 19 23 20 13 21 21 22 14 23
REMARK SMILES IDX 15 24 20 25 22 26 16 27 19 28 17 29 18 30
REMARK H PARENT 18 31
REMARK Flexibility Score: inf
ROOT
ATOM      1  C   UNL     1      -6.442  29.146  47.554  1.00  0.00     0.012 C 
ATOM      2  C   UNL     1      -6.125  30.073  48.738  1.00  0.00     0.012 C 
ENDROOT
BRANCH   1   3
ATOM      3  C   UNL     1      -7.512  29.751  46.666  1.00  0.00    -0.028 C 
ATOM      4  C   UNL     1      -8.727  29.184  46.548  1.00  0.00    -0.027 C 
BRANCH   4   5
ATOM      5  C   UNL     1      -9.820  29.726  45.643  1.00  0.00     0.014 C 
BRANCH   5   6
ATOM      6  C   UNL     1      -9.758  31.266  45.486  1.00  0.00     0.004 C 
ATOM      7  C   UNL     1     -11.015  31.832  44.826  1.00  0.00     0.004 C 
ENDBRANCH   5   6
BRANCH   5   8
ATOM      8  C   UNL     1     -11.246  29.217  46.018  1.00  0.00    -0.011 C 
ATOM      9  C   UNL     1     -11.304  28.385  47.310  1.00  0.00     0.008 C 
ATOM     10  C   UNL     1     -11.880  28.431  44.860  1.00  0.00     0.008 C 
ENDBRANCH   5   8
ENDBRANCH   4   5
ENDBRANCH   1   3
BRANCH   1  11
ATOM     11  C   UNL     1      -6.701  27.670  48.011  1.00  0.00     0.002 C 
ATOM     12  C   UNL     1      -7.240  27.551  49.462  1.00  0.00     0.005 C 
ATOM     13  C   UNL     1      -5.583  26.582  47.899  1.00  0.00    -0.023 C 
ATOM     14  C   UNL     1      -6.731  26.212  50.019  1.00  0.00     0.009 C 
ATOM     15  C   UNL     1      -6.195  25.493  48.787  1.00  0.00     0.021 C 
ATOM     16  C   UNL     1      -5.339  26.002  46.462  1.00  0.00     0.008 C 
ATOM     17  C   UNL     1      -4.229  27.086  48.478  1.00  0.00     0.012 C 
ATOM     18  C   UNL     1      -5.259  24.314  48.879  1.00  0.00    -0.067 C 
ATOM     19  C   UNL     1      -5.429  24.450  46.315  1.00  0.00     0.009 C 
ATOM     20  C   UNL     1      -5.058  23.568  47.566  1.00  0.00     0.021 C 
ATOM     21  C   UNL     1      -4.643  23.939  50.022  1.00  0.00    -0.027 C 
ATOM     22  C   UNL     1      -3.699  22.783  47.492  1.00  0.00    -0.023 C 
ATOM     23  C   UNL     1      -3.589  22.862  50.072  1.00  0.00     0.031 C 
ATOM     24  C   UNL     1      -3.590  21.962  48.821  1.00  0.00     0.002 C 
ATOM     25  C   UNL     1      -3.723  21.775  46.299  1.00  0.00     0.010 C 
ATOM     26  C   UNL     1      -2.508  23.765  47.312  1.00  0.00     0.012 C 
ATOM     27  C   UNL     1      -2.386  20.999  48.830  1.00  0.00     0.036 C 
ATOM     28  C   UNL     1      -2.561  20.763  46.317  1.00  0.00     0.032 C 
ATOM     29  C   UNL     1      -2.456  20.014  47.652  1.00  0.00     0.114 C 
BRANCH  29  30
ATOM     30  O   UNL     1      -3.557  19.153  47.794  1.00  0.00    -0.393 OA
ATOM     31  H   UNL     1      -3.913  18.989  46.882  1.00  0.00     0.210 HD
ENDBRANCH  29  30
ENDBRANCH   1  11
TORSDOF 6
ENDMDL
MODEL 8
REMARK VINA RESULT:    -7.294      3.205      6.152
REMARK INTER + INTRA:         -10.619
REMARK INTER:                 -10.163
REMARK INTRA:                  -0.456
REMARK UNBOUND:                -0.979
REMARK SMILES CC[C@@H](C=C[C@@H](C)[C@@H]1CC[C@@H]2C3=CC[C@@H]4C[C@@H](O)CC[C@@]4(C)[C@@H]3CC[C@]21C)C(C)C
REMARK SMILES IDX 6 1 7 2 5 3 4 4 3 5 2 6 1 7 28 8 29 9 30 10 8 11 9 12 26 13
REMARK SMILES IDX 10 14 11 15 25 16 27 17 12 18 24 19 23 20 13 21 21 22 14 23
REMARK SMILES IDX 15 24 20 25 22 26 16 27 19 28 17 29 18 30
REMARK H PARENT 18 31
REMARK Flexibility Score: inf
ROOT
ATOM      1  C   UNL     1      -2.256  22.750  49.609  1.00  0.00     0.012 C 
ATOM      2  C   UNL     1      -0.969  23.041  48.820  1.00  0.00     0.012 C 
ENDROOT
BRANCH   1   3
ATOM      3  C   UNL     1      -3.120  21.740  48.878  1.00  0.00    -0.028 C 
ATOM      4  C   UNL     1      -2.602  20.600  48.387  1.00  0.00    -0.027 C 
BRANCH   4   5
ATOM      5  C   UNL     1      -3.413  19.574  47.614  1.00  0.00     0.014 C 
BRANCH   5   6
ATOM      6  C   UNL     1      -3.881  18.392  48.500  1.00  0.00     0.004 C 
ATOM      7  C   UNL     1      -2.834  18.001  49.543  1.00  0.00     0.004 C 
ENDBRANCH   5   6
BRANCH   5   8
ATOM      8  C   UNL     1      -2.725  19.102  46.297  1.00  0.00    -0.011 C 
ATOM      9  C   UNL     1      -3.115  17.683  45.850  1.00  0.00     0.008 C 
ATOM     10  C   UNL     1      -1.196  19.217  46.395  1.00  0.00     0.008 C 
ENDBRANCH   5   8
ENDBRANCH   4   5
ENDBRANCH   1   3
BRANCH   1  11
ATOM     11  C   UNL     1      -2.986  24.062  50.056  1.00  0.00     0.002 C 
ATOM     12  C   UNL     1      -3.825  23.897  51.353  1.00  0.00     0.005 C 
ATOM     13  C   UNL     1      -3.909  24.850  49.070  1.00  0.00    -0.023 C 
ATOM     14  C   UNL     1      -5.005  24.876  51.248  1.00  0.00     0.009 C 
ATOM     15  C   UNL     1      -4.631  25.762  50.067  1.00  0.00     0.021 C 
ATOM     16  C   UNL     1      -3.169  25.730  48.003  1.00  0.00     0.008 C 
ATOM     17  C   UNL     1      -4.911  23.907  48.341  1.00  0.00     0.012 C 
ATOM     18  C   UNL     1      -5.640  26.621  49.345  1.00  0.00    -0.067 C 
ATOM     19  C   UNL     1      -3.565  27.240  47.953  1.00  0.00     0.009 C 
ATOM     20  C   UNL     1      -5.028  27.632  48.383  1.00  0.00     0.021 C 
ATOM     21  C   UNL     1      -6.974  26.514  49.527  1.00  0.00    -0.027 C 
ATOM     22  C   UNL     1      -6.004  28.071  47.232  1.00  0.00    -0.023 C 
ATOM     23  C   UNL     1      -7.979  27.263  48.688  1.00  0.00     0.031 C 
ATOM     24  C   UNL     1      -7.359  28.447  47.921  1.00  0.00     0.002 C 
ATOM     25  C   UNL     1      -5.454  29.347  46.517  1.00  0.00     0.010 C 
ATOM     26  C   UNL     1      -6.173  26.930  46.192  1.00  0.00     0.012 C 
ATOM     27  C   UNL     1      -8.376  29.065  46.940  1.00  0.00     0.036 C 
ATOM     28  C   UNL     1      -6.472  30.017  45.574  1.00  0.00     0.032 C 
ATOM     29  C   UNL     1      -7.803  30.325  46.271  1.00  0.00     0.114 C 
BRANCH  29  30
ATOM     30  O   UNL     1      -7.611  31.344  47.219  1.00  0.00    -0.393 OA
ATOM     31  H   UNL     1      -6.642  31.359  47.433  1.00  0.00     0.210 HD
ENDBRANCH  29  30
ENDBRANCH   1  11
TORSDOF 6
ENDMDL
MODEL 9
REMARK VINA RESULT:    -7.274      3.429     10.319
REMARK INTER + INTRA:         -10.592
REMARK INTER:                  -9.808
REMARK INTRA:                  -0.785
REMARK UNBOUND:                -0.979
REMARK SMILES CC[C@@H](C=C[C@@H](C)[C@@H]1CC[C@@H]2C3=CC[C@@H]4C[C@@H](O)CC[C@@]4(C)[C@@H]3CC[C@]21C)C(C)C
REMARK SMILES IDX 6 1 7 2 5 3 4 4 3 5 2 6 1 7 28 8 29 9 30 10 8 11 9 12 26 13
REMARK SMILES IDX 10 14 11 15 25 16 27 17 12 18 24 19 23 20 13 21 21 22 14 23
REMARK SMILES IDX 15 24 20 25 22 26 16 27 19 28 17 29 18 30
REMARK H PARENT 18 31
REMARK Flexibility Score: inf
ROOT
ATOM      1  C   UNL     1      -5.143  26.923  46.678  1.00  0.00     0.012 C 
ATOM      2  C   UNL     1      -4.102  27.847  46.028  1.00  0.00     0.012 C 
ENDROOT
BRANCH   1   3
ATOM      3  C   UNL     1      -6.310  27.723  47.223  1.00  0.00    -0.028 C 
ATOM      4  C   UNL     1      -6.966  28.615  46.458  1.00  0.00    -0.027 C 
BRANCH   4   5
ATOM      5  C   UNL     1      -8.114  29.470  46.964  1.00  0.00     0.014 C 
BRANCH   5   6
ATOM      6  C   UNL     1      -9.488  29.013  46.412  1.00  0.00     0.004 C 
ATOM      7  C   UNL     1     -10.253  28.145  47.411  1.00  0.00     0.004 C 
ENDBRANCH   5   6
BRANCH   5   8
ATOM      8  C   UNL     1      -7.876  31.001  46.786  1.00  0.00    -0.011 C 
ATOM      9  C   UNL     1      -7.457  31.417  45.366  1.00  0.00     0.008 C 
ATOM     10  C   UNL     1      -6.855  31.528  47.807  1.00  0.00     0.008 C 
ENDBRANCH   5   8
ENDBRANCH   4   5
ENDBRANCH   1   3
BRANCH   1  11
ATOM     11  C   UNL     1      -4.493  25.912  47.683  1.00  0.00     0.002 C 
ATOM     12  C   UNL     1      -3.260  26.485  48.434  1.00  0.00     0.005 C 
ATOM     13  C   UNL     1      -4.064  24.480  47.224  1.00  0.00    -0.023 C 
ATOM     14  C   UNL     1      -2.326  25.300  48.726  1.00  0.00     0.009 C 
ATOM     15  C   UNL     1      -3.186  24.081  48.415  1.00  0.00     0.021 C 
ATOM     16  C   UNL     1      -5.227  23.439  47.066  1.00  0.00     0.008 C 
ATOM     17  C   UNL     1      -3.239  24.521  45.905  1.00  0.00     0.012 C 
ATOM     18  C   UNL     1      -2.598  22.710  48.189  1.00  0.00    -0.067 C 
ATOM     19  C   UNL     1      -5.080  22.106  47.867  1.00  0.00     0.009 C 
ATOM     20  C   UNL     1      -3.625  21.584  48.168  1.00  0.00     0.021 C 
ATOM     21  C   UNL     1      -1.278  22.485  48.018  1.00  0.00    -0.027 C 
ATOM     22  C   UNL     1      -3.153  20.321  47.361  1.00  0.00    -0.023 C 
ATOM     23  C   UNL     1      -0.717  21.138  47.635  1.00  0.00     0.031 C 
ATOM     24  C   UNL     1      -1.711  19.984  47.871  1.00  0.00     0.002 C 
ATOM     25  C   UNL     1      -4.077  19.102  47.679  1.00  0.00     0.010 C 
ATOM     26  C   UNL     1      -3.181  20.604  45.834  1.00  0.00     0.012 C 
ATOM     27  C   UNL     1      -1.169  18.660  47.297  1.00  0.00     0.036 C 
ATOM     28  C   UNL     1      -3.529  17.757  47.165  1.00  0.00     0.032 C 
ATOM     29  C   UNL     1      -2.097  17.485  47.646  1.00  0.00     0.114 C 
BRANCH  29  30
ATOM     30  O   UNL     1      -2.103  17.255  49.032  1.00  0.00    -0.393 OA
ATOM     31  H   UNL     1      -2.817  17.829  49.415  1.00  0.00     0.210 HD
ENDBRANCH  29  30
ENDBRANCH   1  11
TORSDOF 6
ENDMDL
