MODEL 1
REMARK VINA RESULT:    -3.403      0.000      0.000
REMARK INTER + INTRA:          -4.835
REMARK INTER:                  -4.597
REMARK INTRA:                  -0.238
REMARK UNBOUND:                -0.238
REMARK SMILES [NH3+]CCCC[C@H]([NH3+])C(=O)[O-]
REMARK SMILES IDX 4 1 3 2 2 3 1 4 5 8 6 9 7 10 8 14 9 15 10 16
REMARK H PARENT 1 5 1 6 1 7 7 11 7 12 7 13
REMARK Flexibility Score: inf
ROOT
ATOM      1  C   UNL     1      14.003   3.278 -21.978  1.00  0.00     0.012 C 
ENDROOT
BRANCH   1   2
ATOM      2  C   UNL     1      14.116   2.343 -23.191  1.00  0.00     0.061 C 
BRANCH   2   3
ATOM      3  C   UNL     1      12.926   2.529 -24.141  1.00  0.00     0.258 C 
BRANCH   3   4
ATOM      4  N   UNL     1      13.167   1.862 -25.419  1.00  0.00    -0.358 N 
ATOM      5  H   UNL     1      12.530   1.037 -25.500  1.00  0.00     0.344 HD
ATOM      6  H   UNL     1      12.973   2.518 -26.210  1.00  0.00     0.344 HD
ATOM      7  H   UNL     1      14.158   1.530 -25.471  1.00  0.00     0.344 HD
ENDBRANCH   3   4
ENDBRANCH   2   3
ENDBRANCH   1   2
BRANCH   1   8
ATOM      8  C   UNL     1      13.537   2.550 -20.702  1.00  0.00     0.072 C 
BRANCH   8   9
ATOM      9  C   UNL     1      12.232   3.110 -20.090  1.00  0.00     0.227 C 
BRANCH   9  10
ATOM     10  N   UNL     1      12.013   2.544 -18.753  1.00  0.00    -0.350 N 
ATOM     11  H   UNL     1      11.040   2.757 -18.434  1.00  0.00     0.345 HD
ATOM     12  H   UNL     1      12.694   2.943 -18.065  1.00  0.00     0.345 HD
ATOM     13  H   UNL     1      12.127   1.504 -18.784  1.00  0.00     0.345 HD
ENDBRANCH   9  10
BRANCH   9  14
ATOM     14  C   UNL     1      11.046   2.813 -20.971  1.00  0.00     0.099 C 
ATOM     15  O   UNL     1      10.538   1.660 -20.980  1.00  0.00    -0.544 OA
ATOM     16  O   UNL     1      10.500   3.808 -21.772  1.00  0.00    -0.544 OA
ENDBRANCH   9  14
ENDBRANCH   8   9
ENDBRANCH   1   8
TORSDOF 7
ENDMDL
MODEL 2
REMARK VINA RESULT:    -3.396      3.417      4.416
REMARK INTER + INTRA:          -4.825
REMARK INTER:                  -4.313
REMARK INTRA:                  -0.511
REMARK UNBOUND:                -0.238
REMARK SMILES [NH3+]CCCC[C@H]([NH3+])C(=O)[O-]
REMARK SMILES IDX 4 1 3 2 2 3 1 4 5 8 6 9 7 10 8 14 9 15 10 16
REMARK H PARENT 1 5 1 6 1 7 7 11 7 12 7 13
REMARK Flexibility Score: inf
ROOT
ATOM      1  C   UNL     1      16.874   0.699 -21.694  1.00  0.00     0.012 C 
ENDROOT
BRANCH   1   2
ATOM      2  C   UNL     1      16.309  -0.693 -21.374  1.00  0.00     0.061 C 
BRANCH   2   3
ATOM      3  C   UNL     1      16.298  -0.946 -19.861  1.00  0.00     0.258 C 
BRANCH   3   4
ATOM      4  N   UNL     1      15.328  -0.080 -19.192  1.00  0.00    -0.358 N 
ATOM      5  H   UNL     1      14.667   0.307 -19.903  1.00  0.00     0.344 HD
ATOM      6  H   UNL     1      14.784  -0.627 -18.486  1.00  0.00     0.344 HD
ATOM      7  H   UNL     1      15.820   0.714 -18.721  1.00  0.00     0.344 HD
ENDBRANCH   3   4
ENDBRANCH   2   3
ENDBRANCH   1   2
BRANCH   1   8
ATOM      8  C   UNL     1      15.923   1.547 -22.560  1.00  0.00     0.072 C 
BRANCH   8   9
ATOM      9  C   UNL     1      15.434   2.848 -21.882  1.00  0.00     0.227 C 
BRANCH   9  10
ATOM     10  N   UNL     1      16.312   3.197 -20.759  1.00  0.00    -0.350 N 
ATOM     11  H   UNL     1      15.735   3.474 -19.932  1.00  0.00     0.345 HD
ATOM     12  H   UNL     1      16.945   3.991 -21.015  1.00  0.00     0.345 HD
ATOM     13  H   UNL     1      16.892   2.369 -20.490  1.00  0.00     0.345 HD
ENDBRANCH   9  10
BRANCH   9  14
ATOM     14  C   UNL     1      14.014   2.709 -21.397  1.00  0.00     0.099 C 
ATOM     15  O   UNL     1      13.781   2.250 -20.247  1.00  0.00    -0.544 OA
ATOM     16  O   UNL     1      12.954   3.093 -22.209  1.00  0.00    -0.544 OA
ENDBRANCH   9  14
ENDBRANCH   8   9
ENDBRANCH   1   8
TORSDOF 7
ENDMDL
MODEL 3
REMARK VINA RESULT:    -3.362     13.906     14.504
REMARK INTER + INTRA:          -4.780
REMARK INTER:                  -4.633
REMARK INTRA:                  -0.147
REMARK UNBOUND:                -0.238
REMARK SMILES [NH3+]CCCC[C@H]([NH3+])C(=O)[O-]
REMARK SMILES IDX 4 1 3 2 2 3 1 4 5 8 6 9 7 10 8 14 9 15 10 16
REMARK H PARENT 1 5 1 6 1 7 7 11 7 12 7 13
REMARK Flexibility Score: inf
ROOT
ATOM      1  C   UNL     1      26.618  -0.237 -22.939  1.00  0.00     0.012 C 
ENDROOT
BRANCH   1   2
ATOM      2  C   UNL     1      27.096  -1.619 -22.471  1.00  0.00     0.061 C 
BRANCH   2   3
ATOM      3  C   UNL     1      26.127  -2.215 -21.440  1.00  0.00     0.258 C 
BRANCH   3   4
ATOM      4  N   UNL     1      26.831  -2.591 -20.216  1.00  0.00    -0.358 N 
ATOM      5  H   UNL     1      26.469  -2.015 -19.422  1.00  0.00     0.344 HD
ATOM      6  H   UNL     1      26.668  -3.602 -20.003  1.00  0.00     0.344 HD
ATOM      7  H   UNL     1      27.857  -2.413 -20.321  1.00  0.00     0.344 HD
ENDBRANCH   3   4
ENDBRANCH   2   3
ENDBRANCH   1   2
BRANCH   1   8
ATOM      8  C   UNL     1      25.826   0.521 -21.856  1.00  0.00     0.072 C 
BRANCH   8   9
ATOM      9  C   UNL     1      26.504   1.820 -21.363  1.00  0.00     0.227 C 
BRANCH   9  10
ATOM     10  N   UNL     1      27.928   1.581 -21.096  1.00  0.00    -0.350 N 
ATOM     11  H   UNL     1      28.207   0.647 -21.476  1.00  0.00     0.345 HD
ATOM     12  H   UNL     1      28.122   1.603 -20.068  1.00  0.00     0.345 HD
ATOM     13  H   UNL     1      28.507   2.312 -21.571  1.00  0.00     0.345 HD
ENDBRANCH   9  10
BRANCH   9  14
ATOM     14  C   UNL     1      25.833   2.347 -20.120  1.00  0.00     0.099 C 
ATOM     15  O   UNL     1      26.019   3.540 -19.759  1.00  0.00    -0.544 OA
ATOM     16  O   UNL     1      25.001   1.525 -19.370  1.00  0.00    -0.544 OA
ENDBRANCH   9  14
ENDBRANCH   8   9
ENDBRANCH   1   8
TORSDOF 7
ENDMDL
MODEL 4
REMARK VINA RESULT:    -3.356      3.692      5.544
REMARK INTER + INTRA:          -4.770
REMARK INTER:                  -4.572
REMARK INTRA:                  -0.198
REMARK UNBOUND:                -0.238
REMARK SMILES [NH3+]CCCC[C@H]([NH3+])C(=O)[O-]
REMARK SMILES IDX 4 1 3 2 2 3 1 4 5 8 6 9 7 10 8 14 9 15 10 16
REMARK H PARENT 1 5 1 6 1 7 7 11 7 12 7 13
REMARK Flexibility Score: inf
ROOT
ATOM      1  C   UNL     1      12.116   5.588 -16.789  1.00  0.00     0.012 C 
ENDROOT
BRANCH   1   2
ATOM      2  C   UNL     1      13.083   6.772 -16.644  1.00  0.00     0.061 C 
BRANCH   2   3
ATOM      3  C   UNL     1      13.758   7.097 -17.983  1.00  0.00     0.258 C 
BRANCH   3   4
ATOM      4  N   UNL     1      15.136   7.543 -17.780  1.00  0.00    -0.358 N 
ATOM      5  H   UNL     1      15.540   7.834 -18.700  1.00  0.00     0.344 HD
ATOM      6  H   UNL     1      15.156   8.360 -17.128  1.00  0.00     0.344 HD
ATOM      7  H   UNL     1      15.713   6.764 -17.388  1.00  0.00     0.344 HD
ENDBRANCH   3   4
ENDBRANCH   2   3
ENDBRANCH   1   2
BRANCH   1   8
ATOM      8  C   UNL     1      11.538   5.458 -18.212  1.00  0.00     0.072 C 
BRANCH   8   9
ATOM      9  C   UNL     1      11.388   4.001 -18.707  1.00  0.00     0.227 C 
BRANCH   9  10
ATOM     10  N   UNL     1      11.475   3.067 -17.578  1.00  0.00    -0.350 N 
ATOM     11  H   UNL     1      12.001   2.211 -17.867  1.00  0.00     0.345 HD
ATOM     12  H   UNL     1      10.520   2.789 -17.253  1.00  0.00     0.345 HD
ATOM     13  H   UNL     1      11.991   3.515 -16.785  1.00  0.00     0.345 HD
ENDBRANCH   9  10
BRANCH   9  14
ATOM     14  C   UNL     1      12.441   3.663 -19.732  1.00  0.00     0.099 C 
ATOM     15  O   UNL     1      12.949   4.573 -20.440  1.00  0.00    -0.544 OA
ATOM     16  O   UNL     1      12.865   2.350 -19.896  1.00  0.00    -0.544 OA
ENDBRANCH   9  14
ENDBRANCH   8   9
ENDBRANCH   1   8
TORSDOF 7
ENDMDL
MODEL 5
REMARK VINA RESULT:    -3.342      6.139      7.737
REMARK INTER + INTRA:          -4.752
REMARK INTER:                  -4.615
REMARK INTRA:                  -0.137
REMARK UNBOUND:                -0.238
REMARK SMILES [NH3+]CCCC[C@H]([NH3+])C(=O)[O-]
REMARK SMILES IDX 4 1 3 2 2 3 1 4 5 8 6 9 7 10 8 14 9 15 10 16
REMARK H PARENT 1 5 1 6 1 7 7 11 7 12 7 13
REMARK Flexibility Score: inf
ROOT
ATOM      1  C   UNL     1      16.639  -0.936 -21.291  1.00  0.00     0.012 C 
ENDROOT
BRANCH   1   2
ATOM      2  C   UNL     1      16.451   0.584 -21.188  1.00  0.00     0.061 C 
BRANCH   2   3
ATOM      3  C   UNL     1      15.612   0.951 -19.956  1.00  0.00     0.258 C 
BRANCH   3   4
ATOM      4  N   UNL     1      15.399  -0.215 -19.101  1.00  0.00    -0.358 N 
ATOM      5  H   UNL     1      14.422  -0.562 -19.232  1.00  0.00     0.344 HD
ATOM      6  H   UNL     1      16.068  -0.977 -19.358  1.00  0.00     0.344 HD
ATOM      7  H   UNL     1      15.532   0.047 -18.096  1.00  0.00     0.344 HD
ENDBRANCH   3   4
ENDBRANCH   2   3
ENDBRANCH   1   2
BRANCH   1   8
ATOM      8  C   UNL     1      16.524  -1.458 -22.737  1.00  0.00     0.072 C 
BRANCH   8   9
ATOM      9  C   UNL     1      17.800  -1.264 -23.587  1.00  0.00     0.227 C 
BRANCH   9  10
ATOM     10  N   UNL     1      17.772  -2.150 -24.757  1.00  0.00    -0.350 N 
ATOM     11  H   UNL     1      17.709  -3.146 -24.445  1.00  0.00     0.345 HD
ATOM     12  H   UNL     1      18.634  -2.026 -25.337  1.00  0.00     0.345 HD
ATOM     13  H   UNL     1      16.931  -1.938 -25.343  1.00  0.00     0.345 HD
ENDBRANCH   9  10
BRANCH   9  14
ATOM     14  C   UNL     1      19.042  -1.530 -22.775  1.00  0.00     0.099 C 
ATOM     15  O   UNL     1      19.852  -0.596 -22.533  1.00  0.00    -0.544 OA
ATOM     16  O   UNL     1      19.298  -2.804 -22.281  1.00  0.00    -0.544 OA
ENDBRANCH   9  14
ENDBRANCH   8   9
ENDBRANCH   1   8
TORSDOF 7
ENDMDL
MODEL 6
REMARK VINA RESULT:    -3.327      2.717      3.182
REMARK INTER + INTRA:          -4.732
REMARK INTER:                  -4.174
REMARK INTRA:                  -0.557
REMARK UNBOUND:                -0.238
REMARK SMILES [NH3+]CCCC[C@H]([NH3+])C(=O)[O-]
REMARK SMILES IDX 4 1 3 2 2 3 1 4 5 8 6 9 7 10 8 14 9 15 10 16
REMARK H PARENT 1 5 1 6 1 7 7 11 7 12 7 13
REMARK Flexibility Score: inf
ROOT
ATOM      1  C   UNL     1      12.977   3.098 -22.221  1.00  0.00     0.012 C 
ENDROOT
BRANCH   1   2
ATOM      2  C   UNL     1      13.862   2.429 -23.282  1.00  0.00     0.061 C 
BRANCH   2   3
ATOM      3  C   UNL     1      13.015   1.622 -24.275  1.00  0.00     0.258 C 
BRANCH   3   4
ATOM      4  N   UNL     1      13.295   2.026 -25.652  1.00  0.00    -0.358 N 
ATOM      5  H   UNL     1      13.027   3.029 -25.776  1.00  0.00     0.344 HD
ATOM      6  H   UNL     1      14.315   1.921 -25.857  1.00  0.00     0.344 HD
ATOM      7  H   UNL     1      12.739   1.443 -26.318  1.00  0.00     0.344 HD
ENDBRANCH   3   4
ENDBRANCH   2   3
ENDBRANCH   1   2
BRANCH   1   8
ATOM      8  C   UNL     1      12.643   4.565 -22.558  1.00  0.00     0.072 C 
BRANCH   8   9
ATOM      9  C   UNL     1      11.167   4.807 -22.950  1.00  0.00     0.227 C 
BRANCH   9  10
ATOM     10  N   UNL     1      10.321   3.716 -22.450  1.00  0.00    -0.350 N 
ATOM     11  H   UNL     1      10.886   3.084 -21.838  1.00  0.00     0.345 HD
ATOM     12  H   UNL     1       9.926   3.160 -23.244  1.00  0.00     0.345 HD
ATOM     13  H   UNL     1       9.536   4.108 -21.880  1.00  0.00     0.345 HD
ENDBRANCH   9  10
BRANCH   9  14
ATOM     14  C   UNL     1      11.014   4.929 -24.445  1.00  0.00     0.099 C 
ATOM     15  O   UNL     1       9.876   5.117 -24.950  1.00  0.00    -0.544 OA
ATOM     16  O   UNL     1      12.126   4.842 -25.274  1.00  0.00    -0.544 OA
ENDBRANCH   9  14
ENDBRANCH   8   9
ENDBRANCH   1   8
TORSDOF 7
ENDMDL
MODEL 7
REMARK VINA RESULT:    -3.277      2.542      4.922
REMARK INTER + INTRA:          -4.665
REMARK INTER:                  -4.467
REMARK INTRA:                  -0.198
REMARK UNBOUND:                -0.238
REMARK SMILES [NH3+]CCCC[C@H]([NH3+])C(=O)[O-]
REMARK SMILES IDX 4 1 3 2 2 3 1 4 5 8 6 9 7 10 8 14 9 15 10 16
REMARK H PARENT 1 5 1 6 1 7 7 11 7 12 7 13
REMARK Flexibility Score: inf
ROOT
ATOM      1  C   UNL     1      11.002   2.689 -19.029  1.00  0.00     0.012 C 
ENDROOT
BRANCH   1   2
ATOM      2  C   UNL     1      11.446   4.139 -18.786  1.00  0.00     0.061 C 
BRANCH   2   3
ATOM      3  C   UNL     1      11.292   4.520 -17.308  1.00  0.00     0.258 C 
BRANCH   3   4
ATOM      4  N   UNL     1      11.478   3.355 -16.444  1.00  0.00    -0.358 N 
ATOM      5  H   UNL     1      10.584   2.815 -16.401  1.00  0.00     0.344 HD
ATOM      6  H   UNL     1      12.228   2.737 -16.830  1.00  0.00     0.344 HD
ATOM      7  H   UNL     1      11.735   3.661 -15.477  1.00  0.00     0.344 HD
ENDBRANCH   3   4
ENDBRANCH   2   3
ENDBRANCH   1   2
BRANCH   1   8
ATOM      8  C   UNL     1      10.737   2.385 -20.517  1.00  0.00     0.072 C 
BRANCH   8   9
ATOM      9  C   UNL     1      11.317   3.434 -21.494  1.00  0.00     0.227 C 
BRANCH   9  10
ATOM     10  N   UNL     1      10.299   3.836 -22.472  1.00  0.00    -0.350 N 
ATOM     11  H   UNL     1      10.761   4.268 -23.305  1.00  0.00     0.345 HD
ATOM     12  H   UNL     1       9.634   4.528 -22.053  1.00  0.00     0.345 HD
ATOM     13  H   UNL     1       9.764   2.997 -22.794  1.00  0.00     0.345 HD
ENDBRANCH   9  10
BRANCH   9  14
ATOM     14  C   UNL     1      12.531   2.899 -22.210  1.00  0.00     0.099 C 
ATOM     15  O   UNL     1      12.478   2.649 -23.443  1.00  0.00    -0.544 OA
ATOM     16  O   UNL     1      13.717   2.687 -21.518  1.00  0.00    -0.544 OA
ENDBRANCH   9  14
ENDBRANCH   8   9
ENDBRANCH   1   8
TORSDOF 7
ENDMDL
MODEL 8
REMARK VINA RESULT:    -3.256      2.472      4.427
REMARK INTER + INTRA:          -4.636
REMARK INTER:                  -4.132
REMARK INTRA:                  -0.503
REMARK UNBOUND:                -0.238
REMARK SMILES [NH3+]CCCC[C@H]([NH3+])C(=O)[O-]
REMARK SMILES IDX 4 1 3 2 2 3 1 4 5 8 6 9 7 10 8 14 9 15 10 16
REMARK H PARENT 1 5 1 6 1 7 7 11 7 12 7 13
REMARK Flexibility Score: inf
ROOT
ATOM      1  C   UNL     1      10.679   3.260 -21.717  1.00  0.00     0.012 C 
ENDROOT
BRANCH   1   2
ATOM      2  C   UNL     1      10.612   2.178 -20.630  1.00  0.00     0.061 C 
BRANCH   2   3
ATOM      3  C   UNL     1      10.737   2.796 -19.231  1.00  0.00     0.258 C 
BRANCH   3   4
ATOM      4  N   UNL     1      12.069   2.565 -18.674  1.00  0.00    -0.358 N 
ATOM      5  H   UNL     1      12.246   3.260 -17.913  1.00  0.00     0.344 HD
ATOM      6  H   UNL     1      12.129   1.601 -18.273  1.00  0.00     0.344 HD
ATOM      7  H   UNL     1      12.795   2.685 -19.417  1.00  0.00     0.344 HD
ENDBRANCH   3   4
ENDBRANCH   2   3
ENDBRANCH   1   2
BRANCH   1   8
ATOM      8  C   UNL     1      11.878   3.080 -22.668  1.00  0.00     0.072 C 
BRANCH   8   9
ATOM      9  C   UNL     1      13.183   3.750 -22.182  1.00  0.00     0.227 C 
BRANCH   9  10
ATOM     10  N   UNL     1      13.723   4.631 -23.225  1.00  0.00    -0.350 N 
ATOM     11  H   UNL     1      14.432   4.113 -23.793  1.00  0.00     0.345 HD
ATOM     12  H   UNL     1      14.174   5.474 -22.801  1.00  0.00     0.345 HD
ATOM     13  H   UNL     1      12.953   4.938 -23.865  1.00  0.00     0.345 HD
ENDBRANCH   9  10
BRANCH   9  14
ATOM     14  C   UNL     1      14.215   2.719 -21.799  1.00  0.00     0.099 C 
ATOM     15  O   UNL     1      14.305   2.329 -20.605  1.00  0.00    -0.544 OA
ATOM     16  O   UNL     1      15.066   2.189 -22.760  1.00  0.00    -0.544 OA
ENDBRANCH   9  14
ENDBRANCH   8   9
ENDBRANCH   1   8
TORSDOF 7
ENDMDL
MODEL 9
REMARK VINA RESULT:    -3.222      1.890      2.236
REMARK INTER + INTRA:          -4.590
REMARK INTER:                  -4.447
REMARK INTRA:                  -0.143
REMARK UNBOUND:                -0.238
REMARK SMILES [NH3+]CCCC[C@H]([NH3+])C(=O)[O-]
REMARK SMILES IDX 4 1 3 2 2 3 1 4 5 8 6 9 7 10 8 14 9 15 10 16
REMARK H PARENT 1 5 1 6 1 7 7 11 7 12 7 13
REMARK Flexibility Score: inf
ROOT
ATOM      1  C   UNL     1      11.935   4.108 -22.952  1.00  0.00     0.012 C 
ENDROOT
BRANCH   1   2
ATOM      2  C   UNL     1      12.966   3.031 -23.320  1.00  0.00     0.061 C 
BRANCH   2   3
ATOM      3  C   UNL     1      13.494   3.239 -24.746  1.00  0.00     0.258 C 
BRANCH   3   4
ATOM      4  N   UNL     1      13.259   2.054 -25.569  1.00  0.00    -0.358 N 
ATOM      5  H   UNL     1      12.955   1.265 -24.954  1.00  0.00     0.344 HD
ATOM      6  H   UNL     1      12.506   2.246 -26.270  1.00  0.00     0.344 HD
ATOM      7  H   UNL     1      14.139   1.778 -26.063  1.00  0.00     0.344 HD
ENDBRANCH   3   4
ENDBRANCH   2   3
ENDBRANCH   1   2
BRANCH   1   8
ATOM      8  C   UNL     1      10.806   3.573 -22.050  1.00  0.00     0.072 C 
BRANCH   8   9
ATOM      9  C   UNL     1      11.191   2.326 -21.221  1.00  0.00     0.227 C 
BRANCH   9  10
ATOM     10  N   UNL     1      10.003   1.506 -20.955  1.00  0.00    -0.350 N 
ATOM     11  H   UNL     1       9.209   2.119 -20.659  1.00  0.00     0.345 HD
ATOM     12  H   UNL     1      10.196   0.808 -20.199  1.00  0.00     0.345 HD
ATOM     13  H   UNL     1       9.719   0.999 -21.825  1.00  0.00     0.345 HD
ENDBRANCH   9  10
BRANCH   9  14
ATOM     14  C   UNL     1      11.844   2.718 -19.919  1.00  0.00     0.099 C 
ATOM     15  O   UNL     1      12.963   2.234 -19.603  1.00  0.00    -0.544 OA
ATOM     16  O   UNL     1      11.220   3.619 -19.065  1.00  0.00    -0.544 OA
ENDBRANCH   9  14
ENDBRANCH   8   9
ENDBRANCH   1   8
TORSDOF 7
ENDMDL
