MODEL 1
REMARK VINA RESULT:    -5.270      0.000      0.000
REMARK INTER + INTRA:          -5.665
REMARK INTER:                  -5.578
REMARK INTRA:                  -0.087
REMARK UNBOUND:                -0.087
REMARK SMILES C=C(C)[C@H]1CC=C(C)C(=O)C1
REMARK SMILES IDX 8 1 7 2 6 3 5 4 4 5 11 6 9 7 10 8 2 9 1 10 3 11
REMARK H PARENT
REMARK Flexibility Score: inf
ROOT
ATOM      1  C   UNL     1      -2.690  28.867  51.524  1.00  0.00     0.048 C 
ATOM      2  C   UNL     1      -1.588  28.264  52.350  1.00  0.00    -0.012 C 
ATOM      3  C   UNL     1      -1.626  26.958  52.666  1.00  0.00    -0.019 C 
ATOM      4  C   UNL     1      -0.559  26.308  53.506  1.00  0.00     0.036 C 
ATOM      5  C   UNL     1       0.813  26.965  53.264  1.00  0.00     0.025 C 
ATOM      6  C   UNL     1       0.728  28.483  53.503  1.00  0.00     0.089 C 
ATOM      7  C   UNL     1      -0.401  29.081  52.710  1.00  0.00     0.158 C 
ATOM      8  O   UNL     1      -0.348  30.297  52.384  1.00  0.00    -0.295 OA
ENDROOT
BRANCH   5   9
ATOM      9  C   UNL     1       1.896  26.326  54.124  1.00  0.00    -0.077 C 
ATOM     10  C   UNL     1       2.959  25.745  53.546  1.00  0.00     0.008 C 
ATOM     11  C   UNL     1       1.808  26.330  55.631  1.00  0.00     0.039 C 
ENDBRANCH   5   9
TORSDOF 1
ENDMDL
MODEL 2
REMARK VINA RESULT:    -5.152      0.561      1.173
REMARK INTER + INTRA:          -5.540
REMARK INTER:                  -5.444
REMARK INTRA:                  -0.096
REMARK UNBOUND:                -0.087
REMARK SMILES C=C(C)[C@H]1CC=C(C)C(=O)C1
REMARK SMILES IDX 8 1 7 2 6 3 5 4 4 5 11 6 9 7 10 8 2 9 1 10 3 11
REMARK H PARENT
REMARK Flexibility Score: inf
ROOT
ATOM      1  C   UNL     1      -2.992  29.195  51.276  1.00  0.00     0.048 C 
ATOM      2  C   UNL     1      -1.912  28.632  52.158  1.00  0.00    -0.012 C 
ATOM      3  C   UNL     1      -2.015  27.375  52.622  1.00  0.00    -0.019 C 
ATOM      4  C   UNL     1      -0.973  26.768  53.524  1.00  0.00     0.036 C 
ATOM      5  C   UNL     1       0.429  27.317  53.197  1.00  0.00     0.025 C 
ATOM      6  C   UNL     1       0.428  28.855  53.261  1.00  0.00     0.089 C 
ATOM      7  C   UNL     1      -0.679  29.419  52.412  1.00  0.00     0.158 C 
ATOM      8  O   UNL     1      -0.565  30.585  51.948  1.00  0.00    -0.295 OA
ENDROOT
BRANCH   5   9
ATOM      9  C   UNL     1       1.488  26.724  54.117  1.00  0.00    -0.077 C 
ATOM     10  C   UNL     1       1.449  26.970  55.436  1.00  0.00     0.008 C 
ATOM     11  C   UNL     1       2.595  25.850  53.580  1.00  0.00     0.039 C 
ENDBRANCH   5   9
TORSDOF 1
ENDMDL
MODEL 3
REMARK VINA RESULT:    -5.072      1.570      4.342
REMARK INTER + INTRA:          -5.455
REMARK INTER:                  -5.358
REMARK INTRA:                  -0.097
REMARK UNBOUND:                -0.087
REMARK SMILES C=C(C)[C@H]1CC=C(C)C(=O)C1
REMARK SMILES IDX 8 1 7 2 6 3 5 4 4 5 11 6 9 7 10 8 2 9 1 10 3 11
REMARK H PARENT
REMARK Flexibility Score: inf
ROOT
ATOM      1  C   UNL     1       1.175  25.460  54.630  1.00  0.00     0.048 C 
ATOM      2  C   UNL     1       0.506  26.499  53.774  1.00  0.00    -0.012 C 
ATOM      3  C   UNL     1      -0.721  26.268  53.276  1.00  0.00    -0.019 C 
ATOM      4  C   UNL     1      -1.428  27.266  52.398  1.00  0.00     0.036 C 
ATOM      5  C   UNL     1      -1.053  28.709  52.786  1.00  0.00     0.025 C 
ATOM      6  C   UNL     1       0.476  28.889  52.759  1.00  0.00     0.089 C 
ATOM      7  C   UNL     1       1.148  27.824  53.581  1.00  0.00     0.158 C 
ATOM      8  O   UNL     1       2.284  28.055  54.077  1.00  0.00    -0.295 OA
ENDROOT
BRANCH   5   9
ATOM      9  C   UNL     1      -1.748  29.725  51.890  1.00  0.00    -0.077 C 
ATOM     10  C   UNL     1      -2.891  29.401  51.264  1.00  0.00     0.008 C 
ATOM     11  C   UNL     1      -1.183  31.109  51.684  1.00  0.00     0.039 C 
ENDBRANCH   5   9
TORSDOF 1
ENDMDL
MODEL 4
REMARK VINA RESULT:    -5.014      1.941      4.985
REMARK INTER + INTRA:          -5.394
REMARK INTER:                  -5.297
REMARK INTRA:                  -0.097
REMARK UNBOUND:                -0.087
REMARK SMILES C=C(C)[C@H]1CC=C(C)C(=O)C1
REMARK SMILES IDX 8 1 7 2 6 3 5 4 4 5 11 6 9 7 10 8 2 9 1 10 3 11
REMARK H PARENT
REMARK Flexibility Score: inf
ROOT
ATOM      1  C   UNL     1       1.119  26.356  54.031  1.00  0.00     0.048 C 
ATOM      2  C   UNL     1       0.276  27.406  53.363  1.00  0.00    -0.012 C 
ATOM      3  C   UNL     1       0.789  28.626  53.126  1.00  0.00    -0.019 C 
ATOM      4  C   UNL     1      -0.017  29.720  52.477  1.00  0.00     0.036 C 
ATOM      5  C   UNL     1      -1.026  29.139  51.468  1.00  0.00     0.025 C 
ATOM      6  C   UNL     1      -1.917  28.085  52.149  1.00  0.00     0.089 C 
ATOM      7  C   UNL     1      -1.075  27.057  52.855  1.00  0.00     0.158 C 
ATOM      8  O   UNL     1      -1.544  25.903  53.045  1.00  0.00    -0.295 OA
ENDROOT
BRANCH   5   9
ATOM      9  C   UNL     1      -1.860  30.237  50.820  1.00  0.00    -0.077 C 
ATOM     10  C   UNL     1      -2.977  30.677  51.421  1.00  0.00     0.008 C 
ATOM     11  C   UNL     1      -1.459  30.855  49.504  1.00  0.00     0.039 C 
ENDBRANCH   5   9
TORSDOF 1
ENDMDL
MODEL 5
REMARK VINA RESULT:    -4.978      1.380      2.276
REMARK INTER + INTRA:          -5.356
REMARK INTER:                  -5.267
REMARK INTRA:                  -0.088
REMARK UNBOUND:                -0.087
REMARK SMILES C=C(C)[C@H]1CC=C(C)C(=O)C1
REMARK SMILES IDX 8 1 7 2 6 3 5 4 4 5 11 6 9 7 10 8 2 9 1 10 3 11
REMARK H PARENT
REMARK Flexibility Score: inf
ROOT
ATOM      1  C   UNL     1      -2.497  29.748  52.073  1.00  0.00     0.048 C 
ATOM      2  C   UNL     1      -1.374  28.861  52.534  1.00  0.00    -0.012 C 
ATOM      3  C   UNL     1      -0.136  29.365  52.669  1.00  0.00    -0.019 C 
ATOM      4  C   UNL     1       1.029  28.517  53.108  1.00  0.00     0.036 C 
ATOM      5  C   UNL     1       0.574  27.415  54.084  1.00  0.00     0.025 C 
ATOM      6  C   UNL     1      -0.553  26.576  53.455  1.00  0.00     0.089 C 
ATOM      7  C   UNL     1      -1.658  27.466  52.956  1.00  0.00     0.158 C 
ATOM      8  O   UNL     1      -2.827  27.002  52.863  1.00  0.00    -0.295 OA
ENDROOT
BRANCH   5   9
ATOM      9  C   UNL     1       1.742  26.540  54.519  1.00  0.00    -0.077 C 
ATOM     10  C   UNL     1       1.888  26.206  55.812  1.00  0.00     0.008 C 
ATOM     11  C   UNL     1       2.754  26.028  53.525  1.00  0.00     0.039 C 
ENDBRANCH   5   9
TORSDOF 1
ENDMDL
MODEL 6
REMARK VINA RESULT:    -4.900      2.657      4.143
REMARK INTER + INTRA:          -5.274
REMARK INTER:                  -5.176
REMARK INTRA:                  -0.098
REMARK UNBOUND:                -0.087
REMARK SMILES C=C(C)[C@H]1CC=C(C)C(=O)C1
REMARK SMILES IDX 8 1 7 2 6 3 5 4 4 5 11 6 9 7 10 8 2 9 1 10 3 11
REMARK H PARENT
REMARK Flexibility Score: inf
ROOT
ATOM      1  C   UNL     1      -1.860  31.501  48.158  1.00  0.00     0.048 C 
ATOM      2  C   UNL     1      -1.821  30.771  49.472  1.00  0.00    -0.012 C 
ATOM      3  C   UNL     1      -2.961  30.543  50.145  1.00  0.00    -0.019 C 
ATOM      4  C   UNL     1      -2.978  29.833  51.473  1.00  0.00     0.036 C 
ATOM      5  C   UNL     1      -1.855  28.781  51.552  1.00  0.00     0.025 C 
ATOM      6  C   UNL     1      -0.492  29.431  51.255  1.00  0.00     0.089 C 
ATOM      7  C   UNL     1      -0.542  30.197  49.962  1.00  0.00     0.158 C 
ATOM      8  O   UNL     1       0.524  30.380  49.314  1.00  0.00    -0.295 OA
ENDROOT
BRANCH   5   9
ATOM      9  C   UNL     1      -1.851  28.071  52.900  1.00  0.00    -0.077 C 
ATOM     10  C   UNL     1      -2.221  28.731  54.010  1.00  0.00     0.008 C 
ATOM     11  C   UNL     1      -1.441  26.624  53.025  1.00  0.00     0.039 C 
ENDBRANCH   5   9
TORSDOF 1
ENDMDL
MODEL 7
REMARK VINA RESULT:    -4.847      2.257      3.562
REMARK INTER + INTRA:          -5.218
REMARK INTER:                  -5.120
REMARK INTRA:                  -0.098
REMARK UNBOUND:                -0.087
REMARK SMILES C=C(C)[C@H]1CC=C(C)C(=O)C1
REMARK SMILES IDX 8 1 7 2 6 3 5 4 4 5 11 6 9 7 10 8 2 9 1 10 3 11
REMARK H PARENT
REMARK Flexibility Score: inf
ROOT
ATOM      1  C   UNL     1      -1.492  31.132  49.112  1.00  0.00     0.048 C 
ATOM      2  C   UNL     1      -1.340  30.333  50.376  1.00  0.00    -0.012 C 
ATOM      3  C   UNL     1      -0.135  30.235  50.964  1.00  0.00    -0.019 C 
ATOM      4  C   UNL     1       0.077  29.432  52.221  1.00  0.00     0.036 C 
ATOM      5  C   UNL     1      -1.177  29.461  53.115  1.00  0.00     0.025 C 
ATOM      6  C   UNL     1      -2.409  28.989  52.323  1.00  0.00     0.089 C 
ATOM      7  C   UNL     1      -2.539  29.758  51.038  1.00  0.00     0.158 C 
ATOM      8  O   UNL     1      -3.675  29.880  50.505  1.00  0.00    -0.295 OA
ENDROOT
BRANCH   5   9
ATOM      9  C   UNL     1      -0.978  28.636  54.380  1.00  0.00    -0.077 C 
ATOM     10  C   UNL     1       0.082  27.820  54.491  1.00  0.00     0.008 C 
ATOM     11  C   UNL     1      -1.951  28.713  55.530  1.00  0.00     0.039 C 
ENDBRANCH   5   9
TORSDOF 1
ENDMDL
MODEL 8
REMARK VINA RESULT:    -4.843      2.186      5.299
REMARK INTER + INTRA:          -5.213
REMARK INTER:                  -5.122
REMARK INTRA:                  -0.091
REMARK UNBOUND:                -0.087
REMARK SMILES C=C(C)[C@H]1CC=C(C)C(=O)C1
REMARK SMILES IDX 8 1 7 2 6 3 5 4 4 5 11 6 9 7 10 8 2 9 1 10 3 11
REMARK H PARENT
REMARK Flexibility Score: inf
ROOT
ATOM      1  C   UNL     1       0.206  27.452  54.105  1.00  0.00     0.048 C 
ATOM      2  C   UNL     1      -0.477  28.367  53.127  1.00  0.00    -0.012 C 
ATOM      3  C   UNL     1       0.180  29.431  52.636  1.00  0.00    -0.019 C 
ATOM      4  C   UNL     1      -0.463  30.391  51.669  1.00  0.00     0.036 C 
ATOM      5  C   UNL     1      -1.472  29.666  50.759  1.00  0.00     0.025 C 
ATOM      6  C   UNL     1      -2.511  28.910  51.607  1.00  0.00     0.089 C 
ATOM      7  C   UNL     1      -1.828  28.026  52.614  1.00  0.00     0.158 C 
ATOM      8  O   UNL     1      -2.432  27.008  53.048  1.00  0.00    -0.295 OA
ENDROOT
BRANCH   5   9
ATOM      9  C   UNL     1      -2.142  30.631  49.790  1.00  0.00    -0.077 C 
ATOM     10  C   UNL     1      -1.437  31.172  48.783  1.00  0.00     0.008 C 
ATOM     11  C   UNL     1      -3.598  31.001  49.929  1.00  0.00     0.039 C 
ENDBRANCH   5   9
TORSDOF 1
ENDMDL
MODEL 9
REMARK VINA RESULT:    -4.711      3.051      5.141
REMARK INTER + INTRA:          -5.073
REMARK INTER:                  -4.975
REMARK INTRA:                  -0.098
REMARK UNBOUND:                -0.087
REMARK SMILES C=C(C)[C@H]1CC=C(C)C(=O)C1
REMARK SMILES IDX 8 1 7 2 6 3 5 4 4 5 11 6 9 7 10 8 2 9 1 10 3 11
REMARK H PARENT
REMARK Flexibility Score: inf
ROOT
ATOM      1  C   UNL     1      -2.538  28.877  54.535  1.00  0.00     0.048 C 
ATOM      2  C   UNL     1      -2.237  29.225  53.104  1.00  0.00    -0.012 C 
ATOM      3  C   UNL     1      -2.784  30.322  52.553  1.00  0.00    -0.019 C 
ATOM      4  C   UNL     1      -2.532  30.707  51.119  1.00  0.00     0.036 C 
ATOM      5  C   UNL     1      -1.117  30.289  50.674  1.00  0.00     0.025 C 
ATOM      6  C   UNL     1      -0.902  28.785  50.921  1.00  0.00     0.089 C 
ATOM      7  C   UNL     1      -1.244  28.428  52.341  1.00  0.00     0.158 C 
ATOM      8  O   UNL     1      -0.703  27.418  52.868  1.00  0.00    -0.295 OA
ENDROOT
BRANCH   5   9
ATOM      9  C   UNL     1      -0.860  30.657  49.219  1.00  0.00    -0.077 C 
ATOM     10  C   UNL     1      -1.826  31.240  48.490  1.00  0.00     0.008 C 
ATOM     11  C   UNL     1       0.471  30.383  48.562  1.00  0.00     0.039 C 
ENDBRANCH   5   9
TORSDOF 1
ENDMDL
