MODEL 1
REMARK VINA RESULT:    -5.466      0.000      0.000
REMARK INTER + INTRA:          -6.287
REMARK INTER:                  -6.424
REMARK INTRA:                   0.137
REMARK UNBOUND:                 0.137
REMARK SMILES O=c1c(O)c(-c2ccc(O)c(O)c2)oc2cc(O)ccc12
REMARK SMILES IDX 5 1 3 2 2 3 1 4 21 5 15 6 14 7 16 8 17 9 19 10 20 11 6 12
REMARK SMILES IDX 7 13 8 14 9 15 13 16 11 17 10 18 12 20 4 22 18 24
REMARK H PARENT 10 19 12 21 4 23 18 25
REMARK Flexibility Score: inf
ROOT
ATOM      1  C   UNL     1       7.973  37.260  24.957  1.00  0.00     0.180 A 
ATOM      2  C   UNL     1       6.932  38.212  25.002  1.00  0.00     0.208 A 
ATOM      3  C   UNL     1       6.951  39.186  26.013  1.00  0.00     0.235 A 
ATOM      4  O   UNL     1       6.038  40.055  26.068  1.00  0.00    -0.285 OA
ATOM      5  C   UNL     1       7.987  39.179  26.960  1.00  0.00     0.069 A 
ATOM      6  C   UNL     1       8.978  38.179  26.860  1.00  0.00     0.142 A 
ATOM      7  O   UNL     1       8.929  37.280  25.883  1.00  0.00    -0.452 OA
ATOM      8  C   UNL     1      10.021  38.132  27.791  1.00  0.00     0.094 A 
ATOM      9  C   UNL     1      10.088  39.077  28.824  1.00  0.00     0.119 A 
ATOM     10  C   UNL     1       9.108  40.070  28.924  1.00  0.00     0.047 A 
ATOM     11  C   UNL     1       8.061  40.125  27.999  1.00  0.00     0.020 A 
ENDROOT
BRANCH   1  12
ATOM     12  C   UNL     1       8.035  36.213  23.912  1.00  0.00     0.025 A 
ATOM     13  C   UNL     1       9.261  35.932  23.289  1.00  0.00     0.016 A 
ATOM     14  C   UNL     1       9.340  34.962  22.286  1.00  0.00     0.051 A 
ATOM     15  C   UNL     1       8.190  34.271  21.881  1.00  0.00     0.157 A 
ATOM     16  C   UNL     1       6.880  35.532  23.488  1.00  0.00     0.062 A 
ATOM     17  C   UNL     1       6.957  34.559  22.480  1.00  0.00     0.158 A 
BRANCH  15  18
ATOM     18  O   UNL     1       8.265  33.302  20.883  1.00  0.00    -0.504 OA
ATOM     19  H   UNL     1       7.443  33.009  20.366  1.00  0.00     0.293 HD
ENDBRANCH  15  18
BRANCH  17  20
ATOM     20  O   UNL     1       5.813  33.880  22.065  1.00  0.00    -0.504 OA
ATOM     21  H   UNL     1       5.660  33.644  21.092  1.00  0.00     0.293 HD
ENDBRANCH  17  20
ENDBRANCH   1  12
BRANCH   2  22
ATOM     22  O   UNL     1       5.888  38.164  24.076  1.00  0.00    -0.502 OA
ATOM     23  H   UNL     1       5.027  38.681  24.204  1.00  0.00     0.293 HD
ENDBRANCH   2  22
BRANCH   9  24
ATOM     24  O   UNL     1      11.124  39.038  29.754  1.00  0.00    -0.508 OA
ATOM     25  H   UNL     1      10.944  38.913  30.744  1.00  0.00     0.293 HD
ENDBRANCH   9  24
TORSDOF 5
ENDMDL
MODEL 2
REMARK VINA RESULT:    -5.451     19.539     20.814
REMARK INTER + INTRA:          -6.270
REMARK INTER:                  -6.017
REMARK INTRA:                  -0.253
REMARK UNBOUND:                 0.137
REMARK SMILES O=c1c(O)c(-c2ccc(O)c(O)c2)oc2cc(O)ccc12
REMARK SMILES IDX 5 1 3 2 2 3 1 4 21 5 15 6 14 7 16 8 17 9 19 10 20 11 6 12
REMARK SMILES IDX 7 13 8 14 9 15 13 16 11 17 10 18 12 20 4 22 18 24
REMARK H PARENT 10 19 12 21 4 23 18 25
REMARK Flexibility Score: inf
ROOT
ATOM      1  C   UNL     1      -8.344  33.180  36.717  1.00  0.00     0.180 A 
ATOM      2  C   UNL     1      -8.627  34.215  37.633  1.00  0.00     0.208 A 
ATOM      3  C   UNL     1      -8.859  35.508  37.142  1.00  0.00     0.235 A 
ATOM      4  O   UNL     1      -9.125  36.448  37.941  1.00  0.00    -0.285 OA
ATOM      5  C   UNL     1      -8.787  35.746  35.760  1.00  0.00     0.069 A 
ATOM      6  C   UNL     1      -8.476  34.663  34.911  1.00  0.00     0.142 A 
ATOM      7  O   UNL     1      -8.270  33.451  35.415  1.00  0.00    -0.452 OA
ATOM      8  C   UNL     1      -8.383  34.862  33.529  1.00  0.00     0.094 A 
ATOM      9  C   UNL     1      -8.602  36.134  32.983  1.00  0.00     0.119 A 
ATOM     10  C   UNL     1      -8.913  37.208  33.823  1.00  0.00     0.047 A 
ATOM     11  C   UNL     1      -9.006  37.021  35.205  1.00  0.00     0.020 A 
ENDROOT
BRANCH   1  12
ATOM     12  C   UNL     1      -8.105  31.786  37.154  1.00  0.00     0.025 A 
ATOM     13  C   UNL     1      -9.125  30.832  37.003  1.00  0.00     0.016 A 
ATOM     14  C   UNL     1      -8.930  29.515  37.427  1.00  0.00     0.051 A 
ATOM     15  C   UNL     1      -7.719  29.137  38.022  1.00  0.00     0.157 A 
ATOM     16  C   UNL     1      -6.900  31.407  37.770  1.00  0.00     0.062 A 
ATOM     17  C   UNL     1      -6.704  30.086  38.198  1.00  0.00     0.158 A 
BRANCH  15  18
ATOM     18  O   UNL     1      -7.520  27.824  38.445  1.00  0.00    -0.504 OA
ATOM     19  H   UNL     1      -7.123  27.614  39.353  1.00  0.00     0.293 HD
ENDBRANCH  15  18
BRANCH  17  20
ATOM     20  O   UNL     1      -5.506  29.710  38.802  1.00  0.00    -0.504 OA
ATOM     21  H   UNL     1      -5.021  30.324  39.447  1.00  0.00     0.293 HD
ENDBRANCH  17  20
ENDBRANCH   1  12
BRANCH   2  22
ATOM     22  O   UNL     1      -8.643  33.959  39.006  1.00  0.00    -0.502 OA
ATOM     23  H   UNL     1      -8.935  33.067  39.387  1.00  0.00     0.293 HD
ENDBRANCH   2  22
BRANCH   9  24
ATOM     24  O   UNL     1      -8.514  36.340  31.608  1.00  0.00    -0.508 OA
ATOM     25  H   UNL     1      -7.927  35.758  31.021  1.00  0.00     0.293 HD
ENDBRANCH   9  24
TORSDOF 5
ENDMDL
MODEL 3
REMARK VINA RESULT:    -4.883      3.093      3.424
REMARK INTER + INTRA:          -5.602
REMARK INTER:                  -5.463
REMARK INTRA:                  -0.139
REMARK UNBOUND:                 0.137
REMARK SMILES O=c1c(O)c(-c2ccc(O)c(O)c2)oc2cc(O)ccc12
REMARK SMILES IDX 5 1 3 2 2 3 1 4 21 5 15 6 14 7 16 8 17 9 19 10 20 11 6 12
REMARK SMILES IDX 7 13 8 14 9 15 13 16 11 17 10 18 12 20 4 22 18 24
REMARK H PARENT 10 19 12 21 4 23 18 25
REMARK Flexibility Score: inf
ROOT
ATOM      1  C   UNL     1       7.734  36.838  23.591  1.00  0.00     0.180 A 
ATOM      2  C   UNL     1       7.575  38.035  22.860  1.00  0.00     0.208 A 
ATOM      3  C   UNL     1       6.747  39.040  23.381  1.00  0.00     0.235 A 
ATOM      4  O   UNL     1       6.598  40.124  22.751  1.00  0.00    -0.285 OA
ATOM      5  C   UNL     1       6.084  38.827  24.600  1.00  0.00     0.069 A 
ATOM      6  C   UNL     1       6.276  37.594  25.259  1.00  0.00     0.142 A 
ATOM      7  O   UNL     1       7.076  36.670  24.737  1.00  0.00    -0.452 OA
ATOM      8  C   UNL     1       5.625  37.339  26.470  1.00  0.00     0.094 A 
ATOM      9  C   UNL     1       4.782  38.306  27.036  1.00  0.00     0.119 A 
ATOM     10  C   UNL     1       4.591  39.529  26.385  1.00  0.00     0.047 A 
ATOM     11  C   UNL     1       5.237  39.793  25.173  1.00  0.00     0.020 A 
ENDROOT
BRANCH   1  12
ATOM     12  C   UNL     1       8.605  35.738  23.118  1.00  0.00     0.025 A 
ATOM     13  C   UNL     1       9.983  35.965  22.968  1.00  0.00     0.016 A 
ATOM     14  C   UNL     1      10.821  34.948  22.505  1.00  0.00     0.051 A 
ATOM     15  C   UNL     1      10.292  33.695  22.170  1.00  0.00     0.157 A 
ATOM     16  C   UNL     1       8.075  34.486  22.762  1.00  0.00     0.062 A 
ATOM     17  C   UNL     1       8.915  33.465  22.294  1.00  0.00     0.158 A 
BRANCH  15  18
ATOM     18  O   UNL     1      11.124  32.677  21.709  1.00  0.00    -0.504 OA
ATOM     19  H   UNL     1      11.641  32.085  22.348  1.00  0.00     0.293 HD
ENDBRANCH  15  18
BRANCH  17  20
ATOM     20  O   UNL     1       8.390  32.222  21.947  1.00  0.00    -0.504 OA
ATOM     21  H   UNL     1       8.970  31.492  21.549  1.00  0.00     0.293 HD
ENDBRANCH  17  20
ENDBRANCH   1  12
BRANCH   2  22
ATOM     22  O   UNL     1       8.208  38.199  21.626  1.00  0.00    -0.502 OA
ATOM     23  H   UNL     1       7.693  38.251  20.755  1.00  0.00     0.293 HD
ENDBRANCH   2  22
BRANCH   9  24
ATOM     24  O   UNL     1       4.131  38.060  28.242  1.00  0.00    -0.508 OA
ATOM     25  H   UNL     1       3.682  37.171  28.431  1.00  0.00     0.293 HD
ENDBRANCH   9  24
TORSDOF 5
ENDMDL
MODEL 4
REMARK VINA RESULT:    -4.789     15.042     16.978
REMARK INTER + INTRA:          -5.491
REMARK INTER:                  -5.189
REMARK INTRA:                  -0.303
REMARK UNBOUND:                 0.137
REMARK SMILES O=c1c(O)c(-c2ccc(O)c(O)c2)oc2cc(O)ccc12
REMARK SMILES IDX 5 1 3 2 2 3 1 4 21 5 15 6 14 7 16 8 17 9 19 10 20 11 6 12
REMARK SMILES IDX 7 13 8 14 9 15 13 16 11 17 10 18 12 20 4 22 18 24
REMARK H PARENT 10 19 12 21 4 23 18 25
REMARK Flexibility Score: inf
ROOT
ATOM      1  C   UNL     1       7.766  20.744  26.311  1.00  0.00     0.180 A 
ATOM      2  C   UNL     1       9.168  20.597  26.257  1.00  0.00     0.208 A 
ATOM      3  C   UNL     1       9.865  20.325  27.443  1.00  0.00     0.235 A 
ATOM      4  O   UNL     1      11.119  20.178  27.419  1.00  0.00    -0.285 OA
ATOM      5  C   UNL     1       9.159  20.224  28.653  1.00  0.00     0.069 A 
ATOM      6  C   UNL     1       7.760  20.407  28.627  1.00  0.00     0.142 A 
ATOM      7  O   UNL     1       7.135  20.656  27.481  1.00  0.00    -0.452 OA
ATOM      8  C   UNL     1       7.022  20.325  29.812  1.00  0.00     0.094 A 
ATOM      9  C   UNL     1       7.666  20.059  31.028  1.00  0.00     0.119 A 
ATOM     10  C   UNL     1       9.053  19.875  31.056  1.00  0.00     0.047 A 
ATOM     11  C   UNL     1       9.800  19.956  29.876  1.00  0.00     0.020 A 
ENDROOT
BRANCH   1  12
ATOM     12  C   UNL     1       6.956  21.015  25.101  1.00  0.00     0.025 A 
ATOM     13  C   UNL     1       6.590  19.948  24.264  1.00  0.00     0.016 A 
ATOM     14  C   UNL     1       5.844  20.182  23.106  1.00  0.00     0.051 A 
ATOM     15  C   UNL     1       5.467  21.486  22.760  1.00  0.00     0.157 A 
ATOM     16  C   UNL     1       6.593  22.324  24.740  1.00  0.00     0.062 A 
ATOM     17  C   UNL     1       5.846  22.559  23.576  1.00  0.00     0.158 A 
BRANCH  15  18
ATOM     18  O   UNL     1       4.721  21.723  21.607  1.00  0.00    -0.504 OA
ATOM     19  H   UNL     1       4.495  20.977  20.959  1.00  0.00     0.293 HD
ENDBRANCH  15  18
BRANCH  17  20
ATOM     20  O   UNL     1       5.480  23.857  23.223  1.00  0.00    -0.504 OA
ATOM     21  H   UNL     1       5.265  24.105  22.264  1.00  0.00     0.293 HD
ENDBRANCH  17  20
ENDBRANCH   1  12
BRANCH   2  22
ATOM     22  O   UNL     1       9.849  20.752  25.047  1.00  0.00    -0.502 OA
ATOM     23  H   UNL     1      10.628  21.390  24.942  1.00  0.00     0.293 HD
ENDBRANCH   2  22
BRANCH   9  24
ATOM     24  O   UNL     1       6.939  19.974  32.213  1.00  0.00    -0.508 OA
ATOM     25  H   UNL     1       7.267  20.407  33.069  1.00  0.00     0.293 HD
ENDBRANCH   9  24
TORSDOF 5
ENDMDL
MODEL 5
REMARK VINA RESULT:    -4.656      3.156      6.347
REMARK INTER + INTRA:          -5.336
REMARK INTER:                  -5.197
REMARK INTRA:                  -0.139
REMARK UNBOUND:                 0.137
REMARK SMILES O=c1c(O)c(-c2ccc(O)c(O)c2)oc2cc(O)ccc12
REMARK SMILES IDX 5 1 3 2 2 3 1 4 21 5 15 6 14 7 16 8 17 9 19 10 20 11 6 12
REMARK SMILES IDX 7 13 8 14 9 15 13 16 11 17 10 18 12 20 4 22 18 24
REMARK H PARENT 10 19 12 21 4 23 18 25
REMARK Flexibility Score: inf
ROOT
ATOM      1  C   UNL     1       7.601  37.306  23.696  1.00  0.00     0.180 A 
ATOM      2  C   UNL     1       8.864  37.935  23.704  1.00  0.00     0.208 A 
ATOM      3  C   UNL     1       9.986  37.205  23.283  1.00  0.00     0.235 A 
ATOM      4  O   UNL     1      11.125  37.749  23.271  1.00  0.00    -0.285 OA
ATOM      5  C   UNL     1       9.831  35.868  22.883  1.00  0.00     0.069 A 
ATOM      6  C   UNL     1       8.538  35.304  22.925  1.00  0.00     0.142 A 
ATOM      7  O   UNL     1       7.499  36.031  23.323  1.00  0.00    -0.452 OA
ATOM      8  C   UNL     1       8.343  33.972  22.545  1.00  0.00     0.094 A 
ATOM      9  C   UNL     1       9.428  33.194  22.118  1.00  0.00     0.119 A 
ATOM     10  C   UNL     1      10.710  33.752  22.075  1.00  0.00     0.047 A 
ATOM     11  C   UNL     1      10.916  35.082  22.454  1.00  0.00     0.020 A 
ENDROOT
BRANCH   1  12
ATOM     12  C   UNL     1       6.368  38.013  24.107  1.00  0.00     0.025 A 
ATOM     13  C   UNL     1       5.939  39.134  23.378  1.00  0.00     0.016 A 
ATOM     14  C   UNL     1       4.789  39.829  23.760  1.00  0.00     0.051 A 
ATOM     15  C   UNL     1       4.060  39.424  24.886  1.00  0.00     0.157 A 
ATOM     16  C   UNL     1       5.645  37.622  25.248  1.00  0.00     0.062 A 
ATOM     17  C   UNL     1       4.492  38.321  25.634  1.00  0.00     0.158 A 
BRANCH  15  18
ATOM     18  O   UNL     1       2.912  40.114  25.269  1.00  0.00    -0.504 OA
ATOM     19  H   UNL     1       2.556  40.893  24.728  1.00  0.00     0.293 HD
ENDBRANCH  15  18
BRANCH  17  20
ATOM     20  O   UNL     1       3.773  37.929  26.761  1.00  0.00    -0.504 OA
ATOM     21  H   UNL     1       2.828  37.569  26.690  1.00  0.00     0.293 HD
ENDBRANCH  17  20
ENDBRANCH   1  12
BRANCH   2  22
ATOM     22  O   UNL     1       8.996  39.251  24.154  1.00  0.00    -0.502 OA
ATOM     23  H   UNL     1       9.884  39.736  24.155  1.00  0.00     0.293 HD
ENDBRANCH   2  22
BRANCH   9  24
ATOM     24  O   UNL     1       9.243  31.867  21.737  1.00  0.00    -0.508 OA
ATOM     25  H   UNL     1       9.117  31.131  22.422  1.00  0.00     0.293 HD
ENDBRANCH   9  24
TORSDOF 5
ENDMDL
MODEL 6
REMARK VINA RESULT:    -4.611     15.483     17.627
REMARK INTER + INTRA:          -5.282
REMARK INTER:                  -5.280
REMARK INTRA:                  -0.002
REMARK UNBOUND:                 0.137
REMARK SMILES O=c1c(O)c(-c2ccc(O)c(O)c2)oc2cc(O)ccc12
REMARK SMILES IDX 5 1 3 2 2 3 1 4 21 5 15 6 14 7 16 8 17 9 19 10 20 11 6 12
REMARK SMILES IDX 7 13 8 14 9 15 13 16 11 17 10 18 12 20 4 22 18 24
REMARK H PARENT 10 19 12 21 4 23 18 25
REMARK Flexibility Score: inf
ROOT
ATOM      1  C   UNL     1       8.153  21.074  27.110  1.00  0.00     0.180 A 
ATOM      2  C   UNL     1       9.182  21.823  26.501  1.00  0.00     0.208 A 
ATOM      3  C   UNL     1       9.113  22.069  25.122  1.00  0.00     0.235 A 
ATOM      4  O   UNL     1      10.016  22.746  24.556  1.00  0.00    -0.285 OA
ATOM      5  C   UNL     1       8.039  21.552  24.380  1.00  0.00     0.069 A 
ATOM      6  C   UNL     1       7.061  20.793  25.059  1.00  0.00     0.142 A 
ATOM      7  O   UNL     1       7.159  20.589  26.368  1.00  0.00    -0.452 OA
ATOM      8  C   UNL     1       5.982  20.252  24.353  1.00  0.00     0.094 A 
ATOM      9  C   UNL     1       5.863  20.464  22.972  1.00  0.00     0.119 A 
ATOM     10  C   UNL     1       6.830  21.217  22.298  1.00  0.00     0.047 A 
ATOM     11  C   UNL     1       7.914  21.761  22.994  1.00  0.00     0.020 A 
ENDROOT
BRANCH   1  12
ATOM     12  C   UNL     1       8.143  20.787  28.562  1.00  0.00     0.025 A 
ATOM     13  C   UNL     1       9.265  20.182  29.153  1.00  0.00     0.016 A 
ATOM     14  C   UNL     1       9.271  19.883  30.518  1.00  0.00     0.051 A 
ATOM     15  C   UNL     1       8.150  20.170  31.309  1.00  0.00     0.157 A 
ATOM     16  C   UNL     1       7.013  21.054  29.355  1.00  0.00     0.062 A 
ATOM     17  C   UNL     1       7.017  20.752  30.725  1.00  0.00     0.158 A 
BRANCH  15  18
ATOM     18  O   UNL     1       8.152  19.875  32.670  1.00  0.00    -0.504 OA
ATOM     19  H   UNL     1       8.030  18.928  33.008  1.00  0.00     0.293 HD
ENDBRANCH  15  18
BRANCH  17  20
ATOM     20  O   UNL     1       5.899  21.024  31.511  1.00  0.00    -0.504 OA
ATOM     21  H   UNL     1       5.029  21.345  31.102  1.00  0.00     0.293 HD
ENDBRANCH  17  20
ENDBRANCH   1  12
BRANCH   2  22
ATOM     22  O   UNL     1      10.264  22.282  27.256  1.00  0.00    -0.502 OA
ATOM     23  H   UNL     1      10.143  22.796  28.120  1.00  0.00     0.293 HD
ENDBRANCH   2  22
BRANCH   9  24
ATOM     24  O   UNL     1       4.790  19.929  22.263  1.00  0.00    -0.508 OA
ATOM     25  H   UNL     1       3.933  20.452  22.126  1.00  0.00     0.293 HD
ENDBRANCH   9  24
TORSDOF 5
ENDMDL
MODEL 7
REMARK VINA RESULT:    -4.565     21.687     22.957
REMARK INTER + INTRA:          -5.228
REMARK INTER:                  -5.090
REMARK INTRA:                  -0.138
REMARK UNBOUND:                 0.137
REMARK SMILES O=c1c(O)c(-c2ccc(O)c(O)c2)oc2cc(O)ccc12
REMARK SMILES IDX 5 1 3 2 2 3 1 4 21 5 15 6 14 7 16 8 17 9 19 10 20 11 6 12
REMARK SMILES IDX 7 13 8 14 9 15 13 16 11 17 10 18 12 20 4 22 18 24
REMARK H PARENT 10 19 12 21 4 23 18 25
REMARK Flexibility Score: inf
ROOT
ATOM      1  C   UNL     1      -6.823  27.273  38.225  1.00  0.00     0.180 A 
ATOM      2  C   UNL     1      -6.396  26.941  39.528  1.00  0.00     0.208 A 
ATOM      3  C   UNL     1      -5.910  25.647  39.771  1.00  0.00     0.235 A 
ATOM      4  O   UNL     1      -5.511  25.330  40.926  1.00  0.00    -0.285 OA
ATOM      5  C   UNL     1      -5.877  24.713  38.723  1.00  0.00     0.069 A 
ATOM      6  C   UNL     1      -6.344  25.115  37.454  1.00  0.00     0.142 A 
ATOM      7  O   UNL     1      -6.789  26.352  37.262  1.00  0.00    -0.452 OA
ATOM      8  C   UNL     1      -6.338  24.210  36.387  1.00  0.00     0.094 A 
ATOM      9  C   UNL     1      -5.866  22.903  36.573  1.00  0.00     0.119 A 
ATOM     10  C   UNL     1      -5.401  22.503  37.830  1.00  0.00     0.047 A 
ATOM     11  C   UNL     1      -5.405  23.400  38.903  1.00  0.00     0.020 A 
ENDROOT
BRANCH   1  12
ATOM     12  C   UNL     1      -7.332  28.621  37.883  1.00  0.00     0.025 A 
ATOM     13  C   UNL     1      -8.620  28.755  37.341  1.00  0.00     0.016 A 
ATOM     14  C   UNL     1      -9.113  30.015  36.993  1.00  0.00     0.051 A 
ATOM     15  C   UNL     1      -8.320  31.157  37.167  1.00  0.00     0.157 A 
ATOM     16  C   UNL     1      -6.531  29.766  38.037  1.00  0.00     0.062 A 
ATOM     17  C   UNL     1      -7.025  31.032  37.686  1.00  0.00     0.158 A 
BRANCH  15  18
ATOM     18  O   UNL     1      -8.808  32.415  36.822  1.00  0.00    -0.504 OA
ATOM     19  H   UNL     1      -9.200  32.599  35.906  1.00  0.00     0.293 HD
ENDBRANCH  15  18
BRANCH  17  20
ATOM     20  O   UNL     1      -6.233  32.167  37.845  1.00  0.00    -0.504 OA
ATOM     21  H   UNL     1      -5.587  32.469  37.125  1.00  0.00     0.293 HD
ENDBRANCH  17  20
ENDBRANCH   1  12
BRANCH   2  22
ATOM     22  O   UNL     1      -6.487  27.876  40.561  1.00  0.00    -0.502 OA
ATOM     23  H   UNL     1      -5.811  28.622  40.678  1.00  0.00     0.293 HD
ENDBRANCH   2  22
BRANCH   9  24
ATOM     24  O   UNL     1      -5.855  21.997  35.516  1.00  0.00    -0.508 OA
ATOM     25  H   UNL     1      -5.010  21.507  35.246  1.00  0.00     0.293 HD
ENDBRANCH   9  24
TORSDOF 5
ENDMDL
MODEL 8
REMARK VINA RESULT:    -4.493     22.717     24.143
REMARK INTER + INTRA:          -5.144
REMARK INTER:                  -4.848
REMARK INTRA:                  -0.296
REMARK UNBOUND:                 0.137
REMARK SMILES O=c1c(O)c(-c2ccc(O)c(O)c2)oc2cc(O)ccc12
REMARK SMILES IDX 5 1 3 2 2 3 1 4 21 5 15 6 14 7 16 8 17 9 19 10 20 11 6 12
REMARK SMILES IDX 7 13 8 14 9 15 13 16 11 17 10 18 12 20 4 22 18 24
REMARK H PARENT 10 19 12 21 4 23 18 25
REMARK Flexibility Score: inf
ROOT
ATOM      1  C   UNL     1      -7.944  25.877  37.127  1.00  0.00     0.180 A 
ATOM      2  C   UNL     1      -7.540  25.334  35.889  1.00  0.00     0.208 A 
ATOM      3  C   UNL     1      -7.553  23.940  35.726  1.00  0.00     0.235 A 
ATOM      4  O   UNL     1      -7.207  23.431  34.624  1.00  0.00    -0.285 OA
ATOM      5  C   UNL     1      -7.945  23.122  36.798  1.00  0.00     0.069 A 
ATOM      6  C   UNL     1      -8.313  23.742  38.012  1.00  0.00     0.142 A 
ATOM      7  O   UNL     1      -8.295  25.065  38.123  1.00  0.00    -0.452 OA
ATOM      8  C   UNL     1      -8.699  22.961  39.106  1.00  0.00     0.094 A 
ATOM      9  C   UNL     1      -8.727  21.563  39.001  1.00  0.00     0.119 A 
ATOM     10  C   UNL     1      -8.365  20.948  37.799  1.00  0.00     0.047 A 
ATOM     11  C   UNL     1      -7.976  21.719  36.699  1.00  0.00     0.020 A 
ENDROOT
BRANCH   1  12
ATOM     12  C   UNL     1      -7.976  27.337  37.372  1.00  0.00     0.025 A 
ATOM     13  C   UNL     1      -9.066  28.090  36.907  1.00  0.00     0.016 A 
ATOM     14  C   UNL     1      -9.108  29.472  37.108  1.00  0.00     0.051 A 
ATOM     15  C   UNL     1      -8.055  30.123  37.764  1.00  0.00     0.157 A 
ATOM     16  C   UNL     1      -6.912  27.996  38.011  1.00  0.00     0.062 A 
ATOM     17  C   UNL     1      -6.952  29.384  38.212  1.00  0.00     0.158 A 
BRANCH  15  18
ATOM     18  O   UNL     1      -8.094  31.500  37.969  1.00  0.00    -0.504 OA
ATOM     19  H   UNL     1      -8.305  31.895  38.878  1.00  0.00     0.293 HD
ENDBRANCH  15  18
BRANCH  17  20
ATOM     20  O   UNL     1      -5.900  30.036  38.852  1.00  0.00    -0.504 OA
ATOM     21  H   UNL     1      -5.915  31.036  39.014  1.00  0.00     0.293 HD
ENDBRANCH  17  20
ENDBRANCH   1  12
BRANCH   2  22
ATOM     22  O   UNL     1      -7.107  26.170  34.857  1.00  0.00    -0.502 OA
ATOM     23  H   UNL     1      -6.137  26.221  34.573  1.00  0.00     0.293 HD
ENDBRANCH   2  22
BRANCH   9  24
ATOM     24  O   UNL     1      -9.113  20.779  40.086  1.00  0.00    -0.508 OA
ATOM     25  H   UNL     1      -8.433  20.410  40.741  1.00  0.00     0.293 HD
ENDBRANCH   9  24
TORSDOF 5
ENDMDL
