MODEL 1
REMARK VINA RESULT:    -3.546      0.000      0.000
REMARK INTER + INTRA:          -3.892
REMARK INTER:                  -3.857
REMARK INTRA:                  -0.035
REMARK UNBOUND:                -0.035
REMARK SMILES O=C([O-])c1ccc(O)cc1
REMARK SMILES IDX 7 1 6 2 9 3 5 4 10 5 4 6 8 7 2 9 1 10 3 11
REMARK H PARENT 8 8
REMARK Flexibility Score: inf
ROOT
ATOM      1  C   UNL     1     -97.636 149.336 240.161  1.00  0.00     0.115 A 
ATOM      2  C   UNL     1     -97.296 147.978 240.119  1.00  0.00     0.047 A 
ATOM      3  C   UNL     1     -96.936 150.251 239.370  1.00  0.00     0.047 A 
ATOM      4  C   UNL     1     -96.260 147.538 239.290  1.00  0.00     0.014 A 
ATOM      5  C   UNL     1     -95.899 149.814 238.540  1.00  0.00     0.014 A 
ATOM      6  C   UNL     1     -95.549 148.452 238.491  1.00  0.00    -0.003 A 
ENDROOT
BRANCH   1   7
ATOM      7  O   UNL     1     -98.668 149.785 240.984  1.00  0.00    -0.508 OA
ATOM      8  H   UNL     1     -98.478 150.243 241.867  1.00  0.00     0.293 HD
ENDBRANCH   1   7
BRANCH   6   9
ATOM      9  C   UNL     1     -94.453 147.984 237.615  1.00  0.00     0.071 C 
ATOM     10  O   UNL     1     -93.894 146.875 237.825  1.00  0.00    -0.545 OA
ATOM     11  O   UNL     1     -94.024 148.764 236.547  1.00  0.00    -0.545 OA
ENDBRANCH   6   9
TORSDOF 2
ENDMDL
MODEL 2
REMARK VINA RESULT:    -3.542      1.436      4.602
REMARK INTER + INTRA:          -3.887
REMARK INTER:                  -3.852
REMARK INTRA:                  -0.035
REMARK UNBOUND:                -0.035
REMARK SMILES O=C([O-])c1ccc(O)cc1
REMARK SMILES IDX 7 1 6 2 9 3 5 4 10 5 4 6 8 7 2 9 1 10 3 11
REMARK H PARENT 8 8
REMARK Flexibility Score: inf
ROOT
ATOM      1  C   UNL     1     -93.879 147.499 236.959  1.00  0.00     0.115 A 
ATOM      2  C   UNL     1     -94.422 148.731 236.575  1.00  0.00     0.047 A 
ATOM      3  C   UNL     1     -94.313 146.887 238.139  1.00  0.00     0.047 A 
ATOM      4  C   UNL     1     -95.396 149.348 237.365  1.00  0.00     0.014 A 
ATOM      5  C   UNL     1     -95.287 147.501 238.932  1.00  0.00     0.014 A 
ATOM      6  C   UNL     1     -95.839 148.740 238.554  1.00  0.00    -0.003 A 
ENDROOT
BRANCH   1   7
ATOM      7  O   UNL     1     -92.908 146.875 236.178  1.00  0.00    -0.508 OA
ATOM      8  H   UNL     1     -93.159 146.275 235.402  1.00  0.00     0.293 HD
ENDBRANCH   1   7
BRANCH   6   9
ATOM      9  C   UNL     1     -96.869 149.394 239.390  1.00  0.00     0.071 C 
ATOM     10  O   UNL     1     -97.099 150.627 239.274  1.00  0.00    -0.545 OA
ATOM     11  O   UNL     1     -97.598 148.656 240.315  1.00  0.00    -0.545 OA
ENDBRANCH   6   9
TORSDOF 2
ENDMDL
MODEL 3
REMARK VINA RESULT:    -3.540      1.384      4.345
REMARK INTER + INTRA:          -3.885
REMARK INTER:                  -3.849
REMARK INTRA:                  -0.036
REMARK UNBOUND:                -0.035
REMARK SMILES O=C([O-])c1ccc(O)cc1
REMARK SMILES IDX 7 1 6 2 9 3 5 4 10 5 4 6 8 7 2 9 1 10 3 11
REMARK H PARENT 8 8
REMARK Flexibility Score: inf
ROOT
ATOM      1  C   UNL     1     -93.892 147.490 237.074  1.00  0.00     0.115 A 
ATOM      2  C   UNL     1     -94.386 146.876 238.231  1.00  0.00     0.047 A 
ATOM      3  C   UNL     1     -94.394 148.735 236.682  1.00  0.00     0.047 A 
ATOM      4  C   UNL     1     -95.377 147.502 238.993  1.00  0.00     0.014 A 
ATOM      5  C   UNL     1     -95.386 149.364 237.441  1.00  0.00     0.014 A 
ATOM      6  C   UNL     1     -95.888 148.753 238.605  1.00  0.00    -0.003 A 
ENDROOT
BRANCH   1   7
ATOM      7  O   UNL     1     -92.904 146.875 236.308  1.00  0.00    -0.508 OA
ATOM      8  H   UNL     1     -93.135 146.321 235.493  1.00  0.00     0.293 HD
ENDBRANCH   1   7
BRANCH   6   9
ATOM      9  C   UNL     1     -96.937 149.414 239.412  1.00  0.00     0.071 C 
ATOM     10  O   UNL     1     -97.243 150.619 239.203  1.00  0.00    -0.545 OA
ATOM     11  O   UNL     1     -97.601 148.715 240.413  1.00  0.00    -0.545 OA
ENDBRANCH   6   9
TORSDOF 2
ENDMDL
MODEL 4
REMARK VINA RESULT:    -3.424      0.922      4.381
REMARK INTER + INTRA:          -3.759
REMARK INTER:                  -3.732
REMARK INTRA:                  -0.027
REMARK UNBOUND:                -0.035
REMARK SMILES O=C([O-])c1ccc(O)cc1
REMARK SMILES IDX 7 1 6 2 9 3 5 4 10 5 4 6 8 7 2 9 1 10 3 11
REMARK H PARENT 8 8
REMARK Flexibility Score: inf
ROOT
ATOM      1  C   UNL     1     -95.532 148.224 238.669  1.00  0.00     0.115 A 
ATOM      2  C   UNL     1     -96.310 147.449 239.537  1.00  0.00     0.047 A 
ATOM      3  C   UNL     1     -95.808 149.586 238.518  1.00  0.00     0.047 A 
ATOM      4  C   UNL     1     -97.360 148.034 240.252  1.00  0.00     0.014 A 
ATOM      5  C   UNL     1     -96.857 150.174 239.232  1.00  0.00     0.014 A 
ATOM      6  C   UNL     1     -97.645 149.403 240.107  1.00  0.00    -0.003 A 
ENDROOT
BRANCH   1   7
ATOM      7  O   UNL     1     -94.483 147.651 237.952  1.00  0.00    -0.508 OA
ATOM      8  H   UNL     1     -93.529 147.972 238.063  1.00  0.00     0.293 HD
ENDBRANCH   1   7
BRANCH   6   9
ATOM      9  C   UNL     1     -98.756 150.020 240.864  1.00  0.00     0.071 C 
ATOM     10  O   UNL     1     -98.606 150.344 242.072  1.00  0.00    -0.545 OA
ATOM     11  O   UNL     1     -99.983 150.249 240.252  1.00  0.00    -0.545 OA
ENDBRANCH   6   9
TORSDOF 2
ENDMDL
MODEL 5
REMARK VINA RESULT:    -3.424      1.562      4.548
REMARK INTER + INTRA:          -3.759
REMARK INTER:                  -3.729
REMARK INTRA:                  -0.030
REMARK UNBOUND:                -0.035
REMARK SMILES O=C([O-])c1ccc(O)cc1
REMARK SMILES IDX 7 1 6 2 9 3 5 4 10 5 4 6 8 7 2 9 1 10 3 11
REMARK H PARENT 8 8
REMARK Flexibility Score: inf
ROOT
ATOM      1  C   UNL     1     -94.799 148.400 236.295  1.00  0.00     0.115 A 
ATOM      2  C   UNL     1     -96.140 148.636 235.967  1.00  0.00     0.047 A 
ATOM      3  C   UNL     1     -94.334 148.705 237.577  1.00  0.00     0.047 A 
ATOM      4  C   UNL     1     -97.012 149.175 236.918  1.00  0.00     0.014 A 
ATOM      5  C   UNL     1     -95.204 149.244 238.531  1.00  0.00     0.014 A 
ATOM      6  C   UNL     1     -96.553 149.485 238.211  1.00  0.00    -0.003 A 
ENDROOT
BRANCH   1   7
ATOM      7  O   UNL     1     -93.922 147.863 235.355  1.00  0.00    -0.508 OA
ATOM      8  H   UNL     1     -93.118 147.314 235.635  1.00  0.00     0.293 HD
ENDBRANCH   1   7
BRANCH   6   9
ATOM      9  C   UNL     1     -97.477 150.056 239.215  1.00  0.00     0.071 C 
ATOM     10  O   UNL     1     -98.134 151.100 238.961  1.00  0.00    -0.545 OA
ATOM     11  O   UNL     1     -97.632 149.447 240.455  1.00  0.00    -0.545 OA
ENDBRANCH   6   9
TORSDOF 2
ENDMDL
MODEL 6
REMARK VINA RESULT:    -3.313      2.456      5.149
REMARK INTER + INTRA:          -3.638
REMARK INTER:                  -3.605
REMARK INTRA:                  -0.033
REMARK UNBOUND:                -0.035
REMARK SMILES O=C([O-])c1ccc(O)cc1
REMARK SMILES IDX 7 1 6 2 9 3 5 4 10 5 4 6 8 7 2 9 1 10 3 11
REMARK H PARENT 8 8
REMARK Flexibility Score: inf
ROOT
ATOM      1  C   UNL     1     -93.898 147.508 234.427  1.00  0.00     0.115 A 
ATOM      2  C   UNL     1     -94.958 148.397 234.644  1.00  0.00     0.047 A 
ATOM      3  C   UNL     1     -93.224 146.953 235.518  1.00  0.00     0.047 A 
ATOM      4  C   UNL     1     -95.342 148.729 235.947  1.00  0.00     0.014 A 
ATOM      5  C   UNL     1     -93.605 147.282 236.823  1.00  0.00     0.014 A 
ATOM      6  C   UNL     1     -94.669 148.175 237.051  1.00  0.00    -0.003 A 
ENDROOT
BRANCH   1   7
ATOM      7  O   UNL     1     -93.507 147.171 233.133  1.00  0.00    -0.508 OA
ATOM      8  H   UNL     1     -94.153 147.223 232.355  1.00  0.00     0.293 HD
ENDBRANCH   1   7
BRANCH   6   9
ATOM      9  C   UNL     1     -95.077 148.528 238.429  1.00  0.00     0.071 C 
ATOM     10  O   UNL     1     -94.991 147.682 239.358  1.00  0.00    -0.545 OA
ATOM     11  O   UNL     1     -95.561 149.799 238.716  1.00  0.00    -0.545 OA
ENDBRANCH   6   9
TORSDOF 2
ENDMDL
MODEL 7
REMARK VINA RESULT:    -3.261      1.694      2.207
REMARK INTER + INTRA:          -3.582
REMARK INTER:                  -3.548
REMARK INTRA:                  -0.035
REMARK UNBOUND:                -0.035
REMARK SMILES O=C([O-])c1ccc(O)cc1
REMARK SMILES IDX 7 1 6 2 9 3 5 4 10 5 4 6 8 7 2 9 1 10 3 11
REMARK H PARENT 8 8
REMARK Flexibility Score: inf
ROOT
ATOM      1  C   UNL     1     -96.733 149.912 238.727  1.00  0.00     0.115 A 
ATOM      2  C   UNL     1     -97.326 149.585 237.500  1.00  0.00     0.047 A 
ATOM      3  C   UNL     1     -95.389 149.600 238.952  1.00  0.00     0.047 A 
ATOM      4  C   UNL     1     -96.578 148.951 236.504  1.00  0.00     0.014 A 
ATOM      5  C   UNL     1     -94.638 148.965 237.958  1.00  0.00     0.014 A 
ATOM      6  C   UNL     1     -95.225 148.633 236.722  1.00  0.00    -0.003 A 
ENDROOT
BRANCH   1   7
ATOM      7  O   UNL     1     -97.470 150.544 239.726  1.00  0.00    -0.508 OA
ATOM      8  H   UNL     1     -97.214 150.465 240.702  1.00  0.00     0.293 HD
ENDBRANCH   1   7
BRANCH   6   9
ATOM      9  C   UNL     1     -94.435 147.962 235.667  1.00  0.00     0.071 C 
ATOM     10  O   UNL     1     -93.404 147.300 235.962  1.00  0.00    -0.545 OA
ATOM     11  O   UNL     1     -94.820 148.052 234.335  1.00  0.00    -0.545 OA
ENDBRANCH   6   9
TORSDOF 2
ENDMDL
MODEL 8
REMARK VINA RESULT:    -3.073      1.196      4.528
REMARK INTER + INTRA:          -3.377
REMARK INTER:                  -3.350
REMARK INTRA:                  -0.028
REMARK UNBOUND:                -0.035
REMARK SMILES O=C([O-])c1ccc(O)cc1
REMARK SMILES IDX 7 1 6 2 9 3 5 4 10 5 4 6 8 7 2 9 1 10 3 11
REMARK H PARENT 8 8
REMARK Flexibility Score: inf
ROOT
ATOM      1  C   UNL     1     -95.320 147.706 238.978  1.00  0.00     0.115 A 
ATOM      2  C   UNL     1     -95.322 149.060 238.621  1.00  0.00     0.047 A 
ATOM      3  C   UNL     1     -96.388 147.181 239.711  1.00  0.00     0.047 A 
ATOM      4  C   UNL     1     -96.388 149.884 238.993  1.00  0.00     0.014 A 
ATOM      5  C   UNL     1     -97.456 148.002 240.086  1.00  0.00     0.014 A 
ATOM      6  C   UNL     1     -97.466 149.364 239.731  1.00  0.00    -0.003 A 
ENDROOT
BRANCH   1   7
ATOM      7  O   UNL     1     -94.263 146.875 238.611  1.00  0.00    -0.508 OA
ATOM      8  H   UNL     1     -93.894 146.178 239.245  1.00  0.00     0.293 HD
ENDBRANCH   1   7
BRANCH   6   9
ATOM      9  C   UNL     1     -98.593 150.239 240.126  1.00  0.00     0.071 C 
ATOM     10  O   UNL     1     -99.428 150.633 239.269  1.00  0.00    -0.545 OA
ATOM     11  O   UNL     1     -98.744 150.638 241.448  1.00  0.00    -0.545 OA
ENDBRANCH   6   9
TORSDOF 2
ENDMDL
