MODEL 1
REMARK VINA RESULT:    -4.018      0.000      0.000
REMARK INTER + INTRA:          -5.744
REMARK INTER:                  -6.132
REMARK INTRA:                   0.388
REMARK UNBOUND:                 0.388
REMARK SMILES CC1=CCC[C@@H](C)C(=O)C[C@H](C(C)C)C(=O)C1
REMARK SMILES IDX 8 1 9 2 6 3 7 4 5 5 4 6 3 7 2 8 1 9 10 11 11 12 15 13 16 14
REMARK SMILES IDX 17 15 12 17 13 18 14 19
REMARK H PARENT
REMARK Flexibility Score: 70.00
ROOT
ATOM      1  C   UNL     1      -6.219  -5.464   2.643  1.00  0.00     0.136 C 
ATOM      2  O   UNL     1      -6.733  -6.548   2.415  1.00  0.00    -0.299 OA
ENDROOT
BRANCH   1   3
ATOM      3  C   UNL     1      -6.901  -4.220   2.088  1.00  0.00     0.053 C 
ATOM      4  C   UNL     1      -8.104  -4.519   1.179  1.00  0.00     0.016 C 
BRANCH   3   5
ATOM      5  C   UNL     1      -5.885  -3.240   1.462  1.00  0.00     0.015 C 
BRANCH   5   6
ATOM      6  C   UNL     1      -5.477  -2.062   2.367  1.00  0.00     0.028 C 
BRANCH   6   7
ATOM      7  C   UNL     1      -4.106  -1.562   1.987  1.00  0.00    -0.028 C 
ATOM      8  C   UNL     1      -2.943  -2.082   2.447  1.00  0.00    -0.070 CG0
ATOM      9  C   UNL     1      -1.659  -1.391   2.065  1.00  0.00     0.039 C 
ATOM     10  G   UNL     1      -2.881  -3.350   3.284  1.00  0.00     0.000 G0
ENDBRANCH   6   7
ENDBRANCH   5   6
ENDBRANCH   3   5
ENDBRANCH   1   3
BRANCH   1  11
ATOM     11  C   UNL     1      -4.941  -5.420   3.461  1.00  0.00     0.087 C 
BRANCH  11  12
ATOM     12  C   UNL     1      -3.637  -5.796   2.695  1.00  0.00     0.066 C 
BRANCH  12  13
ATOM     13  C   UNL     1      -2.679  -4.626   2.490  1.00  0.00     0.140 C 
ATOM     14  O   UNL     1      -1.817  -4.680   1.625  1.00  0.00    -0.299 OA
BRANCH  13  15
ATOM     15  C   UNL     1      -2.839  -3.358   3.296  1.00  0.00     0.106 CG0
ATOM     16  G   UNL     1      -2.943  -2.115   2.426  1.00  0.00     0.000 G0
ENDBRANCH  13  15
ENDBRANCH  12  13
BRANCH  12  17
ATOM     17  C   UNL     1      -2.944  -7.094   3.220  1.00  0.00    -0.006 C 
ATOM     18  C   UNL     1      -3.771  -7.902   4.231  1.00  0.00     0.008 C 
ATOM     19  C   UNL     1      -1.549  -6.795   3.795  1.00  0.00     0.008 C 
ENDBRANCH  12  17
ENDBRANCH  11  12
ENDBRANCH   1  11
TORSDOF 1
ENDMDL
MODEL 2
REMARK VINA RESULT:    -3.965      1.791      4.034
REMARK INTER + INTRA:          -5.663
REMARK INTER:                  -5.631
REMARK INTRA:                  -0.032
REMARK UNBOUND:                 0.388
REMARK SMILES CC1=CCC[C@@H](C)C(=O)C[C@H](C(C)C)C(=O)C1
REMARK SMILES IDX 8 1 9 2 6 3 7 4 5 5 4 6 3 7 2 8 1 9 10 11 11 12 15 13 16 14
REMARK SMILES IDX 17 15 12 17 13 18 14 19
REMARK H PARENT
REMARK Flexibility Score: 70.00
ROOT
ATOM      1  C   UNL     1      -3.305  -5.790   2.567  1.00  0.00     0.136 C 
ATOM      2  O   UNL     1      -4.060  -6.591   3.094  1.00  0.00    -0.299 OA
ENDROOT
BRANCH   1   3
ATOM      3  C   UNL     1      -1.822  -5.884   2.899  1.00  0.00     0.053 C 
ATOM      4  C   UNL     1      -1.460  -7.055   3.826  1.00  0.00     0.016 C 
BRANCH   3   5
ATOM      5  C   UNL     1      -1.252  -4.528   3.371  1.00  0.00     0.015 C 
BRANCH   5   6
ATOM      6  C   UNL     1      -0.618  -3.668   2.261  1.00  0.00     0.028 C 
BRANCH   6   7
ATOM      7  C   UNL     1      -0.829  -2.204   2.549  1.00  0.00    -0.028 C 
ATOM      8  C   UNL     1      -1.712  -1.411   1.897  1.00  0.00    -0.070 CG0
ATOM      9  C   UNL     1      -1.718   0.060   2.223  1.00  0.00     0.039 C 
ATOM     10  G   UNL     1      -2.721  -1.952   0.895  1.00  0.00     0.000 G0
ENDBRANCH   6   7
ENDBRANCH   5   6
ENDBRANCH   3   5
ENDBRANCH   1   3
BRANCH   1  11
ATOM     11  C   UNL     1      -3.884  -4.756   1.619  1.00  0.00     0.087 C 
BRANCH  11  12
ATOM     12  C   UNL     1      -4.388  -3.439   2.284  1.00  0.00     0.066 C 
BRANCH  12  13
ATOM     13  C   UNL     1      -4.102  -2.183   1.466  1.00  0.00     0.140 C 
ATOM     14  O   UNL     1      -4.963  -1.326   1.332  1.00  0.00    -0.299 OA
BRANCH  13  15
ATOM     15  C   UNL     1      -2.727  -1.945   0.886  1.00  0.00     0.106 CG0
ATOM     16  G   UNL     1      -1.739  -1.407   1.909  1.00  0.00     0.000 G0
ENDBRANCH  13  15
ENDBRANCH  12  13
BRANCH  12  17
ATOM     17  C   UNL     1      -5.852  -3.520   2.823  1.00  0.00    -0.006 C 
ATOM     18  C   UNL     1      -5.985  -4.102   4.238  1.00  0.00     0.008 C 
ATOM     19  C   UNL     1      -6.770  -4.277   1.850  1.00  0.00     0.008 C 
ENDBRANCH  12  17
ENDBRANCH  11  12
ENDBRANCH   1  11
TORSDOF 1
ENDMDL
MODEL 3
REMARK VINA RESULT:    -3.559     17.141     18.641
REMARK INTER + INTRA:          -5.044
REMARK INTER:                  -4.752
REMARK INTRA:                  -0.292
REMARK UNBOUND:                 0.388
REMARK SMILES CC1=CCC[C@@H](C)C(=O)C[C@H](C(C)C)C(=O)C1
REMARK SMILES IDX 8 1 9 2 6 3 7 4 5 5 4 6 3 7 2 8 1 9 10 11 11 12 15 13 16 14
REMARK SMILES IDX 17 15 12 17 13 18 14 19
REMARK H PARENT
REMARK Flexibility Score: 70.00
ROOT
ATOM      1  C   UNL     1       2.287   2.333  17.370  1.00  0.00     0.136 C 
ATOM      2  O   UNL     1       2.947   2.754  16.433  1.00  0.00    -0.299 OA
ENDROOT
BRANCH   1   3
ATOM      3  C   UNL     1       1.465   1.071  17.152  1.00  0.00     0.053 C 
ATOM      4  C   UNL     1       2.306  -0.187  16.883  1.00  0.00     0.016 C 
BRANCH   3   5
ATOM      5  C   UNL     1       0.339   1.290  16.118  1.00  0.00     0.015 C 
BRANCH   5   6
ATOM      6  C   UNL     1      -0.967   1.872  16.693  1.00  0.00     0.028 C 
BRANCH   6   7
ATOM      7  C   UNL     1      -1.366   1.126  17.940  1.00  0.00    -0.028 C 
ATOM      8  C   UNL     1      -1.442   1.677  19.175  1.00  0.00    -0.070 CG0
ATOM      9  C   UNL     1      -1.740   0.767  20.339  1.00  0.00     0.039 C 
ATOM     10  G   UNL     1      -1.287   3.169  19.423  1.00  0.00     0.000 G0
ENDBRANCH   6   7
ENDBRANCH   5   6
ENDBRANCH   3   5
ENDBRANCH   1   3
BRANCH   1  11
ATOM     11  C   UNL     1       2.327   3.087  18.687  1.00  0.00     0.087 C 
BRANCH  11  12
ATOM     12  C   UNL     1       1.144   4.072  18.935  1.00  0.00     0.066 C 
BRANCH  12  13
ATOM     13  C   UNL     1       0.098   3.549  19.916  1.00  0.00     0.140 C 
ATOM     14  O   UNL     1       0.348   3.495  21.111  1.00  0.00    -0.299 OA
BRANCH  13  15
ATOM     15  C   UNL     1      -1.283   3.173  19.432  1.00  0.00     0.106 CG0
ATOM     16  G   UNL     1      -1.450   1.675  19.225  1.00  0.00     0.000 G0
ENDBRANCH  13  15
ENDBRANCH  12  13
BRANCH  12  17
ATOM     17  C   UNL     1       1.591   5.543  19.215  1.00  0.00    -0.006 C 
ATOM     18  C   UNL     1       0.472   6.588  19.098  1.00  0.00     0.008 C 
ATOM     19  C   UNL     1       2.787   5.945  18.337  1.00  0.00     0.008 C 
ENDBRANCH  12  17
ENDBRANCH  11  12
ENDBRANCH   1  11
TORSDOF 1
ENDMDL
MODEL 4
REMARK VINA RESULT:    -3.446     10.561     11.754
REMARK INTER + INTRA:          -4.871
REMARK INTER:                  -5.116
REMARK INTRA:                   0.244
REMARK UNBOUND:                 0.388
REMARK SMILES CC1=CCC[C@@H](C)C(=O)C[C@H](C(C)C)C(=O)C1
REMARK SMILES IDX 8 1 9 2 6 3 7 4 5 5 4 6 3 7 2 8 1 9 10 11 11 12 15 13 16 14
REMARK SMILES IDX 17 15 12 17 13 18 14 19
REMARK H PARENT
REMARK Flexibility Score: 70.00
ROOT
ATOM      1  C   UNL     1      -3.415  -4.443  11.784  1.00  0.00     0.136 C 
ATOM      2  O   UNL     1      -4.368  -4.043  11.134  1.00  0.00    -0.299 OA
ENDROOT
BRANCH   1   3
ATOM      3  C   UNL     1      -2.134  -3.621  11.750  1.00  0.00     0.053 C 
ATOM      4  C   UNL     1      -0.858  -4.438  12.012  1.00  0.00     0.016 C 
BRANCH   3   5
ATOM      5  C   UNL     1      -2.242  -2.353  12.625  1.00  0.00     0.015 C 
BRANCH   5   6
ATOM      6  C   UNL     1      -1.744  -2.520  14.074  1.00  0.00     0.028 C 
BRANCH   6   7
ATOM      7  C   UNL     1      -2.719  -1.889  15.036  1.00  0.00    -0.028 C 
ATOM      8  C   UNL     1      -3.758  -2.538  15.614  1.00  0.00    -0.070 CG0
ATOM      9  C   UNL     1      -4.711  -1.734  16.459  1.00  0.00     0.039 C 
ATOM     10  G   UNL     1      -3.969  -4.039  15.482  1.00  0.00     0.000 G0
ENDBRANCH   6   7
ENDBRANCH   5   6
ENDBRANCH   3   5
ENDBRANCH   1   3
BRANCH   1  11
ATOM     11  C   UNL     1      -3.563  -5.725  12.583  1.00  0.00     0.087 C 
BRANCH  11  12
ATOM     12  C   UNL     1      -4.726  -5.742  13.621  1.00  0.00     0.066 C 
BRANCH  12  13
ATOM     13  C   UNL     1      -4.911  -4.422  14.364  1.00  0.00     0.140 C 
ATOM     14  O   UNL     1      -5.853  -3.691  14.095  1.00  0.00    -0.299 OA
BRANCH  13  15
ATOM     15  C   UNL     1      -3.984  -4.046  15.497  1.00  0.00     0.106 CG0
ATOM     16  G   UNL     1      -3.759  -2.545  15.602  1.00  0.00     0.000 G0
ENDBRANCH  13  15
ENDBRANCH  12  13
BRANCH  12  17
ATOM     17  C   UNL     1      -6.057  -6.349  13.073  1.00  0.00    -0.006 C 
ATOM     18  C   UNL     1      -7.059  -6.784  14.154  1.00  0.00     0.008 C 
ATOM     19  C   UNL     1      -5.789  -7.509  12.101  1.00  0.00     0.008 C 
ENDBRANCH  12  17
ENDBRANCH  11  12
ENDBRANCH   1  11
TORSDOF 1
ENDMDL
MODEL 5
REMARK VINA RESULT:    -3.288      2.309      5.611
REMARK INTER + INTRA:          -4.630
REMARK INTER:                  -4.480
REMARK INTRA:                  -0.150
REMARK UNBOUND:                 0.388
REMARK SMILES CC1=CCC[C@@H](C)C(=O)C[C@H](C(C)C)C(=O)C1
REMARK SMILES IDX 8 1 9 2 6 3 7 4 5 5 4 6 3 7 2 8 1 9 10 11 11 12 15 13 16 14
REMARK SMILES IDX 17 15 12 17 13 18 14 19
REMARK H PARENT
REMARK Flexibility Score: 70.00
ROOT
ATOM      1  C   UNL     1      -1.419  -2.475   4.230  1.00  0.00     0.136 C 
ATOM      2  O   UNL     1      -0.560  -1.725   4.667  1.00  0.00    -0.299 OA
ENDROOT
BRANCH   1   3
ATOM      3  C   UNL     1      -1.001  -3.885   3.836  1.00  0.00     0.053 C 
ATOM      4  C   UNL     1       0.063  -4.503   4.757  1.00  0.00     0.016 C 
BRANCH   3   5
ATOM      5  C   UNL     1      -0.647  -3.982   2.337  1.00  0.00     0.015 C 
BRANCH   5   6
ATOM      6  C   UNL     1      -1.536  -4.938   1.519  1.00  0.00     0.028 C 
BRANCH   6   7
ATOM      7  C   UNL     1      -2.627  -5.509   2.389  1.00  0.00    -0.028 C 
ATOM      8  C   UNL     1      -3.886  -5.018   2.465  1.00  0.00    -0.070 CG0
ATOM      9  C   UNL     1      -4.824  -5.628   3.474  1.00  0.00     0.039 C 
ATOM     10  G   UNL     1      -4.399  -3.918   1.548  1.00  0.00     0.000 G0
ENDBRANCH   6   7
ENDBRANCH   5   6
ENDBRANCH   3   5
ENDBRANCH   1   3
BRANCH   1  11
ATOM     11  C   UNL     1      -2.842  -1.961   4.106  1.00  0.00     0.087 C 
BRANCH  11  12
ATOM     12  C   UNL     1      -3.356  -1.746   2.650  1.00  0.00     0.066 C 
BRANCH  12  13
ATOM     13  C   UNL     1      -4.575  -2.592   2.292  1.00  0.00     0.140 C 
ATOM     14  O   UNL     1      -5.700  -2.184   2.535  1.00  0.00    -0.299 OA
BRANCH  13  15
ATOM     15  C   UNL     1      -4.406  -3.902   1.558  1.00  0.00     0.106 CG0
ATOM     16  G   UNL     1      -3.883  -5.017   2.451  1.00  0.00     0.000 G0
ENDBRANCH  13  15
ENDBRANCH  12  13
BRANCH  12  17
ATOM     17  C   UNL     1      -3.489  -0.245   2.238  1.00  0.00    -0.006 C 
ATOM     18  C   UNL     1      -2.415   0.251   1.258  1.00  0.00     0.008 C 
ATOM     19  C   UNL     1      -3.548   0.674   3.470  1.00  0.00     0.008 C 
ENDBRANCH  12  17
ENDBRANCH  11  12
ENDBRANCH   1  11
TORSDOF 1
ENDMDL
MODEL 6
REMARK VINA RESULT:    -3.247      3.048      4.431
REMARK INTER + INTRA:          -4.567
REMARK INTER:                  -4.261
REMARK INTRA:                  -0.306
REMARK UNBOUND:                 0.388
REMARK SMILES CC1=CCC[C@@H](C)C(=O)C[C@H](C(C)C)C(=O)C1
REMARK SMILES IDX 8 1 9 2 6 3 7 4 5 5 4 6 3 7 2 8 1 9 10 11 11 12 15 13 16 14
REMARK SMILES IDX 17 15 12 17 13 18 14 19
REMARK H PARENT
REMARK Flexibility Score: 70.00
ROOT
ATOM      1  C   UNL     1      -5.144  -2.717   3.963  1.00  0.00     0.136 C 
ATOM      2  O   UNL     1      -5.800  -3.387   4.745  1.00  0.00    -0.299 OA
ENDROOT
BRANCH   1   3
ATOM      3  C   UNL     1      -4.807  -3.327   2.610  1.00  0.00     0.053 C 
ATOM      4  C   UNL     1      -6.036  -3.653   1.746  1.00  0.00     0.016 C 
BRANCH   3   5
ATOM      5  C   UNL     1      -3.819  -4.506   2.742  1.00  0.00     0.015 C 
BRANCH   5   6
ATOM      6  C   UNL     1      -2.429  -4.130   3.292  1.00  0.00     0.028 C 
BRANCH   6   7
ATOM      7  C   UNL     1      -1.795  -3.069   2.429  1.00  0.00    -0.028 C 
ATOM      8  C   UNL     1      -1.291  -1.901   2.891  1.00  0.00    -0.070 CG0
ATOM      9  C   UNL     1      -0.800  -0.893   1.884  1.00  0.00     0.039 C 
ATOM     10  G   UNL     1      -1.159  -1.590   4.374  1.00  0.00     0.000 G0
ENDBRANCH   6   7
ENDBRANCH   5   6
ENDBRANCH   3   5
ENDBRANCH   1   3
BRANCH   1  11
ATOM     11  C   UNL     1      -4.709  -1.324   4.383  1.00  0.00     0.087 C 
BRANCH  11  12
ATOM     12  C   UNL     1      -3.555  -1.266   5.430  1.00  0.00     0.066 C 
BRANCH  12  13
ATOM     13  C   UNL     1      -2.259  -0.668   4.891  1.00  0.00     0.140 C 
ATOM     14  O   UNL     1      -2.075   0.540   4.930  1.00  0.00    -0.299 OA
BRANCH  13  15
ATOM     15  C   UNL     1      -1.156  -1.567   4.382  1.00  0.00     0.106 CG0
ATOM     16  G   UNL     1      -1.293  -1.891   2.902  1.00  0.00     0.000 G0
ENDBRANCH  13  15
ENDBRANCH  12  13
BRANCH  12  17
ATOM     17  C   UNL     1      -3.985  -0.691   6.818  1.00  0.00    -0.006 C 
ATOM     18  C   UNL     1      -4.451  -1.744   7.834  1.00  0.00     0.008 C 
ATOM     19  C   UNL     1      -5.050   0.408   6.667  1.00  0.00     0.008 C 
ENDBRANCH  12  17
ENDBRANCH  11  12
ENDBRANCH   1  11
TORSDOF 1
ENDMDL
MODEL 7
REMARK VINA RESULT:    -3.240      3.657      5.906
REMARK INTER + INTRA:          -4.557
REMARK INTER:                  -4.759
REMARK INTRA:                   0.203
REMARK UNBOUND:                 0.388
REMARK SMILES CC1=CCC[C@@H](C)C(=O)C[C@H](C(C)C)C(=O)C1
REMARK SMILES IDX 8 1 9 2 6 3 7 4 5 5 4 6 3 7 2 8 1 9 10 11 11 12 15 13 16 14
REMARK SMILES IDX 17 15 12 17 13 18 14 19
REMARK H PARENT
REMARK Flexibility Score: 70.00
ROOT
ATOM      1  C   UNL     1       0.125  -5.013   5.140  1.00  0.00     0.136 C 
ATOM      2  O   UNL     1      -0.401  -6.094   4.926  1.00  0.00    -0.299 OA
ENDROOT
BRANCH   1   3
ATOM      3  C   UNL     1       0.994  -4.877   6.383  1.00  0.00     0.053 C 
ATOM      4  C   UNL     1       1.205  -6.194   7.148  1.00  0.00     0.016 C 
BRANCH   3   5
ATOM      5  C   UNL     1       0.529  -3.712   7.283  1.00  0.00     0.015 C 
BRANCH   5   6
ATOM      6  C   UNL     1       0.964  -2.311   6.809  1.00  0.00     0.028 C 
BRANCH   6   7
ATOM      7  C   UNL     1      -0.117  -1.302   7.102  1.00  0.00    -0.028 C 
ATOM      8  C   UNL     1      -0.879  -0.697   6.160  1.00  0.00    -0.070 CG0
ATOM      9  C   UNL     1      -1.835   0.379   6.607  1.00  0.00     0.039 C 
ATOM     10  G   UNL     1      -0.843  -1.092   4.692  1.00  0.00     0.000 G0
ENDBRANCH   6   7
ENDBRANCH   5   6
ENDBRANCH   3   5
ENDBRANCH   1   3
BRANCH   1  11
ATOM     11  C   UNL     1      -0.114  -3.878   4.161  1.00  0.00     0.087 C 
BRANCH  11  12
ATOM     12  C   UNL     1      -1.607  -3.497   3.924  1.00  0.00     0.066 C 
BRANCH  12  13
ATOM     13  C   UNL     1      -1.945  -2.056   4.295  1.00  0.00     0.140 C 
ATOM     14  O   UNL     1      -3.110  -1.691   4.348  1.00  0.00    -0.299 OA
BRANCH  13  15
ATOM     15  C   UNL     1      -0.850  -1.090   4.684  1.00  0.00     0.106 CG0
ATOM     16  G   UNL     1      -0.892  -0.710   6.156  1.00  0.00     0.000 G0
ENDBRANCH  13  15
ENDBRANCH  12  13
BRANCH  12  17
ATOM     17  C   UNL     1      -2.161  -3.935   2.530  1.00  0.00    -0.006 C 
ATOM     18  C   UNL     1      -3.462  -4.749   2.582  1.00  0.00     0.008 C 
ATOM     19  C   UNL     1      -1.097  -4.686   1.713  1.00  0.00     0.008 C 
ENDBRANCH  12  17
ENDBRANCH  11  12
ENDBRANCH   1  11
TORSDOF 1
ENDMDL
MODEL 8
REMARK VINA RESULT:    -3.112     15.312     16.708
REMARK INTER + INTRA:          -4.361
REMARK INTER:                  -4.202
REMARK INTRA:                  -0.159
REMARK UNBOUND:                 0.388
REMARK SMILES CC1=CCC[C@@H](C)C(=O)C[C@H](C(C)C)C(=O)C1
REMARK SMILES IDX 8 1 9 2 6 3 7 4 5 5 4 6 3 7 2 8 1 9 10 11 11 12 15 13 16 14
REMARK SMILES IDX 17 15 12 17 13 18 14 19
REMARK H PARENT
REMARK Flexibility Score: 70.00
ROOT
ATOM      1  C   UNL     1       1.898  -2.333  18.518  1.00  0.00     0.136 C 
ATOM      2  O   UNL     1       1.869  -3.432  17.987  1.00  0.00    -0.299 OA
ENDROOT
BRANCH   1   3
ATOM      3  C   UNL     1       1.644  -2.259  20.018  1.00  0.00     0.053 C 
ATOM      4  C   UNL     1       2.687  -3.003  20.868  1.00  0.00     0.016 C 
BRANCH   3   5
ATOM      5  C   UNL     1       0.187  -2.629  20.371  1.00  0.00     0.015 C 
BRANCH   5   6
ATOM      6  C   UNL     1      -0.818  -1.463  20.288  1.00  0.00     0.028 C 
BRANCH   6   7
ATOM      7  C   UNL     1      -1.686  -1.609  19.064  1.00  0.00    -0.028 C 
ATOM      8  C   UNL     1      -1.634  -0.795  17.983  1.00  0.00    -0.070 CG0
ATOM      9  C   UNL     1      -2.653  -1.001  16.892  1.00  0.00     0.039 C 
ATOM     10  G   UNL     1      -0.568   0.276  17.808  1.00  0.00     0.000 G0
ENDBRANCH   6   7
ENDBRANCH   5   6
ENDBRANCH   3   5
ENDBRANCH   1   3
BRANCH   1  11
ATOM     11  C   UNL     1       2.187  -1.115  17.660  1.00  0.00     0.087 C 
BRANCH  11  12
ATOM     12  C   UNL     1       1.289  -0.954  16.395  1.00  0.00     0.066 C 
BRANCH  12  13
ATOM     13  C   UNL     1       0.229   0.137  16.523  1.00  0.00     0.140 C 
ATOM     14  O   UNL     1      -0.034   0.854  15.569  1.00  0.00    -0.299 OA
BRANCH  13  15
ATOM     15  C   UNL     1      -0.565   0.285  17.801  1.00  0.00     0.106 CG0
ATOM     16  G   UNL     1      -1.620  -0.797  17.969  1.00  0.00     0.000 G0
ENDBRANCH  13  15
ENDBRANCH  12  13
BRANCH  12  17
ATOM     17  C   UNL     1       2.086  -0.904  15.053  1.00  0.00    -0.006 C 
ATOM     18  C   UNL     1       2.446  -2.277  14.466  1.00  0.00     0.008 C 
ATOM     19  C   UNL     1       3.348  -0.034  15.179  1.00  0.00     0.008 C 
ENDBRANCH  12  17
ENDBRANCH  11  12
ENDBRANCH   1  11
TORSDOF 1
ENDMDL
MODEL 9
REMARK VINA RESULT:    -3.071     15.958     17.586
REMARK INTER + INTRA:          -4.298
REMARK INTER:                  -4.283
REMARK INTRA:                  -0.016
REMARK UNBOUND:                 0.388
REMARK SMILES CC1=CCC[C@@H](C)C(=O)C[C@H](C(C)C)C(=O)C1
REMARK SMILES IDX 8 1 9 2 6 3 7 4 5 5 4 6 3 7 2 8 1 9 10 11 11 12 15 13 16 14
REMARK SMILES IDX 17 15 12 17 13 18 14 19
REMARK H PARENT
REMARK Flexibility Score: 70.00
ROOT
ATOM      1  C   UNL     1       2.938   3.872  17.356  1.00  0.00     0.136 C 
ATOM      2  O   UNL     1       2.756   5.079  17.375  1.00  0.00    -0.299 OA
ENDROOT
BRANCH   1   3
ATOM      3  C   UNL     1       3.776   3.295  16.224  1.00  0.00     0.053 C 
ATOM      4  C   UNL     1       4.034   4.279  15.071  1.00  0.00     0.016 C 
BRANCH   3   5
ATOM      5  C   UNL     1       3.241   1.925  15.754  1.00  0.00     0.015 C 
BRANCH   5   6
ATOM      6  C   UNL     1       1.927   1.983  14.950  1.00  0.00     0.028 C 
BRANCH   6   7
ATOM      7  C   UNL     1       1.212   0.657  15.023  1.00  0.00    -0.028 C 
ATOM      8  C   UNL     1       0.187   0.381  15.864  1.00  0.00    -0.070 CG0
ATOM      9  C   UNL     1      -0.340  -1.030  15.898  1.00  0.00     0.039 C 
ATOM     10  G   UNL     1      -0.476   1.441  16.731  1.00  0.00     0.000 G0
ENDBRANCH   6   7
ENDBRANCH   5   6
ENDBRANCH   3   5
ENDBRANCH   1   3
BRANCH   1  11
ATOM     11  C   UNL     1       2.323   3.024  18.455  1.00  0.00     0.087 C 
BRANCH  11  12
ATOM     12  C   UNL     1       0.765   2.973  18.475  1.00  0.00     0.066 C 
BRANCH  12  13
ATOM     13  C   UNL     1       0.185   1.619  18.074  1.00  0.00     0.140 C 
ATOM     14  O   UNL     1       0.201   0.685  18.861  1.00  0.00    -0.299 OA
BRANCH  13  15
ATOM     15  C   UNL     1      -0.490   1.445  16.733  1.00  0.00     0.106 CG0
ATOM     16  G   UNL     1       0.188   0.399  15.862  1.00  0.00     0.000 G0
ENDBRANCH  13  15
ENDBRANCH  12  13
BRANCH  12  17
ATOM     17  C   UNL     1       0.127   3.574  19.768  1.00  0.00    -0.006 C 
ATOM     18  C   UNL     1      -1.408   3.643  19.756  1.00  0.00     0.008 C 
ATOM     19  C   UNL     1       0.717   4.955  20.098  1.00  0.00     0.008 C 
ENDBRANCH  12  17
ENDBRANCH  11  12
ENDBRANCH   1  11
TORSDOF 1
ENDMDL
