MODEL 1
REMARK VINA RESULT:    -4.935      0.000      0.000
REMARK INTER + INTRA:          -7.193
REMARK INTER:                  -6.089
REMARK INTRA:                  -1.104
REMARK UNBOUND:                -1.104
REMARK SMILES CC(C)=CCC[C@H](C)[C@H]1C=CC(C)=CC1
REMARK SMILES IDX 6 1 7 2 8 3 9 4 13 5 12 6 14 7 11 8 15 9 10 10 5 11 4 12
REMARK SMILES IDX 2 13 1 14 3 15
REMARK H PARENT
REMARK Flexibility Score: inf
ROOT
ATOM      1  C   UNL     1      19.490  63.838  17.262  1.00  0.00     0.008 C 
ENDROOT
BRANCH   1   2
ATOM      2  C   UNL     1      19.117  65.340  17.118  1.00  0.00    -0.007 C 
ATOM      3  C   UNL     1      19.440  66.120  18.405  1.00  0.00     0.008 C 
BRANCH   2   4
ATOM      4  C   UNL     1      17.634  65.553  16.691  1.00  0.00     0.018 C 
ATOM      5  C   UNL     1      13.581  64.866  15.304  1.00  0.00     0.044 C 
ATOM      6  C   UNL     1      14.983  64.861  15.838  1.00  0.00    -0.055 C 
ATOM      7  C   UNL     1      15.209  65.063  17.146  1.00  0.00    -0.023 C 
ATOM      8  C   UNL     1      16.125  64.724  14.906  1.00  0.00    -0.001 C 
ATOM      9  C   UNL     1      16.606  64.989  17.703  1.00  0.00     0.035 C 
ATOM     10  C   UNL     1      17.372  64.994  15.306  1.00  0.00    -0.023 C 
ENDBRANCH   2   4
ENDBRANCH   1   2
BRANCH   1  11
ATOM     11  C   UNL     1      20.819  63.464  16.581  1.00  0.00     0.027 C 
BRANCH  11  12
ATOM     12  C   UNL     1      21.032  64.229  15.296  1.00  0.00    -0.028 C 
ATOM     13  C   UNL     1      20.538  63.862  14.093  1.00  0.00    -0.080 C 
ATOM     14  C   UNL     1      20.803  64.755  12.908  1.00  0.00     0.039 C 
ATOM     15  C   UNL     1      19.757  62.583  13.900  1.00  0.00     0.039 C 
ENDBRANCH  11  12
ENDBRANCH   1  11
TORSDOF 4
ENDMDL
MODEL 2
REMARK VINA RESULT:    -4.792      1.495      2.027
REMARK INTER + INTRA:          -7.016
REMARK INTER:                  -6.237
REMARK INTRA:                  -0.779
REMARK UNBOUND:                -1.104
REMARK SMILES CC(C)=CCC[C@H](C)[C@H]1C=CC(C)=CC1
REMARK SMILES IDX 6 1 7 2 8 3 9 4 13 5 12 6 14 7 11 8 15 9 10 10 5 11 4 12
REMARK SMILES IDX 2 13 1 14 3 15
REMARK H PARENT
REMARK Flexibility Score: inf
ROOT
ATOM      1  C   UNL     1      19.776  64.532  14.621  1.00  0.00     0.008 C 
ENDROOT
BRANCH   1   2
ATOM      2  C   UNL     1      19.277  65.120  15.970  1.00  0.00    -0.007 C 
ATOM      3  C   UNL     1      19.682  64.223  17.153  1.00  0.00     0.008 C 
BRANCH   2   4
ATOM      4  C   UNL     1      17.744  65.397  15.975  1.00  0.00     0.018 C 
ATOM      5  C   UNL     1      13.440  64.883  15.816  1.00  0.00     0.044 C 
ATOM      6  C   UNL     1      14.933  64.820  15.930  1.00  0.00    -0.055 C 
ATOM      7  C   UNL     1      15.531  65.029  17.114  1.00  0.00    -0.023 C 
ATOM      8  C   UNL     1      15.757  64.616  14.716  1.00  0.00    -0.001 C 
ATOM      9  C   UNL     1      17.025  64.898  17.253  1.00  0.00     0.035 C 
ATOM     10  C   UNL     1      17.076  64.832  14.738  1.00  0.00    -0.023 C 
ENDBRANCH   2   4
ENDBRANCH   1   2
BRANCH   1  11
ATOM     11  C   UNL     1      20.361  63.114  14.744  1.00  0.00     0.027 C 
BRANCH  11  12
ATOM     12  C   UNL     1      21.660  62.969  13.987  1.00  0.00    -0.028 C 
ATOM     13  C   UNL     1      22.876  62.850  14.564  1.00  0.00    -0.080 C 
ATOM     14  C   UNL     1      24.077  62.671  13.671  1.00  0.00     0.039 C 
ATOM     15  C   UNL     1      23.066  62.916  16.061  1.00  0.00     0.039 C 
ENDBRANCH  11  12
ENDBRANCH   1  11
TORSDOF 4
ENDMDL
MODEL 3
REMARK VINA RESULT:    -4.774      1.602      5.933
REMARK INTER + INTRA:          -6.995
REMARK INTER:                  -6.268
REMARK INTRA:                  -0.727
REMARK UNBOUND:                -1.104
REMARK SMILES CC(C)=CCC[C@H](C)[C@H]1C=CC(C)=CC1
REMARK SMILES IDX 6 1 7 2 8 3 9 4 13 5 12 6 14 7 11 8 15 9 10 10 5 11 4 12
REMARK SMILES IDX 2 13 1 14 3 15
REMARK H PARENT
REMARK Flexibility Score: inf
ROOT
ATOM      1  C   UNL     1      18.547  64.511  15.285  1.00  0.00     0.008 C 
ENDROOT
BRANCH   1   2
ATOM      2  C   UNL     1      19.136  64.465  16.723  1.00  0.00    -0.007 C 
ATOM      3  C   UNL     1      19.561  65.867  17.196  1.00  0.00     0.008 C 
BRANCH   2   4
ATOM      4  C   UNL     1      20.308  63.448  16.862  1.00  0.00     0.018 C 
ATOM      5  C   UNL     1      24.270  61.699  17.115  1.00  0.00     0.044 C 
ATOM      6  C   UNL     1      23.012  62.515  17.092  1.00  0.00    -0.055 C 
ATOM      7  C   UNL     1      22.282  62.665  18.210  1.00  0.00    -0.023 C 
ATOM      8  C   UNL     1      22.526  63.084  15.815  1.00  0.00    -0.001 C 
ATOM      9  C   UNL     1      21.057  63.540  18.214  1.00  0.00     0.035 C 
ATOM     10  C   UNL     1      21.284  63.568  15.709  1.00  0.00    -0.023 C 
ENDBRANCH   2   4
ENDBRANCH   1   2
BRANCH   1  11
ATOM     11  C   UNL     1      17.505  65.623  15.080  1.00  0.00     0.027 C 
BRANCH  11  12
ATOM     12  C   UNL     1      16.103  65.072  14.969  1.00  0.00    -0.028 C 
ATOM     13  C   UNL     1      15.247  64.932  16.005  1.00  0.00    -0.080 C 
ATOM     14  C   UNL     1      13.863  64.404  15.725  1.00  0.00     0.039 C 
ATOM     15  C   UNL     1      15.643  65.264  17.425  1.00  0.00     0.039 C 
ENDBRANCH  11  12
ENDBRANCH   1  11
TORSDOF 4
ENDMDL
MODEL 4
REMARK VINA RESULT:    -4.728      1.745      6.105
REMARK INTER + INTRA:          -6.938
REMARK INTER:                  -6.235
REMARK INTRA:                  -0.703
REMARK UNBOUND:                -1.104
REMARK SMILES CC(C)=CCC[C@H](C)[C@H]1C=CC(C)=CC1
REMARK SMILES IDX 6 1 7 2 8 3 9 4 13 5 12 6 14 7 11 8 15 9 10 10 5 11 4 12
REMARK SMILES IDX 2 13 1 14 3 15
REMARK H PARENT
REMARK Flexibility Score: inf
ROOT
ATOM      1  C   UNL     1      18.509  64.268  14.965  1.00  0.00     0.008 C 
ENDROOT
BRANCH   1   2
ATOM      2  C   UNL     1      19.499  64.187  16.161  1.00  0.00    -0.007 C 
ATOM      3  C   UNL     1      19.943  65.591  16.612  1.00  0.00     0.008 C 
BRANCH   2   4
ATOM      4  C   UNL     1      20.729  63.279  15.863  1.00  0.00     0.018 C 
ATOM      5  C   UNL     1      24.583  61.844  14.483  1.00  0.00     0.044 C 
ATOM      6  C   UNL     1      23.352  62.565  14.944  1.00  0.00    -0.055 C 
ATOM      7  C   UNL     1      23.176  62.838  16.247  1.00  0.00    -0.023 C 
ATOM      8  C   UNL     1      22.287  62.900  13.972  1.00  0.00    -0.001 C 
ATOM      9  C   UNL     1      21.979  63.625  16.711  1.00  0.00     0.035 C 
ATOM     10  C   UNL     1      21.075  63.283  14.388  1.00  0.00    -0.023 C 
ENDBRANCH   2   4
ENDBRANCH   1   2
BRANCH   1  11
ATOM     11  C   UNL     1      17.575  65.489  15.018  1.00  0.00     0.027 C 
BRANCH  11  12
ATOM     12  C   UNL     1      16.120  65.095  14.924  1.00  0.00    -0.028 C 
ATOM     13  C   UNL     1      15.311  64.879  15.985  1.00  0.00    -0.080 C 
ATOM     14  C   UNL     1      13.868  64.532  15.726  1.00  0.00     0.039 C 
ATOM     15  C   UNL     1      15.815  64.952  17.407  1.00  0.00     0.039 C 
ENDBRANCH  11  12
ENDBRANCH   1  11
TORSDOF 4
ENDMDL
MODEL 5
REMARK VINA RESULT:    -4.727      1.858      6.490
REMARK INTER + INTRA:          -6.937
REMARK INTER:                  -6.377
REMARK INTRA:                  -0.560
REMARK UNBOUND:                -1.104
REMARK SMILES CC(C)=CCC[C@H](C)[C@H]1C=CC(C)=CC1
REMARK SMILES IDX 6 1 7 2 8 3 9 4 13 5 12 6 14 7 11 8 15 9 10 10 5 11 4 12
REMARK SMILES IDX 2 13 1 14 3 15
REMARK H PARENT
REMARK Flexibility Score: inf
ROOT
ATOM      1  C   UNL     1      18.906  64.295  15.829  1.00  0.00     0.008 C 
ENDROOT
BRANCH   1   2
ATOM      2  C   UNL     1      19.923  63.989  14.694  1.00  0.00    -0.007 C 
ATOM      3  C   UNL     1      19.486  62.765  13.870  1.00  0.00     0.008 C 
BRANCH   2   4
ATOM      4  C   UNL     1      21.379  63.819  15.221  1.00  0.00     0.018 C 
ATOM      5  C   UNL     1      24.965  62.190  17.039  1.00  0.00     0.044 C 
ATOM      6  C   UNL     1      23.655  62.517  16.388  1.00  0.00    -0.055 C 
ATOM      7  C   UNL     1      23.560  62.577  15.050  1.00  0.00    -0.023 C 
ATOM      8  C   UNL     1      22.483  62.862  17.225  1.00  0.00    -0.001 C 
ATOM      9  C   UNL     1      22.234  62.834  14.385  1.00  0.00     0.035 C 
ATOM     10  C   UNL     1      21.396  63.423  16.684  1.00  0.00    -0.023 C 
ENDBRANCH   2   4
ENDBRANCH   1   2
BRANCH   1  11
ATOM     11  C   UNL     1      17.994  65.498  15.533  1.00  0.00     0.027 C 
BRANCH  11  12
ATOM     12  C   UNL     1      16.568  65.077  15.267  1.00  0.00    -0.028 C 
ATOM     13  C   UNL     1      15.609  64.971  16.213  1.00  0.00    -0.080 C 
ATOM     14  C   UNL     1      14.219  64.577  15.783  1.00  0.00     0.039 C 
ATOM     15  C   UNL     1      15.895  65.208  17.678  1.00  0.00     0.039 C 
ENDBRANCH  11  12
ENDBRANCH   1  11
TORSDOF 4
ENDMDL
MODEL 6
REMARK VINA RESULT:    -4.590      1.583      5.850
REMARK INTER + INTRA:          -6.768
REMARK INTER:                  -6.159
REMARK INTRA:                  -0.609
REMARK UNBOUND:                -1.104
REMARK SMILES CC(C)=CCC[C@H](C)[C@H]1C=CC(C)=CC1
REMARK SMILES IDX 6 1 7 2 8 3 9 4 13 5 12 6 14 7 11 8 15 9 10 10 5 11 4 12
REMARK SMILES IDX 2 13 1 14 3 15
REMARK H PARENT
REMARK Flexibility Score: inf
ROOT
ATOM      1  C   UNL     1      18.630  63.905  14.997  1.00  0.00     0.008 C 
ENDROOT
BRANCH   1   2
ATOM      2  C   UNL     1      20.164  64.110  14.847  1.00  0.00    -0.007 C 
ATOM      3  C   UNL     1      20.783  63.035  13.936  1.00  0.00     0.008 C 
BRANCH   2   4
ATOM      4  C   UNL     1      20.899  64.174  16.218  1.00  0.00     0.018 C 
ATOM      5  C   UNL     1      22.408  63.182  20.163  1.00  0.00     0.044 C 
ATOM      6  C   UNL     1      21.858  63.280  18.772  1.00  0.00    -0.055 C 
ATOM      7  C   UNL     1      22.680  63.212  17.712  1.00  0.00    -0.023 C 
ATOM      8  C   UNL     1      20.415  63.543  18.567  1.00  0.00    -0.001 C 
ATOM      9  C   UNL     1      22.130  63.238  16.311  1.00  0.00     0.035 C 
ATOM     10  C   UNL     1      19.949  63.912  17.369  1.00  0.00    -0.023 C 
ENDBRANCH   2   4
ENDBRANCH   1   2
BRANCH   1  11
ATOM     11  C   UNL     1      17.826  65.216  14.966  1.00  0.00     0.027 C 
BRANCH  11  12
ATOM     12  C   UNL     1      16.338  64.967  14.906  1.00  0.00    -0.028 C 
ATOM     13  C   UNL     1      15.527  64.891  15.984  1.00  0.00    -0.080 C 
ATOM     14  C   UNL     1      14.052  64.678  15.758  1.00  0.00     0.039 C 
ATOM     15  C   UNL     1      16.056  64.988  17.396  1.00  0.00     0.039 C 
ENDBRANCH  11  12
ENDBRANCH   1  11
TORSDOF 4
ENDMDL
MODEL 7
REMARK VINA RESULT:    -4.360      1.541      2.829
REMARK INTER + INTRA:          -6.484
REMARK INTER:                  -5.908
REMARK INTRA:                  -0.576
REMARK UNBOUND:                -1.104
REMARK SMILES CC(C)=CCC[C@H](C)[C@H]1C=CC(C)=CC1
REMARK SMILES IDX 6 1 7 2 8 3 9 4 13 5 12 6 14 7 11 8 15 9 10 10 5 11 4 12
REMARK SMILES IDX 2 13 1 14 3 15
REMARK H PARENT
REMARK Flexibility Score: inf
ROOT
ATOM      1  C   UNL     1      20.296  64.160  15.943  1.00  0.00     0.008 C 
ENDROOT
BRANCH   1   2
ATOM      2  C   UNL     1      19.226  65.116  16.541  1.00  0.00    -0.007 C 
ATOM      3  C   UNL     1      19.427  65.300  18.056  1.00  0.00     0.008 C 
BRANCH   2   4
ATOM      4  C   UNL     1      17.770  64.665  16.220  1.00  0.00     0.018 C 
ATOM      5  C   UNL     1      13.482  64.665  15.560  1.00  0.00     0.044 C 
ATOM      6  C   UNL     1      14.950  64.908  15.745  1.00  0.00    -0.055 C 
ATOM      7  C   UNL     1      15.781  64.866  14.692  1.00  0.00    -0.023 C 
ATOM      8  C   UNL     1      15.497  65.109  17.107  1.00  0.00    -0.001 C 
ATOM      9  C   UNL     1      17.245  65.180  14.856  1.00  0.00     0.035 C 
ATOM     10  C   UNL     1      16.814  65.048  17.332  1.00  0.00    -0.023 C 
ENDBRANCH   2   4
ENDBRANCH   1   2
BRANCH   1  11
ATOM     11  C   UNL     1      21.743  64.621  16.191  1.00  0.00     0.027 C 
BRANCH  11  12
ATOM     12  C   UNL     1      22.716  63.465  16.176  1.00  0.00    -0.028 C 
ATOM     13  C   UNL     1      22.992  62.680  17.240  1.00  0.00    -0.080 C 
ATOM     14  C   UNL     1      23.958  61.537  17.055  1.00  0.00     0.039 C 
ATOM     15  C   UNL     1      22.385  62.927  18.601  1.00  0.00     0.039 C 
ENDBRANCH  11  12
ENDBRANCH   1  11
TORSDOF 4
ENDMDL
MODEL 8
REMARK VINA RESULT:    -4.178      2.317      6.208
REMARK INTER + INTRA:          -6.259
REMARK INTER:                  -5.570
REMARK INTRA:                  -0.689
REMARK UNBOUND:                -1.104
REMARK SMILES CC(C)=CCC[C@H](C)[C@H]1C=CC(C)=CC1
REMARK SMILES IDX 6 1 7 2 8 3 9 4 13 5 12 6 14 7 11 8 15 9 10 10 5 11 4 12
REMARK SMILES IDX 2 13 1 14 3 15
REMARK H PARENT
REMARK Flexibility Score: inf
ROOT
ATOM      1  C   UNL     1      20.016  63.639  17.592  1.00  0.00     0.008 C 
ENDROOT
BRANCH   1   2
ATOM      2  C   UNL     1      21.564  63.776  17.565  1.00  0.00    -0.007 C 
ATOM      3  C   UNL     1      21.990  65.241  17.363  1.00  0.00     0.008 C 
BRANCH   2   4
ATOM      4  C   UNL     1      22.231  62.847  16.508  1.00  0.00     0.018 C 
ATOM      5  C   UNL     1      24.492  61.401  13.099  1.00  0.00     0.044 C 
ATOM      6  C   UNL     1      23.850  62.105  14.257  1.00  0.00    -0.055 C 
ATOM      7  C   UNL     1      24.367  61.990  15.491  1.00  0.00    -0.023 C 
ATOM      8  C   UNL     1      22.590  62.856  14.054  1.00  0.00    -0.001 C 
ATOM      9  C   UNL     1      23.771  62.750  16.646  1.00  0.00     0.035 C 
ATOM     10  C   UNL     1      21.852  63.251  15.097  1.00  0.00    -0.023 C 
ENDBRANCH   2   4
ENDBRANCH   1   2
BRANCH   1  11
ATOM     11  C   UNL     1      19.275  64.960  17.321  1.00  0.00     0.027 C 
BRANCH  11  12
ATOM     12  C   UNL     1      18.390  64.873  16.100  1.00  0.00    -0.028 C 
ATOM     13  C   UNL     1      17.039  64.902  16.126  1.00  0.00    -0.080 C 
ATOM     14  C   UNL     1      16.296  64.848  14.816  1.00  0.00     0.039 C 
ATOM     15  C   UNL     1      16.261  64.963  17.420  1.00  0.00     0.039 C 
ENDBRANCH  11  12
ENDBRANCH   1  11
TORSDOF 4
ENDMDL
MODEL 9
REMARK VINA RESULT:    -3.890      2.794      3.830
REMARK INTER + INTRA:          -5.904
REMARK INTER:                  -5.210
REMARK INTRA:                  -0.694
REMARK UNBOUND:                -1.104
REMARK SMILES CC(C)=CCC[C@H](C)[C@H]1C=CC(C)=CC1
REMARK SMILES IDX 6 1 7 2 8 3 9 4 13 5 12 6 14 7 11 8 15 9 10 10 5 11 4 12
REMARK SMILES IDX 2 13 1 14 3 15
REMARK H PARENT
REMARK Flexibility Score: inf
ROOT
ATOM      1  C   UNL     1      22.336  63.884  14.447  1.00  0.00     0.008 C 
ENDROOT
BRANCH   1   2
ATOM      2  C   UNL     1      21.881  64.318  15.868  1.00  0.00    -0.007 C 
ATOM      3  C   UNL     1      22.059  63.174  16.883  1.00  0.00     0.008 C 
BRANCH   2   4
ATOM      4  C   UNL     1      20.423  64.866  15.892  1.00  0.00     0.018 C 
ATOM      5  C   UNL     1      16.093  65.127  15.900  1.00  0.00     0.044 C 
ATOM      6  C   UNL     1      17.555  64.805  15.977  1.00  0.00    -0.055 C 
ATOM      7  C   UNL     1      18.232  65.000  17.121  1.00  0.00    -0.023 C 
ATOM      8  C   UNL     1      18.275  64.355  14.764  1.00  0.00    -0.001 C 
ATOM      9  C   UNL     1      19.683  64.613  17.229  1.00  0.00     0.035 C 
ATOM     10  C   UNL     1      19.612  64.331  14.730  1.00  0.00    -0.023 C 
ENDBRANCH   2   4
ENDBRANCH   1   2
BRANCH   1  11
ATOM     11  C   UNL     1      23.819  63.479  14.370  1.00  0.00     0.027 C 
BRANCH  11  12
ATOM     12  C   UNL     1      24.023  62.231  13.545  1.00  0.00    -0.028 C 
ATOM     13  C   UNL     1      24.512  61.065  14.022  1.00  0.00    -0.080 C 
ATOM     14  C   UNL     1      24.618  59.894  13.080  1.00  0.00     0.039 C 
ATOM     15  C   UNL     1      24.973  60.913  15.453  1.00  0.00     0.039 C 
ENDBRANCH  11  12
ENDBRANCH   1  11
TORSDOF 4
ENDMDL
