MODEL 1
REMARK VINA RESULT:    -5.158      0.000      0.000
REMARK INTER + INTRA:          -8.734
REMARK INTER:                  -8.023
REMARK INTRA:                  -0.711
REMARK UNBOUND:                -0.711
REMARK SMILES COc1cc(CNC(=O)CCCCC=CC(C)C)ccc1O
REMARK SMILES IDX 11 1 12 2 13 3 14 4 15 5 16 6 17 7 18 8 10 9 8 10 9 11 7 12
REMARK SMILES IDX 6 14 5 15 4 16 19 17 3 18 20 19 21 20 2 21 1 22 22 23
REMARK H PARENT 7 13 22 24
REMARK Flexibility Score: inf
ROOT
ATOM      1  C   UNL     1     118.152 252.818 338.632  1.00  0.00     0.010 C 
ENDROOT
BRANCH   1   2
ATOM      2  C   UNL     1     117.557 252.001 339.792  1.00  0.00     0.005 C 
BRANCH   2   3
ATOM      3  C   UNL     1     116.206 252.566 340.261  1.00  0.00     0.027 C 
BRANCH   3   4
ATOM      4  C   UNL     1     115.198 251.475 340.523  1.00  0.00    -0.031 C 
ATOM      5  C   UNL     1     114.149 251.584 341.360  1.00  0.00    -0.028 C 
BRANCH   5   6
ATOM      6  C   UNL     1     113.761 252.847 342.100  1.00  0.00     0.005 C 
ATOM      7  C   UNL     1     112.241 252.899 342.274  1.00  0.00     0.012 C 
ATOM      8  C   UNL     1     114.462 252.890 343.459  1.00  0.00     0.012 C 
ENDBRANCH   5   6
ENDBRANCH   3   4
ENDBRANCH   2   3
ENDBRANCH   1   2
BRANCH   1   9
ATOM      9  C   UNL     1     117.269 252.776 337.378  1.00  0.00     0.100 C 
BRANCH   9  10
ATOM     10  C   UNL     1     116.808 254.147 336.975  1.00  0.00     0.220 C 
ATOM     11  O   UNL     1     117.629 255.103 336.981  1.00  0.00    -0.275 OA
ATOM     12  N   UNL     1     115.455 254.356 336.548  1.00  0.00    -0.352 N 
ATOM     13  H   UNL     1     114.799 253.542 336.517  1.00  0.00     0.163 HD
BRANCH  12  14
ATOM     14  C   UNL     1     114.958 255.664 336.127  1.00  0.00     0.151 C 
BRANCH  14  15
ATOM     15  C   UNL     1     114.307 255.564 334.774  1.00  0.00    -0.025 A 
ATOM     16  C   UNL     1     114.754 256.374 333.719  1.00  0.00     0.056 A 
ATOM     17  C   UNL     1     113.270 254.647 334.549  1.00  0.00     0.009 A 
ATOM     18  C   UNL     1     114.165 256.280 332.443  1.00  0.00     0.160 A 
ATOM     19  C   UNL     1     112.680 254.551 333.287  1.00  0.00     0.050 A 
ATOM     20  C   UNL     1     113.119 255.360 332.235  1.00  0.00     0.157 A 
BRANCH  18  21
ATOM     21  O   UNL     1     114.589 257.076 331.367  1.00  0.00    -0.493 OA
ATOM     22  C   UNL     1     115.925 257.125 330.876  1.00  0.00     0.278 C 
ENDBRANCH  18  21
BRANCH  20  23
ATOM     23  O   UNL     1     112.506 255.237 330.989  1.00  0.00    -0.504 OA
ATOM     24  H   UNL     1     112.989 255.454 330.126  1.00  0.00     0.293 HD
ENDBRANCH  20  23
ENDBRANCH  14  15
ENDBRANCH  12  14
ENDBRANCH   9  10
ENDBRANCH   1   9
TORSDOF 10
ENDMDL
MODEL 2
REMARK VINA RESULT:    -4.805      2.918      8.927
REMARK INTER + INTRA:          -8.185
REMARK INTER:                  -7.525
REMARK INTRA:                  -0.659
REMARK UNBOUND:                -0.711
REMARK SMILES COc1cc(CNC(=O)CCCCC=CC(C)C)ccc1O
REMARK SMILES IDX 11 1 12 2 13 3 14 4 15 5 16 6 17 7 18 8 10 9 8 10 9 11 7 12
REMARK SMILES IDX 6 14 5 15 4 16 19 17 3 18 20 19 21 20 2 21 1 22 22 23
REMARK H PARENT 7 13 22 24
REMARK Flexibility Score: inf
ROOT
ATOM      1  C   UNL     1     115.489 254.285 336.059  1.00  0.00     0.010 C 
ENDROOT
BRANCH   1   2
ATOM      2  C   UNL     1     114.685 255.596 336.043  1.00  0.00     0.005 C 
BRANCH   2   3
ATOM      3  C   UNL     1     113.758 255.689 334.821  1.00  0.00     0.027 C 
BRANCH   3   4
ATOM      4  C   UNL     1     114.291 256.642 333.780  1.00  0.00    -0.031 C 
ATOM      5  C   UNL     1     114.411 256.359 332.470  1.00  0.00    -0.028 C 
BRANCH   5   6
ATOM      6  C   UNL     1     113.949 255.073 331.816  1.00  0.00     0.005 C 
ATOM      7  C   UNL     1     112.681 255.334 330.999  1.00  0.00     0.012 C 
ATOM      8  C   UNL     1     115.060 254.512 330.927  1.00  0.00     0.012 C 
ENDBRANCH   5   6
ENDBRANCH   3   4
ENDBRANCH   2   3
ENDBRANCH   1   2
BRANCH   1   9
ATOM      9  C   UNL     1     116.859 254.451 336.731  1.00  0.00     0.100 C 
BRANCH   9  10
ATOM     10  C   UNL     1     117.134 253.351 337.714  1.00  0.00     0.220 C 
ATOM     11  O   UNL     1     118.108 252.575 337.519  1.00  0.00    -0.275 OA
ATOM     12  N   UNL     1     116.320 253.211 338.887  1.00  0.00    -0.352 N 
ATOM     13  H   UNL     1     115.539 253.887 339.048  1.00  0.00     0.163 HD
BRANCH  12  14
ATOM     14  C   UNL     1     116.555 252.171 339.886  1.00  0.00     0.151 C 
BRANCH  14  15
ATOM     15  C   UNL     1     115.421 252.134 340.876  1.00  0.00    -0.025 A 
ATOM     16  C   UNL     1     115.411 253.020 341.964  1.00  0.00     0.056 A 
ATOM     17  C   UNL     1     114.359 251.235 340.707  1.00  0.00     0.009 A 
ATOM     18  C   UNL     1     114.349 253.006 342.890  1.00  0.00     0.160 A 
ATOM     19  C   UNL     1     113.304 251.214 341.623  1.00  0.00     0.050 A 
ATOM     20  C   UNL     1     113.293 252.093 342.711  1.00  0.00     0.157 A 
BRANCH  18  21
ATOM     21  O   UNL     1     114.309 253.880 343.988  1.00  0.00    -0.493 OA
ATOM     22  C   UNL     1     115.384 254.724 344.388  1.00  0.00     0.278 C 
ENDBRANCH  18  21
BRANCH  20  23
ATOM     23  O   UNL     1     112.225 252.044 343.605  1.00  0.00    -0.504 OA
ATOM     24  H   UNL     1     111.981 251.200 344.109  1.00  0.00     0.293 HD
ENDBRANCH  20  23
ENDBRANCH  14  15
ENDBRANCH  12  14
ENDBRANCH   9  10
ENDBRANCH   1   9
TORSDOF 10
ENDMDL
MODEL 3
REMARK VINA RESULT:    -4.800      4.032      7.248
REMARK INTER + INTRA:          -8.177
REMARK INTER:                  -7.563
REMARK INTRA:                  -0.614
REMARK UNBOUND:                -0.711
REMARK SMILES COc1cc(CNC(=O)CCCCC=CC(C)C)ccc1O
REMARK SMILES IDX 11 1 12 2 13 3 14 4 15 5 16 6 17 7 18 8 10 9 8 10 9 11 7 12
REMARK SMILES IDX 6 14 5 15 4 16 19 17 3 18 20 19 21 20 2 21 1 22 22 23
REMARK H PARENT 7 13 22 24
REMARK Flexibility Score: inf
ROOT
ATOM      1  C   UNL     1     115.567 254.236 344.549  1.00  0.00     0.010 C 
ENDROOT
BRANCH   1   2
ATOM      2  C   UNL     1     115.779 255.759 344.594  1.00  0.00     0.005 C 
BRANCH   2   3
ATOM      3  C   UNL     1     116.672 256.183 345.770  1.00  0.00     0.027 C 
BRANCH   3   4
ATOM      4  C   UNL     1     115.961 257.124 346.709  1.00  0.00    -0.031 C 
ATOM      5  C   UNL     1     115.856 256.948 348.040  1.00  0.00    -0.028 C 
BRANCH   5   6
ATOM      6  C   UNL     1     116.511 255.826 348.819  1.00  0.00     0.005 C 
ATOM      7  C   UNL     1     117.741 256.359 349.557  1.00  0.00     0.012 C 
ATOM      8  C   UNL     1     115.508 255.221 349.803  1.00  0.00     0.012 C 
ENDBRANCH   5   6
ENDBRANCH   3   4
ENDBRANCH   2   3
ENDBRANCH   1   2
BRANCH   1   9
ATOM      9  C   UNL     1     114.361 253.842 343.687  1.00  0.00     0.100 C 
BRANCH   9  10
ATOM     10  C   UNL     1     114.685 252.707 342.760  1.00  0.00     0.220 C 
ATOM     11  O   UNL     1     114.392 251.528 343.097  1.00  0.00    -0.275 OA
ATOM     12  N   UNL     1     115.286 252.967 341.484  1.00  0.00    -0.352 N 
ATOM     13  H   UNL     1     115.489 253.955 341.208  1.00  0.00     0.163 HD
BRANCH  12  14
ATOM     14  C   UNL     1     115.606 251.903 340.535  1.00  0.00     0.151 C 
BRANCH  14  15
ATOM     15  C   UNL     1     116.641 252.375 339.550  1.00  0.00    -0.025 A 
ATOM     16  C   UNL     1     116.265 253.197 338.477  1.00  0.00     0.056 A 
ATOM     17  C   UNL     1     117.988 252.021 339.709  1.00  0.00     0.009 A 
ATOM     18  C   UNL     1     117.226 253.659 337.556  1.00  0.00     0.160 A 
ATOM     19  C   UNL     1     118.945 252.473 338.799  1.00  0.00     0.050 A 
ATOM     20  C   UNL     1     118.573 253.288 337.725  1.00  0.00     0.157 A 
BRANCH  18  21
ATOM     21  O   UNL     1     116.881 254.482 336.473  1.00  0.00    -0.493 OA
ATOM     22  C   UNL     1     115.550 254.856 336.133  1.00  0.00     0.278 C 
ENDBRANCH  18  21
BRANCH  20  23
ATOM     23  O   UNL     1     119.556 253.721 336.835  1.00  0.00    -0.504 OA
ATOM     24  H   UNL     1     120.485 253.981 337.142  1.00  0.00     0.293 HD
ENDBRANCH  20  23
ENDBRANCH  14  15
ENDBRANCH  12  14
ENDBRANCH   9  10
ENDBRANCH   1   9
TORSDOF 10
ENDMDL
MODEL 4
REMARK VINA RESULT:    -4.633      6.412     11.957
REMARK INTER + INTRA:          -7.917
REMARK INTER:                  -7.407
REMARK INTRA:                  -0.511
REMARK UNBOUND:                -0.711
REMARK SMILES COc1cc(CNC(=O)CCCCC=CC(C)C)ccc1O
REMARK SMILES IDX 11 1 12 2 13 3 14 4 15 5 16 6 17 7 18 8 10 9 8 10 9 11 7 12
REMARK SMILES IDX 6 14 5 15 4 16 19 17 3 18 20 19 21 20 2 21 1 22 22 23
REMARK H PARENT 7 13 22 24
REMARK Flexibility Score: inf
ROOT
ATOM      1  C   UNL     1     115.071 252.910 343.196  1.00  0.00     0.010 C 
ENDROOT
BRANCH   1   2
ATOM      2  C   UNL     1     114.555 252.598 341.781  1.00  0.00     0.005 C 
BRANCH   2   3
ATOM      3  C   UNL     1     115.486 253.156 340.693  1.00  0.00     0.027 C 
BRANCH   3   4
ATOM      4  C   UNL     1     116.479 252.126 340.215  1.00  0.00    -0.031 C 
ATOM      5  C   UNL     1     117.399 252.333 339.255  1.00  0.00    -0.028 C 
BRANCH   5   6
ATOM      6  C   UNL     1     117.644 253.659 338.564  1.00  0.00     0.005 C 
ATOM      7  C   UNL     1     119.150 253.918 338.461  1.00  0.00     0.012 C 
ATOM      8  C   UNL     1     117.000 253.650 337.176  1.00  0.00     0.012 C 
ENDBRANCH   5   6
ENDBRANCH   3   4
ENDBRANCH   2   3
ENDBRANCH   1   2
BRANCH   1   9
ATOM      9  C   UNL     1     114.618 254.291 343.689  1.00  0.00     0.100 C 
BRANCH   9  10
ATOM     10  C   UNL     1     115.636 254.921 344.594  1.00  0.00     0.220 C 
ATOM     11  O   UNL     1     116.472 254.190 345.190  1.00  0.00    -0.275 OA
ATOM     12  N   UNL     1     115.682 256.346 344.746  1.00  0.00    -0.352 N 
ATOM     13  H   UNL     1     115.002 256.937 344.216  1.00  0.00     0.163 HD
BRANCH  12  14
ATOM     14  C   UNL     1     116.663 257.013 345.599  1.00  0.00     0.151 C 
BRANCH  14  15
ATOM     15  C   UNL     1     116.365 256.739 347.049  1.00  0.00    -0.025 A 
ATOM     16  C   UNL     1     117.392 256.321 347.909  1.00  0.00     0.056 A 
ATOM     17  C   UNL     1     115.072 256.922 347.557  1.00  0.00     0.009 A 
ATOM     18  C   UNL     1     117.131 256.076 349.272  1.00  0.00     0.160 A 
ATOM     19  C   UNL     1     114.805 256.678 348.906  1.00  0.00     0.050 A 
ATOM     20  C   UNL     1     115.825 256.257 349.765  1.00  0.00     0.157 A 
BRANCH  18  21
ATOM     21  O   UNL     1     118.137 255.657 350.157  1.00  0.00    -0.493 OA
ATOM     22  C   UNL     1     118.836 256.516 351.052  1.00  0.00     0.278 C 
ENDBRANCH  18  21
BRANCH  20  23
ATOM     23  O   UNL     1     115.523 256.022 351.105  1.00  0.00    -0.504 OA
ATOM     24  H   UNL     1     115.778 256.673 351.838  1.00  0.00     0.293 HD
ENDBRANCH  20  23
ENDBRANCH  14  15
ENDBRANCH  12  14
ENDBRANCH   9  10
ENDBRANCH   1   9
TORSDOF 10
ENDMDL
MODEL 5
REMARK VINA RESULT:    -4.519      5.719     11.381
REMARK INTER + INTRA:          -7.740
REMARK INTER:                  -7.069
REMARK INTRA:                  -0.671
REMARK UNBOUND:                -0.711
REMARK SMILES COc1cc(CNC(=O)CCCCC=CC(C)C)ccc1O
REMARK SMILES IDX 11 1 12 2 13 3 14 4 15 5 16 6 17 7 18 8 10 9 8 10 9 11 7 12
REMARK SMILES IDX 6 14 5 15 4 16 19 17 3 18 20 19 21 20 2 21 1 22 22 23
REMARK H PARENT 7 13 22 24
REMARK Flexibility Score: inf
ROOT
ATOM      1  C   UNL     1     113.941 251.814 341.969  1.00  0.00     0.010 C 
ENDROOT
BRANCH   1   2
ATOM      2  C   UNL     1     114.837 251.380 340.796  1.00  0.00     0.005 C 
BRANCH   2   3
ATOM      3  C   UNL     1     115.867 252.460 340.428  1.00  0.00     0.027 C 
BRANCH   3   4
ATOM      4  C   UNL     1     117.178 251.861 339.982  1.00  0.00    -0.031 C 
ATOM      5  C   UNL     1     118.026 252.434 339.108  1.00  0.00    -0.028 C 
BRANCH   5   6
ATOM      6  C   UNL     1     117.845 253.811 338.503  1.00  0.00     0.005 C 
ATOM      7  C   UNL     1     119.208 254.492 338.347  1.00  0.00     0.012 C 
ATOM      8  C   UNL     1     117.140 253.697 337.150  1.00  0.00     0.012 C 
ENDBRANCH   5   6
ENDBRANCH   3   4
ENDBRANCH   2   3
ENDBRANCH   1   2
BRANCH   1   9
ATOM      9  C   UNL     1     114.752 252.144 343.228  1.00  0.00     0.100 C 
BRANCH   9  10
ATOM     10  C   UNL     1     114.627 253.591 343.608  1.00  0.00     0.220 C 
ATOM     11  O   UNL     1     113.574 254.219 343.315  1.00  0.00    -0.275 OA
ATOM     12  N   UNL     1     115.679 254.240 344.334  1.00  0.00    -0.352 N 
ATOM     13  H   UNL     1     116.529 253.692 344.599  1.00  0.00     0.163 HD
BRANCH  12  14
ATOM     14  C   UNL     1     115.601 255.640 344.746  1.00  0.00     0.151 C 
BRANCH  14  15
ATOM     15  C   UNL     1     116.326 255.842 346.050  1.00  0.00    -0.025 A 
ATOM     16  C   UNL     1     115.598 256.045 347.232  1.00  0.00     0.056 A 
ATOM     17  C   UNL     1     117.726 255.803 346.099  1.00  0.00     0.009 A 
ATOM     18  C   UNL     1     116.263 256.219 348.462  1.00  0.00     0.160 A 
ATOM     19  C   UNL     1     118.392 255.978 347.314  1.00  0.00     0.050 A 
ATOM     20  C   UNL     1     117.670 256.186 348.494  1.00  0.00     0.157 A 
BRANCH  18  21
ATOM     21  O   UNL     1     115.564 256.424 349.662  1.00  0.00    -0.493 OA
ATOM     22  C   UNL     1     115.096 255.383 350.513  1.00  0.00     0.278 C 
ENDBRANCH  18  21
BRANCH  20  23
ATOM     23  O   UNL     1     118.367 256.358 349.689  1.00  0.00    -0.504 OA
ATOM     24  H   UNL     1     118.483 255.608 350.359  1.00  0.00     0.293 HD
ENDBRANCH  20  23
ENDBRANCH  14  15
ENDBRANCH  12  14
ENDBRANCH   9  10
ENDBRANCH   1   9
TORSDOF 10
ENDMDL
MODEL 6
REMARK VINA RESULT:    -4.163      2.015      2.851
REMARK INTER + INTRA:          -7.186
REMARK INTER:                  -7.496
REMARK INTRA:                   0.311
REMARK UNBOUND:                -0.711
REMARK SMILES COc1cc(CNC(=O)CCCCC=CC(C)C)ccc1O
REMARK SMILES IDX 11 1 12 2 13 3 14 4 15 5 16 6 17 7 18 8 10 9 8 10 9 11 7 12
REMARK SMILES IDX 6 14 5 15 4 16 19 17 3 18 20 19 21 20 2 21 1 22 22 23
REMARK H PARENT 7 13 22 24
REMARK Flexibility Score: inf
ROOT
ATOM      1  C   UNL     1     117.427 251.983 339.561  1.00  0.00     0.010 C 
ENDROOT
BRANCH   1   2
ATOM      2  C   UNL     1     116.250 252.963 339.706  1.00  0.00     0.005 C 
BRANCH   2   3
ATOM      3  C   UNL     1     115.472 252.742 341.013  1.00  0.00     0.027 C 
BRANCH   3   4
ATOM      4  C   UNL     1     114.685 251.455 340.991  1.00  0.00    -0.031 C 
ATOM      5  C   UNL     1     113.661 251.168 341.816  1.00  0.00    -0.028 C 
BRANCH   5   6
ATOM      6  C   UNL     1     113.077 252.123 342.836  1.00  0.00     0.005 C 
ATOM      7  C   UNL     1     114.205 252.876 343.546  1.00  0.00     0.012 C 
ATOM      8  C   UNL     1     112.124 253.102 342.147  1.00  0.00     0.012 C 
ENDBRANCH   5   6
ENDBRANCH   3   4
ENDBRANCH   2   3
ENDBRANCH   1   2
BRANCH   1   9
ATOM      9  C   UNL     1     118.349 252.351 338.391  1.00  0.00     0.100 C 
BRANCH   9  10
ATOM     10  C   UNL     1     118.003 253.690 337.808  1.00  0.00     0.220 C 
ATOM     11  O   UNL     1     118.707 254.694 338.101  1.00  0.00    -0.275 OA
ATOM     12  N   UNL     1     116.905 253.817 336.894  1.00  0.00    -0.352 N 
ATOM     13  H   UNL     1     116.356 252.966 336.637  1.00  0.00     0.163 HD
BRANCH  12  14
ATOM     14  C   UNL     1     116.537 255.092 336.283  1.00  0.00     0.151 C 
BRANCH  14  15
ATOM     15  C   UNL     1     115.162 255.001 335.676  1.00  0.00    -0.025 A 
ATOM     16  C   UNL     1     114.606 253.746 335.383  1.00  0.00     0.056 A 
ATOM     17  C   UNL     1     114.418 256.162 335.422  1.00  0.00     0.009 A 
ATOM     18  C   UNL     1     113.314 253.645 334.829  1.00  0.00     0.160 A 
ATOM     19  C   UNL     1     113.138 256.069 334.871  1.00  0.00     0.050 A 
ATOM     20  C   UNL     1     112.583 254.821 334.573  1.00  0.00     0.157 A 
BRANCH  18  21
ATOM     21  O   UNL     1     112.731 252.406 334.526  1.00  0.00    -0.493 OA
ATOM     22  C   UNL     1     113.301 251.142 334.852  1.00  0.00     0.278 C 
ENDBRANCH  18  21
BRANCH  20  23
ATOM     23  O   UNL     1     111.303 254.766 334.023  1.00  0.00    -0.504 OA
ATOM     24  H   UNL     1     111.142 254.813 333.025  1.00  0.00     0.293 HD
ENDBRANCH  20  23
ENDBRANCH  14  15
ENDBRANCH  12  14
ENDBRANCH   9  10
ENDBRANCH   1   9
TORSDOF 10
ENDMDL
MODEL 7
REMARK VINA RESULT:    -2.264      2.156      8.310
REMARK INTER + INTRA:          -4.232
REMARK INTER:                  -4.341
REMARK INTRA:                   0.109
REMARK UNBOUND:                -0.711
REMARK SMILES COc1cc(CNC(=O)CCCCC=CC(C)C)ccc1O
REMARK SMILES IDX 11 1 12 2 13 3 14 4 15 5 16 6 17 7 18 8 10 9 8 10 9 11 7 12
REMARK SMILES IDX 6 14 5 15 4 16 19 17 3 18 20 19 21 20 2 21 1 22 22 23
REMARK H PARENT 7 13 22 24
REMARK Flexibility Score: inf
ROOT
ATOM      1  C   UNL     1     112.487 256.544 335.680  1.00  0.00     0.010 C 
ENDROOT
BRANCH   1   2
ATOM      2  C   UNL     1     112.683 256.501 334.155  1.00  0.00     0.005 C 
BRANCH   2   3
ATOM      3  C   UNL     1     112.557 255.074 333.598  1.00  0.00     0.027 C 
BRANCH   3   4
ATOM      4  C   UNL     1     113.904 254.434 333.373  1.00  0.00    -0.031 C 
ATOM      5  C   UNL     1     114.651 254.587 332.264  1.00  0.00    -0.028 C 
BRANCH   5   6
ATOM      6  C   UNL     1     114.302 255.498 331.104  1.00  0.00     0.005 C 
ATOM      7  C   UNL     1     112.789 255.488 330.876  1.00  0.00     0.012 C 
ATOM      8  C   UNL     1     114.797 256.917 331.390  1.00  0.00     0.012 C 
ENDBRANCH   5   6
ENDBRANCH   3   4
ENDBRANCH   2   3
ENDBRANCH   1   2
BRANCH   1   9
ATOM      9  C   UNL     1     113.707 257.125 336.407  1.00  0.00     0.100 C 
BRANCH   9  10
ATOM     10  C   UNL     1     114.979 256.448 335.990  1.00  0.00     0.220 C 
ATOM     11  O   UNL     1     115.807 257.072 335.273  1.00  0.00    -0.275 OA
ATOM     12  N   UNL     1     115.268 255.116 336.438  1.00  0.00    -0.352 N 
ATOM     13  H   UNL     1     114.585 254.629 337.061  1.00  0.00     0.163 HD
BRANCH  12  14
ATOM     14  C   UNL     1     116.500 254.417 336.078  1.00  0.00     0.151 C 
BRANCH  14  15
ATOM     15  C   UNL     1     117.032 253.654 337.262  1.00  0.00    -0.025 A 
ATOM     16  C   UNL     1     116.163 253.266 338.294  1.00  0.00     0.056 A 
ATOM     17  C   UNL     1     118.387 253.305 337.332  1.00  0.00     0.009 A 
ATOM     18  C   UNL     1     116.645 252.538 339.400  1.00  0.00     0.160 A 
ATOM     19  C   UNL     1     118.871 252.586 338.427  1.00  0.00     0.050 A 
ATOM     20  C   UNL     1     118.010 252.202 339.460  1.00  0.00     0.157 A 
BRANCH  18  21
ATOM     21  O   UNL     1     115.802 252.136 340.448  1.00  0.00    -0.493 OA
ATOM     22  C   UNL     1     115.252 253.013 341.425  1.00  0.00     0.278 C 
ENDBRANCH  18  21
BRANCH  20  23
ATOM     23  O   UNL     1     118.528 251.485 340.538  1.00  0.00    -0.504 OA
ATOM     24  H   UNL     1     119.348 250.898 340.452  1.00  0.00     0.293 HD
ENDBRANCH  20  23
ENDBRANCH  14  15
ENDBRANCH  12  14
ENDBRANCH   9  10
ENDBRANCH   1   9
TORSDOF 10
ENDMDL
