MODEL 1
REMARK VINA RESULT:    -2.961      0.000      0.000
REMARK INTER + INTRA:          -7.406
REMARK INTER:                  -5.384
REMARK INTRA:                  -2.022
REMARK UNBOUND:                -2.022
REMARK SMILES CCCCCCCCCCCCCCCC(=O)[O-]
REMARK SMILES IDX 9 1 10 2 11 3 12 4 13 5 14 6 15 7 16 8 17 9 18 10 8 11 7 12
REMARK SMILES IDX 6 13 5 14 4 15 3 16 2 17 1 18
REMARK H PARENT
REMARK Flexibility Score: inf
ROOT
ATOM      1  C   UNL     1       9.933   1.175  -5.586  1.00  0.00     0.000 C 
ENDROOT
BRANCH   1   2
ATOM      2  C   UNL     1       8.798   1.357  -6.605  1.00  0.00     0.000 C 
BRANCH   2   3
ATOM      3  C   UNL     1       8.500   0.072  -7.392  1.00  0.00     0.000 C 
BRANCH   3   4
ATOM      4  C   UNL     1       7.005  -0.271  -7.338  1.00  0.00     0.000 C 
BRANCH   4   5
ATOM      5  C   UNL     1       6.288   0.562  -6.264  1.00  0.00     0.000 C 
BRANCH   5   6
ATOM      6  C   UNL     1       4.766   0.605  -6.468  1.00  0.00     0.006 C 
BRANCH   6   7
ATOM      7  C   UNL     1       4.139   1.913  -5.966  1.00  0.00     0.053 C 
BRANCH   7   8
ATOM      8  C   UNL     1       2.775   1.656  -5.407  1.00  0.00     0.041 C 
ATOM      9  O   UNL     1       1.857   1.218  -6.149  1.00  0.00    -0.550 OA
ATOM     10  O   UNL     1       2.504   1.948  -4.076  1.00  0.00    -0.550 OA
ENDBRANCH   7   8
ENDBRANCH   6   7
ENDBRANCH   5   6
ENDBRANCH   4   5
ENDBRANCH   3   4
ENDBRANCH   2   3
ENDBRANCH   1   2
BRANCH   1  11
ATOM     11  C   UNL     1      10.515  -0.250  -5.600  1.00  0.00     0.000 C 
BRANCH  11  12
ATOM     12  C   UNL     1      10.383  -0.957  -4.241  1.00  0.00    -0.000 C 
BRANCH  12  13
ATOM     13  C   UNL     1       9.030  -1.669  -4.076  1.00  0.00    -0.000 C 
BRANCH  13  14
ATOM     14  C   UNL     1       8.845  -2.822  -5.077  1.00  0.00    -0.000 C 
BRANCH  14  15
ATOM     15  C   UNL     1       7.495  -3.537  -4.911  1.00  0.00    -0.000 C 
BRANCH  15  16
ATOM     16  C   UNL     1       6.414  -2.565  -4.424  1.00  0.00    -0.000 C 
BRANCH  16  17
ATOM     17  C   UNL     1       5.027  -3.212  -4.480  1.00  0.00    -0.003 C 
ATOM     18  C   UNL     1       4.351  -2.954  -5.823  1.00  0.00     0.004 C 
ENDBRANCH  16  17
ENDBRANCH  15  16
ENDBRANCH  14  15
ENDBRANCH  13  14
ENDBRANCH  12  13
ENDBRANCH  11  12
ENDBRANCH   1  11
TORSDOF 14
ENDMDL
MODEL 2
REMARK VINA RESULT:    -2.916     10.450     11.673
REMARK INTER + INTRA:          -7.325
REMARK INTER:                  -6.065
REMARK INTRA:                  -1.260
REMARK UNBOUND:                -2.022
REMARK SMILES CCCCCCCCCCCCCCCC(=O)[O-]
REMARK SMILES IDX 9 1 10 2 11 3 12 4 13 5 14 6 15 7 16 8 17 9 18 10 8 11 7 12
REMARK SMILES IDX 6 13 5 14 4 15 3 16 2 17 1 18
REMARK H PARENT
REMARK Flexibility Score: inf
ROOT
ATOM      1  C   UNL     1       4.016   3.294   5.405  1.00  0.00     0.000 C 
ENDROOT
BRANCH   1   2
ATOM      2  C   UNL     1       2.831   3.168   4.435  1.00  0.00     0.000 C 
BRANCH   2   3
ATOM      3  C   UNL     1       3.161   3.693   3.030  1.00  0.00     0.000 C 
BRANCH   3   4
ATOM      4  C   UNL     1       4.323   4.694   3.075  1.00  0.00     0.000 C 
BRANCH   4   5
ATOM      5  C   UNL     1       4.804   5.041   1.657  1.00  0.00     0.000 C 
BRANCH   5   6
ATOM      6  C   UNL     1       6.187   5.709   1.650  1.00  0.00     0.006 C 
BRANCH   6   7
ATOM      7  C   UNL     1       6.889   5.602   0.289  1.00  0.00     0.053 C 
BRANCH   7   8
ATOM      8  C   UNL     1       8.167   4.835   0.420  1.00  0.00     0.041 C 
ATOM      9  O   UNL     1       8.544   4.068  -0.504  1.00  0.00    -0.550 OA
ATOM     10  O   UNL     1       8.918   4.931   1.585  1.00  0.00    -0.550 OA
ENDBRANCH   7   8
ENDBRANCH   6   7
ENDBRANCH   5   6
ENDBRANCH   4   5
ENDBRANCH   3   4
ENDBRANCH   2   3
ENDBRANCH   1   2
BRANCH   1  11
ATOM     11  C   UNL     1       3.566   3.504   6.862  1.00  0.00     0.000 C 
BRANCH  11  12
ATOM     12  C   UNL     1       4.192   2.485   7.828  1.00  0.00    -0.000 C 
BRANCH  12  13
ATOM     13  C   UNL     1       5.205   1.559   7.135  1.00  0.00    -0.000 C 
BRANCH  13  14
ATOM     14  C   UNL     1       4.653   0.140   6.919  1.00  0.00    -0.000 C 
BRANCH  14  15
ATOM     15  C   UNL     1       3.487  -0.191   7.863  1.00  0.00    -0.000 C 
BRANCH  15  16
ATOM     16  C   UNL     1       2.301  -0.776   7.088  1.00  0.00    -0.000 C 
BRANCH  16  17
ATOM     17  C   UNL     1       1.567   0.315   6.300  1.00  0.00    -0.003 C 
ATOM     18  C   UNL     1       0.636  -0.292   5.255  1.00  0.00     0.004 C 
ENDBRANCH  16  17
ENDBRANCH  15  16
ENDBRANCH  14  15
ENDBRANCH  13  14
ENDBRANCH  12  13
ENDBRANCH  11  12
ENDBRANCH   1  11
TORSDOF 14
ENDMDL
MODEL 3
REMARK VINA RESULT:    -2.882      9.075     12.255
REMARK INTER + INTRA:          -7.263
REMARK INTER:                  -6.503
REMARK INTRA:                  -0.760
REMARK UNBOUND:                -2.022
REMARK SMILES CCCCCCCCCCCCCCCC(=O)[O-]
REMARK SMILES IDX 9 1 10 2 11 3 12 4 13 5 14 6 15 7 16 8 17 9 18 10 8 11 7 12
REMARK SMILES IDX 6 13 5 14 4 15 3 16 2 17 1 18
REMARK H PARENT
REMARK Flexibility Score: inf
ROOT
ATOM      1  C   UNL     1       2.189   5.664   3.642  1.00  0.00     0.000 C 
ENDROOT
BRANCH   1   2
ATOM      2  C   UNL     1       3.193   4.509   3.515  1.00  0.00     0.000 C 
BRANCH   2   3
ATOM      3  C   UNL     1       4.228   4.745   2.405  1.00  0.00     0.000 C 
BRANCH   3   4
ATOM      4  C   UNL     1       4.149   6.183   1.877  1.00  0.00     0.000 C 
BRANCH   4   5
ATOM      5  C   UNL     1       5.126   6.395   0.710  1.00  0.00     0.000 C 
BRANCH   5   6
ATOM      6  C   UNL     1       6.085   5.209   0.521  1.00  0.00     0.006 C 
BRANCH   6   7
ATOM      7  C   UNL     1       7.520   5.533   0.958  1.00  0.00     0.053 C 
BRANCH   7   8
ATOM      8  C   UNL     1       8.485   5.215  -0.141  1.00  0.00     0.041 C 
ATOM      9  O   UNL     1       9.100   6.141  -0.731  1.00  0.00    -0.550 OA
ATOM     10  O   UNL     1       8.667   3.899  -0.546  1.00  0.00    -0.550 OA
ENDBRANCH   7   8
ENDBRANCH   6   7
ENDBRANCH   5   6
ENDBRANCH   4   5
ENDBRANCH   3   4
ENDBRANCH   2   3
ENDBRANCH   1   2
BRANCH   1  11
ATOM     11  C   UNL     1       0.817   5.199   4.161  1.00  0.00     0.000 C 
BRANCH  11  12
ATOM     12  C   UNL     1      -0.354   5.918   3.470  1.00  0.00    -0.000 C 
BRANCH  12  13
ATOM     13  C   UNL     1      -1.686   5.728   4.215  1.00  0.00    -0.000 C 
BRANCH  13  14
ATOM     14  C   UNL     1      -2.894   5.709   3.264  1.00  0.00    -0.000 C 
BRANCH  14  15
ATOM     15  C   UNL     1      -2.519   5.272   1.840  1.00  0.00    -0.000 C 
BRANCH  15  16
ATOM     16  C   UNL     1      -2.954   6.321   0.810  1.00  0.00    -0.000 C 
BRANCH  16  17
ATOM     17  C   UNL     1      -2.741   5.811  -0.619  1.00  0.00    -0.003 C 
ATOM     18  C   UNL     1      -2.641   4.288  -0.653  1.00  0.00     0.004 C 
ENDBRANCH  16  17
ENDBRANCH  15  16
ENDBRANCH  14  15
ENDBRANCH  13  14
ENDBRANCH  12  13
ENDBRANCH  11  12
ENDBRANCH   1  11
TORSDOF 14
ENDMDL
MODEL 4
REMARK VINA RESULT:    -2.869     10.007     11.644
REMARK INTER + INTRA:          -7.239
REMARK INTER:                  -5.600
REMARK INTRA:                  -1.638
REMARK UNBOUND:                -2.022
REMARK SMILES CCCCCCCCCCCCCCCC(=O)[O-]
REMARK SMILES IDX 9 1 10 2 11 3 12 4 13 5 14 6 15 7 16 8 17 9 18 10 8 11 7 12
REMARK SMILES IDX 6 13 5 14 4 15 3 16 2 17 1 18
REMARK H PARENT
REMARK Flexibility Score: inf
ROOT
ATOM      1  C   UNL     1       1.804   4.776   4.480  1.00  0.00     0.000 C 
ENDROOT
BRANCH   1   2
ATOM      2  C   UNL     1       1.784   5.948   3.486  1.00  0.00     0.000 C 
BRANCH   2   3
ATOM      3  C   UNL     1       3.162   6.604   3.319  1.00  0.00     0.000 C 
BRANCH   3   4
ATOM      4  C   UNL     1       3.853   6.113   2.040  1.00  0.00     0.000 C 
BRANCH   4   5
ATOM      5  C   UNL     1       5.242   5.536   2.352  1.00  0.00     0.000 C 
BRANCH   5   6
ATOM      6  C   UNL     1       6.326   6.055   1.394  1.00  0.00     0.006 C 
BRANCH   6   7
ATOM      7  C   UNL     1       6.605   5.086   0.237  1.00  0.00     0.053 C 
BRANCH   7   8
ATOM      8  C   UNL     1       8.062   5.087  -0.105  1.00  0.00     0.041 C 
ATOM      9  O   UNL     1       8.718   6.162  -0.084  1.00  0.00    -0.550 OA
ATOM     10  O   UNL     1       8.685   3.908  -0.495  1.00  0.00    -0.550 OA
ENDBRANCH   7   8
ENDBRANCH   6   7
ENDBRANCH   5   6
ENDBRANCH   4   5
ENDBRANCH   3   4
ENDBRANCH   2   3
ENDBRANCH   1   2
BRANCH   1  11
ATOM     11  C   UNL     1       2.204   3.447   3.815  1.00  0.00     0.000 C 
BRANCH  11  12
ATOM     12  C   UNL     1       3.619   2.990   4.207  1.00  0.00    -0.000 C 
BRANCH  12  13
ATOM     13  C   UNL     1       3.921   3.219   5.697  1.00  0.00    -0.000 C 
BRANCH  13  14
ATOM     14  C   UNL     1       4.365   1.931   6.412  1.00  0.00    -0.000 C 
BRANCH  14  15
ATOM     15  C   UNL     1       3.194   0.977   6.691  1.00  0.00    -0.000 C 
BRANCH  15  16
ATOM     16  C   UNL     1       1.996   1.733   7.278  1.00  0.00    -0.000 C 
BRANCH  16  17
ATOM     17  C   UNL     1       0.708   1.399   6.518  1.00  0.00    -0.003 C 
ATOM     18  C   UNL     1       0.940   0.285   5.501  1.00  0.00     0.004 C 
ENDBRANCH  16  17
ENDBRANCH  15  16
ENDBRANCH  14  15
ENDBRANCH  13  14
ENDBRANCH  12  13
ENDBRANCH  11  12
ENDBRANCH   1  11
TORSDOF 14
ENDMDL
MODEL 5
REMARK VINA RESULT:    -2.840     10.237     11.667
REMARK INTER + INTRA:          -7.187
REMARK INTER:                  -6.214
REMARK INTRA:                  -0.973
REMARK UNBOUND:                -2.022
REMARK SMILES CCCCCCCCCCCCCCCC(=O)[O-]
REMARK SMILES IDX 9 1 10 2 11 3 12 4 13 5 14 6 15 7 16 8 17 9 18 10 8 11 7 12
REMARK SMILES IDX 6 13 5 14 4 15 3 16 2 17 1 18
REMARK H PARENT
REMARK Flexibility Score: inf
ROOT
ATOM      1  C   UNL     1       4.330   2.525   5.601  1.00  0.00     0.000 C 
ENDROOT
BRANCH   1   2
ATOM      2  C   UNL     1       3.369   3.704   5.382  1.00  0.00     0.000 C 
BRANCH   2   3
ATOM      3  C   UNL     1       2.791   3.738   3.960  1.00  0.00     0.000 C 
BRANCH   3   4
ATOM      4  C   UNL     1       3.894   3.999   2.925  1.00  0.00     0.000 C 
BRANCH   4   5
ATOM      5  C   UNL     1       3.892   5.470   2.480  1.00  0.00     0.000 C 
BRANCH   5   6
ATOM      6  C   UNL     1       5.272   5.942   1.997  1.00  0.00     0.006 C 
BRANCH   6   7
ATOM      7  C   UNL     1       5.757   5.181   0.756  1.00  0.00     0.053 C 
BRANCH   7   8
ATOM      8  C   UNL     1       7.248   5.055   0.770  1.00  0.00     0.041 C 
ATOM      9  O   UNL     1       7.839   4.409  -0.134  1.00  0.00    -0.550 OA
ATOM     10  O   UNL     1       7.982   5.612   1.810  1.00  0.00    -0.550 OA
ENDBRANCH   7   8
ENDBRANCH   6   7
ENDBRANCH   5   6
ENDBRANCH   4   5
ENDBRANCH   3   4
ENDBRANCH   2   3
ENDBRANCH   1   2
BRANCH   1  11
ATOM     11  C   UNL     1       4.090   1.809   6.942  1.00  0.00     0.000 C 
BRANCH  11  12
ATOM     12  C   UNL     1       3.177   0.580   6.802  1.00  0.00    -0.000 C 
BRANCH  12  13
ATOM     13  C   UNL     1       1.767   0.824   7.367  1.00  0.00    -0.000 C 
BRANCH  13  14
ATOM     14  C   UNL     1       0.706   0.958   6.262  1.00  0.00    -0.000 C 
BRANCH  14  15
ATOM     15  C   UNL     1       0.824  -0.139   5.193  1.00  0.00    -0.000 C 
BRANCH  15  16
ATOM     16  C   UNL     1       0.457  -1.511   5.771  1.00  0.00    -0.000 C 
BRANCH  16  17
ATOM     17  C   UNL     1      -0.344  -2.338   4.760  1.00  0.00    -0.003 C 
ATOM     18  C   UNL     1       0.443  -3.561   4.299  1.00  0.00     0.004 C 
ENDBRANCH  16  17
ENDBRANCH  15  16
ENDBRANCH  14  15
ENDBRANCH  13  14
ENDBRANCH  12  13
ENDBRANCH  11  12
ENDBRANCH   1  11
TORSDOF 14
ENDMDL
MODEL 6
REMARK VINA RESULT:    -2.827      2.059      4.182
REMARK INTER + INTRA:          -7.164
REMARK INTER:                  -5.382
REMARK INTRA:                  -1.781
REMARK UNBOUND:                -2.022
REMARK SMILES CCCCCCCCCCCCCCCC(=O)[O-]
REMARK SMILES IDX 9 1 10 2 11 3 12 4 13 5 14 6 15 7 16 8 17 9 18 10 8 11 7 12
REMARK SMILES IDX 6 13 5 14 4 15 3 16 2 17 1 18
REMARK H PARENT
REMARK Flexibility Score: inf
ROOT
ATOM      1  C   UNL     1       6.507  -2.914  -4.512  1.00  0.00     0.000 C 
ENDROOT
BRANCH   1   2
ATOM      2  C   UNL     1       7.063  -2.451  -5.867  1.00  0.00     0.000 C 
BRANCH   2   3
ATOM      3  C   UNL     1       7.311  -0.936  -5.916  1.00  0.00     0.000 C 
BRANCH   3   4
ATOM      4  C   UNL     1       6.448  -0.272  -6.997  1.00  0.00     0.000 C 
BRANCH   4   5
ATOM      5  C   UNL     1       5.619   0.879  -6.408  1.00  0.00     0.000 C 
BRANCH   5   6
ATOM      6  C   UNL     1       4.341   0.389  -5.708  1.00  0.00     0.006 C 
BRANCH   6   7
ATOM      7  C   UNL     1       3.111   1.236  -6.062  1.00  0.00     0.053 C 
BRANCH   7   8
ATOM      8  C   UNL     1       2.789   2.180  -4.947  1.00  0.00     0.041 C 
ATOM      9  O   UNL     1       2.355   3.335  -5.199  1.00  0.00    -0.550 OA
ATOM     10  O   UNL     1       3.016   1.802  -3.629  1.00  0.00    -0.550 OA
ENDBRANCH   7   8
ENDBRANCH   6   7
ENDBRANCH   5   6
ENDBRANCH   4   5
ENDBRANCH   3   4
ENDBRANCH   2   3
ENDBRANCH   1   2
BRANCH   1  11
ATOM     11  C   UNL     1       4.970  -3.000  -4.503  1.00  0.00     0.000 C 
BRANCH  11  12
ATOM     12  C   UNL     1       4.384  -3.272  -5.898  1.00  0.00    -0.000 C 
BRANCH  12  13
ATOM     13  C   UNL     1       3.117  -4.142  -5.847  1.00  0.00    -0.000 C 
BRANCH  13  14
ATOM     14  C   UNL     1       3.398  -5.614  -6.193  1.00  0.00    -0.000 C 
BRANCH  14  15
ATOM     15  C   UNL     1       3.346  -6.531  -4.962  1.00  0.00    -0.000 C 
BRANCH  15  16
ATOM     16  C   UNL     1       2.641  -5.838  -3.790  1.00  0.00    -0.000 C 
BRANCH  16  17
ATOM     17  C   UNL     1       3.468  -5.952  -2.505  1.00  0.00    -0.003 C 
ATOM     18  C   UNL     1       4.915  -6.326  -2.811  1.00  0.00     0.004 C 
ENDBRANCH  16  17
ENDBRANCH  15  16
ENDBRANCH  14  15
ENDBRANCH  13  14
ENDBRANCH  12  13
ENDBRANCH  11  12
ENDBRANCH   1  11
TORSDOF 14
ENDMDL
MODEL 7
REMARK VINA RESULT:    -2.796      9.627     12.897
REMARK INTER + INTRA:          -7.106
REMARK INTER:                  -5.313
REMARK INTRA:                  -1.793
REMARK UNBOUND:                -2.022
REMARK SMILES CCCCCCCCCCCCCCCC(=O)[O-]
REMARK SMILES IDX 9 1 10 2 11 3 12 4 13 5 14 6 15 7 16 8 17 9 18 10 8 11 7 12
REMARK SMILES IDX 6 13 5 14 4 15 3 16 2 17 1 18
REMARK H PARENT
REMARK Flexibility Score: inf
ROOT
ATOM      1  C   UNL     1       0.352   6.883   3.960  1.00  0.00     0.000 C 
ENDROOT
BRANCH   1   2
ATOM      2  C   UNL     1       0.474   5.378   4.244  1.00  0.00     0.000 C 
BRANCH   2   3
ATOM      3  C   UNL     1       1.927   4.938   4.478  1.00  0.00     0.000 C 
BRANCH   3   4
ATOM      4  C   UNL     1       2.196   3.567   3.844  1.00  0.00     0.000 C 
BRANCH   4   5
ATOM      5  C   UNL     1       3.562   3.544   3.143  1.00  0.00     0.000 C 
BRANCH   5   6
ATOM      6  C   UNL     1       4.263   4.911   3.168  1.00  0.00     0.006 C 
BRANCH   6   7
ATOM      7  C   UNL     1       4.442   5.510   1.766  1.00  0.00     0.053 C 
BRANCH   7   8
ATOM      8  C   UNL     1       5.875   5.431   1.344  1.00  0.00     0.041 C 
ATOM      9  O   UNL     1       6.180   4.953   0.221  1.00  0.00    -0.550 OA
ATOM     10  O   UNL     1       6.878   5.842   2.213  1.00  0.00    -0.550 OA
ENDBRANCH   7   8
ENDBRANCH   6   7
ENDBRANCH   5   6
ENDBRANCH   4   5
ENDBRANCH   3   4
ENDBRANCH   2   3
ENDBRANCH   1   2
BRANCH   1  11
ATOM     11  C   UNL     1       1.414   7.383   2.965  1.00  0.00     0.000 C 
BRANCH  11  12
ATOM     12  C   UNL     1       0.874   7.498   1.529  1.00  0.00    -0.000 C 
BRANCH  12  13
ATOM     13  C   UNL     1      -0.637   7.780   1.488  1.00  0.00    -0.000 C 
BRANCH  13  14
ATOM     14  C   UNL     1      -1.343   7.036   0.341  1.00  0.00    -0.000 C 
BRANCH  14  15
ATOM     15  C   UNL     1      -2.633   6.337   0.796  1.00  0.00    -0.000 C 
BRANCH  15  16
ATOM     16  C   UNL     1      -2.372   5.439   2.011  1.00  0.00    -0.000 C 
BRANCH  16  17
ATOM     17  C   UNL     1      -3.212   5.884   3.214  1.00  0.00    -0.003 C 
ATOM     18  C   UNL     1      -3.329   4.767   4.247  1.00  0.00     0.004 C 
ENDBRANCH  16  17
ENDBRANCH  15  16
ENDBRANCH  14  15
ENDBRANCH  13  14
ENDBRANCH  12  13
ENDBRANCH  11  12
ENDBRANCH   1  11
TORSDOF 14
ENDMDL
MODEL 8
REMARK VINA RESULT:    -2.790     10.550     12.094
REMARK INTER + INTRA:          -7.096
REMARK INTER:                  -5.825
REMARK INTRA:                  -1.271
REMARK UNBOUND:                -2.022
REMARK SMILES CCCCCCCCCCCCCCCC(=O)[O-]
REMARK SMILES IDX 9 1 10 2 11 3 12 4 13 5 14 6 15 7 16 8 17 9 18 10 8 11 7 12
REMARK SMILES IDX 6 13 5 14 4 15 3 16 2 17 1 18
REMARK H PARENT
REMARK Flexibility Score: inf
ROOT
ATOM      1  C   UNL     1       3.902   2.965   5.587  1.00  0.00     0.000 C 
ENDROOT
BRANCH   1   2
ATOM      2  C   UNL     1       2.520   2.981   4.915  1.00  0.00     0.000 C 
BRANCH   2   3
ATOM      3  C   UNL     1       2.598   3.302   3.415  1.00  0.00     0.000 C 
BRANCH   3   4
ATOM      4  C   UNL     1       4.024   3.699   3.011  1.00  0.00     0.000 C 
BRANCH   4   5
ATOM      5  C   UNL     1       4.045   5.098   2.375  1.00  0.00     0.000 C 
BRANCH   5   6
ATOM      6  C   UNL     1       5.457   5.533   1.952  1.00  0.00     0.006 C 
BRANCH   6   7
ATOM      7  C   UNL     1       5.700   5.371   0.446  1.00  0.00     0.053 C 
BRANCH   7   8
ATOM      8  C   UNL     1       7.163   5.453   0.142  1.00  0.00     0.041 C 
ATOM      9  O   UNL     1       7.724   6.574   0.024  1.00  0.00    -0.550 OA
ATOM     10  O   UNL     1       7.896   4.291  -0.060  1.00  0.00    -0.550 OA
ENDBRANCH   7   8
ENDBRANCH   6   7
ENDBRANCH   5   6
ENDBRANCH   4   5
ENDBRANCH   3   4
ENDBRANCH   2   3
ENDBRANCH   1   2
BRANCH   1  11
ATOM     11  C   UNL     1       4.103   1.735   6.492  1.00  0.00     0.000 C 
BRANCH  11  12
ATOM     12  C   UNL     1       2.786   1.226   7.101  1.00  0.00    -0.000 C 
BRANCH  12  13
ATOM     13  C   UNL     1       2.683  -0.308   7.085  1.00  0.00    -0.000 C 
BRANCH  13  14
ATOM     14  C   UNL     1       1.443  -0.807   6.324  1.00  0.00    -0.000 C 
BRANCH  14  15
ATOM     15  C   UNL     1       0.419   0.309   6.068  1.00  0.00    -0.000 C 
BRANCH  15  16
ATOM     16  C   UNL     1      -0.832   0.114   6.933  1.00  0.00    -0.000 C 
BRANCH  16  17
ATOM     17  C   UNL     1      -1.325   1.451   7.497  1.00  0.00    -0.003 C 
ATOM     18  C   UNL     1      -0.720   2.628   6.736  1.00  0.00     0.004 C 
ENDBRANCH  16  17
ENDBRANCH  15  16
ENDBRANCH  14  15
ENDBRANCH  13  14
ENDBRANCH  12  13
ENDBRANCH  11  12
ENDBRANCH   1  11
TORSDOF 14
ENDMDL
MODEL 9
REMARK VINA RESULT:    -2.734     10.716     13.031
REMARK INTER + INTRA:          -6.993
REMARK INTER:                  -5.408
REMARK INTRA:                  -1.585
REMARK UNBOUND:                -2.022
REMARK SMILES CCCCCCCCCCCCCCCC(=O)[O-]
REMARK SMILES IDX 9 1 10 2 11 3 12 4 13 5 14 6 15 7 16 8 17 9 18 10 8 11 7 12
REMARK SMILES IDX 6 13 5 14 4 15 3 16 2 17 1 18
REMARK H PARENT
REMARK Flexibility Score: inf
ROOT
ATOM      1  C   UNL     1       0.742   7.626   2.918  1.00  0.00     0.000 C 
ENDROOT
BRANCH   1   2
ATOM      2  C   UNL     1       1.918   7.488   1.939  1.00  0.00     0.000 C 
BRANCH   2   3
ATOM      3  C   UNL     1       3.214   7.043   2.632  1.00  0.00     0.000 C 
BRANCH   3   4
ATOM      4  C   UNL     1       4.004   6.067   1.749  1.00  0.00     0.000 C 
BRANCH   4   5
ATOM      5  C   UNL     1       4.557   4.900   2.581  1.00  0.00     0.000 C 
BRANCH   5   6
ATOM      6  C   UNL     1       3.450   3.985   3.126  1.00  0.00     0.006 C 
BRANCH   6   7
ATOM      7  C   UNL     1       3.794   3.391   4.498  1.00  0.00     0.053 C 
BRANCH   7   8
ATOM      8  C   UNL     1       3.120   4.166   5.586  1.00  0.00     0.041 C 
ATOM      9  O   UNL     1       3.625   5.240   6.007  1.00  0.00    -0.550 OA
ATOM     10  O   UNL     1       1.958   3.677   6.170  1.00  0.00    -0.550 OA
ENDBRANCH   7   8
ENDBRANCH   6   7
ENDBRANCH   5   6
ENDBRANCH   4   5
ENDBRANCH   3   4
ENDBRANCH   2   3
ENDBRANCH   1   2
BRANCH   1  11
ATOM     11  C   UNL     1       0.781   6.572   4.038  1.00  0.00     0.000 C 
BRANCH  11  12
ATOM     12  C   UNL     1      -0.335   5.523   3.904  1.00  0.00    -0.000 C 
BRANCH  12  13
ATOM     13  C   UNL     1      -1.712   6.069   4.318  1.00  0.00    -0.000 C 
BRANCH  13  14
ATOM     14  C   UNL     1      -2.840   5.585   3.391  1.00  0.00    -0.000 C 
BRANCH  14  15
ATOM     15  C   UNL     1      -2.329   5.181   2.000  1.00  0.00    -0.000 C 
BRANCH  15  16
ATOM     16  C   UNL     1      -2.735   6.216   0.944  1.00  0.00    -0.000 C 
BRANCH  16  17
ATOM     17  C   UNL     1      -2.365   5.740  -0.464  1.00  0.00    -0.003 C 
ATOM     18  C   UNL     1      -2.723   4.270  -0.662  1.00  0.00     0.004 C 
ENDBRANCH  16  17
ENDBRANCH  15  16
ENDBRANCH  14  15
ENDBRANCH  13  14
ENDBRANCH  12  13
ENDBRANCH  11  12
ENDBRANCH   1  11
TORSDOF 14
ENDMDL
