MODEL 1
REMARK VINA RESULT:    -4.729      0.000      0.000
REMARK INTER + INTRA:          -6.118
REMARK INTER:                  -6.664
REMARK INTRA:                   0.546
REMARK UNBOUND:                 0.546
REMARK SMILES CC1=CCC(=C(C)C)C(=O)CC(C)=CCC1
REMARK SMILES IDX 12 1 14 2 13 3 15 4 16 5 2 6 1 7 3 8 11 10 9 11 10 12 5 13
REMARK SMILES IDX 6 14 7 15 8 16 4 17
REMARK H PARENT
REMARK Flexibility Score: 60.00
ROOT
ATOM      1  C   UNL     1       3.690  21.677   7.132  1.00  0.00    -0.070 C 
ATOM      2  C   UNL     1       4.911  21.529   7.693  1.00  0.00    -0.027 C 
ATOM      3  C   UNL     1       2.488  21.248   7.934  1.00  0.00     0.039 C 
ENDROOT
BRANCH   2   4
ATOM      4  C   UNL     1       6.221  21.988   7.091  1.00  0.00     0.032 C 
BRANCH   4   5
ATOM      5  C   UNL     1       7.189  20.851   6.701  1.00  0.00     0.034 C 
BRANCH   5   6
ATOM      6  C   UNL     1       6.492  19.671   6.049  1.00  0.00    -0.077 C 
ATOM      7  C   UNL     1       6.435  18.377   6.821  1.00  0.00     0.039 C 
ATOM      8  C   UNL     1       5.858  19.723   4.851  1.00  0.00    -0.023 CG0
ATOM      9  G   UNL     1       5.800  20.900   3.898  1.00  0.00     0.000 G0
ENDBRANCH   5   6
ENDBRANCH   4   5
ENDBRANCH   2   4
BRANCH   1  10
ATOM     10  C   UNL     1       3.469  22.336   5.785  1.00  0.00     0.111 C 
BRANCH  10  11
ATOM     11  C   UNL     1       3.373  21.320   4.679  1.00  0.00     0.163 C 
ATOM     12  O   UNL     1       2.396  20.523   4.686  1.00  0.00    -0.294 OA
BRANCH  11  13
ATOM     13  C   UNL     1       4.353  21.267   3.553  1.00  0.00    -0.002 C 
ATOM     14  C   UNL     1       3.982  21.621   2.285  1.00  0.00    -0.069 C 
ATOM     15  C   UNL     1       4.985  21.732   1.158  1.00  0.00     0.039 C 
ATOM     16  C   UNL     1       2.538  21.923   1.947  1.00  0.00     0.039 C 
BRANCH  13  17
ATOM     17  C   UNL     1       5.788  20.901   3.896  1.00  0.00     0.066 CG0
ATOM     18  G   UNL     1       5.870  19.714   4.835  1.00  0.00     0.000 G0
ENDBRANCH  13  17
ENDBRANCH  11  13
ENDBRANCH  10  11
ENDBRANCH   1  10
TORSDOF 0
ENDMDL
MODEL 2
REMARK VINA RESULT:    -4.683      1.917      3.744
REMARK INTER + INTRA:          -6.053
REMARK INTER:                  -6.877
REMARK INTRA:                   0.824
REMARK UNBOUND:                 0.546
REMARK SMILES CC1=CCC(=C(C)C)C(=O)CC(C)=CCC1
REMARK SMILES IDX 12 1 14 2 13 3 15 4 16 5 2 6 1 7 3 8 11 10 9 11 10 12 5 13
REMARK SMILES IDX 6 14 7 15 8 16 4 17
REMARK H PARENT
REMARK Flexibility Score: 60.00
ROOT
ATOM      1  C   UNL     1       5.803  21.471   4.735  1.00  0.00    -0.070 C 
ATOM      2  C   UNL     1       6.630  21.222   5.775  1.00  0.00    -0.027 C 
ATOM      3  C   UNL     1       6.162  20.890   3.392  1.00  0.00     0.039 C 
ENDROOT
BRANCH   2   4
ATOM      4  C   UNL     1       6.393  21.633   7.211  1.00  0.00     0.032 C 
BRANCH   4   5
ATOM      5  C   UNL     1       5.686  20.572   8.081  1.00  0.00     0.034 C 
BRANCH   5   6
ATOM      6  C   UNL     1       5.345  19.305   7.318  1.00  0.00    -0.077 C 
ATOM      7  C   UNL     1       6.471  18.355   6.998  1.00  0.00     0.039 C 
ATOM      8  C   UNL     1       4.087  18.939   6.967  1.00  0.00    -0.023 CG0
ATOM      9  G   UNL     1       2.813  19.736   7.166  1.00  0.00     0.000 G0
ENDBRANCH   5   6
ENDBRANCH   4   5
ENDBRANCH   2   4
BRANCH   1  10
ATOM     10  C   UNL     1       4.494  22.222   4.877  1.00  0.00     0.111 C 
BRANCH  10  11
ATOM     11  C   UNL     1       3.355  21.296   5.209  1.00  0.00     0.163 C 
ATOM     12  O   UNL     1       2.866  20.598   4.280  1.00  0.00    -0.294 OA
BRANCH  11  13
ATOM     13  C   UNL     1       2.834  21.135   6.600  1.00  0.00    -0.002 C 
ATOM     14  C   UNL     1       2.342  22.207   7.291  1.00  0.00    -0.069 C 
ATOM     15  C   UNL     1       1.663  22.051   8.634  1.00  0.00     0.039 C 
ATOM     16  C   UNL     1       2.452  23.612   6.740  1.00  0.00     0.039 C 
BRANCH  13  17
ATOM     17  C   UNL     1       2.787  19.725   7.166  1.00  0.00     0.066 CG0
ATOM     18  G   UNL     1       4.091  18.979   6.962  1.00  0.00     0.000 G0
ENDBRANCH  13  17
ENDBRANCH  11  13
ENDBRANCH  10  11
ENDBRANCH   1  10
TORSDOF 0
ENDMDL
MODEL 3
REMARK VINA RESULT:    -4.363      1.580      4.050
REMARK INTER + INTRA:          -5.602
REMARK INTER:                  -6.259
REMARK INTRA:                   0.657
REMARK UNBOUND:                 0.546
REMARK SMILES CC1=CCC(=C(C)C)C(=O)CC(C)=CCC1
REMARK SMILES IDX 12 1 14 2 13 3 15 4 16 5 2 6 1 7 3 8 11 10 9 11 10 12 5 13
REMARK SMILES IDX 6 14 7 15 8 16 4 17
REMARK H PARENT
REMARK Flexibility Score: 60.00
ROOT
ATOM      1  C   UNL     1       5.957  20.847   6.489  1.00  0.00    -0.070 C 
ATOM      2  C   UNL     1       6.543  21.052   5.289  1.00  0.00    -0.027 C 
ATOM      3  C   UNL     1       6.353  21.747   7.631  1.00  0.00     0.039 C 
ENDROOT
BRANCH   2   4
ATOM      4  C   UNL     1       6.209  20.322   4.006  1.00  0.00     0.032 C 
BRANCH   4   5
ATOM      5  C   UNL     1       5.746  21.227   2.846  1.00  0.00     0.034 C 
BRANCH   5   6
ATOM      6  C   UNL     1       4.243  21.206   2.636  1.00  0.00    -0.077 C 
ATOM      7  C   UNL     1       3.717  20.506   1.408  1.00  0.00     0.039 C 
ATOM      8  C   UNL     1       3.340  21.713   3.513  1.00  0.00    -0.023 CG0
ATOM      9  G   UNL     1       3.635  22.469   4.793  1.00  0.00     0.000 G0
ENDBRANCH   5   6
ENDBRANCH   4   5
ENDBRANCH   2   4
BRANCH   1  10
ATOM     10  C   UNL     1       4.860  19.826   6.715  1.00  0.00     0.111 C 
BRANCH  10  11
ATOM     11  C   UNL     1       3.544  20.290   6.152  1.00  0.00     0.163 C 
ATOM     12  O   UNL     1       2.703  19.415   5.809  1.00  0.00    -0.294 OA
BRANCH  11  13
ATOM     13  C   UNL     1       3.183  21.735   6.046  1.00  0.00    -0.002 C 
ATOM     14  C   UNL     1       2.550  22.375   7.075  1.00  0.00    -0.069 C 
ATOM     15  C   UNL     1       2.314  23.869   7.065  1.00  0.00     0.039 C 
ATOM     16  C   UNL     1       2.054  21.614   8.284  1.00  0.00     0.039 C 
BRANCH  13  17
ATOM     17  C   UNL     1       3.633  22.475   4.796  1.00  0.00     0.066 CG0
ATOM     18  G   UNL     1       3.334  21.699   3.529  1.00  0.00     0.000 G0
ENDBRANCH  13  17
ENDBRANCH  11  13
ENDBRANCH  10  11
ENDBRANCH   1  10
TORSDOF 0
ENDMDL
MODEL 4
REMARK VINA RESULT:    -4.282      1.766      3.740
REMARK INTER + INTRA:          -5.489
REMARK INTER:                  -5.989
REMARK INTRA:                   0.500
REMARK UNBOUND:                 0.546
REMARK SMILES CC1=CCC(=C(C)C)C(=O)CC(C)=CCC1
REMARK SMILES IDX 12 1 14 2 13 3 15 4 16 5 2 6 1 7 3 8 11 10 9 11 10 12 5 13
REMARK SMILES IDX 6 14 7 15 8 16 4 17
REMARK H PARENT
REMARK Flexibility Score: 60.00
ROOT
ATOM      1  C   UNL     1       5.934  21.159   6.644  1.00  0.00    -0.070 C 
ATOM      2  C   UNL     1       6.578  20.687   5.553  1.00  0.00    -0.027 C 
ATOM      3  C   UNL     1       6.210  20.495   7.969  1.00  0.00     0.039 C 
ENDROOT
BRANCH   2   4
ATOM      4  C   UNL     1       6.509  21.277   4.162  1.00  0.00     0.032 C 
BRANCH   4   5
ATOM      5  C   UNL     1       5.620  20.498   3.170  1.00  0.00     0.034 C 
BRANCH   5   6
ATOM      6  C   UNL     1       4.597  21.374   2.469  1.00  0.00    -0.077 C 
ATOM      7  C   UNL     1       4.979  21.970   1.138  1.00  0.00     0.039 C 
ATOM      8  C   UNL     1       3.341  21.598   2.928  1.00  0.00    -0.023 CG0
ATOM      9  G   UNL     1       2.747  21.121   4.238  1.00  0.00     0.000 G0
ENDBRANCH   5   6
ENDBRANCH   4   5
ENDBRANCH   2   4
BRANCH   1  10
ATOM     10  C   UNL     1       5.028  22.373   6.613  1.00  0.00     0.111 C 
BRANCH  10  11
ATOM     11  C   UNL     1       3.577  21.982   6.533  1.00  0.00     0.163 C 
ATOM     12  O   UNL     1       3.037  21.487   7.560  1.00  0.00    -0.294 OA
BRANCH  11  13
ATOM     13  C   UNL     1       2.751  22.215   5.311  1.00  0.00    -0.002 C 
ATOM     14  C   UNL     1       2.098  23.402   5.125  1.00  0.00    -0.069 C 
ATOM     15  C   UNL     1       1.386  23.729   3.831  1.00  0.00     0.039 C 
ATOM     16  C   UNL     1       2.058  24.454   6.211  1.00  0.00     0.039 C 
BRANCH  13  17
ATOM     17  C   UNL     1       2.749  21.123   4.254  1.00  0.00     0.066 CG0
ATOM     18  G   UNL     1       3.342  21.593   2.940  1.00  0.00     0.000 G0
ENDBRANCH  13  17
ENDBRANCH  11  13
ENDBRANCH  10  11
ENDBRANCH   1  10
TORSDOF 0
ENDMDL
MODEL 5
REMARK VINA RESULT:    -4.258      2.089      3.307
REMARK INTER + INTRA:          -5.454
REMARK INTER:                  -6.100
REMARK INTRA:                   0.646
REMARK UNBOUND:                 0.546
REMARK SMILES CC1=CCC(=C(C)C)C(=O)CC(C)=CCC1
REMARK SMILES IDX 12 1 14 2 13 3 15 4 16 5 2 6 1 7 3 8 11 10 9 11 10 12 5 13
REMARK SMILES IDX 6 14 7 15 8 16 4 17
REMARK H PARENT
REMARK Flexibility Score: 60.00
ROOT
ATOM      1  C   UNL     1       5.080  21.887   5.107  1.00  0.00    -0.070 C 
ATOM      2  C   UNL     1       6.268  21.342   5.449  1.00  0.00    -0.027 C 
ATOM      3  C   UNL     1       4.578  21.663   3.703  1.00  0.00     0.039 C 
ENDROOT
BRANCH   2   4
ATOM      4  C   UNL     1       6.890  21.372   6.828  1.00  0.00     0.032 C 
BRANCH   4   5
ATOM      5  C   UNL     1       6.120  20.577   7.904  1.00  0.00     0.034 C 
BRANCH   5   6
ATOM      6  C   UNL     1       5.502  19.297   7.372  1.00  0.00    -0.077 C 
ATOM      7  C   UNL     1       6.433  18.173   6.994  1.00  0.00     0.039 C 
ATOM      8  C   UNL     1       4.167  19.073   7.280  1.00  0.00    -0.023 CG0
ATOM      9  G   UNL     1       3.053  20.055   7.584  1.00  0.00     0.000 G0
ENDBRANCH   5   6
ENDBRANCH   4   5
ENDBRANCH   2   4
BRANCH   1  10
ATOM     10  C   UNL     1       4.191  22.625   6.088  1.00  0.00     0.111 C 
BRANCH  10  11
ATOM     11  C   UNL     1       2.777  22.112   6.053  1.00  0.00     0.163 C 
ATOM     12  O   UNL     1       1.862  22.914   5.720  1.00  0.00    -0.294 OA
BRANCH  11  13
ATOM     13  C   UNL     1       2.435  20.686   6.335  1.00  0.00    -0.002 C 
ATOM     14  C   UNL     1       1.682  19.960   5.454  1.00  0.00    -0.069 C 
ATOM     15  C   UNL     1       1.452  18.475   5.631  1.00  0.00     0.039 C 
ATOM     16  C   UNL     1       1.039  20.612   4.250  1.00  0.00     0.039 C 
BRANCH  13  17
ATOM     17  C   UNL     1       3.037  20.060   7.582  1.00  0.00     0.066 CG0
ATOM     18  G   UNL     1       4.157  19.091   7.257  1.00  0.00     0.000 G0
ENDBRANCH  13  17
ENDBRANCH  11  13
ENDBRANCH  10  11
ENDBRANCH   1  10
TORSDOF 0
ENDMDL
MODEL 6
REMARK VINA RESULT:    -4.250      1.672      3.518
REMARK INTER + INTRA:          -5.444
REMARK INTER:                  -5.911
REMARK INTRA:                   0.468
REMARK UNBOUND:                 0.546
REMARK SMILES CC1=CCC(=C(C)C)C(=O)CC(C)=CCC1
REMARK SMILES IDX 12 1 14 2 13 3 15 4 16 5 2 6 1 7 3 8 11 10 9 11 10 12 5 13
REMARK SMILES IDX 6 14 7 15 8 16 4 17
REMARK H PARENT
REMARK Flexibility Score: 60.00
ROOT
ATOM      1  C   UNL     1       6.314  20.196   5.772  1.00  0.00    -0.070 C 
ATOM      2  C   UNL     1       5.906  20.602   6.995  1.00  0.00    -0.027 C 
ATOM      3  C   UNL     1       6.577  18.726   5.568  1.00  0.00     0.039 C 
ENDROOT
BRANCH   2   4
ATOM      4  C   UNL     1       5.501  22.012   7.368  1.00  0.00     0.032 C 
BRANCH   4   5
ATOM      5  C   UNL     1       3.980  22.273   7.363  1.00  0.00     0.034 C 
BRANCH   5   6
ATOM      6  C   UNL     1       3.552  23.286   6.318  1.00  0.00    -0.077 C 
ATOM      7  C   UNL     1       3.497  24.736   6.728  1.00  0.00     0.039 C 
ATOM      8  C   UNL     1       3.283  22.983   5.023  1.00  0.00    -0.023 CG0
ATOM      9  G   UNL     1       3.257  21.604   4.394  1.00  0.00     0.000 G0
ENDBRANCH   5   6
ENDBRANCH   4   5
ENDBRANCH   2   4
BRANCH   1  10
ATOM     10  C   UNL     1       6.428  21.128   4.583  1.00  0.00     0.111 C 
BRANCH  10  11
ATOM     11  C   UNL     1       5.490  20.732   3.475  1.00  0.00     0.163 C 
ATOM     12  O   UNL     1       5.783  19.723   2.779  1.00  0.00    -0.294 OA
BRANCH  11  13
ATOM     13  C   UNL     1       4.206  21.451   3.217  1.00  0.00    -0.002 C 
ATOM     14  C   UNL     1       3.888  21.885   1.960  1.00  0.00    -0.069 C 
ATOM     15  C   UNL     1       2.532  22.473   1.635  1.00  0.00     0.039 C 
ATOM     16  C   UNL     1       4.883  21.795   0.824  1.00  0.00     0.039 C 
BRANCH  13  17
ATOM     17  C   UNL     1       3.240  21.591   4.383  1.00  0.00     0.066 CG0
ATOM     18  G   UNL     1       3.295  22.968   5.014  1.00  0.00     0.000 G0
ENDBRANCH  13  17
ENDBRANCH  11  13
ENDBRANCH  10  11
ENDBRANCH   1  10
TORSDOF 0
ENDMDL
MODEL 7
REMARK VINA RESULT:    -4.038      1.792      3.216
REMARK INTER + INTRA:          -5.144
REMARK INTER:                  -5.931
REMARK INTRA:                   0.787
REMARK UNBOUND:                 0.546
REMARK SMILES CC1=CCC(=C(C)C)C(=O)CC(C)=CCC1
REMARK SMILES IDX 12 1 14 2 13 3 15 4 16 5 2 6 1 7 3 8 11 10 9 11 10 12 5 13
REMARK SMILES IDX 6 14 7 15 8 16 4 17
REMARK H PARENT
REMARK Flexibility Score: 60.00
ROOT
ATOM      1  C   UNL     1       6.095  19.907   6.281  1.00  0.00    -0.070 C 
ATOM      2  C   UNL     1       5.305  19.899   7.377  1.00  0.00    -0.027 C 
ATOM      3  C   UNL     1       6.856  18.648   5.950  1.00  0.00     0.039 C 
ENDROOT
BRANCH   2   4
ATOM      4  C   UNL     1       4.394  21.023   7.818  1.00  0.00     0.032 C 
BRANCH   4   5
ATOM      5  C   UNL     1       2.887  20.692   7.776  1.00  0.00     0.034 C 
BRANCH   5   6
ATOM      6  C   UNL     1       2.483  19.910   6.539  1.00  0.00    -0.077 C 
ATOM      7  C   UNL     1       1.892  18.537   6.740  1.00  0.00     0.039 C 
ATOM      8  C   UNL     1       2.552  20.391   5.273  1.00  0.00    -0.023 CG0
ATOM      9  G   UNL     1       3.122  21.725   4.832  1.00  0.00     0.000 G0
ENDBRANCH   5   6
ENDBRANCH   4   5
ENDBRANCH   2   4
BRANCH   1  10
ATOM     10  C   UNL     1       6.178  21.079   5.324  1.00  0.00     0.111 C 
BRANCH  10  11
ATOM     11  C   UNL     1       5.411  20.816   4.056  1.00  0.00     0.163 C 
ATOM     12  O   UNL     1       5.825  19.905   3.289  1.00  0.00    -0.294 OA
BRANCH  11  13
ATOM     13  C   UNL     1       4.157  21.550   3.711  1.00  0.00    -0.002 C 
ATOM     14  C   UNL     1       3.924  21.973   2.431  1.00  0.00    -0.069 C 
ATOM     15  C   UNL     1       2.600  22.576   2.017  1.00  0.00     0.039 C 
ATOM     16  C   UNL     1       4.986  21.856   1.361  1.00  0.00     0.039 C 
BRANCH  13  17
ATOM     17  C   UNL     1       3.123  21.717   4.813  1.00  0.00     0.066 CG0
ATOM     18  G   UNL     1       2.556  20.389   5.275  1.00  0.00     0.000 G0
ENDBRANCH  13  17
ENDBRANCH  11  13
ENDBRANCH  10  11
ENDBRANCH   1  10
TORSDOF 0
ENDMDL
MODEL 8
REMARK VINA RESULT:    -3.996      2.060      4.936
REMARK INTER + INTRA:          -5.085
REMARK INTER:                  -5.310
REMARK INTRA:                   0.224
REMARK UNBOUND:                 0.546
REMARK SMILES CC1=CCC(=C(C)C)C(=O)CC(C)=CCC1
REMARK SMILES IDX 12 1 14 2 13 3 15 4 16 5 2 6 1 7 3 8 11 10 9 11 10 12 5 13
REMARK SMILES IDX 6 14 7 15 8 16 4 17
REMARK H PARENT
REMARK Flexibility Score: 60.00
ROOT
ATOM      1  C   UNL     1       5.946  20.436   3.428  1.00  0.00    -0.070 C 
ATOM      2  C   UNL     1       5.196  20.617   2.319  1.00  0.00    -0.027 C 
ATOM      3  C   UNL     1       6.552  19.075   3.656  1.00  0.00     0.039 C 
ENDROOT
BRANCH   2   4
ATOM      4  C   UNL     1       4.588  21.927   1.867  1.00  0.00     0.032 C 
BRANCH   4   5
ATOM      5  C   UNL     1       3.575  22.546   2.853  1.00  0.00     0.034 C 
BRANCH   5   6
ATOM      6  C   UNL     1       2.542  21.551   3.351  1.00  0.00    -0.077 C 
ATOM      7  C   UNL     1       1.600  20.952   2.336  1.00  0.00     0.039 C 
ATOM      8  C   UNL     1       2.455  21.114   4.632  1.00  0.00    -0.023 CG0
ATOM      9  G   UNL     1       3.277  21.585   5.815  1.00  0.00     0.000 G0
ENDBRANCH   5   6
ENDBRANCH   4   5
ENDBRANCH   2   4
BRANCH   1  10
ATOM     10  C   UNL     1       6.282  21.553   4.396  1.00  0.00     0.111 C 
BRANCH  10  11
ATOM     11  C   UNL     1       5.828  21.232   5.794  1.00  0.00     0.163 C 
ATOM     12  O   UNL     1       6.608  21.500   6.748  1.00  0.00    -0.294 OA
BRANCH  11  13
ATOM     13  C   UNL     1       4.476  20.671   6.089  1.00  0.00    -0.002 C 
ATOM     14  C   UNL     1       4.340  19.435   6.659  1.00  0.00    -0.069 C 
ATOM     15  C   UNL     1       2.998  18.906   7.114  1.00  0.00     0.039 C 
ATOM     16  C   UNL     1       5.536  18.532   6.865  1.00  0.00     0.039 C 
BRANCH  13  17
ATOM     17  C   UNL     1       3.277  21.565   5.818  1.00  0.00     0.066 CG0
ATOM     18  G   UNL     1       2.459  21.090   4.634  1.00  0.00     0.000 G0
ENDBRANCH  13  17
ENDBRANCH  11  13
ENDBRANCH  10  11
ENDBRANCH   1  10
TORSDOF 0
ENDMDL
MODEL 9
REMARK VINA RESULT:    -3.952      2.279      3.987
REMARK INTER + INTRA:          -5.024
REMARK INTER:                  -6.034
REMARK INTRA:                   1.010
REMARK UNBOUND:                 0.546
REMARK SMILES CC1=CCC(=C(C)C)C(=O)CC(C)=CCC1
REMARK SMILES IDX 12 1 14 2 13 3 15 4 16 5 2 6 1 7 3 8 11 10 9 11 10 12 5 13
REMARK SMILES IDX 6 14 7 15 8 16 4 17
REMARK H PARENT
REMARK Flexibility Score: 60.00
ROOT
ATOM      1  C   UNL     1       4.937  18.881   6.802  1.00  0.00    -0.070 C 
ATOM      2  C   UNL     1       3.976  17.980   6.499  1.00  0.00    -0.027 C 
ATOM      3  C   UNL     1       6.366  18.522   6.484  1.00  0.00     0.039 C 
ENDROOT
BRANCH   2   4
ATOM      4  C   UNL     1       2.485  18.194   6.650  1.00  0.00     0.032 C 
BRANCH   4   5
ATOM      5  C   UNL     1       2.015  19.649   6.446  1.00  0.00     0.034 C 
BRANCH   5   6
ATOM      6  C   UNL     1       1.789  20.004   4.987  1.00  0.00    -0.077 C 
ATOM      7  C   UNL     1       0.875  19.114   4.183  1.00  0.00     0.039 C 
ATOM      8  C   UNL     1       2.298  21.105   4.380  1.00  0.00    -0.023 CG0
ATOM      9  G   UNL     1       3.247  22.123   4.980  1.00  0.00     0.000 G0
ENDBRANCH   5   6
ENDBRANCH   4   5
ENDBRANCH   2   4
BRANCH   1  10
ATOM     10  C   UNL     1       4.639  20.260   7.356  1.00  0.00     0.111 C 
BRANCH  10  11
ATOM     11  C   UNL     1       5.195  21.345   6.473  1.00  0.00     0.163 C 
ATOM     12  O   UNL     1       6.162  22.027   6.908  1.00  0.00    -0.294 OA
BRANCH  11  13
ATOM     13  C   UNL     1       4.685  21.594   5.092  1.00  0.00    -0.002 C 
ATOM     14  C   UNL     1       5.440  21.270   3.998  1.00  0.00    -0.069 C 
ATOM     15  C   UNL     1       4.891  21.361   2.592  1.00  0.00     0.039 C 
ATOM     16  C   UNL     1       6.870  20.799   4.145  1.00  0.00     0.039 C 
BRANCH  13  17
ATOM     17  C   UNL     1       3.267  22.127   4.959  1.00  0.00     0.066 CG0
ATOM     18  G   UNL     1       2.315  21.094   4.390  1.00  0.00     0.000 G0
ENDBRANCH  13  17
ENDBRANCH  11  13
ENDBRANCH  10  11
ENDBRANCH   1  10
TORSDOF 0
ENDMDL
