MODEL 1
REMARK VINA RESULT:    -4.844      0.000      0.000
REMARK INTER + INTRA:          -5.609
REMARK INTER:                  -5.410
REMARK INTRA:                  -0.199
REMARK UNBOUND:                -0.199
REMARK SMILES O=C([O-])C=Cc1ccccc1
REMARK SMILES IDX 4 1 5 2 2 3 1 4 3 5 6 6 7 7 11 8 8 9 10 10 9 11
REMARK H PARENT
REMARK Flexibility Score: inf
ROOT
ATOM      1  C   UNL     1      10.159  46.757  29.135  1.00  0.00     0.025 C 
ATOM      2  C   UNL     1       9.062  47.402  29.562  1.00  0.00     0.010 C 
ENDROOT
BRANCH   1   3
ATOM      3  C   UNL     1      11.538  47.281  29.176  1.00  0.00     0.064 C 
ATOM      4  O   UNL     1      11.955  48.109  28.324  1.00  0.00    -0.545 OA
ATOM      5  O   UNL     1      12.375  46.902  30.218  1.00  0.00    -0.545 OA
ENDBRANCH   1   3
BRANCH   2   6
ATOM      6  C   UNL     1       9.010  48.818  29.983  1.00  0.00    -0.026 A 
ATOM      7  C   UNL     1       9.485  49.221  31.244  1.00  0.00     0.008 A 
ATOM      8  C   UNL     1       8.576  49.791  29.071  1.00  0.00     0.008 A 
ATOM      9  C   UNL     1       9.474  50.573  31.602  1.00  0.00     0.001 A 
ATOM     10  C   UNL     1       8.567  51.142  29.431  1.00  0.00     0.001 A 
ATOM     11  C   UNL     1       9.010  51.532  30.698  1.00  0.00     0.000 A 
ENDBRANCH   2   6
TORSDOF 2
ENDMDL
MODEL 2
REMARK VINA RESULT:    -4.823      0.140      1.466
REMARK INTER + INTRA:          -5.586
REMARK INTER:                  -5.388
REMARK INTRA:                  -0.198
REMARK UNBOUND:                -0.199
REMARK SMILES O=C([O-])C=Cc1ccccc1
REMARK SMILES IDX 4 1 5 2 2 3 1 4 3 5 6 6 7 7 11 8 8 9 10 10 9 11
REMARK H PARENT
REMARK Flexibility Score: inf
ROOT
ATOM      1  C   UNL     1      10.115  46.669  29.138  1.00  0.00     0.025 C 
ATOM      2  C   UNL     1       9.053  47.390  29.531  1.00  0.00     0.010 C 
ENDROOT
BRANCH   1   3
ATOM      3  C   UNL     1      11.525  47.099  29.211  1.00  0.00     0.064 C 
ATOM      4  O   UNL     1      12.015  47.895  28.368  1.00  0.00    -0.545 OA
ATOM      5  O   UNL     1      12.310  46.667  30.273  1.00  0.00    -0.545 OA
ENDBRANCH   1   3
BRANCH   2   6
ATOM      6  C   UNL     1       9.086  48.810  29.938  1.00  0.00    -0.026 A 
ATOM      7  C   UNL     1       8.640  49.826  29.074  1.00  0.00     0.008 A 
ATOM      8  C   UNL     1       9.471  49.142  31.245  1.00  0.00     0.008 A 
ATOM      9  C   UNL     1       8.631  51.158  29.498  1.00  0.00     0.001 A 
ATOM     10  C   UNL     1       9.460  50.475  31.667  1.00  0.00     0.001 A 
ATOM     11  C   UNL     1       9.046  51.483  30.793  1.00  0.00     0.000 A 
ENDBRANCH   2   6
TORSDOF 2
ENDMDL
MODEL 3
REMARK VINA RESULT:    -4.696      5.300      5.957
REMARK INTER + INTRA:          -5.445
REMARK INTER:                  -5.227
REMARK INTRA:                  -0.218
REMARK UNBOUND:                -0.199
REMARK SMILES O=C([O-])C=Cc1ccccc1
REMARK SMILES IDX 4 1 5 2 2 3 1 4 3 5 6 6 7 7 11 8 8 9 10 10 9 11
REMARK H PARENT
REMARK Flexibility Score: inf
ROOT
ATOM      1  C   UNL     1      14.623  44.684  28.729  1.00  0.00     0.025 C 
ATOM      2  C   UNL     1      15.609  45.540  28.419  1.00  0.00     0.010 C 
ENDROOT
BRANCH   1   3
ATOM      3  C   UNL     1      13.227  45.051  29.036  1.00  0.00     0.064 C 
ATOM      4  O   UNL     1      12.872  45.374  30.200  1.00  0.00    -0.545 OA
ATOM      5  O   UNL     1      12.299  45.106  28.004  1.00  0.00    -0.545 OA
ENDBRANCH   1   3
BRANCH   2   6
ATOM      6  C   UNL     1      15.524  47.013  28.505  1.00  0.00    -0.026 A 
ATOM      7  C   UNL     1      16.123  47.716  29.566  1.00  0.00     0.008 A 
ATOM      8  C   UNL     1      14.925  47.729  27.459  1.00  0.00     0.008 A 
ATOM      9  C   UNL     1      16.074  49.113  29.601  1.00  0.00     0.001 A 
ATOM     10  C   UNL     1      14.879  49.126  27.496  1.00  0.00     0.001 A 
ATOM     11  C   UNL     1      15.448  49.818  28.569  1.00  0.00     0.000 A 
ENDBRANCH   2   6
TORSDOF 2
ENDMDL
MODEL 4
REMARK VINA RESULT:    -4.646      5.253      6.122
REMARK INTER + INTRA:          -5.389
REMARK INTER:                  -5.172
REMARK INTRA:                  -0.217
REMARK UNBOUND:                -0.199
REMARK SMILES O=C([O-])C=Cc1ccccc1
REMARK SMILES IDX 4 1 5 2 2 3 1 4 3 5 6 6 7 7 11 8 8 9 10 10 9 11
REMARK H PARENT
REMARK Flexibility Score: inf
ROOT
ATOM      1  C   UNL     1      14.632  44.682  28.752  1.00  0.00     0.025 C 
ATOM      2  C   UNL     1      15.637  45.509  28.426  1.00  0.00     0.010 C 
ENDROOT
BRANCH   1   3
ATOM      3  C   UNL     1      13.255  45.090  29.095  1.00  0.00     0.064 C 
ATOM      4  O   UNL     1      12.932  45.395  30.273  1.00  0.00    -0.545 OA
ATOM      5  O   UNL     1      12.312  45.206  28.082  1.00  0.00    -0.545 OA
ENDBRANCH   1   3
BRANCH   2   6
ATOM      6  C   UNL     1      15.601  46.983  28.525  1.00  0.00    -0.026 A 
ATOM      7  C   UNL     1      14.926  47.761  27.567  1.00  0.00     0.008 A 
ATOM      8  C   UNL     1      16.160  47.610  29.648  1.00  0.00     0.008 A 
ATOM      9  C   UNL     1      14.860  49.151  27.709  1.00  0.00     0.001 A 
ATOM     10  C   UNL     1      16.092  49.000  29.787  1.00  0.00     0.001 A 
ATOM     11  C   UNL     1      15.447  49.770  28.815  1.00  0.00     0.000 A 
ENDBRANCH   2   6
TORSDOF 2
ENDMDL
MODEL 5
REMARK VINA RESULT:    -4.613      2.205      4.141
REMARK INTER + INTRA:          -5.351
REMARK INTER:                  -5.259
REMARK INTRA:                  -0.092
REMARK UNBOUND:                -0.199
REMARK SMILES O=C([O-])C=Cc1ccccc1
REMARK SMILES IDX 4 1 5 2 2 3 1 4 3 5 6 6 7 7 11 8 8 9 10 10 9 11
REMARK H PARENT
REMARK Flexibility Score: inf
ROOT
ATOM      1  C   UNL     1       8.595  50.672  30.340  1.00  0.00     0.025 C 
ATOM      2  C   UNL     1       8.579  49.799  29.321  1.00  0.00     0.010 C 
ENDROOT
BRANCH   1   3
ATOM      3  C   UNL     1       9.475  50.601  31.523  1.00  0.00     0.064 C 
ATOM      4  O   UNL     1      10.271  51.534  31.809  1.00  0.00    -0.545 OA
ATOM      5  O   UNL     1       9.374  49.510  32.377  1.00  0.00    -0.545 OA
ENDBRANCH   1   3
BRANCH   2   6
ATOM      6  C   UNL     1       9.308  48.514  29.281  1.00  0.00    -0.026 A 
ATOM      7  C   UNL     1      10.695  48.471  29.050  1.00  0.00     0.008 A 
ATOM      8  C   UNL     1       8.625  47.326  29.582  1.00  0.00     0.008 A 
ATOM      9  C   UNL     1      11.374  47.248  29.069  1.00  0.00     0.001 A 
ATOM     10  C   UNL     1       9.307  46.106  29.601  1.00  0.00     0.001 A 
ATOM     11  C   UNL     1      10.679  46.066  29.339  1.00  0.00     0.000 A 
ENDBRANCH   2   6
TORSDOF 2
ENDMDL
MODEL 6
REMARK VINA RESULT:    -4.559      2.578      3.678
REMARK INTER + INTRA:          -5.291
REMARK INTER:                  -5.076
REMARK INTRA:                  -0.215
REMARK UNBOUND:                -0.199
REMARK SMILES O=C([O-])C=Cc1ccccc1
REMARK SMILES IDX 4 1 5 2 2 3 1 4 3 5 6 6 7 7 11 8 8 9 10 10 9 11
REMARK H PARENT
REMARK Flexibility Score: inf
ROOT
ATOM      1  C   UNL     1      10.463  43.998  30.623  1.00  0.00     0.025 C 
ATOM      2  C   UNL     1      10.112  44.650  29.504  1.00  0.00     0.010 C 
ENDROOT
BRANCH   1   3
ATOM      3  C   UNL     1      10.593  44.598  31.965  1.00  0.00     0.064 C 
ATOM      4  O   UNL     1      11.711  44.698  32.537  1.00  0.00    -0.545 OA
ATOM      5  O   UNL     1       9.467  45.125  32.583  1.00  0.00    -0.545 OA
ENDBRANCH   1   3
BRANCH   2   6
ATOM      6  C   UNL     1       9.968  46.115  29.374  1.00  0.00    -0.026 A 
ATOM      7  C   UNL     1       8.728  46.746  29.576  1.00  0.00     0.008 A 
ATOM      8  C   UNL     1      11.109  46.900  29.148  1.00  0.00     0.008 A 
ATOM      9  C   UNL     1       8.626  48.139  29.500  1.00  0.00     0.001 A 
ATOM     10  C   UNL     1      11.003  48.293  29.073  1.00  0.00     0.001 A 
ATOM     11  C   UNL     1       9.762  48.911  29.244  1.00  0.00     0.000 A 
ENDBRANCH   2   6
TORSDOF 2
ENDMDL
MODEL 7
REMARK VINA RESULT:    -4.533      6.403      8.123
REMARK INTER + INTRA:          -5.263
REMARK INTER:                  -5.028
REMARK INTRA:                  -0.235
REMARK UNBOUND:                -0.199
REMARK SMILES O=C([O-])C=Cc1ccccc1
REMARK SMILES IDX 4 1 5 2 2 3 1 4 3 5 6 6 7 7 11 8 8 9 10 10 9 11
REMARK H PARENT
REMARK Flexibility Score: inf
ROOT
ATOM      1  C   UNL     1      13.817  39.875  27.717  1.00  0.00     0.025 C 
ATOM      2  C   UNL     1      13.524  40.774  28.670  1.00  0.00     0.010 C 
ENDROOT
BRANCH   1   3
ATOM      3  C   UNL     1      13.948  40.158  26.275  1.00  0.00     0.064 C 
ATOM      4  O   UNL     1      12.939  40.244  25.526  1.00  0.00    -0.545 OA
ATOM      5  O   UNL     1      15.208  40.403  25.745  1.00  0.00    -0.545 OA
ENDBRANCH   1   3
BRANCH   2   6
ATOM      6  C   UNL     1      13.102  42.170  28.430  1.00  0.00    -0.026 A 
ATOM      7  C   UNL     1      11.780  42.478  28.062  1.00  0.00     0.008 A 
ATOM      8  C   UNL     1      14.008  43.213  28.673  1.00  0.00     0.008 A 
ATOM      9  C   UNL     1      11.390  43.810  27.891  1.00  0.00     0.001 A 
ATOM     10  C   UNL     1      13.614  44.544  28.502  1.00  0.00     0.001 A 
ATOM     11  C   UNL     1      12.307  44.842  28.105  1.00  0.00     0.000 A 
ENDBRANCH   2   6
TORSDOF 2
ENDMDL
MODEL 8
REMARK VINA RESULT:    -4.527      2.870      4.189
REMARK INTER + INTRA:          -5.256
REMARK INTER:                  -5.021
REMARK INTRA:                  -0.235
REMARK UNBOUND:                -0.199
REMARK SMILES O=C([O-])C=Cc1ccccc1
REMARK SMILES IDX 4 1 5 2 2 3 1 4 3 5 6 6 7 7 11 8 8 9 10 10 9 11
REMARK H PARENT
REMARK Flexibility Score: inf
ROOT
ATOM      1  C   UNL     1      11.636  44.133  28.004  1.00  0.00     0.025 C 
ATOM      2  C   UNL     1      10.475  44.023  28.669  1.00  0.00     0.010 C 
ENDROOT
BRANCH   1   3
ATOM      3  C   UNL     1      12.755  45.025  28.363  1.00  0.00     0.064 C 
ATOM      4  O   UNL     1      12.776  46.233  28.007  1.00  0.00    -0.545 OA
ATOM      5  O   UNL     1      13.777  44.538  29.168  1.00  0.00    -0.545 OA
ENDBRANCH   1   3
BRANCH   2   6
ATOM      6  C   UNL     1      10.035  44.902  29.773  1.00  0.00    -0.026 A 
ATOM      7  C   UNL     1       9.529  46.190  29.521  1.00  0.00     0.008 A 
ATOM      8  C   UNL     1      10.024  44.404  31.085  1.00  0.00     0.008 A 
ATOM      9  C   UNL     1       9.069  46.984  30.577  1.00  0.00     0.001 A 
ATOM     10  C   UNL     1       9.563  45.201  32.138  1.00  0.00     0.001 A 
ATOM     11  C   UNL     1       9.091  46.492  31.884  1.00  0.00     0.000 A 
ENDBRANCH   2   6
TORSDOF 2
ENDMDL
MODEL 9
REMARK VINA RESULT:    -4.514      2.078      3.134
REMARK INTER + INTRA:          -5.241
REMARK INTER:                  -5.039
REMARK INTRA:                  -0.202
REMARK UNBOUND:                -0.199
REMARK SMILES O=C([O-])C=Cc1ccccc1
REMARK SMILES IDX 4 1 5 2 2 3 1 4 3 5 6 6 7 7 11 8 8 9 10 10 9 11
REMARK H PARENT
REMARK Flexibility Score: inf
ROOT
ATOM      1  C   UNL     1      10.206  44.074  29.917  1.00  0.00     0.025 C 
ATOM      2  C   UNL     1       9.387  44.892  30.597  1.00  0.00     0.010 C 
ENDROOT
BRANCH   1   3
ATOM      3  C   UNL     1      11.384  44.491  29.132  1.00  0.00     0.064 C 
ATOM      4  O   UNL     1      12.410  44.968  29.685  1.00  0.00    -0.545 OA
ATOM      5  O   UNL     1      11.386  44.290  27.758  1.00  0.00    -0.545 OA
ENDBRANCH   1   3
BRANCH   2   6
ATOM      6  C   UNL     1       9.408  46.369  30.538  1.00  0.00    -0.026 A 
ATOM      7  C   UNL     1       8.878  47.060  29.434  1.00  0.00     0.008 A 
ATOM      8  C   UNL     1       9.870  47.095  31.646  1.00  0.00     0.008 A 
ATOM      9  C   UNL     1       8.861  48.459  29.422  1.00  0.00     0.001 A 
ATOM     10  C   UNL     1       9.851  48.493  31.630  1.00  0.00     0.001 A 
ATOM     11  C   UNL     1       9.352  49.175  30.517  1.00  0.00     0.000 A 
ENDBRANCH   2   6
TORSDOF 2
ENDMDL
