MODEL 1
REMARK VINA RESULT:    -5.160      0.000      0.000
REMARK INTER + INTRA:          -5.937
REMARK INTER:                  -6.216
REMARK INTRA:                   0.279
REMARK UNBOUND:                 0.279
REMARK SMILES O=c1c(O)c(-c2ccc(O)c(O)c2)oc2cc(O)cc(O)c12
REMARK SMILES IDX 5 1 3 2 2 3 1 4 22 5 20 6 19 7 17 8 16 9 15 10 14 11 6 12
REMARK SMILES IDX 7 13 8 14 9 15 13 16 11 17 10 18 12 20 4 22 21 24 18 26
REMARK H PARENT 10 19 12 21 4 23 21 25 18 27
REMARK Flexibility Score: inf
ROOT
ATOM      1  C   UNL     1      71.094  69.040  83.401  1.00  0.00     0.180 A 
ATOM      2  C   UNL     1      71.398  67.710  83.738  1.00  0.00     0.208 A 
ATOM      3  C   UNL     1      70.363  66.761  83.770  1.00  0.00     0.238 A 
ATOM      4  O   UNL     1      70.632  65.584  84.125  1.00  0.00    -0.285 OA
ATOM      5  C   UNL     1      69.041  67.151  83.447  1.00  0.00     0.111 A 
ATOM      6  C   UNL     1      67.922  66.265  83.408  1.00  0.00     0.134 A 
ATOM      7  C   UNL     1      66.637  66.784  83.204  1.00  0.00     0.093 A 
ATOM      8  C   UNL     1      66.438  68.144  82.975  1.00  0.00     0.123 A 
ATOM      9  C   UNL     1      67.532  69.012  82.952  1.00  0.00     0.094 A 
ATOM     10  C   UNL     1      68.821  68.529  83.187  1.00  0.00     0.146 A 
ATOM     11  O   UNL     1      69.834  69.388  83.168  1.00  0.00    -0.452 OA
ENDROOT
BRANCH   1  12
ATOM     12  C   UNL     1      72.134  70.090  83.322  1.00  0.00     0.025 A 
ATOM     13  C   UNL     1      71.772  71.436  83.496  1.00  0.00     0.016 A 
ATOM     14  C   UNL     1      72.734  72.445  83.405  1.00  0.00     0.051 A 
ATOM     15  C   UNL     1      74.069  72.126  83.125  1.00  0.00     0.157 A 
ATOM     16  C   UNL     1      73.472  69.776  83.020  1.00  0.00     0.062 A 
ATOM     17  C   UNL     1      74.438  70.789  82.927  1.00  0.00     0.158 A 
BRANCH  15  18
ATOM     18  O   UNL     1      75.032  73.129  83.035  1.00  0.00    -0.504 OA
ATOM     19  H   UNL     1      74.853  74.066  83.376  1.00  0.00     0.293 HD
ENDBRANCH  15  18
BRANCH  17  20
ATOM     20  O   UNL     1      75.763  70.475  82.634  1.00  0.00    -0.504 OA
ATOM     21  H   UNL     1      76.527  70.813  83.206  1.00  0.00     0.293 HD
ENDBRANCH  17  20
ENDBRANCH   1  12
BRANCH   2  22
ATOM     22  O   UNL     1      72.707  67.351  84.074  1.00  0.00    -0.502 OA
ATOM     23  H   UNL     1      73.471  68.017  84.070  1.00  0.00     0.293 HD
ENDBRANCH   2  22
BRANCH   6  24
ATOM     24  O   UNL     1      68.021  64.876  83.533  1.00  0.00    -0.507 OA
ATOM     25  H   UNL     1      67.416  64.306  84.104  1.00  0.00     0.293 HD
ENDBRANCH   6  24
BRANCH   8  26
ATOM     26  O   UNL     1      65.148  68.624  82.761  1.00  0.00    -0.508 OA
ATOM     27  H   UNL     1      64.711  69.276  83.402  1.00  0.00     0.293 HD
ENDBRANCH   8  26
TORSDOF 6
ENDMDL
MODEL 2
REMARK VINA RESULT:    -5.149     10.026     15.968
REMARK INTER + INTRA:          -5.923
REMARK INTER:                  -6.142
REMARK INTRA:                   0.219
REMARK UNBOUND:                 0.279
REMARK SMILES O=c1c(O)c(-c2ccc(O)c(O)c2)oc2cc(O)cc(O)c12
REMARK SMILES IDX 5 1 3 2 2 3 1 4 22 5 20 6 19 7 17 8 16 9 15 10 14 11 6 12
REMARK SMILES IDX 7 13 8 14 9 15 13 16 11 17 10 18 12 20 4 22 21 24 18 26
REMARK H PARENT 10 19 12 21 4 23 21 25 18 27
REMARK Flexibility Score: inf
ROOT
ATOM      1  C   UNL     1      78.356  80.426  83.492  1.00  0.00     0.180 A 
ATOM      2  C   UNL     1      78.127  81.782  83.778  1.00  0.00     0.208 A 
ATOM      3  C   UNL     1      79.209  82.678  83.749  1.00  0.00     0.238 A 
ATOM      4  O   UNL     1      79.007  83.880  84.059  1.00  0.00    -0.285 OA
ATOM      5  C   UNL     1      80.502  82.208  83.417  1.00  0.00     0.111 A 
ATOM      6  C   UNL     1      81.663  83.033  83.318  1.00  0.00     0.134 A 
ATOM      7  C   UNL     1      82.915  82.441  83.110  1.00  0.00     0.093 A 
ATOM      8  C   UNL     1      83.041  81.064  82.935  1.00  0.00     0.123 A 
ATOM      9  C   UNL     1      81.905  80.254  82.971  1.00  0.00     0.094 A 
ATOM     10  C   UNL     1      80.647  80.811  83.212  1.00  0.00     0.146 A 
ATOM     11  O   UNL     1      79.592  80.004  83.249  1.00  0.00    -0.452 OA
ENDROOT
BRANCH   1  12
ATOM     12  C   UNL     1      77.263  79.428  83.479  1.00  0.00     0.025 A 
ATOM     13  C   UNL     1      77.545  78.090  83.803  1.00  0.00     0.016 A 
ATOM     14  C   UNL     1      76.532  77.128  83.777  1.00  0.00     0.051 A 
ATOM     15  C   UNL     1      75.228  77.484  83.412  1.00  0.00     0.157 A 
ATOM     16  C   UNL     1      75.957  79.776  83.092  1.00  0.00     0.062 A 
ATOM     17  C   UNL     1      74.940  78.810  83.064  1.00  0.00     0.158 A 
BRANCH  15  18
ATOM     18  O   UNL     1      74.215  76.527  83.386  1.00  0.00    -0.504 OA
ATOM     19  H   UNL     1      73.544  76.446  84.141  1.00  0.00     0.293 HD
ENDBRANCH  15  18
BRANCH  17  20
ATOM     20  O   UNL     1      73.645  79.159  82.687  1.00  0.00    -0.504 OA
ATOM     21  H   UNL     1      72.943  79.409  83.372  1.00  0.00     0.293 HD
ENDBRANCH  17  20
ENDBRANCH   1  12
BRANCH   2  22
ATOM     22  O   UNL     1      76.846  82.220  84.125  1.00  0.00    -0.502 OA
ATOM     23  H   UNL     1      76.176  82.542  83.436  1.00  0.00     0.293 HD
ENDBRANCH   2  22
BRANCH   6  24
ATOM     24  O   UNL     1      81.636  84.429  83.386  1.00  0.00    -0.507 OA
ATOM     25  H   UNL     1      81.184  85.029  82.713  1.00  0.00     0.293 HD
ENDBRANCH   6  24
BRANCH   8  26
ATOM     26  O   UNL     1      84.300  80.511  82.716  1.00  0.00    -0.508 OA
ATOM     27  H   UNL     1      85.109  81.092  82.530  1.00  0.00     0.293 HD
ENDBRANCH   8  26
TORSDOF 6
ENDMDL
MODEL 3
REMARK VINA RESULT:    -4.975      9.992     15.982
REMARK INTER + INTRA:          -5.714
REMARK INTER:                  -5.940
REMARK INTRA:                   0.226
REMARK UNBOUND:                 0.279
REMARK SMILES O=c1c(O)c(-c2ccc(O)c(O)c2)oc2cc(O)cc(O)c12
REMARK SMILES IDX 5 1 3 2 2 3 1 4 22 5 20 6 19 7 17 8 16 9 15 10 14 11 6 12
REMARK SMILES IDX 7 13 8 14 9 15 13 16 11 17 10 18 12 20 4 22 21 24 18 26
REMARK H PARENT 10 19 12 21 4 23 21 25 18 27
REMARK Flexibility Score: inf
ROOT
ATOM      1  C   UNL     1      78.649  80.302  83.267  1.00  0.00     0.180 A 
ATOM      2  C   UNL     1      78.198  81.585  83.621  1.00  0.00     0.208 A 
ATOM      3  C   UNL     1      79.135  82.623  83.753  1.00  0.00     0.238 A 
ATOM      4  O   UNL     1      78.733  83.757  84.123  1.00  0.00    -0.285 OA
ATOM      5  C   UNL     1      80.507  82.369  83.512  1.00  0.00     0.111 A 
ATOM      6  C   UNL     1      81.538  83.354  83.577  1.00  0.00     0.134 A 
ATOM      7  C   UNL     1      82.876  82.964  83.449  1.00  0.00     0.093 A 
ATOM      8  C   UNL     1      83.218  81.636  83.194  1.00  0.00     0.123 A 
ATOM      9  C   UNL     1      82.214  80.674  83.069  1.00  0.00     0.094 A 
ATOM     10  C   UNL     1      80.872  81.027  83.228  1.00  0.00     0.146 A 
ATOM     11  O   UNL     1      79.949  80.080  83.112  1.00  0.00    -0.452 OA
ENDROOT
BRANCH   1  12
ATOM     12  C   UNL     1      77.720  79.164  83.084  1.00  0.00     0.025 A 
ATOM     13  C   UNL     1      76.446  79.393  82.536  1.00  0.00     0.016 A 
ATOM     14  C   UNL     1      75.546  78.337  82.374  1.00  0.00     0.051 A 
ATOM     15  C   UNL     1      75.898  77.041  82.770  1.00  0.00     0.157 A 
ATOM     16  C   UNL     1      78.061  77.864  83.500  1.00  0.00     0.062 A 
ATOM     17  C   UNL     1      77.156  76.804  83.339  1.00  0.00     0.158 A 
BRANCH  15  18
ATOM     18  O   UNL     1      75.003  75.984  82.608  1.00  0.00    -0.504 OA
ATOM     19  H   UNL     1      74.003  76.137  82.584  1.00  0.00     0.293 HD
ENDBRANCH  15  18
BRANCH  17  20
ATOM     20  O   UNL     1      77.499  75.516  83.747  1.00  0.00    -0.504 OA
ATOM     21  H   UNL     1      77.287  74.706  83.177  1.00  0.00     0.293 HD
ENDBRANCH  17  20
ENDBRANCH   1  12
BRANCH   2  22
ATOM     22  O   UNL     1      76.843  81.809  83.875  1.00  0.00    -0.502 OA
ATOM     23  H   UNL     1      76.414  82.721  83.775  1.00  0.00     0.293 HD
ENDBRANCH   2  22
BRANCH   6  24
ATOM     24  O   UNL     1      81.300  84.723  83.737  1.00  0.00    -0.507 OA
ATOM     25  H   UNL     1      80.393  85.160  83.671  1.00  0.00     0.293 HD
ENDBRANCH   6  24
BRANCH   8  26
ATOM     26  O   UNL     1      84.558  81.286  83.056  1.00  0.00    -0.508 OA
ATOM     27  H   UNL     1      84.962  81.078  82.150  1.00  0.00     0.293 HD
ENDBRANCH   8  26
TORSDOF 6
ENDMDL
MODEL 4
REMARK VINA RESULT:    -4.608      4.121      9.970
REMARK INTER + INTRA:          -5.272
REMARK INTER:                  -5.558
REMARK INTRA:                   0.286
REMARK UNBOUND:                 0.279
REMARK SMILES O=c1c(O)c(-c2ccc(O)c(O)c2)oc2cc(O)cc(O)c12
REMARK SMILES IDX 5 1 3 2 2 3 1 4 22 5 20 6 19 7 17 8 16 9 15 10 14 11 6 12
REMARK SMILES IDX 7 13 8 14 9 15 13 16 11 17 10 18 12 20 4 22 21 24 18 26
REMARK H PARENT 10 19 12 21 4 23 21 25 18 27
REMARK Flexibility Score: inf
ROOT
ATOM      1  C   UNL     1      74.666  74.042  83.690  1.00  0.00     0.180 A 
ATOM      2  C   UNL     1      73.784  75.128  83.822  1.00  0.00     0.208 A 
ATOM      3  C   UNL     1      74.313  76.424  83.944  1.00  0.00     0.238 A 
ATOM      4  O   UNL     1      73.520  77.386  84.117  1.00  0.00    -0.285 OA
ATOM      5  C   UNL     1      75.715  76.618  83.916  1.00  0.00     0.111 A 
ATOM      6  C   UNL     1      76.359  77.890  83.992  1.00  0.00     0.134 A 
ATOM      7  C   UNL     1      77.754  77.953  84.086  1.00  0.00     0.093 A 
ATOM      8  C   UNL     1      78.532  76.797  84.044  1.00  0.00     0.123 A 
ATOM      9  C   UNL     1      77.917  75.551  83.910  1.00  0.00     0.094 A 
ATOM     10  C   UNL     1      76.524  75.454  83.849  1.00  0.00     0.146 A 
ATOM     11  O   UNL     1      75.977  74.249  83.733  1.00  0.00    -0.452 OA
ENDROOT
BRANCH   1  12
ATOM     12  C   UNL     1      74.185  72.651  83.531  1.00  0.00     0.025 A 
ATOM     13  C   UNL     1      75.023  71.584  83.894  1.00  0.00     0.016 A 
ATOM     14  C   UNL     1      74.596  70.263  83.733  1.00  0.00     0.051 A 
ATOM     15  C   UNL     1      73.333  69.989  83.193  1.00  0.00     0.157 A 
ATOM     16  C   UNL     1      72.926  72.371  82.970  1.00  0.00     0.062 A 
ATOM     17  C   UNL     1      72.498  71.045  82.806  1.00  0.00     0.158 A 
BRANCH  15  18
ATOM     18  O   UNL     1      72.903  68.673  83.033  1.00  0.00    -0.504 OA
ATOM     19  H   UNL     1      72.410  68.375  82.200  1.00  0.00     0.293 HD
ENDBRANCH  15  18
BRANCH  17  20
ATOM     20  O   UNL     1      71.247  70.770  82.256  1.00  0.00    -0.504 OA
ATOM     21  H   UNL     1      70.394  70.912  82.782  1.00  0.00     0.293 HD
ENDBRANCH  17  20
ENDBRANCH   1  12
BRANCH   2  22
ATOM     22  O   UNL     1      72.405  74.911  83.869  1.00  0.00    -0.502 OA
ATOM     23  H   UNL     1      71.864  75.031  84.717  1.00  0.00     0.293 HD
ENDBRANCH   2  22
BRANCH   6  24
ATOM     24  O   UNL     1      75.680  79.111  83.949  1.00  0.00    -0.507 OA
ATOM     25  H   UNL     1      76.108  79.999  83.734  1.00  0.00     0.293 HD
ENDBRANCH   6  24
BRANCH   8  26
ATOM     26  O   UNL     1      79.919  76.898  84.125  1.00  0.00    -0.508 OA
ATOM     27  H   UNL     1      80.431  76.541  84.923  1.00  0.00     0.293 HD
ENDBRANCH   8  26
TORSDOF 6
ENDMDL
MODEL 5
REMARK VINA RESULT:    -4.559      5.968     11.580
REMARK INTER + INTRA:          -5.213
REMARK INTER:                  -5.140
REMARK INTRA:                  -0.072
REMARK UNBOUND:                 0.279
REMARK SMILES O=c1c(O)c(-c2ccc(O)c(O)c2)oc2cc(O)cc(O)c12
REMARK SMILES IDX 5 1 3 2 2 3 1 4 22 5 20 6 19 7 17 8 16 9 15 10 14 11 6 12
REMARK SMILES IDX 7 13 8 14 9 15 13 16 11 17 10 18 12 20 4 22 21 24 18 26
REMARK H PARENT 10 19 12 21 4 23 21 25 18 27
REMARK Flexibility Score: inf
ROOT
ATOM      1  C   UNL     1      75.925  76.253  83.384  1.00  0.00     0.180 A 
ATOM      2  C   UNL     1      77.174  75.736  83.771  1.00  0.00     0.208 A 
ATOM      3  C   UNL     1      78.280  76.601  83.831  1.00  0.00     0.238 A 
ATOM      4  O   UNL     1      79.406  76.122  84.125  1.00  0.00    -0.285 OA
ATOM      5  C   UNL     1      78.118  77.972  83.521  1.00  0.00     0.111 A 
ATOM      6  C   UNL     1      79.161  78.946  83.588  1.00  0.00     0.134 A 
ATOM      7  C   UNL     1      78.919  80.249  83.133  1.00  0.00     0.093 A 
ATOM      8  C   UNL     1      77.659  80.630  82.675  1.00  0.00     0.123 A 
ATOM      9  C   UNL     1      76.616  79.701  82.661  1.00  0.00     0.094 A 
ATOM     10  C   UNL     1      76.836  78.385  83.075  1.00  0.00     0.146 A 
ATOM     11  O   UNL     1      75.821  77.530  83.036  1.00  0.00    -0.452 OA
ENDROOT
BRANCH   1  12
ATOM     12  C   UNL     1      74.710  75.410  83.321  1.00  0.00     0.025 A 
ATOM     13  C   UNL     1      73.603  75.735  84.122  1.00  0.00     0.016 A 
ATOM     14  C   UNL     1      72.453  74.941  84.093  1.00  0.00     0.051 A 
ATOM     15  C   UNL     1      72.398  73.804  83.277  1.00  0.00     0.157 A 
ATOM     16  C   UNL     1      74.659  74.256  82.519  1.00  0.00     0.062 A 
ATOM     17  C   UNL     1      73.506  73.458  82.492  1.00  0.00     0.158 A 
BRANCH  15  18
ATOM     18  O   UNL     1      71.253  73.011  83.245  1.00  0.00    -0.504 OA
ATOM     19  H   UNL     1      70.797  72.775  82.372  1.00  0.00     0.293 HD
ENDBRANCH  15  18
BRANCH  17  20
ATOM     20  O   UNL     1      73.455  72.318  81.692  1.00  0.00    -0.504 OA
ATOM     21  H   UNL     1      72.580  71.845  81.498  1.00  0.00     0.293 HD
ENDBRANCH  17  20
ENDBRANCH   1  12
BRANCH   2  22
ATOM     22  O   UNL     1      77.315  74.375  84.051  1.00  0.00    -0.502 OA
ATOM     23  H   UNL     1      78.151  73.854  83.814  1.00  0.00     0.293 HD
ENDBRANCH   2  22
BRANCH   6  24
ATOM     24  O   UNL     1      80.431  78.695  84.115  1.00  0.00    -0.507 OA
ATOM     25  H   UNL     1      80.620  78.078  84.890  1.00  0.00     0.293 HD
ENDBRANCH   6  24
BRANCH   8  26
ATOM     26  O   UNL     1      77.450  81.937  82.245  1.00  0.00    -0.508 OA
ATOM     27  H   UNL     1      78.194  82.625  82.257  1.00  0.00     0.293 HD
ENDBRANCH   8  26
TORSDOF 6
ENDMDL
MODEL 6
REMARK VINA RESULT:    -4.463      2.942      5.745
REMARK INTER + INTRA:          -5.097
REMARK INTER:                  -4.957
REMARK INTRA:                  -0.141
REMARK UNBOUND:                 0.279
REMARK SMILES O=c1c(O)c(-c2ccc(O)c(O)c2)oc2cc(O)cc(O)c12
REMARK SMILES IDX 5 1 3 2 2 3 1 4 22 5 20 6 19 7 17 8 16 9 15 10 14 11 6 12
REMARK SMILES IDX 7 13 8 14 9 15 13 16 11 17 10 18 12 20 4 22 21 24 18 26
REMARK H PARENT 10 19 12 21 4 23 21 25 18 27
REMARK Flexibility Score: inf
ROOT
ATOM      1  C   UNL     1      73.695  73.292  83.264  1.00  0.00     0.180 A 
ATOM      2  C   UNL     1      72.436  73.720  83.719  1.00  0.00     0.208 A 
ATOM      3  C   UNL     1      71.366  72.810  83.719  1.00  0.00     0.238 A 
ATOM      4  O   UNL     1      70.229  73.215  84.075  1.00  0.00    -0.285 OA
ATOM      5  C   UNL     1      71.573  71.480  83.282  1.00  0.00     0.111 A 
ATOM      6  C   UNL     1      70.571  70.463  83.278  1.00  0.00     0.134 A 
ATOM      7  C   UNL     1      70.853  69.218  82.702  1.00  0.00     0.093 A 
ATOM      8  C   UNL     1      72.117  68.931  82.189  1.00  0.00     0.123 A 
ATOM      9  C   UNL     1      73.123  69.898  82.242  1.00  0.00     0.094 A 
ATOM     10  C   UNL     1      72.861  71.161  82.778  1.00  0.00     0.146 A 
ATOM     11  O   UNL     1      73.842  72.057  82.799  1.00  0.00    -0.452 OA
ENDROOT
BRANCH   1  12
ATOM     12  C   UNL     1      74.875  74.185  83.258  1.00  0.00     0.025 A 
ATOM     13  C   UNL     1      75.963  73.899  84.100  1.00  0.00     0.016 A 
ATOM     14  C   UNL     1      77.078  74.740  84.125  1.00  0.00     0.051 A 
ATOM     15  C   UNL     1      77.118  75.886  83.321  1.00  0.00     0.157 A 
ATOM     16  C   UNL     1      74.911  75.348  82.468  1.00  0.00     0.062 A 
ATOM     17  C   UNL     1      76.029  76.194  82.494  1.00  0.00     0.158 A 
BRANCH  15  18
ATOM     18  O   UNL     1      78.230  76.726  83.341  1.00  0.00    -0.504 OA
ATOM     19  H   UNL     1      78.305  77.519  82.715  1.00  0.00     0.293 HD
ENDBRANCH  15  18
BRANCH  17  20
ATOM     20  O   UNL     1      76.065  77.342  81.705  1.00  0.00    -0.504 OA
ATOM     21  H   UNL     1      75.894  77.305  80.707  1.00  0.00     0.293 HD
ENDBRANCH  17  20
ENDBRANCH   1  12
BRANCH   2  22
ATOM     22  O   UNL     1      72.249  75.044  84.125  1.00  0.00    -0.502 OA
ATOM     23  H   UNL     1      72.124  75.803  83.466  1.00  0.00     0.293 HD
ENDBRANCH   2  22
BRANCH   6  24
ATOM     24  O   UNL     1      69.303  70.614  83.847  1.00  0.00    -0.507 OA
ATOM     25  H   UNL     1      68.896  71.497  84.117  1.00  0.00     0.293 HD
ENDBRANCH   6  24
BRANCH   8  26
ATOM     26  O   UNL     1      72.367  67.677  81.638  1.00  0.00    -0.508 OA
ATOM     27  H   UNL     1      72.185  67.481  80.660  1.00  0.00     0.293 HD
ENDBRANCH   8  26
TORSDOF 6
ENDMDL
MODEL 7
REMARK VINA RESULT:    -4.403      4.466      7.591
REMARK INTER + INTRA:          -5.025
REMARK INTER:                  -5.359
REMARK INTRA:                   0.334
REMARK UNBOUND:                 0.279
REMARK SMILES O=c1c(O)c(-c2ccc(O)c(O)c2)oc2cc(O)cc(O)c12
REMARK SMILES IDX 5 1 3 2 2 3 1 4 22 5 20 6 19 7 17 8 16 9 15 10 14 11 6 12
REMARK SMILES IDX 7 13 8 14 9 15 13 16 11 17 10 18 12 20 4 22 21 24 18 26
REMARK H PARENT 10 19 12 21 4 23 21 25 18 27
REMARK Flexibility Score: inf
ROOT
ATOM      1  C   UNL     1      74.823  75.546  83.802  1.00  0.00     0.180 A 
ATOM      2  C   UNL     1      75.678  74.435  83.901  1.00  0.00     0.208 A 
ATOM      3  C   UNL     1      75.118  73.149  83.979  1.00  0.00     0.238 A 
ATOM      4  O   UNL     1      75.886  72.163  84.122  1.00  0.00    -0.285 OA
ATOM      5  C   UNL     1      73.712  72.991  83.940  1.00  0.00     0.111 A 
ATOM      6  C   UNL     1      73.037  71.733  83.971  1.00  0.00     0.134 A 
ATOM      7  C   UNL     1      71.640  71.700  84.059  1.00  0.00     0.093 A 
ATOM      8  C   UNL     1      70.890  72.875  84.052  1.00  0.00     0.123 A 
ATOM      9  C   UNL     1      71.536  74.109  83.961  1.00  0.00     0.094 A 
ATOM     10  C   UNL     1      72.931  74.175  83.908  1.00  0.00     0.146 A 
ATOM     11  O   UNL     1      73.507  75.369  83.834  1.00  0.00    -0.452 OA
ENDROOT
BRANCH   1  12
ATOM     12  C   UNL     1      75.338  76.929  83.690  1.00  0.00     0.025 A 
ATOM     13  C   UNL     1      74.497  78.008  84.009  1.00  0.00     0.016 A 
ATOM     14  C   UNL     1      74.957  79.322  83.892  1.00  0.00     0.051 A 
ATOM     15  C   UNL     1      76.257  79.578  83.439  1.00  0.00     0.157 A 
ATOM     16  C   UNL     1      76.636  77.192  83.216  1.00  0.00     0.062 A 
ATOM     17  C   UNL     1      77.098  78.511  83.096  1.00  0.00     0.158 A 
BRANCH  15  18
ATOM     18  O   UNL     1      76.720  80.888  83.322  1.00  0.00    -0.504 OA
ATOM     19  H   UNL     1      77.046  81.257  82.437  1.00  0.00     0.293 HD
ENDBRANCH  15  18
BRANCH  17  20
ATOM     20  O   UNL     1      78.386  78.769  82.632  1.00  0.00    -0.504 OA
ATOM     21  H   UNL     1      79.050  78.021  82.469  1.00  0.00     0.293 HD
ENDBRANCH  17  20
ENDBRANCH   1  12
BRANCH   2  22
ATOM     22  O   UNL     1      77.062  74.617  83.959  1.00  0.00    -0.502 OA
ATOM     23  H   UNL     1      77.625  74.266  84.725  1.00  0.00     0.293 HD
ENDBRANCH   2  22
BRANCH   6  24
ATOM     24  O   UNL     1      73.686  70.497  83.890  1.00  0.00    -0.507 OA
ATOM     25  H   UNL     1      73.803  69.858  84.662  1.00  0.00     0.293 HD
ENDBRANCH   6  24
BRANCH   8  26
ATOM     26  O   UNL     1      69.501  72.805  84.125  1.00  0.00    -0.508 OA
ATOM     27  H   UNL     1      69.034  72.115  84.702  1.00  0.00     0.293 HD
ENDBRANCH   8  26
TORSDOF 6
ENDMDL
MODEL 8
REMARK VINA RESULT:    -4.043      9.190     13.502
REMARK INTER + INTRA:          -4.591
REMARK INTER:                  -4.986
REMARK INTRA:                   0.395
REMARK UNBOUND:                 0.279
REMARK SMILES O=c1c(O)c(-c2ccc(O)c(O)c2)oc2cc(O)cc(O)c12
REMARK SMILES IDX 5 1 3 2 2 3 1 4 22 5 20 6 19 7 17 8 16 9 15 10 14 11 6 12
REMARK SMILES IDX 7 13 8 14 9 15 13 16 11 17 10 18 12 20 4 22 21 24 18 26
REMARK H PARENT 10 19 12 21 4 23 21 25 18 27
REMARK Flexibility Score: inf
ROOT
ATOM      1  C   UNL     1      78.452  80.045  83.585  1.00  0.00     0.180 A 
ATOM      2  C   UNL     1      77.280  80.769  83.862  1.00  0.00     0.208 A 
ATOM      3  C   UNL     1      76.050  80.090  83.888  1.00  0.00     0.238 A 
ATOM      4  O   UNL     1      74.998  80.752  84.082  1.00  0.00    -0.285 OA
ATOM      5  C   UNL     1      76.012  78.694  83.655  1.00  0.00     0.111 A 
ATOM      6  C   UNL     1      74.828  77.898  83.698  1.00  0.00     0.134 A 
ATOM      7  C   UNL     1      74.888  76.550  83.323  1.00  0.00     0.093 A 
ATOM      8  C   UNL     1      76.098  75.954  82.970  1.00  0.00     0.123 A 
ATOM      9  C   UNL     1      77.273  76.708  82.982  1.00  0.00     0.094 A 
ATOM     10  C   UNL     1      77.238  78.064  83.317  1.00  0.00     0.146 A 
ATOM     11  O   UNL     1      78.376  78.749  83.306  1.00  0.00    -0.452 OA
ENDROOT
BRANCH   1  12
ATOM     12  C   UNL     1      79.787  80.686  83.565  1.00  0.00     0.025 A 
ATOM     13  C   UNL     1      80.935  79.897  83.743  1.00  0.00     0.016 A 
ATOM     14  C   UNL     1      82.203  80.484  83.747  1.00  0.00     0.051 A 
ATOM     15  C   UNL     1      82.341  81.868  83.590  1.00  0.00     0.157 A 
ATOM     16  C   UNL     1      79.929  82.079  83.428  1.00  0.00     0.062 A 
ATOM     17  C   UNL     1      81.202  82.669  83.435  1.00  0.00     0.158 A 
BRANCH  15  18
ATOM     18  O   UNL     1      83.605  82.457  83.592  1.00  0.00    -0.504 OA
ATOM     19  H   UNL     1      83.720  83.462  83.540  1.00  0.00     0.293 HD
ENDBRANCH  15  18
BRANCH  17  20
ATOM     20  O   UNL     1      81.341  84.048  83.294  1.00  0.00    -0.504 OA
ATOM     21  H   UNL     1      81.128  84.515  82.421  1.00  0.00     0.293 HD
ENDBRANCH  17  20
ENDBRANCH   1  12
BRANCH   2  22
ATOM     22  O   UNL     1      77.338  82.150  84.067  1.00  0.00    -0.502 OA
ATOM     23  H   UNL     1      77.099  82.579  84.954  1.00  0.00     0.293 HD
ENDBRANCH   2  22
BRANCH   6  24
ATOM     24  O   UNL     1      73.584  78.372  84.125  1.00  0.00    -0.507 OA
ATOM     25  H   UNL     1      73.197  79.270  83.881  1.00  0.00     0.293 HD
ENDBRANCH   6  24
BRANCH   8  26
ATOM     26  O   UNL     1      76.124  74.607  82.617  1.00  0.00    -0.508 OA
ATOM     27  H   UNL     1      75.313  74.011  82.738  1.00  0.00     0.293 HD
ENDBRANCH   8  26
TORSDOF 6
ENDMDL
MODEL 9
REMARK VINA RESULT:    -4.001      3.693      6.997
REMARK INTER + INTRA:          -4.541
REMARK INTER:                  -4.651
REMARK INTRA:                   0.110
REMARK UNBOUND:                 0.279
REMARK SMILES O=c1c(O)c(-c2ccc(O)c(O)c2)oc2cc(O)cc(O)c12
REMARK SMILES IDX 5 1 3 2 2 3 1 4 22 5 20 6 19 7 17 8 16 9 15 10 14 11 6 12
REMARK SMILES IDX 7 13 8 14 9 15 13 16 11 17 10 18 12 20 4 22 21 24 18 26
REMARK H PARENT 10 19 12 21 4 23 21 25 18 27
REMARK Flexibility Score: inf
ROOT
ATOM      1  C   UNL     1      74.345  74.510  83.383  1.00  0.00     0.180 A 
ATOM      2  C   UNL     1      73.055  74.895  83.787  1.00  0.00     0.208 A 
ATOM      3  C   UNL     1      72.031  73.933  83.807  1.00  0.00     0.238 A 
ATOM      4  O   UNL     1      70.867  74.296  84.118  1.00  0.00    -0.285 OA
ATOM      5  C   UNL     1      72.315  72.596  83.439  1.00  0.00     0.111 A 
ATOM      6  C   UNL     1      71.365  71.531  83.462  1.00  0.00     0.134 A 
ATOM      7  C   UNL     1      71.722  70.276  82.953  1.00  0.00     0.093 A 
ATOM      8  C   UNL     1      73.011  70.030  82.483  1.00  0.00     0.123 A 
ATOM      9  C   UNL     1      73.966  71.048  82.511  1.00  0.00     0.094 A 
ATOM     10  C   UNL     1      73.629  72.320  82.980  1.00  0.00     0.146 A 
ATOM     11  O   UNL     1      74.563  73.263  82.981  1.00  0.00    -0.452 OA
ENDROOT
BRANCH   1  12
ATOM     12  C   UNL     1      75.479  75.460  83.359  1.00  0.00     0.025 A 
ATOM     13  C   UNL     1      76.714  75.075  83.906  1.00  0.00     0.016 A 
ATOM     14  C   UNL     1      77.793  75.963  83.913  1.00  0.00     0.051 A 
ATOM     15  C   UNL     1      77.649  77.254  83.389  1.00  0.00     0.157 A 
ATOM     16  C   UNL     1      75.333  76.765  82.853  1.00  0.00     0.062 A 
ATOM     17  C   UNL     1      76.415  77.658  82.862  1.00  0.00     0.158 A 
BRANCH  15  18
ATOM     18  O   UNL     1      78.723  78.142  83.393  1.00  0.00    -0.504 OA
ATOM     19  H   UNL     1      78.628  79.086  83.748  1.00  0.00     0.293 HD
ENDBRANCH  15  18
BRANCH  17  20
ATOM     20  O   UNL     1      76.270  78.947  82.355  1.00  0.00    -0.504 OA
ATOM     21  H   UNL     1      76.173  79.749  82.966  1.00  0.00     0.293 HD
ENDBRANCH  17  20
ENDBRANCH   1  12
BRANCH   2  22
ATOM     22  O   UNL     1      72.792  76.226  84.125  1.00  0.00    -0.502 OA
ATOM     23  H   UNL     1      72.598  76.936  83.429  1.00  0.00     0.293 HD
ENDBRANCH   2  22
BRANCH   6  24
ATOM     24  O   UNL     1      70.077  71.645  83.995  1.00  0.00    -0.507 OA
ATOM     25  H   UNL     1      69.865  71.999  84.915  1.00  0.00     0.293 HD
ENDBRANCH   6  24
BRANCH   8  26
ATOM     26  O   UNL     1      73.336  68.765  81.998  1.00  0.00    -0.508 OA
ATOM     27  H   UNL     1      73.990  68.642  81.234  1.00  0.00     0.293 HD
ENDBRANCH   8  26
TORSDOF 6
ENDMDL
