MODEL 1
REMARK VINA RESULT:    -5.617      0.000      0.000
REMARK INTER + INTRA:          -6.714
REMARK INTER:                  -6.437
REMARK INTRA:                  -0.276
REMARK UNBOUND:                -0.276
REMARK SMILES O=C1C[C@H](c2ccc(O)cc2)Oc2cc(O)cc(O)c21
REMARK SMILES IDX 3 1 4 2 12 3 13 4 14 5 15 6 17 7 18 8 20 9 2 10 1 11 5 12
REMARK SMILES IDX 6 13 11 14 7 15 10 16 8 17 9 18 19 20 16 22
REMARK H PARENT 9 19 19 21 16 23
REMARK Flexibility Score: inf
ROOT
ATOM      1  C   UNL     1      -7.435  89.174 -13.716  1.00  0.00     0.131 C 
ATOM      2  C   UNL     1      -8.144  90.521 -13.532  1.00  0.00     0.211 C 
ATOM      3  O   UNL     1      -7.740  91.431 -14.554  1.00  0.00    -0.484 OA
ATOM      4  C   UNL     1      -6.398  91.579 -14.920  1.00  0.00     0.138 A 
ATOM      5  C   UNL     1      -6.026  92.691 -15.679  1.00  0.00     0.093 A 
ATOM      6  C   UNL     1      -4.690  92.883 -16.038  1.00  0.00     0.123 A 
ATOM      7  C   UNL     1      -3.723  91.968 -15.621  1.00  0.00     0.093 A 
ATOM      8  C   UNL     1      -4.071  90.849 -14.854  1.00  0.00     0.133 A 
ATOM      9  C   UNL     1      -5.439  90.616 -14.533  1.00  0.00     0.102 A 
ATOM     10  C   UNL     1      -5.954  89.375 -13.884  1.00  0.00     0.174 C 
ATOM     11  O   UNL     1      -5.189  88.428 -13.565  1.00  0.00    -0.294 OA
ENDROOT
BRANCH   2  12
ATOM     12  C   UNL     1      -9.643  90.346 -13.555  1.00  0.00    -0.007 A 
ATOM     13  C   UNL     1     -10.474  91.288 -12.924  1.00  0.00     0.011 A 
ATOM     14  C   UNL     1     -10.223  89.214 -14.156  1.00  0.00     0.011 A 
ATOM     15  C   UNL     1     -11.861  91.114 -12.918  1.00  0.00     0.046 A 
ATOM     16  C   UNL     1     -11.610  89.043 -14.147  1.00  0.00     0.046 A 
ATOM     17  C   UNL     1     -12.433  89.994 -13.530  1.00  0.00     0.115 A 
BRANCH  17  18
ATOM     18  O   UNL     1     -13.817  89.834 -13.515  1.00  0.00    -0.508 OA
ATOM     19  H   UNL     1     -14.286  89.220 -14.171  1.00  0.00     0.293 HD
ENDBRANCH  17  18
ENDBRANCH   2  12
BRANCH   8  20
ATOM     20  O   UNL     1      -3.025  90.027 -14.429  1.00  0.00    -0.507 OA
ATOM     21  H   UNL     1      -2.381  90.258 -13.689  1.00  0.00     0.293 HD
ENDBRANCH   8  20
BRANCH   6  22
ATOM     22  O   UNL     1      -4.311  93.986 -16.801  1.00  0.00    -0.508 OA
ATOM     23  H   UNL     1      -4.921  94.374 -17.511  1.00  0.00     0.293 HD
ENDBRANCH   6  22
TORSDOF 4
ENDMDL
MODEL 2
REMARK VINA RESULT:    -5.563      3.312      6.712
REMARK INTER + INTRA:          -6.652
REMARK INTER:                  -6.353
REMARK INTRA:                  -0.299
REMARK UNBOUND:                -0.276
REMARK SMILES O=C1C[C@H](c2ccc(O)cc2)Oc2cc(O)cc(O)c21
REMARK SMILES IDX 3 1 4 2 12 3 13 4 14 5 15 6 17 7 18 8 20 9 2 10 1 11 5 12
REMARK SMILES IDX 6 13 11 14 7 15 10 16 8 17 9 18 19 20 16 22
REMARK H PARENT 9 19 19 21 16 23
REMARK Flexibility Score: inf
ROOT
ATOM      1  C   UNL     1      -4.107  92.325 -14.901  1.00  0.00     0.131 C 
ATOM      2  C   UNL     1      -4.204  91.012 -15.685  1.00  0.00     0.211 C 
ATOM      3  O   UNL     1      -5.374  90.293 -15.294  1.00  0.00    -0.484 OA
ATOM      4  C   UNL     1      -5.728  90.140 -13.949  1.00  0.00     0.138 A 
ATOM      5  C   UNL     1      -6.679  89.175 -13.609  1.00  0.00     0.093 A 
ATOM      6  C   UNL     1      -7.035  88.978 -12.274  1.00  0.00     0.123 A 
ATOM      7  C   UNL     1      -6.425  89.738 -11.275  1.00  0.00     0.093 A 
ATOM      8  C   UNL     1      -5.465  90.707 -11.591  1.00  0.00     0.133 A 
ATOM      9  C   UNL     1      -5.138  90.954 -12.955  1.00  0.00     0.102 A 
ATOM     10  C   UNL     1      -4.274  92.074 -13.428  1.00  0.00     0.174 C 
ATOM     11  O   UNL     1      -3.759  92.897 -12.626  1.00  0.00    -0.294 OA
ENDROOT
BRANCH   2  12
ATOM     12  C   UNL     1      -4.230  91.275 -17.171  1.00  0.00    -0.007 A 
ATOM     13  C   UNL     1      -3.028  91.354 -17.896  1.00  0.00     0.011 A 
ATOM     14  C   UNL     1      -5.448  91.500 -17.839  1.00  0.00     0.011 A 
ATOM     15  C   UNL     1      -3.046  91.627 -19.267  1.00  0.00     0.046 A 
ATOM     16  C   UNL     1      -5.462  91.774 -19.209  1.00  0.00     0.046 A 
ATOM     17  C   UNL     1      -4.261  91.837 -19.927  1.00  0.00     0.115 A 
BRANCH  17  18
ATOM     18  O   UNL     1      -4.263  92.109 -21.294  1.00  0.00    -0.508 OA
ATOM     19  H   UNL     1      -3.402  92.290 -21.798  1.00  0.00     0.293 HD
ENDBRANCH  17  18
ENDBRANCH   2  12
BRANCH   8  20
ATOM     20  O   UNL     1      -4.863  91.370 -10.519  1.00  0.00    -0.507 OA
ATOM     21  H   UNL     1      -3.955  91.143 -10.144  1.00  0.00     0.293 HD
ENDBRANCH   8  20
BRANCH   6  22
ATOM     22  O   UNL     1      -7.987  88.022 -11.926  1.00  0.00    -0.508 OA
ATOM     23  H   UNL     1      -8.736  88.231 -11.276  1.00  0.00     0.293 HD
ENDBRANCH   6  22
TORSDOF 4
ENDMDL
MODEL 3
REMARK VINA RESULT:    -5.294      8.436     11.562
REMARK INTER + INTRA:          -6.343
REMARK INTER:                  -6.057
REMARK INTRA:                  -0.287
REMARK UNBOUND:                -0.276
REMARK SMILES O=C1C[C@H](c2ccc(O)cc2)Oc2cc(O)cc(O)c21
REMARK SMILES IDX 3 1 4 2 12 3 13 4 14 5 15 6 17 7 18 8 20 9 2 10 1 11 5 12
REMARK SMILES IDX 6 13 11 14 7 15 10 16 8 17 9 18 19 20 16 22
REMARK H PARENT 9 19 19 21 16 23
REMARK Flexibility Score: inf
ROOT
ATOM      1  C   UNL     1      -7.926  85.011  -8.802  1.00  0.00     0.131 C 
ATOM      2  C   UNL     1      -7.637  83.638  -8.183  1.00  0.00     0.211 C 
ATOM      3  O   UNL     1      -8.475  82.646  -8.775  1.00  0.00    -0.484 OA
ATOM      4  C   UNL     1      -9.842  82.863  -8.977  1.00  0.00     0.138 A 
ATOM      5  C   UNL     1     -10.664  81.768  -9.252  1.00  0.00     0.093 A 
ATOM      6  C   UNL     1     -12.037  81.946  -9.433  1.00  0.00     0.123 A 
ATOM      7  C   UNL     1     -12.590  83.223  -9.320  1.00  0.00     0.093 A 
ATOM      8  C   UNL     1     -11.787  84.335  -9.038  1.00  0.00     0.133 A 
ATOM      9  C   UNL     1     -10.379  84.169  -8.910  1.00  0.00     0.102 A 
ATOM     10  C   UNL     1      -9.404  85.293  -8.792  1.00  0.00     0.174 C 
ATOM     11  O   UNL     1      -9.775  86.495  -8.795  1.00  0.00    -0.294 OA
ENDROOT
BRANCH   2  12
ATOM     12  C   UNL     1      -6.185  83.265  -8.362  1.00  0.00    -0.007 A 
ATOM     13  C   UNL     1      -5.673  83.020  -9.648  1.00  0.00     0.011 A 
ATOM     14  C   UNL     1      -5.344  83.102  -7.246  1.00  0.00     0.011 A 
ATOM     15  C   UNL     1      -4.336  82.645  -9.815  1.00  0.00     0.046 A 
ATOM     16  C   UNL     1      -4.009  82.726  -7.418  1.00  0.00     0.046 A 
ATOM     17  C   UNL     1      -3.501  82.498  -8.703  1.00  0.00     0.115 A 
BRANCH  17  18
ATOM     18  O   UNL     1      -2.172  82.123  -8.887  1.00  0.00    -0.508 OA
ATOM     19  H   UNL     1      -1.831  81.216  -8.587  1.00  0.00     0.293 HD
ENDBRANCH  17  18
ENDBRANCH   2  12
BRANCH   8  20
ATOM     20  O   UNL     1     -12.441  85.559  -8.879  1.00  0.00    -0.507 OA
ATOM     21  H   UNL     1     -11.982  86.424  -8.636  1.00  0.00     0.293 HD
ENDBRANCH   8  20
BRANCH   6  22
ATOM     22  O   UNL     1     -12.863  80.861  -9.714  1.00  0.00    -0.508 OA
ATOM     23  H   UNL     1     -13.578  80.910 -10.431  1.00  0.00     0.293 HD
ENDBRANCH   6  22
TORSDOF 4
ENDMDL
MODEL 4
REMARK VINA RESULT:    -5.238      6.525      9.124
REMARK INTER + INTRA:          -6.279
REMARK INTER:                  -5.988
REMARK INTRA:                  -0.291
REMARK UNBOUND:                -0.276
REMARK SMILES O=C1C[C@H](c2ccc(O)cc2)Oc2cc(O)cc(O)c21
REMARK SMILES IDX 3 1 4 2 12 3 13 4 14 5 15 6 17 7 18 8 20 9 2 10 1 11 5 12
REMARK SMILES IDX 6 13 11 14 7 15 10 16 8 17 9 18 19 20 16 22
REMARK H PARENT 9 19 19 21 16 23
REMARK Flexibility Score: inf
ROOT
ATOM      1  C   UNL     1      -6.573  87.271  -9.446  1.00  0.00     0.131 C 
ATOM      2  C   UNL     1      -5.571  87.607  -8.337  1.00  0.00     0.211 C 
ATOM      3  O   UNL     1      -4.394  86.812  -8.481  1.00  0.00    -0.484 OA
ATOM      4  C   UNL     1      -4.460  85.439  -8.743  1.00  0.00     0.138 A 
ATOM      5  C   UNL     1      -3.315  84.662  -8.556  1.00  0.00     0.093 A 
ATOM      6  C   UNL     1      -3.355  83.285  -8.782  1.00  0.00     0.123 A 
ATOM      7  C   UNL     1      -4.549  82.683  -9.180  1.00  0.00     0.093 A 
ATOM      8  C   UNL     1      -5.712  83.440  -9.367  1.00  0.00     0.133 A 
ATOM      9  C   UNL     1      -5.665  84.853  -9.195  1.00  0.00     0.102 A 
ATOM     10  C   UNL     1      -6.779  85.783  -9.538  1.00  0.00     0.174 C 
ATOM     11  O   UNL     1      -7.867  85.366 -10.015  1.00  0.00    -0.294 OA
ENDROOT
BRANCH   2  12
ATOM     12  C   UNL     1      -5.213  89.073  -8.364  1.00  0.00    -0.007 A 
ATOM     13  C   UNL     1      -5.612  89.877  -9.446  1.00  0.00     0.011 A 
ATOM     14  C   UNL     1      -4.431  89.640  -7.341  1.00  0.00     0.011 A 
ATOM     15  C   UNL     1      -5.257  91.229  -9.490  1.00  0.00     0.046 A 
ATOM     16  C   UNL     1      -4.077  90.991  -7.389  1.00  0.00     0.046 A 
ATOM     17  C   UNL     1      -4.491  91.790  -8.463  1.00  0.00     0.115 A 
BRANCH  17  18
ATOM     18  O   UNL     1      -4.145  93.138  -8.521  1.00  0.00    -0.508 OA
ATOM     19  H   UNL     1      -3.971  93.602  -9.407  1.00  0.00     0.293 HD
ENDBRANCH  17  18
ENDBRANCH   2  12
BRANCH   8  20
ATOM     20  O   UNL     1      -6.873  82.739  -9.701  1.00  0.00    -0.507 OA
ATOM     21  H   UNL     1      -6.982  82.176 -10.530  1.00  0.00     0.293 HD
ENDBRANCH   8  20
BRANCH   6  22
ATOM     22  O   UNL     1      -2.215  82.503  -8.604  1.00  0.00    -0.508 OA
ATOM     23  H   UNL     1      -2.269  81.568  -8.217  1.00  0.00     0.293 HD
ENDBRANCH   6  22
TORSDOF 4
ENDMDL
MODEL 5
REMARK VINA RESULT:    -5.191      2.891      4.110
REMARK INTER + INTRA:          -6.225
REMARK INTER:                  -5.920
REMARK INTRA:                  -0.305
REMARK UNBOUND:                -0.276
REMARK SMILES O=C1C[C@H](c2ccc(O)cc2)Oc2cc(O)cc(O)c21
REMARK SMILES IDX 3 1 4 2 12 3 13 4 14 5 15 6 17 7 18 8 20 9 2 10 1 11 5 12
REMARK SMILES IDX 6 13 11 14 7 15 10 16 8 17 9 18 19 20 16 22
REMARK H PARENT 9 19 19 21 16 23
REMARK Flexibility Score: inf
ROOT
ATOM      1  C   UNL     1      -3.873  90.299 -14.790  1.00  0.00     0.131 C 
ATOM      2  C   UNL     1      -5.242  90.943 -14.543  1.00  0.00     0.211 C 
ATOM      3  O   UNL     1      -5.937  91.107 -15.779  1.00  0.00    -0.484 OA
ATOM      4  C   UNL     1      -5.303  91.619 -16.917  1.00  0.00     0.138 A 
ATOM      5  C   UNL     1      -6.089  92.057 -17.985  1.00  0.00     0.093 A 
ATOM      6  C   UNL     1      -5.490  92.597 -19.125  1.00  0.00     0.123 A 
ATOM      7  C   UNL     1      -4.101  92.715 -19.186  1.00  0.00     0.093 A 
ATOM      8  C   UNL     1      -3.293  92.290 -18.124  1.00  0.00     0.133 A 
ATOM      9  C   UNL     1      -3.893  91.684 -16.984  1.00  0.00     0.102 A 
ATOM     10  C   UNL     1      -3.135  91.030 -15.878  1.00  0.00     0.174 C 
ATOM     11  O   UNL     1      -1.877  90.972 -15.880  1.00  0.00    -0.294 OA
ENDROOT
BRANCH   2  12
ATOM     12  C   UNL     1      -6.064  90.106 -13.594  1.00  0.00    -0.007 A 
ATOM     13  C   UNL     1      -7.188  89.403 -14.064  1.00  0.00     0.011 A 
ATOM     14  C   UNL     1      -5.754  90.063 -12.222  1.00  0.00     0.011 A 
ATOM     15  C   UNL     1      -7.970  88.650 -13.182  1.00  0.00     0.046 A 
ATOM     16  C   UNL     1      -6.539  89.310 -11.344  1.00  0.00     0.046 A 
ATOM     17  C   UNL     1      -7.648  88.600 -11.822  1.00  0.00     0.115 A 
BRANCH  17  18
ATOM     18  O   UNL     1      -8.437  87.846 -10.956  1.00  0.00    -0.508 OA
ATOM     19  H   UNL     1      -8.756  88.221 -10.069  1.00  0.00     0.293 HD
ENDBRANCH  17  18
ENDBRANCH   2  12
BRANCH   8  20
ATOM     20  O   UNL     1      -1.919  92.510 -18.251  1.00  0.00    -0.507 OA
ATOM     21  H   UNL     1      -1.229  91.779 -18.338  1.00  0.00     0.293 HD
ENDBRANCH   8  20
BRANCH   6  22
ATOM     22  O   UNL     1      -6.266  93.030 -20.198  1.00  0.00    -0.508 OA
ATOM     23  H   UNL     1      -5.847  93.290 -21.084  1.00  0.00     0.293 HD
ENDBRANCH   6  22
TORSDOF 4
ENDMDL
MODEL 6
REMARK VINA RESULT:    -5.161      1.759      1.988
REMARK INTER + INTRA:          -6.192
REMARK INTER:                  -5.891
REMARK INTRA:                  -0.301
REMARK UNBOUND:                -0.276
REMARK SMILES O=C1C[C@H](c2ccc(O)cc2)Oc2cc(O)cc(O)c21
REMARK SMILES IDX 3 1 4 2 12 3 13 4 14 5 15 6 17 7 18 8 20 9 2 10 1 11 5 12
REMARK SMILES IDX 6 13 11 14 7 15 10 16 8 17 9 18 19 20 16 22
REMARK H PARENT 9 19 19 21 16 23
REMARK Flexibility Score: inf
ROOT
ATOM      1  C   UNL     1      -8.084  91.456 -12.241  1.00  0.00     0.131 C 
ATOM      2  C   UNL     1      -8.733  91.615 -13.621  1.00  0.00     0.211 C 
ATOM      3  O   UNL     1      -7.964  90.927 -14.607  1.00  0.00    -0.484 OA
ATOM      4  C   UNL     1      -6.570  91.032 -14.658  1.00  0.00     0.138 A 
ATOM      5  C   UNL     1      -5.905  90.613 -15.813  1.00  0.00     0.093 A 
ATOM      6  C   UNL     1      -4.516  90.729 -15.906  1.00  0.00     0.123 A 
ATOM      7  C   UNL     1      -3.795  91.282 -14.847  1.00  0.00     0.093 A 
ATOM      8  C   UNL     1      -4.440  91.715 -13.683  1.00  0.00     0.133 A 
ATOM      9  C   UNL     1      -5.849  91.547 -13.556  1.00  0.00     0.102 A 
ATOM     10  C   UNL     1      -6.620  91.798 -12.305  1.00  0.00     0.174 C 
ATOM     11  O   UNL     1      -6.059  92.190 -11.248  1.00  0.00    -0.294 OA
ENDROOT
BRANCH   2  12
ATOM     12  C   UNL     1     -10.149  91.092 -13.610  1.00  0.00    -0.007 A 
ATOM     13  C   UNL     1     -11.204  91.917 -13.182  1.00  0.00     0.011 A 
ATOM     14  C   UNL     1     -10.425  89.761 -13.972  1.00  0.00     0.011 A 
ATOM     15  C   UNL     1     -12.513  91.427 -13.143  1.00  0.00     0.046 A 
ATOM     16  C   UNL     1     -11.734  89.274 -13.930  1.00  0.00     0.046 A 
ATOM     17  C   UNL     1     -12.782  90.107 -13.517  1.00  0.00     0.115 A 
BRANCH  17  18
ATOM     18  O   UNL     1     -14.092  89.634 -13.471  1.00  0.00    -0.508 OA
ATOM     19  H   UNL     1     -14.884  90.255 -13.593  1.00  0.00     0.293 HD
ENDBRANCH  17  18
ENDBRANCH   2  12
BRANCH   8  20
ATOM     20  O   UNL     1      -3.642  92.315 -12.706  1.00  0.00    -0.507 OA
ATOM     21  H   UNL     1      -3.915  92.441 -11.744  1.00  0.00     0.293 HD
ENDBRANCH   8  20
BRANCH   6  22
ATOM     22  O   UNL     1      -3.844  90.307 -17.052  1.00  0.00    -0.508 OA
ATOM     23  H   UNL     1      -4.324  90.198 -17.938  1.00  0.00     0.293 HD
ENDBRANCH   6  22
TORSDOF 4
ENDMDL
MODEL 7
REMARK VINA RESULT:    -5.135      2.293      6.857
REMARK INTER + INTRA:          -6.162
REMARK INTER:                  -5.846
REMARK INTRA:                  -0.316
REMARK UNBOUND:                -0.276
REMARK SMILES O=C1C[C@H](c2ccc(O)cc2)Oc2cc(O)cc(O)c21
REMARK SMILES IDX 3 1 4 2 12 3 13 4 14 5 15 6 17 7 18 8 20 9 2 10 1 11 5 12
REMARK SMILES IDX 6 13 11 14 7 15 10 16 8 17 9 18 19 20 16 22
REMARK H PARENT 9 19 19 21 16 23
REMARK Flexibility Score: inf
ROOT
ATOM      1  C   UNL     1      -6.520  89.832 -11.984  1.00  0.00     0.131 C 
ATOM      2  C   UNL     1      -6.628  89.209 -13.380  1.00  0.00     0.211 C 
ATOM      3  O   UNL     1      -7.919  89.465 -13.933  1.00  0.00    -0.484 OA
ATOM      4  C   UNL     1      -9.087  89.299 -13.182  1.00  0.00     0.138 A 
ATOM      5  C   UNL     1     -10.314  89.249 -13.848  1.00  0.00     0.093 A 
ATOM      6  C   UNL     1     -11.497  89.057 -13.131  1.00  0.00     0.123 A 
ATOM      7  C   UNL     1     -11.448  88.899 -11.745  1.00  0.00     0.093 A 
ATOM      8  C   UNL     1     -10.229  88.939 -11.057  1.00  0.00     0.133 A 
ATOM      9  C   UNL     1      -9.026  89.192 -11.774  1.00  0.00     0.102 A 
ATOM     10  C   UNL     1      -7.699  89.438 -11.137  1.00  0.00     0.174 C 
ATOM     11  O   UNL     1      -7.553  89.434  -9.887  1.00  0.00    -0.294 OA
ENDROOT
BRANCH   2  12
ATOM     12  C   UNL     1      -5.556  89.750 -14.294  1.00  0.00    -0.007 A 
ATOM     13  C   UNL     1      -4.295  90.095 -13.776  1.00  0.00     0.011 A 
ATOM     14  C   UNL     1      -5.819  89.971 -15.658  1.00  0.00     0.011 A 
ATOM     15  C   UNL     1      -3.308  90.625 -14.613  1.00  0.00     0.046 A 
ATOM     16  C   UNL     1      -4.831  90.502 -16.491  1.00  0.00     0.046 A 
ATOM     17  C   UNL     1      -3.572  90.829 -15.971  1.00  0.00     0.115 A 
BRANCH  17  18
ATOM     18  O   UNL     1      -2.579  91.359 -16.792  1.00  0.00    -0.508 OA
ATOM     19  H   UNL     1      -2.792  92.053 -17.501  1.00  0.00     0.293 HD
ENDBRANCH  17  18
ENDBRANCH   2  12
BRANCH   8  20
ATOM     20  O   UNL     1     -10.276  88.704  -9.680  1.00  0.00    -0.507 OA
ATOM     21  H   UNL     1     -10.955  88.116  -9.224  1.00  0.00     0.293 HD
ENDBRANCH   8  20
BRANCH   6  22
ATOM     22  O   UNL     1     -12.725  89.012 -13.786  1.00  0.00    -0.508 OA
ATOM     23  H   UNL     1     -12.794  88.763 -14.766  1.00  0.00     0.293 HD
ENDBRANCH   6  22
TORSDOF 4
ENDMDL
MODEL 8
REMARK VINA RESULT:    -5.045      1.803      1.873
REMARK INTER + INTRA:          -6.059
REMARK INTER:                  -5.758
REMARK INTRA:                  -0.301
REMARK UNBOUND:                -0.276
REMARK SMILES O=C1C[C@H](c2ccc(O)cc2)Oc2cc(O)cc(O)c21
REMARK SMILES IDX 3 1 4 2 12 3 13 4 14 5 15 6 17 7 18 8 20 9 2 10 1 11 5 12
REMARK SMILES IDX 6 13 11 14 7 15 10 16 8 17 9 18 19 20 16 22
REMARK H PARENT 9 19 19 21 16 23
REMARK Flexibility Score: inf
ROOT
ATOM      1  C   UNL     1      -7.854  89.407 -14.048  1.00  0.00     0.131 C 
ATOM      2  C   UNL     1      -8.524  90.103 -12.857  1.00  0.00     0.211 C 
ATOM      3  O   UNL     1      -8.069  91.452 -12.758  1.00  0.00    -0.484 OA
ATOM      4  C   UNL     1      -6.715  91.783 -12.878  1.00  0.00     0.138 A 
ATOM      5  C   UNL     1      -6.290  93.046 -12.458  1.00  0.00     0.093 A 
ATOM      6  C   UNL     1      -4.942  93.398 -12.540  1.00  0.00     0.123 A 
ATOM      7  C   UNL     1      -4.014  92.477 -13.026  1.00  0.00     0.093 A 
ATOM      8  C   UNL     1      -4.414  91.202 -13.446  1.00  0.00     0.133 A 
ATOM      9  C   UNL     1      -5.795  90.856 -13.421  1.00  0.00     0.102 A 
ATOM     10  C   UNL     1      -6.364  89.608 -14.007  1.00  0.00     0.174 C 
ATOM     11  O   UNL     1      -5.638  88.753 -14.577  1.00  0.00    -0.294 OA
ENDROOT
BRANCH   2  12
ATOM     12  C   UNL     1     -10.026  90.071 -12.993  1.00  0.00    -0.007 A 
ATOM     13  C   UNL     1     -10.829  90.852 -12.143  1.00  0.00     0.011 A 
ATOM     14  C   UNL     1     -10.645  89.222 -13.928  1.00  0.00     0.011 A 
ATOM     15  C   UNL     1     -12.223  90.803 -12.245  1.00  0.00     0.046 A 
ATOM     16  C   UNL     1     -12.038  89.174 -14.027  1.00  0.00     0.046 A 
ATOM     17  C   UNL     1     -12.831  89.967 -13.187  1.00  0.00     0.115 A 
BRANCH  17  18
ATOM     18  O   UNL     1     -14.220  89.929 -13.276  1.00  0.00    -0.508 OA
ATOM     19  H   UNL     1     -14.749  90.716 -13.635  1.00  0.00     0.293 HD
ENDBRANCH  17  18
ENDBRANCH   2  12
BRANCH   8  20
ATOM     20  O   UNL     1      -3.405  90.328 -13.855  1.00  0.00    -0.507 OA
ATOM     21  H   UNL     1      -2.568  90.609 -14.343  1.00  0.00     0.293 HD
ENDBRANCH   8  20
BRANCH   6  22
ATOM     22  O   UNL     1      -4.511  94.658 -12.130  1.00  0.00    -0.508 OA
ATOM     23  H   UNL     1      -5.158  95.345 -11.759  1.00  0.00     0.293 HD
ENDBRANCH   6  22
TORSDOF 4
ENDMDL
MODEL 9
REMARK VINA RESULT:    -4.961      7.533      9.290
REMARK INTER + INTRA:          -5.962
REMARK INTER:                  -5.658
REMARK INTRA:                  -0.304
REMARK UNBOUND:                -0.276
REMARK SMILES O=C1C[C@H](c2ccc(O)cc2)Oc2cc(O)cc(O)c21
REMARK SMILES IDX 3 1 4 2 12 3 13 4 14 5 15 6 17 7 18 8 20 9 2 10 1 11 5 12
REMARK SMILES IDX 6 13 11 14 7 15 10 16 8 17 9 18 19 20 16 22
REMARK H PARENT 9 19 19 21 16 23
REMARK Flexibility Score: inf
ROOT
ATOM      1  C   UNL     1      -3.421  87.543  -6.641  1.00  0.00     0.131 C 
ATOM      2  C   UNL     1      -4.026  88.048  -7.956  1.00  0.00     0.211 C 
ATOM      3  O   UNL     1      -4.881  87.052  -8.517  1.00  0.00    -0.484 OA
ATOM      4  C   UNL     1      -4.498  85.708  -8.587  1.00  0.00     0.138 A 
ATOM      5  C   UNL     1      -5.215  84.846  -9.420  1.00  0.00     0.093 A 
ATOM      6  C   UNL     1      -4.842  83.505  -9.533  1.00  0.00     0.123 A 
ATOM      7  C   UNL     1      -3.739  83.031  -8.823  1.00  0.00     0.093 A 
ATOM      8  C   UNL     1      -3.001  83.878  -7.986  1.00  0.00     0.133 A 
ATOM      9  C   UNL     1      -3.410  85.231  -7.821  1.00  0.00     0.102 A 
ATOM     10  C   UNL     1      -2.821  86.176  -6.827  1.00  0.00     0.174 C 
ATOM     11  O   UNL     1      -1.896  85.827  -6.049  1.00  0.00    -0.294 OA
ENDROOT
BRANCH   2  12
ATOM     12  C   UNL     1      -4.796  89.327  -7.735  1.00  0.00    -0.007 A 
ATOM     13  C   UNL     1      -6.202  89.319  -7.761  1.00  0.00     0.011 A 
ATOM     14  C   UNL     1      -4.122  90.549  -7.557  1.00  0.00     0.011 A 
ATOM     15  C   UNL     1      -6.919  90.506  -7.587  1.00  0.00     0.046 A 
ATOM     16  C   UNL     1      -4.842  91.734  -7.384  1.00  0.00     0.046 A 
ATOM     17  C   UNL     1      -6.243  91.716  -7.397  1.00  0.00     0.115 A 
BRANCH  17  18
ATOM     18  O   UNL     1      -6.971  92.891  -7.225  1.00  0.00    -0.508 OA
ATOM     19  H   UNL     1      -7.385  93.377  -8.014  1.00  0.00     0.293 HD
ENDBRANCH  17  18
ENDBRANCH   2  12
BRANCH   8  20
ATOM     20  O   UNL     1      -1.875  83.328  -7.369  1.00  0.00    -0.507 OA
ATOM     21  H   UNL     1      -0.964  83.263  -7.796  1.00  0.00     0.293 HD
ENDBRANCH   8  20
BRANCH   6  22
ATOM     22  O   UNL     1      -5.556  82.637 -10.357  1.00  0.00    -0.508 OA
ATOM     23  H   UNL     1      -6.513  82.376 -10.150  1.00  0.00     0.293 HD
ENDBRANCH   6  22
TORSDOF 4
ENDMDL
