MODEL 1
REMARK VINA RESULT:    -3.775      0.000      0.000
REMARK INTER + INTRA:          -5.024
REMARK INTER:                  -5.320
REMARK INTRA:                   0.295
REMARK UNBOUND:                 0.295
REMARK SMILES CC1=CCC(=C(C)C)C(=O)CC(C)=CCC1
REMARK SMILES IDX 12 1 14 2 13 3 15 4 16 5 2 6 1 7 3 8 11 10 9 11 10 12 5 13
REMARK SMILES IDX 6 14 7 15 8 16 4 17
REMARK H PARENT
REMARK Flexibility Score: 60.00
ROOT
ATOM      1  C   UNL     1     129.253 143.554 115.646  1.00  0.00    -0.070 C 
ATOM      2  C   UNL     1     130.468 143.129 116.084  1.00  0.00    -0.027 C 
ATOM      3  C   UNL     1     128.773 144.889 116.163  1.00  0.00     0.039 C 
ENDROOT
BRANCH   2   4
ATOM      4  C   UNL     1     131.227 141.905 115.633  1.00  0.00     0.032 C 
BRANCH   4   5
ATOM      5  C   UNL     1     130.929 140.630 116.441  1.00  0.00     0.034 C 
BRANCH   5   6
ATOM      6  C   UNL     1     130.713 139.367 115.623  1.00  0.00    -0.077 C 
ATOM      7  C   UNL     1     131.914 138.687 115.013  1.00  0.00     0.039 C 
ATOM      8  C   UNL     1     129.489 138.866 115.332  1.00  0.00    -0.023 CG0
ATOM      9  G   UNL     1     128.193 139.308 115.958  1.00  0.00     0.000 G0
ENDBRANCH   5   6
ENDBRANCH   4   5
ENDBRANCH   2   4
BRANCH   1  10
ATOM     10  C   UNL     1     128.290 142.747 114.780  1.00  0.00     0.111 C 
BRANCH  10  11
ATOM     11  C   UNL     1     127.459 141.729 115.508  1.00  0.00     0.163 C 
ATOM     12  O   UNL     1     126.834 142.062 116.550  1.00  0.00    -0.294 OA
BRANCH  11  13
ATOM     13  C   UNL     1     127.455 140.308 115.073  1.00  0.00    -0.002 C 
ATOM     14  C   UNL     1     126.777 139.944 113.949  1.00  0.00    -0.069 C 
ATOM     15  C   UNL     1     126.710 138.505 113.493  1.00  0.00     0.039 C 
ATOM     16  C   UNL     1     126.038 140.977 113.128  1.00  0.00     0.039 C 
BRANCH  13  17
ATOM     17  C   UNL     1     128.182 139.304 115.958  1.00  0.00     0.066 CG0
ATOM     18  G   UNL     1     129.480 138.894 115.315  1.00  0.00     0.000 G0
ENDBRANCH  13  17
ENDBRANCH  11  13
ENDBRANCH  10  11
ENDBRANCH   1  10
TORSDOF 0
ENDMDL
MODEL 2
REMARK VINA RESULT:    -3.513     15.272     17.768
REMARK INTER + INTRA:          -4.655
REMARK INTER:                  -5.056
REMARK INTRA:                   0.401
REMARK UNBOUND:                 0.295
REMARK SMILES CC1=CCC(=C(C)C)C(=O)CC(C)=CCC1
REMARK SMILES IDX 12 1 14 2 13 3 15 4 16 5 2 6 1 7 3 8 11 10 9 11 10 12 5 13
REMARK SMILES IDX 6 14 7 15 8 16 4 17
REMARK H PARENT
REMARK Flexibility Score: 60.00
ROOT
ATOM      1  C   UNL     1     145.044 135.031 122.176  1.00  0.00    -0.070 C 
ATOM      2  C   UNL     1     145.664 134.205 123.058  1.00  0.00    -0.027 C 
ATOM      3  C   UNL     1     145.756 136.319 121.835  1.00  0.00     0.039 C 
ENDROOT
BRANCH   2   4
ATOM      4  C   UNL     1     145.234 132.818 123.471  1.00  0.00     0.032 C 
BRANCH   4   5
ATOM      5  C   UNL     1     144.810 132.688 124.944  1.00  0.00     0.034 C 
BRANCH   5   6
ATOM      6  C   UNL     1     143.951 133.820 125.485  1.00  0.00    -0.077 C 
ATOM      7  C   UNL     1     144.538 134.738 126.528  1.00  0.00     0.039 C 
ATOM      8  C   UNL     1     142.651 133.996 125.149  1.00  0.00    -0.023 CG0
ATOM      9  G   UNL     1     141.933 133.286 124.032  1.00  0.00     0.000 G0
ENDBRANCH   5   6
ENDBRANCH   4   5
ENDBRANCH   2   4
BRANCH   1  10
ATOM     10  C   UNL     1     143.646 134.826 121.599  1.00  0.00     0.111 C 
BRANCH  10  11
ATOM     11  C   UNL     1     142.510 135.274 122.475  1.00  0.00     0.163 C 
ATOM     12  O   UNL     1     142.470 136.465 122.886  1.00  0.00    -0.294 OA
BRANCH  11  13
ATOM     13  C   UNL     1     141.495 134.300 122.949  1.00  0.00    -0.002 C 
ATOM     14  C   UNL     1     140.219 134.363 122.476  1.00  0.00    -0.069 C 
ATOM     15  C   UNL     1     139.144 133.420 122.963  1.00  0.00     0.039 C 
ATOM     16  C   UNL     1     139.828 135.410 121.457  1.00  0.00     0.039 C 
BRANCH  13  17
ATOM     17  C   UNL     1     141.932 133.293 124.006  1.00  0.00     0.066 CG0
ATOM     18  G   UNL     1     142.660 133.998 125.119  1.00  0.00     0.000 G0
ENDBRANCH  13  17
ENDBRANCH  11  13
ENDBRANCH  10  11
ENDBRANCH   1  10
TORSDOF 0
ENDMDL
MODEL 3
REMARK VINA RESULT:    -3.460      9.426     11.833
REMARK INTER + INTRA:          -4.581
REMARK INTER:                  -4.973
REMARK INTRA:                   0.392
REMARK UNBOUND:                 0.295
REMARK SMILES CC1=CCC(=C(C)C)C(=O)CC(C)=CCC1
REMARK SMILES IDX 12 1 14 2 13 3 15 4 16 5 2 6 1 7 3 8 11 10 9 11 10 12 5 13
REMARK SMILES IDX 6 14 7 15 8 16 4 17
REMARK H PARENT
REMARK Flexibility Score: 60.00
ROOT
ATOM      1  C   UNL     1     137.932 140.471 117.239  1.00  0.00    -0.070 C 
ATOM      2  C   UNL     1     139.042 141.217 117.001  1.00  0.00    -0.027 C 
ATOM      3  C   UNL     1     136.602 141.182 117.148  1.00  0.00     0.039 C 
ENDROOT
BRANCH   2   4
ATOM      4  C   UNL     1     140.469 140.733 116.908  1.00  0.00     0.032 C 
BRANCH   4   5
ATOM      5  C   UNL     1     141.403 141.269 118.006  1.00  0.00     0.034 C 
BRANCH   5   6
ATOM      6  C   UNL     1     140.839 141.254 119.417  1.00  0.00    -0.077 C 
ATOM      7  C   UNL     1     140.594 142.570 120.113  1.00  0.00     0.039 C 
ATOM      8  C   UNL     1     140.629 140.118 120.125  1.00  0.00    -0.023 CG0
ATOM      9  G   UNL     1     140.672 138.720 119.566  1.00  0.00     0.000 G0
ENDBRANCH   5   6
ENDBRANCH   4   5
ENDBRANCH   2   4
BRANCH   1  10
ATOM     10  C   UNL     1     137.923 139.018 117.706  1.00  0.00     0.111 C 
BRANCH  10  11
ATOM     11  C   UNL     1     138.143 138.806 119.177  1.00  0.00     0.163 C 
ATOM     12  O   UNL     1     137.382 139.366 120.010  1.00  0.00    -0.294 OA
BRANCH  11  13
ATOM     13  C   UNL     1     139.317 138.033 119.659  1.00  0.00    -0.002 C 
ATOM     14  C   UNL     1     139.139 136.796 120.201  1.00  0.00    -0.069 C 
ATOM     15  C   UNL     1     140.297 135.993 120.743  1.00  0.00     0.039 C 
ATOM     16  C   UNL     1     137.755 136.193 120.302  1.00  0.00     0.039 C 
BRANCH  13  17
ATOM     17  C   UNL     1     140.681 138.705 119.570  1.00  0.00     0.066 CG0
ATOM     18  G   UNL     1     140.602 140.107 120.113  1.00  0.00     0.000 G0
ENDBRANCH  13  17
ENDBRANCH  11  13
ENDBRANCH  10  11
ENDBRANCH   1  10
TORSDOF 0
ENDMDL
MODEL 4
REMARK VINA RESULT:    -3.398     13.193     15.831
REMARK INTER + INTRA:          -4.493
REMARK INTER:                  -5.001
REMARK INTRA:                   0.507
REMARK UNBOUND:                 0.295
REMARK SMILES CC1=CCC(=C(C)C)C(=O)CC(C)=CCC1
REMARK SMILES IDX 12 1 14 2 13 3 15 4 16 5 2 6 1 7 3 8 11 10 9 11 10 12 5 13
REMARK SMILES IDX 6 14 7 15 8 16 4 17
REMARK H PARENT
REMARK Flexibility Score: 60.00
ROOT
ATOM      1  C   UNL     1     139.187 134.409 122.907  1.00  0.00    -0.070 C 
ATOM      2  C   UNL     1     138.682 134.756 121.694  1.00  0.00    -0.027 C 
ATOM      3  C   UNL     1     139.180 132.938 123.251  1.00  0.00     0.039 C 
ENDROOT
BRANCH   2   4
ATOM      4  C   UNL     1     138.682 136.126 121.060  1.00  0.00     0.032 C 
BRANCH   4   5
ATOM      5  C   UNL     1     139.794 136.354 120.021  1.00  0.00     0.034 C 
BRANCH   5   6
ATOM      6  C   UNL     1     141.007 137.126 120.512  1.00  0.00    -0.077 C 
ATOM      7  C   UNL     1     141.098 138.600 120.206  1.00  0.00     0.039 C 
ATOM      8  C   UNL     1     142.061 136.544 121.132  1.00  0.00    -0.023 CG0
ATOM      9  G   UNL     1     142.098 135.131 121.652  1.00  0.00     0.000 G0
ENDBRANCH   5   6
ENDBRANCH   4   5
ENDBRANCH   2   4
BRANCH   1  10
ATOM     10  C   UNL     1     139.645 135.382 123.989  1.00  0.00     0.111 C 
BRANCH  10  11
ATOM     11  C   UNL     1     141.045 135.907 123.840  1.00  0.00     0.163 C 
ATOM     12  O   UNL     1     141.315 137.081 124.210  1.00  0.00    -0.294 OA
BRANCH  11  13
ATOM     13  C   UNL     1     142.087 135.094 123.161  1.00  0.00    -0.002 C 
ATOM     14  C   UNL     1     142.992 134.395 123.901  1.00  0.00    -0.069 C 
ATOM     15  C   UNL     1     144.095 133.591 123.254  1.00  0.00     0.039 C 
ATOM     16  C   UNL     1     142.938 134.426 125.412  1.00  0.00     0.039 C 
BRANCH  13  17
ATOM     17  C   UNL     1     142.121 135.132 121.639  1.00  0.00     0.066 CG0
ATOM     18  G   UNL     1     142.052 136.557 121.157  1.00  0.00     0.000 G0
ENDBRANCH  13  17
ENDBRANCH  11  13
ENDBRANCH  10  11
ENDBRANCH   1  10
TORSDOF 0
ENDMDL
MODEL 5
REMARK VINA RESULT:    -3.333     11.469     13.840
REMARK INTER + INTRA:          -4.401
REMARK INTER:                  -5.019
REMARK INTRA:                   0.618
REMARK UNBOUND:                 0.295
REMARK SMILES CC1=CCC(=C(C)C)C(=O)CC(C)=CCC1
REMARK SMILES IDX 12 1 14 2 13 3 15 4 16 5 2 6 1 7 3 8 11 10 9 11 10 12 5 13
REMARK SMILES IDX 6 14 7 15 8 16 4 17
REMARK H PARENT
REMARK Flexibility Score: 60.00
ROOT
ATOM      1  C   UNL     1     141.861 136.575 121.491  1.00  0.00    -0.070 C 
ATOM      2  C   UNL     1     142.288 135.649 122.389  1.00  0.00    -0.027 C 
ATOM      3  C   UNL     1     142.455 137.959 121.607  1.00  0.00     0.039 C 
ENDROOT
BRANCH   2   4
ATOM      4  C   UNL     1     141.951 134.178 122.418  1.00  0.00     0.032 C 
BRANCH   4   5
ATOM      5  C   UNL     1     140.952 133.769 123.514  1.00  0.00     0.034 C 
BRANCH   5   6
ATOM      6  C   UNL     1     140.000 134.858 123.979  1.00  0.00    -0.077 C 
ATOM      7  C   UNL     1     140.294 135.571 125.276  1.00  0.00     0.039 C 
ATOM      8  C   UNL     1     138.846 135.165 123.339  1.00  0.00    -0.023 CG0
ATOM      9  G   UNL     1     138.451 134.676 121.970  1.00  0.00     0.000 G0
ENDBRANCH   5   6
ENDBRANCH   4   5
ENDBRANCH   2   4
BRANCH   1  10
ATOM     10  C   UNL     1     140.753 136.369 120.463  1.00  0.00     0.111 C 
BRANCH  10  11
ATOM     11  C   UNL     1     139.379 136.802 120.892  1.00  0.00     0.163 C 
ATOM     12  O   UNL     1     139.184 137.993 121.256  1.00  0.00    -0.294 OA
BRANCH  11  13
ATOM     13  C   UNL     1     138.276 135.813 120.997  1.00  0.00    -0.002 C 
ATOM     14  C   UNL     1     137.132 135.993 120.279  1.00  0.00    -0.069 C 
ATOM     15  C   UNL     1     135.968 135.036 120.388  1.00  0.00     0.039 C 
ATOM     16  C   UNL     1     136.980 137.185 119.361  1.00  0.00     0.039 C 
BRANCH  13  17
ATOM     17  C   UNL     1     138.466 134.653 121.966  1.00  0.00     0.066 CG0
ATOM     18  G   UNL     1     138.843 135.176 123.328  1.00  0.00     0.000 G0
ENDBRANCH  13  17
ENDBRANCH  11  13
ENDBRANCH  10  11
ENDBRANCH   1  10
TORSDOF 0
ENDMDL
MODEL 6
REMARK VINA RESULT:    -3.329      8.612     11.140
REMARK INTER + INTRA:          -4.396
REMARK INTER:                  -4.600
REMARK INTRA:                   0.205
REMARK UNBOUND:                 0.295
REMARK SMILES CC1=CCC(=C(C)C)C(=O)CC(C)=CCC1
REMARK SMILES IDX 12 1 14 2 13 3 15 4 16 5 2 6 1 7 3 8 11 10 9 11 10 12 5 13
REMARK SMILES IDX 6 14 7 15 8 16 4 17
REMARK H PARENT
REMARK Flexibility Score: 60.00
ROOT
ATOM      1  C   UNL     1     139.336 140.882 117.393  1.00  0.00    -0.070 C 
ATOM      2  C   UNL     1     138.109 141.190 116.897  1.00  0.00    -0.027 C 
ATOM      3  C   UNL     1     140.518 141.138 116.489  1.00  0.00     0.039 C 
ENDROOT
BRANCH   2   4
ATOM      4  C   UNL     1     136.788 141.148 117.628  1.00  0.00     0.032 C 
BRANCH   4   5
ATOM      5  C   UNL     1     136.161 139.748 117.743  1.00  0.00     0.034 C 
BRANCH   5   6
ATOM      6  C   UNL     1     135.866 139.272 119.156  1.00  0.00    -0.077 C 
ATOM      7  C   UNL     1     134.768 139.953 119.934  1.00  0.00     0.039 C 
ATOM      8  C   UNL     1     136.598 138.327 119.793  1.00  0.00    -0.023 CG0
ATOM      9  G   UNL     1     137.628 137.438 119.148  1.00  0.00     0.000 G0
ENDBRANCH   5   6
ENDBRANCH   4   5
ENDBRANCH   2   4
BRANCH   1  10
ATOM     10  C   UNL     1     139.606 140.193 118.727  1.00  0.00     0.111 C 
BRANCH  10  11
ATOM     11  C   UNL     1     139.801 138.705 118.663  1.00  0.00     0.163 C 
ATOM     12  O   UNL     1     140.548 138.210 117.777  1.00  0.00    -0.294 OA
BRANCH  11  13
ATOM     13  C   UNL     1     139.035 137.805 119.563  1.00  0.00    -0.002 C 
ATOM     14  C   UNL     1     139.617 137.321 120.695  1.00  0.00    -0.069 C 
ATOM     15  C   UNL     1     138.891 136.369 121.616  1.00  0.00     0.039 C 
ATOM     16  C   UNL     1     141.035 137.705 121.055  1.00  0.00     0.039 C 
BRANCH  13  17
ATOM     17  C   UNL     1     137.626 137.419 119.131  1.00  0.00     0.066 CG0
ATOM     18  G   UNL     1     136.620 138.334 119.779  1.00  0.00     0.000 G0
ENDBRANCH  13  17
ENDBRANCH  11  13
ENDBRANCH  10  11
ENDBRANCH   1  10
TORSDOF 0
ENDMDL
MODEL 7
REMARK VINA RESULT:    -3.316     14.994     17.543
REMARK INTER + INTRA:          -4.378
REMARK INTER:                  -4.652
REMARK INTRA:                   0.274
REMARK UNBOUND:                 0.295
REMARK SMILES CC1=CCC(=C(C)C)C(=O)CC(C)=CCC1
REMARK SMILES IDX 12 1 14 2 13 3 15 4 16 5 2 6 1 7 3 8 11 10 9 11 10 12 5 13
REMARK SMILES IDX 6 14 7 15 8 16 4 17
REMARK H PARENT
REMARK Flexibility Score: 60.00
ROOT
ATOM      1  C   UNL     1     139.588 135.409 123.256  1.00  0.00    -0.070 C 
ATOM      2  C   UNL     1     139.044 135.981 124.362  1.00  0.00    -0.027 C 
ATOM      3  C   UNL     1     138.640 134.685 122.329  1.00  0.00     0.039 C 
ENDROOT
BRANCH   2   4
ATOM      4  C   UNL     1     139.738 136.857 125.376  1.00  0.00     0.032 C 
BRANCH   4   5
ATOM      5  C   UNL     1     140.781 136.134 126.245  1.00  0.00     0.034 C 
BRANCH   5   6
ATOM      6  C   UNL     1     142.173 136.743 126.249  1.00  0.00    -0.077 C 
ATOM      7  C   UNL     1     142.327 138.192 126.639  1.00  0.00     0.039 C 
ATOM      8  C   UNL     1     143.278 136.082 125.831  1.00  0.00    -0.023 CG0
ATOM      9  G   UNL     1     143.357 134.605 125.545  1.00  0.00     0.000 G0
ENDBRANCH   5   6
ENDBRANCH   4   5
ENDBRANCH   2   4
BRANCH   1  10
ATOM     10  C   UNL     1     141.078 135.335 122.937  1.00  0.00     0.111 C 
BRANCH  10  11
ATOM     11  C   UNL     1     141.816 134.176 123.545  1.00  0.00     0.163 C 
ATOM     12  O   UNL     1     141.224 133.076 123.710  1.00  0.00    -0.294 OA
BRANCH  11  13
ATOM     13  C   UNL     1     143.201 134.348 124.055  1.00  0.00    -0.002 C 
ATOM     14  C   UNL     1     144.257 134.231 123.203  1.00  0.00    -0.069 C 
ATOM     15  C   UNL     1     145.683 134.355 123.685  1.00  0.00     0.039 C 
ATOM     16  C   UNL     1     144.033 133.942 121.735  1.00  0.00     0.039 C 
BRANCH  13  17
ATOM     17  C   UNL     1     143.370 134.598 125.548  1.00  0.00     0.066 CG0
ATOM     18  G   UNL     1     143.285 136.073 125.837  1.00  0.00     0.000 G0
ENDBRANCH  13  17
ENDBRANCH  11  13
ENDBRANCH  10  11
ENDBRANCH   1  10
TORSDOF 0
ENDMDL
MODEL 8
REMARK VINA RESULT:    -3.306     14.226     16.760
REMARK INTER + INTRA:          -4.363
REMARK INTER:                  -4.779
REMARK INTRA:                   0.415
REMARK UNBOUND:                 0.295
REMARK SMILES CC1=CCC(=C(C)C)C(=O)CC(C)=CCC1
REMARK SMILES IDX 12 1 14 2 13 3 15 4 16 5 2 6 1 7 3 8 11 10 9 11 10 12 5 13
REMARK SMILES IDX 6 14 7 15 8 16 4 17
REMARK H PARENT
REMARK Flexibility Score: 60.00
ROOT
ATOM      1  C   UNL     1     143.926 133.893 122.471  1.00  0.00    -0.070 C 
ATOM      2  C   UNL     1     144.039 133.557 123.784  1.00  0.00    -0.027 C 
ATOM      3  C   UNL     1     145.213 134.118 121.713  1.00  0.00     0.039 C 
ENDROOT
BRANCH   2   4
ATOM      4  C   UNL     1     142.929 133.163 124.727  1.00  0.00     0.032 C 
BRANCH   4   5
ATOM      5  C   UNL     1     142.703 134.136 125.897  1.00  0.00     0.034 C 
BRANCH   5   6
ATOM      6  C   UNL     1     142.647 135.609 125.528  1.00  0.00    -0.077 C 
ATOM      7  C   UNL     1     143.722 136.527 126.053  1.00  0.00     0.039 C 
ATOM      8  C   UNL     1     141.630 136.164 124.826  1.00  0.00    -0.023 CG0
ATOM      9  G   UNL     1     140.553 135.404 124.099  1.00  0.00     0.000 G0
ENDBRANCH   5   6
ENDBRANCH   4   5
ENDBRANCH   2   4
BRANCH   1  10
ATOM     10  C   UNL     1     142.618 134.177 121.738  1.00  0.00     0.111 C 
BRANCH  10  11
ATOM     11  C   UNL     1     142.020 135.534 121.978  1.00  0.00     0.163 C 
ATOM     12  O   UNL     1     142.704 136.567 121.751  1.00  0.00    -0.294 OA
BRANCH  11  13
ATOM     13  C   UNL     1     140.670 135.666 122.585  1.00  0.00    -0.002 C 
ATOM     14  C   UNL     1     139.611 136.036 121.812  1.00  0.00    -0.069 C 
ATOM     15  C   UNL     1     138.231 136.224 122.394  1.00  0.00     0.039 C 
ATOM     16  C   UNL     1     139.794 136.300 120.334  1.00  0.00     0.039 C 
BRANCH  13  17
ATOM     17  C   UNL     1     140.551 135.427 124.084  1.00  0.00     0.066 CG0
ATOM     18  G   UNL     1     141.641 136.169 124.812  1.00  0.00     0.000 G0
ENDBRANCH  13  17
ENDBRANCH  11  13
ENDBRANCH  10  11
ENDBRANCH   1  10
TORSDOF 0
ENDMDL
MODEL 9
REMARK VINA RESULT:    -3.050     12.044     13.975
REMARK INTER + INTRA:          -4.002
REMARK INTER:                  -4.198
REMARK INTRA:                   0.196
REMARK UNBOUND:                 0.295
REMARK SMILES CC1=CCC(=C(C)C)C(=O)CC(C)=CCC1
REMARK SMILES IDX 12 1 14 2 13 3 15 4 16 5 2 6 1 7 3 8 11 10 9 11 10 12 5 13
REMARK SMILES IDX 6 14 7 15 8 16 4 17
REMARK H PARENT
REMARK Flexibility Score: 60.00
ROOT
ATOM      1  C   UNL     1     140.151 140.708 117.552  1.00  0.00    -0.070 C 
ATOM      2  C   UNL     1     139.690 139.432 117.626  1.00  0.00    -0.027 C 
ATOM      3  C   UNL     1     140.414 141.257 116.169  1.00  0.00     0.039 C 
ENDROOT
BRANCH   2   4
ATOM      4  C   UNL     1     139.235 138.693 118.861  1.00  0.00     0.032 C 
BRANCH   4   5
ATOM      5  C   UNL     1     140.374 138.180 119.759  1.00  0.00     0.034 C 
BRANCH   5   6
ATOM      6  C   UNL     1     140.285 138.569 121.225  1.00  0.00    -0.077 C 
ATOM      7  C   UNL     1     139.123 138.058 122.040  1.00  0.00     0.039 C 
ATOM      8  C   UNL     1     141.143 139.430 121.823  1.00  0.00    -0.023 CG0
ATOM      9  G   UNL     1     142.435 139.928 121.230  1.00  0.00     0.000 G0
ENDBRANCH   5   6
ENDBRANCH   4   5
ENDBRANCH   2   4
BRANCH   1  10
ATOM     10  C   UNL     1     140.537 141.583 118.741  1.00  0.00     0.111 C 
BRANCH  10  11
ATOM     11  C   UNL     1     141.954 141.439 119.221  1.00  0.00     0.163 C 
ATOM     12  O   UNL     1     142.888 141.317 118.384  1.00  0.00    -0.294 OA
BRANCH  11  13
ATOM     13  C   UNL     1     142.250 141.329 120.672  1.00  0.00    -0.002 C 
ATOM     14  C   UNL     1     142.392 142.455 121.424  1.00  0.00    -0.069 C 
ATOM     15  C   UNL     1     142.736 142.391 122.894  1.00  0.00     0.039 C 
ATOM     16  C   UNL     1     142.235 143.823 120.797  1.00  0.00     0.039 C 
BRANCH  13  17
ATOM     17  C   UNL     1     142.437 139.929 121.243  1.00  0.00     0.066 CG0
ATOM     18  G   UNL     1     141.139 139.430 121.821  1.00  0.00     0.000 G0
ENDBRANCH  13  17
ENDBRANCH  11  13
ENDBRANCH  10  11
ENDBRANCH   1  10
TORSDOF 0
ENDMDL
