MODEL 1
REMARK VINA RESULT:    -5.124      0.000      0.000
REMARK INTER + INTRA:         -10.196
REMARK INTER:                  -7.969
REMARK INTRA:                  -2.227
REMARK UNBOUND:                -2.227
REMARK SMILES COc1cc(CNC(=O)CCCCC=CC(C)C)ccc1O
REMARK SMILES IDX 11 1 12 2 13 3 14 4 15 5 16 6 17 7 18 8 10 9 8 10 9 11 7 12
REMARK SMILES IDX 6 14 5 15 4 16 19 17 3 18 20 19 21 20 2 21 1 22 22 23
REMARK H PARENT 7 13 22 24
REMARK Flexibility Score: inf
ROOT
ATOM      1  C   UNL     1      60.499  -3.495  -3.158  1.00  0.00     0.010 C 
ENDROOT
BRANCH   1   2
ATOM      2  C   UNL     1      59.104  -3.547  -2.500  1.00  0.00     0.005 C 
BRANCH   2   3
ATOM      3  C   UNL     1      58.188  -2.363  -2.855  1.00  0.00     0.027 C 
BRANCH   3   4
ATOM      4  C   UNL     1      58.958  -1.168  -3.352  1.00  0.00    -0.031 C 
ATOM      5  C   UNL     1      58.522   0.082  -3.141  1.00  0.00    -0.028 C 
BRANCH   5   6
ATOM      6  C   UNL     1      59.273   1.283  -3.663  1.00  0.00     0.005 C 
ATOM      7  C   UNL     1      58.846   2.535  -2.892  1.00  0.00     0.012 C 
ATOM      8  C   UNL     1      60.780   1.051  -3.531  1.00  0.00     0.012 C 
ENDBRANCH   5   6
ENDBRANCH   3   4
ENDBRANCH   2   3
ENDBRANCH   1   2
BRANCH   1   9
ATOM      9  C   UNL     1      61.676  -3.638  -2.178  1.00  0.00     0.100 C 
BRANCH   9  10
ATOM     10  C   UNL     1      61.625  -2.618  -1.079  1.00  0.00     0.220 C 
ATOM     11  O   UNL     1      61.900  -1.413  -1.334  1.00  0.00    -0.275 OA
ATOM     12  N   UNL     1      61.236  -3.003   0.247  1.00  0.00    -0.352 N 
ATOM     13  H   UNL     1      61.193  -4.019   0.492  1.00  0.00     0.163 HD
BRANCH  12  14
ATOM     14  C   UNL     1      60.725  -2.038   1.217  1.00  0.00     0.151 C 
BRANCH  14  15
ATOM     15  C   UNL     1      59.286  -1.727   0.910  1.00  0.00    -0.025 A 
ATOM     16  C   UNL     1      58.329  -2.754   0.927  1.00  0.00     0.056 A 
ATOM     17  C   UNL     1      58.903  -0.434   0.527  1.00  0.00     0.009 A 
ATOM     18  C   UNL     1      56.993  -2.493   0.567  1.00  0.00     0.160 A 
ATOM     19  C   UNL     1      57.579  -0.168   0.177  1.00  0.00     0.050 A 
ATOM     20  C   UNL     1      56.623  -1.193   0.194  1.00  0.00     0.157 A 
BRANCH  18  21
ATOM     21  O   UNL     1      56.010  -3.496   0.562  1.00  0.00    -0.493 OA
ATOM     22  C   UNL     1      55.381  -4.013   1.730  1.00  0.00     0.278 C 
ENDBRANCH  18  21
BRANCH  20  23
ATOM     23  O   UNL     1      55.302  -0.929  -0.164  1.00  0.00    -0.504 OA
ATOM     24  H   UNL     1      54.995  -0.973  -1.128  1.00  0.00     0.293 HD
ENDBRANCH  20  23
ENDBRANCH  14  15
ENDBRANCH  12  14
ENDBRANCH   9  10
ENDBRANCH   1   9
TORSDOF 10
ENDMDL
MODEL 2
REMARK VINA RESULT:    -5.114      1.710      4.595
REMARK INTER + INTRA:         -10.181
REMARK INTER:                  -8.349
REMARK INTRA:                  -1.832
REMARK UNBOUND:                -2.227
REMARK SMILES COc1cc(CNC(=O)CCCCC=CC(C)C)ccc1O
REMARK SMILES IDX 11 1 12 2 13 3 14 4 15 5 16 6 17 7 18 8 10 9 8 10 9 11 7 12
REMARK SMILES IDX 6 14 5 15 4 16 19 17 3 18 20 19 21 20 2 21 1 22 22 23
REMARK H PARENT 7 13 22 24
REMARK Flexibility Score: inf
ROOT
ATOM      1  C   UNL     1      56.110  -1.237   1.415  1.00  0.00     0.010 C 
ENDROOT
BRANCH   1   2
ATOM      2  C   UNL     1      56.770  -0.849   0.074  1.00  0.00     0.005 C 
BRANCH   2   3
ATOM      3  C   UNL     1      58.143  -0.170   0.214  1.00  0.00     0.027 C 
BRANCH   3   4
ATOM      4  C   UNL     1      58.631   0.416  -1.083  1.00  0.00    -0.031 C 
ATOM      5  C   UNL     1      57.862   1.235  -1.815  1.00  0.00    -0.028 C 
BRANCH   5   6
ATOM      6  C   UNL     1      58.333   1.802  -3.132  1.00  0.00     0.005 C 
ATOM      7  C   UNL     1      58.270   3.331  -3.090  1.00  0.00     0.012 C 
ATOM      8  C   UNL     1      59.759   1.325  -3.422  1.00  0.00     0.012 C 
ENDBRANCH   5   6
ENDBRANCH   3   4
ENDBRANCH   2   3
ENDBRANCH   1   2
BRANCH   1   9
ATOM      9  C   UNL     1      55.484  -2.643   1.438  1.00  0.00     0.100 C 
BRANCH   9  10
ATOM     10  C   UNL     1      56.487  -3.715   1.126  1.00  0.00     0.220 C 
ATOM     11  O   UNL     1      56.401  -4.350   0.040  1.00  0.00    -0.275 OA
ATOM     12  N   UNL     1      57.555  -3.993   2.042  1.00  0.00    -0.352 N 
ATOM     13  H   UNL     1      57.513  -3.601   3.010  1.00  0.00     0.163 HD
BRANCH  12  14
ATOM     14  C   UNL     1      58.786  -4.656   1.621  1.00  0.00     0.151 C 
BRANCH  14  15
ATOM     15  C   UNL     1      59.722  -3.647   1.014  1.00  0.00    -0.025 A 
ATOM     16  C   UNL     1      59.916  -3.620  -0.375  1.00  0.00     0.056 A 
ATOM     17  C   UNL     1      60.467  -2.785   1.832  1.00  0.00     0.009 A 
ATOM     18  C   UNL     1      60.847  -2.734  -0.951  1.00  0.00     0.160 A 
ATOM     19  C   UNL     1      61.385  -1.900   1.266  1.00  0.00     0.050 A 
ATOM     20  C   UNL     1      61.579  -1.872  -0.122  1.00  0.00     0.157 A 
BRANCH  18  21
ATOM     21  O   UNL     1      61.076  -2.684  -2.335  1.00  0.00    -0.493 OA
ATOM     22  C   UNL     1      60.089  -2.340  -3.303  1.00  0.00     0.278 C 
ENDBRANCH  18  21
BRANCH  20  23
ATOM     23  O   UNL     1      62.502  -0.993  -0.684  1.00  0.00    -0.504 OA
ATOM     24  H   UNL     1      62.509  -0.797  -1.679  1.00  0.00     0.293 HD
ENDBRANCH  20  23
ENDBRANCH  14  15
ENDBRANCH  12  14
ENDBRANCH   9  10
ENDBRANCH   1   9
TORSDOF 10
ENDMDL
MODEL 3
REMARK VINA RESULT:    -5.022      2.146      4.299
REMARK INTER + INTRA:         -10.037
REMARK INTER:                  -8.014
REMARK INTRA:                  -2.024
REMARK UNBOUND:                -2.227
REMARK SMILES COc1cc(CNC(=O)CCCCC=CC(C)C)ccc1O
REMARK SMILES IDX 11 1 12 2 13 3 14 4 15 5 16 6 17 7 18 8 10 9 8 10 9 11 7 12
REMARK SMILES IDX 6 14 5 15 4 16 19 17 3 18 20 19 21 20 2 21 1 22 22 23
REMARK H PARENT 7 13 22 24
REMARK Flexibility Score: inf
ROOT
ATOM      1  C   UNL     1      59.372   2.292  -3.375  1.00  0.00     0.010 C 
ENDROOT
BRANCH   1   2
ATOM      2  C   UNL     1      60.045   0.997  -3.876  1.00  0.00     0.005 C 
BRANCH   2   3
ATOM      3  C   UNL     1      60.869   0.255  -2.810  1.00  0.00     0.027 C 
BRANCH   3   4
ATOM      4  C   UNL     1      60.359  -1.138  -2.555  1.00  0.00    -0.031 C 
ATOM      5  C   UNL     1      59.573  -1.770  -3.439  1.00  0.00    -0.028 C 
BRANCH   5   6
ATOM      6  C   UNL     1      59.033  -3.154  -3.176  1.00  0.00     0.005 C 
ATOM      7  C   UNL     1      59.773  -3.782  -1.991  1.00  0.00     0.012 C 
ATOM      8  C   UNL     1      57.529  -3.082  -2.900  1.00  0.00     0.012 C 
ENDBRANCH   5   6
ENDBRANCH   3   4
ENDBRANCH   2   3
ENDBRANCH   1   2
BRANCH   1   9
ATOM      9  C   UNL     1      57.922   2.117  -2.893  1.00  0.00     0.100 C 
BRANCH   9  10
ATOM     10  C   UNL     1      57.850   1.483  -1.534  1.00  0.00     0.220 C 
ATOM     11  O   UNL     1      58.207   2.142  -0.520  1.00  0.00    -0.275 OA
ATOM     12  N   UNL     1      57.349   0.147  -1.387  1.00  0.00    -0.352 N 
ATOM     13  H   UNL     1      57.235  -0.453  -2.235  1.00  0.00     0.163 HD
BRANCH  12  14
ATOM     14  C   UNL     1      56.826  -0.349  -0.117  1.00  0.00     0.151 C 
BRANCH  14  15
ATOM     15  C   UNL     1      57.799  -1.325   0.484  1.00  0.00    -0.025 A 
ATOM     16  C   UNL     1      57.353  -2.587   0.907  1.00  0.00     0.056 A 
ATOM     17  C   UNL     1      59.134  -0.958   0.703  1.00  0.00     0.009 A 
ATOM     18  C   UNL     1      58.235  -3.483   1.544  1.00  0.00     0.160 A 
ATOM     19  C   UNL     1      60.014  -1.844   1.325  1.00  0.00     0.050 A 
ATOM     20  C   UNL     1      59.569  -3.104   1.748  1.00  0.00     0.157 A 
BRANCH  18  21
ATOM     21  O   UNL     1      57.823  -4.748   1.989  1.00  0.00    -0.493 OA
ATOM     22  C   UNL     1      56.481  -5.223   1.938  1.00  0.00     0.278 C 
ENDBRANCH  18  21
BRANCH  20  23
ATOM     23  O   UNL     1      60.447  -3.985   2.376  1.00  0.00    -0.504 OA
ATOM     24  H   UNL     1      61.147  -3.658   3.032  1.00  0.00     0.293 HD
ENDBRANCH  20  23
ENDBRANCH  14  15
ENDBRANCH  12  14
ENDBRANCH   9  10
ENDBRANCH   1   9
TORSDOF 10
ENDMDL
MODEL 4
REMARK VINA RESULT:    -5.009      2.127      4.759
REMARK INTER + INTRA:         -10.019
REMARK INTER:                  -7.854
REMARK INTRA:                  -2.164
REMARK UNBOUND:                -2.227
REMARK SMILES COc1cc(CNC(=O)CCCCC=CC(C)C)ccc1O
REMARK SMILES IDX 11 1 12 2 13 3 14 4 15 5 16 6 17 7 18 8 10 9 8 10 9 11 7 12
REMARK SMILES IDX 6 14 5 15 4 16 19 17 3 18 20 19 21 20 2 21 1 22 22 23
REMARK H PARENT 7 13 22 24
REMARK Flexibility Score: inf
ROOT
ATOM      1  C   UNL     1      59.289   2.245  -3.339  1.00  0.00     0.010 C 
ENDROOT
BRANCH   1   2
ATOM      2  C   UNL     1      60.052   1.019  -3.885  1.00  0.00     0.005 C 
BRANCH   2   3
ATOM      3  C   UNL     1      60.841   0.236  -2.822  1.00  0.00     0.027 C 
BRANCH   3   4
ATOM      4  C   UNL     1      60.399  -1.199  -2.718  1.00  0.00    -0.031 C 
ATOM      5  C   UNL     1      59.447  -1.698  -3.519  1.00  0.00    -0.028 C 
BRANCH   5   6
ATOM      6  C   UNL     1      58.977  -3.128  -3.399  1.00  0.00     0.005 C 
ATOM      7  C   UNL     1      59.793  -3.853  -2.326  1.00  0.00     0.012 C 
ATOM      8  C   UNL     1      57.484  -3.157  -3.059  1.00  0.00     0.012 C 
ENDBRANCH   5   6
ENDBRANCH   3   4
ENDBRANCH   2   3
ENDBRANCH   1   2
BRANCH   1   9
ATOM      9  C   UNL     1      57.853   1.951  -2.873  1.00  0.00     0.100 C 
BRANCH   9  10
ATOM     10  C   UNL     1      57.818   1.319  -1.512  1.00  0.00     0.220 C 
ATOM     11  O   UNL     1      58.229   1.970  -0.513  1.00  0.00    -0.275 OA
ATOM     12  N   UNL     1      57.291  -0.005  -1.343  1.00  0.00    -0.352 N 
ATOM     13  H   UNL     1      57.130  -0.602  -2.186  1.00  0.00     0.163 HD
BRANCH  12  14
ATOM     14  C   UNL     1      56.805  -0.487  -0.054  1.00  0.00     0.151 C 
BRANCH  14  15
ATOM     15  C   UNL     1      57.724  -1.559   0.464  1.00  0.00    -0.025 A 
ATOM     16  C   UNL     1      59.078  -1.270   0.693  1.00  0.00     0.056 A 
ATOM     17  C   UNL     1      57.259  -2.870   0.644  1.00  0.00     0.009 A 
ATOM     18  C   UNL     1      59.968  -2.282   1.103  1.00  0.00     0.160 A 
ATOM     19  C   UNL     1      58.135  -3.875   1.058  1.00  0.00     0.050 A 
ATOM     20  C   UNL     1      59.487  -3.586   1.286  1.00  0.00     0.157 A 
BRANCH  18  21
ATOM     21  O   UNL     1      61.330  -2.032   1.332  1.00  0.00    -0.493 OA
ATOM     22  C   UNL     1      62.349  -2.159   0.345  1.00  0.00     0.278 C 
ENDBRANCH  18  21
BRANCH  20  23
ATOM     23  O   UNL     1      60.361  -4.592   1.692  1.00  0.00    -0.504 OA
ATOM     24  H   UNL     1      60.201  -5.563   1.452  1.00  0.00     0.293 HD
ENDBRANCH  20  23
ENDBRANCH  14  15
ENDBRANCH  12  14
ENDBRANCH   9  10
ENDBRANCH   1   9
TORSDOF 10
ENDMDL
MODEL 5
REMARK VINA RESULT:    -4.930      5.546      7.819
REMARK INTER + INTRA:          -9.895
REMARK INTER:                  -9.284
REMARK INTRA:                  -0.611
REMARK UNBOUND:                -2.227
REMARK SMILES COc1cc(CNC(=O)CCCCC=CC(C)C)ccc1O
REMARK SMILES IDX 11 1 12 2 13 3 14 4 15 5 16 6 17 7 18 8 10 9 8 10 9 11 7 12
REMARK SMILES IDX 6 14 5 15 4 16 19 17 3 18 20 19 21 20 2 21 1 22 22 23
REMARK H PARENT 7 13 22 24
REMARK Flexibility Score: inf
ROOT
ATOM      1  C   UNL     1      54.021  -4.410  -5.353  1.00  0.00     0.010 C 
ENDROOT
BRANCH   1   2
ATOM      2  C   UNL     1      52.719  -4.158  -6.143  1.00  0.00     0.005 C 
BRANCH   2   3
ATOM      3  C   UNL     1      51.471  -3.964  -5.266  1.00  0.00     0.027 C 
BRANCH   3   4
ATOM      4  C   UNL     1      50.654  -5.222  -5.139  1.00  0.00    -0.031 C 
ATOM      5  C   UNL     1      49.600  -5.293  -4.313  1.00  0.00    -0.028 C 
BRANCH   5   6
ATOM      6  C   UNL     1      48.796  -6.561  -4.159  1.00  0.00     0.005 C 
ATOM      7  C   UNL     1      48.555  -7.192  -5.533  1.00  0.00     0.012 C 
ATOM      8  C   UNL     1      49.535  -7.535  -3.237  1.00  0.00     0.012 C 
ENDBRANCH   5   6
ENDBRANCH   3   4
ENDBRANCH   2   3
ENDBRANCH   1   2
BRANCH   1   9
ATOM      9  C   UNL     1      55.113  -3.346  -5.559  1.00  0.00     0.100 C 
BRANCH   9  10
ATOM     10  C   UNL     1      56.344  -3.635  -4.751  1.00  0.00     0.220 C 
ATOM     11  O   UNL     1      57.428  -3.898  -5.341  1.00  0.00    -0.275 OA
ATOM     12  N   UNL     1      56.298  -3.583  -3.319  1.00  0.00    -0.352 N 
ATOM     13  H   UNL     1      55.370  -3.552  -2.839  1.00  0.00     0.163 HD
BRANCH  12  14
ATOM     14  C   UNL     1      57.498  -3.392  -2.510  1.00  0.00     0.151 C 
BRANCH  14  15
ATOM     15  C   UNL     1      57.605  -1.951  -2.094  1.00  0.00    -0.025 A 
ATOM     16  C   UNL     1      58.321  -1.044  -2.892  1.00  0.00     0.056 A 
ATOM     17  C   UNL     1      57.065  -1.519  -0.875  1.00  0.00     0.009 A 
ATOM     18  C   UNL     1      58.496   0.290  -2.477  1.00  0.00     0.160 A 
ATOM     19  C   UNL     1      57.228  -0.196  -0.463  1.00  0.00     0.050 A 
ATOM     20  C   UNL     1      57.943   0.709  -1.259  1.00  0.00     0.157 A 
BRANCH  18  21
ATOM     21  O   UNL     1      59.214   1.223  -3.242  1.00  0.00    -0.493 OA
ATOM     22  C   UNL     1      60.592   1.098  -3.581  1.00  0.00     0.278 C 
ENDBRANCH  18  21
BRANCH  20  23
ATOM     23  O   UNL     1      58.112   2.029  -0.843  1.00  0.00    -0.504 OA
ATOM     24  H   UNL     1      58.891   2.591  -1.167  1.00  0.00     0.293 HD
ENDBRANCH  20  23
ENDBRANCH  14  15
ENDBRANCH  12  14
ENDBRANCH   9  10
ENDBRANCH   1   9
TORSDOF 10
ENDMDL
MODEL 6
REMARK VINA RESULT:    -4.905      2.113      4.363
REMARK INTER + INTRA:          -9.856
REMARK INTER:                  -8.211
REMARK INTRA:                  -1.645
REMARK UNBOUND:                -2.227
REMARK SMILES COc1cc(CNC(=O)CCCCC=CC(C)C)ccc1O
REMARK SMILES IDX 11 1 12 2 13 3 14 4 15 5 16 6 17 7 18 8 10 9 8 10 9 11 7 12
REMARK SMILES IDX 6 14 5 15 4 16 19 17 3 18 20 19 21 20 2 21 1 22 22 23
REMARK H PARENT 7 13 22 24
REMARK Flexibility Score: inf
ROOT
ATOM      1  C   UNL     1      58.761   1.970  -2.031  1.00  0.00     0.010 C 
ENDROOT
BRANCH   1   2
ATOM      2  C   UNL     1      59.297   1.804  -3.469  1.00  0.00     0.005 C 
BRANCH   2   3
ATOM      3  C   UNL     1      60.575   0.955  -3.578  1.00  0.00     0.027 C 
BRANCH   3   4
ATOM      4  C   UNL     1      60.492  -0.316  -2.776  1.00  0.00    -0.031 C 
ATOM      5  C   UNL     1      59.791  -1.374  -3.210  1.00  0.00    -0.028 C 
BRANCH   5   6
ATOM      6  C   UNL     1      59.679  -2.640  -2.396  1.00  0.00     0.005 C 
ATOM      7  C   UNL     1      60.403  -2.462  -1.059  1.00  0.00     0.012 C 
ATOM      8  C   UNL     1      58.204  -2.985  -2.174  1.00  0.00     0.012 C 
ENDBRANCH   5   6
ENDBRANCH   3   4
ENDBRANCH   2   3
ENDBRANCH   1   2
BRANCH   1   9
ATOM      9  C   UNL     1      57.498   1.149  -1.719  1.00  0.00     0.100 C 
BRANCH   9  10
ATOM     10  C   UNL     1      57.658   0.312  -0.484  1.00  0.00     0.220 C 
ATOM     11  O   UNL     1      58.724   0.388   0.186  1.00  0.00    -0.275 OA
ATOM     12  N   UNL     1      56.593  -0.546  -0.050  1.00  0.00    -0.352 N 
ATOM     13  H   UNL     1      55.800  -0.745  -0.700  1.00  0.00     0.163 HD
BRANCH  12  14
ATOM     14  C   UNL     1      56.486  -1.011   1.330  1.00  0.00     0.151 C 
BRANCH  14  15
ATOM     15  C   UNL     1      56.515  -2.514   1.361  1.00  0.00    -0.025 A 
ATOM     16  C   UNL     1      55.316  -3.239   1.284  1.00  0.00     0.056 A 
ATOM     17  C   UNL     1      57.724  -3.199   1.549  1.00  0.00     0.009 A 
ATOM     18  C   UNL     1      55.320  -4.644   1.390  1.00  0.00     0.160 A 
ATOM     19  C   UNL     1      57.735  -4.591   1.646  1.00  0.00     0.050 A 
ATOM     20  C   UNL     1      56.537  -5.315   1.569  1.00  0.00     0.157 A 
BRANCH  18  21
ATOM     21  O   UNL     1      54.140  -5.402   1.327  1.00  0.00    -0.493 OA
ATOM     22  C   UNL     1      53.322  -5.713   2.450  1.00  0.00     0.278 C 
ENDBRANCH  18  21
BRANCH  20  23
ATOM     23  O   UNL     1      56.549  -6.705   1.674  1.00  0.00    -0.504 OA
ATOM     24  H   UNL     1      56.009  -7.187   2.383  1.00  0.00     0.293 HD
ENDBRANCH  20  23
ENDBRANCH  14  15
ENDBRANCH  12  14
ENDBRANCH   9  10
ENDBRANCH   1   9
TORSDOF 10
ENDMDL
MODEL 7
REMARK VINA RESULT:    -4.869      2.251      4.434
REMARK INTER + INTRA:          -9.801
REMARK INTER:                  -7.571
REMARK INTRA:                  -2.230
REMARK UNBOUND:                -2.227
REMARK SMILES COc1cc(CNC(=O)CCCCC=CC(C)C)ccc1O
REMARK SMILES IDX 11 1 12 2 13 3 14 4 15 5 16 6 17 7 18 8 10 9 8 10 9 11 7 12
REMARK SMILES IDX 6 14 5 15 4 16 19 17 3 18 20 19 21 20 2 21 1 22 22 23
REMARK H PARENT 7 13 22 24
REMARK Flexibility Score: inf
ROOT
ATOM      1  C   UNL     1      58.354   1.570  -3.095  1.00  0.00     0.010 C 
ENDROOT
BRANCH   1   2
ATOM      2  C   UNL     1      59.709   0.839  -3.210  1.00  0.00     0.005 C 
BRANCH   2   3
ATOM      3  C   UNL     1      59.597  -0.662  -3.527  1.00  0.00     0.027 C 
BRANCH   3   4
ATOM      4  C   UNL     1      60.549  -1.495  -2.713  1.00  0.00    -0.031 C 
ATOM      5  C   UNL     1      60.901  -1.142  -1.468  1.00  0.00    -0.028 C 
BRANCH   5   6
ATOM      6  C   UNL     1      61.880  -1.956  -0.658  1.00  0.00     0.005 C 
ATOM      7  C   UNL     1      61.375  -2.091   0.781  1.00  0.00     0.012 C 
ATOM      8  C   UNL     1      62.065  -3.334  -1.299  1.00  0.00     0.012 C 
ENDBRANCH   5   6
ENDBRANCH   3   4
ENDBRANCH   2   3
ENDBRANCH   1   2
BRANCH   1   9
ATOM      9  C   UNL     1      57.972   1.992  -1.666  1.00  0.00     0.100 C 
BRANCH   9  10
ATOM     10  C   UNL     1      57.839   0.815  -0.744  1.00  0.00     0.220 C 
ATOM     11  O   UNL     1      58.610   0.712   0.249  1.00  0.00    -0.275 OA
ATOM     12  N   UNL     1      56.822  -0.170  -0.973  1.00  0.00    -0.352 N 
ATOM     13  H   UNL     1      56.317  -0.180  -1.889  1.00  0.00     0.163 HD
BRANCH  12  14
ATOM     14  C   UNL     1      56.340  -1.048   0.089  1.00  0.00     0.151 C 
BRANCH  14  15
ATOM     15  C   UNL     1      57.132  -2.326   0.087  1.00  0.00    -0.025 A 
ATOM     16  C   UNL     1      57.505  -2.920   1.303  1.00  0.00     0.056 A 
ATOM     17  C   UNL     1      57.574  -2.889  -1.119  1.00  0.00     0.009 A 
ATOM     18  C   UNL     1      58.314  -4.074   1.319  1.00  0.00     0.160 A 
ATOM     19  C   UNL     1      58.368  -4.037  -1.109  1.00  0.00     0.050 A 
ATOM     20  C   UNL     1      58.741  -4.629   0.105  1.00  0.00     0.157 A 
BRANCH  18  21
ATOM     21  O   UNL     1      58.715  -4.690   2.515  1.00  0.00    -0.493 OA
ATOM     22  C   UNL     1      59.581  -4.095   3.476  1.00  0.00     0.278 C 
ENDBRANCH  18  21
BRANCH  20  23
ATOM     23  O   UNL     1      59.540  -5.771   0.113  1.00  0.00    -0.504 OA
ATOM     24  H   UNL     1      60.509  -5.742  -0.182  1.00  0.00     0.293 HD
ENDBRANCH  20  23
ENDBRANCH  14  15
ENDBRANCH  12  14
ENDBRANCH   9  10
ENDBRANCH   1   9
TORSDOF 10
ENDMDL
MODEL 8
REMARK VINA RESULT:    -4.780      9.087     11.978
REMARK INTER + INTRA:          -9.662
REMARK INTER:                  -8.684
REMARK INTRA:                  -0.978
REMARK UNBOUND:                -2.227
REMARK SMILES COc1cc(CNC(=O)CCCCC=CC(C)C)ccc1O
REMARK SMILES IDX 11 1 12 2 13 3 14 4 15 5 16 6 17 7 18 8 10 9 8 10 9 11 7 12
REMARK SMILES IDX 6 14 5 15 4 16 19 17 3 18 20 19 21 20 2 21 1 22 22 23
REMARK H PARENT 7 13 22 24
REMARK Flexibility Score: inf
ROOT
ATOM      1  C   UNL     1      48.130  -7.740  -7.003  1.00  0.00     0.010 C 
ENDROOT
BRANCH   1   2
ATOM      2  C   UNL     1      47.884  -6.495  -6.125  1.00  0.00     0.005 C 
BRANCH   2   3
ATOM      3  C   UNL     1      48.961  -6.247  -5.056  1.00  0.00     0.027 C 
BRANCH   3   4
ATOM      4  C   UNL     1      48.890  -7.237  -3.925  1.00  0.00    -0.031 C 
ATOM      5  C   UNL     1      48.759  -6.837  -2.651  1.00  0.00    -0.028 C 
BRANCH   5   6
ATOM      6  C   UNL     1      48.718  -7.823  -1.509  1.00  0.00     0.005 C 
ATOM      7  C   UNL     1      47.331  -8.469  -1.433  1.00  0.00     0.012 C 
ATOM      8  C   UNL     1      49.802  -8.886  -1.702  1.00  0.00     0.012 C 
ENDBRANCH   5   6
ENDBRANCH   3   4
ENDBRANCH   2   3
ENDBRANCH   1   2
BRANCH   1   9
ATOM      9  C   UNL     1      48.597  -7.433  -8.436  1.00  0.00     0.100 C 
BRANCH   9  10
ATOM     10  C   UNL     1      50.001  -6.902  -8.472  1.00  0.00     0.220 C 
ATOM     11  O   UNL     1      50.970  -7.708  -8.516  1.00  0.00    -0.275 OA
ATOM     12  N   UNL     1      50.238  -5.488  -8.489  1.00  0.00    -0.352 N 
ATOM     13  H   UNL     1      49.452  -4.835  -8.265  1.00  0.00     0.163 HD
BRANCH  12  14
ATOM     14  C   UNL     1      51.489  -4.917  -8.979  1.00  0.00     0.151 C 
BRANCH  14  15
ATOM     15  C   UNL     1      52.350  -4.510  -7.815  1.00  0.00    -0.025 A 
ATOM     16  C   UNL     1      53.711  -4.231  -8.015  1.00  0.00     0.056 A 
ATOM     17  C   UNL     1      51.825  -4.487  -6.515  1.00  0.00     0.009 A 
ATOM     18  C   UNL     1      54.548  -3.925  -6.924  1.00  0.00     0.160 A 
ATOM     19  C   UNL     1      52.648  -4.176  -5.431  1.00  0.00     0.050 A 
ATOM     20  C   UNL     1      54.007  -3.898  -5.631  1.00  0.00     0.157 A 
BRANCH  18  21
ATOM     21  O   UNL     1      55.915  -3.650  -7.084  1.00  0.00    -0.493 OA
ATOM     22  C   UNL     1      56.819  -4.464  -7.824  1.00  0.00     0.278 C 
ENDBRANCH  18  21
BRANCH  20  23
ATOM     23  O   UNL     1      54.829  -3.595  -4.547  1.00  0.00    -0.504 OA
ATOM     24  H   UNL     1      54.448  -3.439  -3.620  1.00  0.00     0.293 HD
ENDBRANCH  20  23
ENDBRANCH  14  15
ENDBRANCH  12  14
ENDBRANCH   9  10
ENDBRANCH   1   9
TORSDOF 10
ENDMDL
MODEL 9
REMARK VINA RESULT:    -4.733      9.014     12.317
REMARK INTER + INTRA:          -9.588
REMARK INTER:                  -8.544
REMARK INTRA:                  -1.044
REMARK UNBOUND:                -2.227
REMARK SMILES COc1cc(CNC(=O)CCCCC=CC(C)C)ccc1O
REMARK SMILES IDX 11 1 12 2 13 3 14 4 15 5 16 6 17 7 18 8 10 9 8 10 9 11 7 12
REMARK SMILES IDX 6 14 5 15 4 16 19 17 3 18 20 19 21 20 2 21 1 22 22 23
REMARK H PARENT 7 13 22 24
REMARK Flexibility Score: inf
ROOT
ATOM      1  C   UNL     1      49.646  -6.620  -4.006  1.00  0.00     0.010 C 
ENDROOT
BRANCH   1   2
ATOM      2  C   UNL     1      50.644  -7.732  -3.617  1.00  0.00     0.005 C 
BRANCH   2   3
ATOM      3  C   UNL     1      50.648  -8.087  -2.120  1.00  0.00     0.027 C 
BRANCH   3   4
ATOM      4  C   UNL     1      49.293  -8.516  -1.626  1.00  0.00    -0.031 C 
ATOM      5  C   UNL     1      48.509  -7.685  -0.924  1.00  0.00    -0.028 C 
BRANCH   5   6
ATOM      6  C   UNL     1      47.162  -8.118  -0.398  1.00  0.00     0.005 C 
ATOM      7  C   UNL     1      46.499  -6.957   0.347  1.00  0.00     0.012 C 
ATOM      8  C   UNL     1      46.281  -8.594  -1.557  1.00  0.00     0.012 C 
ENDBRANCH   5   6
ENDBRANCH   3   4
ENDBRANCH   2   3
ENDBRANCH   1   2
BRANCH   1   9
ATOM      9  C   UNL     1      48.444  -7.100  -4.838  1.00  0.00     0.100 C 
BRANCH   9  10
ATOM     10  C   UNL     1      48.513  -6.625  -6.260  1.00  0.00     0.220 C 
ATOM     11  O   UNL     1      47.527  -6.021  -6.763  1.00  0.00    -0.275 OA
ATOM     12  N   UNL     1      49.705  -6.828  -7.032  1.00  0.00    -0.352 N 
ATOM     13  H   UNL     1      50.437  -7.485  -6.678  1.00  0.00     0.163 HD
BRANCH  12  14
ATOM     14  C   UNL     1      50.016  -6.019  -8.206  1.00  0.00     0.151 C 
BRANCH  14  15
ATOM     15  C   UNL     1      51.335  -5.326  -8.009  1.00  0.00    -0.025 A 
ATOM     16  C   UNL     1      51.862  -5.181  -6.716  1.00  0.00     0.056 A 
ATOM     17  C   UNL     1      52.008  -4.750  -9.096  1.00  0.00     0.009 A 
ATOM     18  C   UNL     1      53.058  -4.466  -6.505  1.00  0.00     0.160 A 
ATOM     19  C   UNL     1      53.197  -4.048  -8.894  1.00  0.00     0.050 A 
ATOM     20  C   UNL     1      53.723  -3.902  -7.603  1.00  0.00     0.157 A 
BRANCH  18  21
ATOM     21  O   UNL     1      53.610  -4.291  -5.227  1.00  0.00    -0.493 OA
ATOM     22  C   UNL     1      53.797  -5.339  -4.280  1.00  0.00     0.278 C 
ENDBRANCH  18  21
BRANCH  20  23
ATOM     23  O   UNL     1      54.906  -3.195  -7.403  1.00  0.00    -0.504 OA
ATOM     24  H   UNL     1      55.787  -3.669  -7.240  1.00  0.00     0.293 HD
ENDBRANCH  20  23
ENDBRANCH  14  15
ENDBRANCH  12  14
ENDBRANCH   9  10
ENDBRANCH   1   9
TORSDOF 10
ENDMDL
