MODEL 1
REMARK VINA RESULT:    -4.099      0.000      0.000
REMARK INTER + INTRA:          -8.395
REMARK INTER:                  -6.974
REMARK INTRA:                  -1.421
REMARK UNBOUND:                -1.421
REMARK SMILES CCCCCCCCCCCCCC(=O)[O-]
REMARK SMILES IDX 8 1 9 2 10 3 11 4 12 5 13 6 14 7 15 8 16 9 7 10 6 11 5 12
REMARK SMILES IDX 4 13 3 14 2 15 1 16
REMARK H PARENT
REMARK Flexibility Score: inf
ROOT
ATOM      1  C   UNL     1      16.384  14.572  -6.242  1.00  0.00     0.000 C 
ENDROOT
BRANCH   1   2
ATOM      2  C   UNL     1      15.642  13.254  -6.531  1.00  0.00     0.000 C 
BRANCH   2   3
ATOM      3  C   UNL     1      14.610  13.319  -7.671  1.00  0.00     0.000 C 
BRANCH   3   4
ATOM      4  C   UNL     1      15.107  12.668  -8.971  1.00  0.00     0.000 C 
BRANCH   4   5
ATOM      5  C   UNL     1      15.958  13.651  -9.788  1.00  0.00     0.006 C 
BRANCH   5   6
ATOM      6  C   UNL     1      17.443  13.267  -9.795  1.00  0.00     0.053 C 
BRANCH   6   7
ATOM      7  C   UNL     1      18.306  14.378  -9.280  1.00  0.00     0.041 C 
ATOM      8  O   UNL     1      19.408  14.122  -8.729  1.00  0.00    -0.550 OA
ATOM      9  O   UNL     1      17.876  15.695  -9.378  1.00  0.00    -0.550 OA
ENDBRANCH   6   7
ENDBRANCH   5   6
ENDBRANCH   4   5
ENDBRANCH   3   4
ENDBRANCH   2   3
ENDBRANCH   1   2
BRANCH   1  10
ATOM     10  C   UNL     1      17.120  14.561  -4.891  1.00  0.00     0.000 C 
BRANCH  10  11
ATOM     11  C   UNL     1      18.565  15.075  -5.003  1.00  0.00    -0.000 C 
BRANCH  11  12
ATOM     12  C   UNL     1      19.416  14.726  -3.768  1.00  0.00    -0.000 C 
BRANCH  12  13
ATOM     13  C   UNL     1      19.903  13.268  -3.778  1.00  0.00    -0.000 C 
BRANCH  13  14
ATOM     14  C   UNL     1      20.099  12.720  -5.202  1.00  0.00    -0.000 C 
BRANCH  14  15
ATOM     15  C   UNL     1      19.380  11.379  -5.421  1.00  0.00    -0.003 C 
ATOM     16  C   UNL     1      18.675  11.298  -6.775  1.00  0.00     0.004 C 
ENDBRANCH  14  15
ENDBRANCH  13  14
ENDBRANCH  12  13
ENDBRANCH  11  12
ENDBRANCH  10  11
ENDBRANCH   1  10
TORSDOF 12
ENDMDL
MODEL 2
REMARK VINA RESULT:    -4.043      9.740     12.333
REMARK INTER + INTRA:          -8.301
REMARK INTER:                  -7.092
REMARK INTRA:                  -1.210
REMARK UNBOUND:                -1.421
REMARK SMILES CCCCCCCCCCCCCC(=O)[O-]
REMARK SMILES IDX 8 1 9 2 10 3 11 4 12 5 13 6 14 7 15 8 16 9 7 10 6 11 5 12
REMARK SMILES IDX 4 13 3 14 2 15 1 16
REMARK H PARENT
REMARK Flexibility Score: inf
ROOT
ATOM      1  C   UNL     1      17.201   3.012  -4.032  1.00  0.00     0.000 C 
ENDROOT
BRANCH   1   2
ATOM      2  C   UNL     1      18.639   3.561  -3.965  1.00  0.00     0.000 C 
BRANCH   2   3
ATOM      3  C   UNL     1      19.015   4.253  -2.643  1.00  0.00     0.000 C 
BRANCH   3   4
ATOM      4  C   UNL     1      19.055   3.288  -1.449  1.00  0.00     0.000 C 
BRANCH   4   5
ATOM      5  C   UNL     1      18.275   3.859  -0.254  1.00  0.00     0.006 C 
BRANCH   5   6
ATOM      6  C   UNL     1      16.761   3.862  -0.497  1.00  0.00     0.053 C 
BRANCH   6   7
ATOM      7  C   UNL     1      16.046   2.941   0.443  1.00  0.00     0.041 C 
ATOM      8  O   UNL     1      16.698   2.180   1.205  1.00  0.00    -0.550 OA
ATOM      9  O   UNL     1      14.658   2.899   0.453  1.00  0.00    -0.550 OA
ENDBRANCH   6   7
ENDBRANCH   5   6
ENDBRANCH   4   5
ENDBRANCH   3   4
ENDBRANCH   2   3
ENDBRANCH   1   2
BRANCH   1  10
ATOM     10  C   UNL     1      17.063   1.807  -4.978  1.00  0.00     0.000 C 
BRANCH  10  11
ATOM     11  C   UNL     1      17.567   2.112  -6.398  1.00  0.00    -0.000 C 
BRANCH  11  12
ATOM     12  C   UNL     1      16.530   2.871  -7.246  1.00  0.00    -0.000 C 
BRANCH  12  13
ATOM     13  C   UNL     1      17.044   4.238  -7.725  1.00  0.00    -0.000 C 
BRANCH  13  14
ATOM     14  C   UNL     1      16.427   5.409  -6.940  1.00  0.00    -0.000 C 
BRANCH  14  15
ATOM     15  C   UNL     1      15.080   5.041  -6.297  1.00  0.00    -0.003 C 
ATOM     16  C   UNL     1      13.930   5.923  -6.784  1.00  0.00     0.004 C 
ENDBRANCH  14  15
ENDBRANCH  13  14
ENDBRANCH  12  13
ENDBRANCH  11  12
ENDBRANCH  10  11
ENDBRANCH   1  10
TORSDOF 12
ENDMDL
MODEL 3
REMARK VINA RESULT:    -4.037      1.043      3.635
REMARK INTER + INTRA:          -8.291
REMARK INTER:                  -6.252
REMARK INTRA:                  -2.039
REMARK UNBOUND:                -1.421
REMARK SMILES CCCCCCCCCCCCCC(=O)[O-]
REMARK SMILES IDX 8 1 9 2 10 3 11 4 12 5 13 6 14 7 15 8 16 9 7 10 6 11 5 12
REMARK SMILES IDX 4 13 3 14 2 15 1 16
REMARK H PARENT
REMARK Flexibility Score: inf
ROOT
ATOM      1  C   UNL     1      19.510  12.792  -4.403  1.00  0.00     0.000 C 
ENDROOT
BRANCH   1   2
ATOM      2  C   UNL     1      19.663  11.617  -5.386  1.00  0.00     0.000 C 
BRANCH   2   3
ATOM      3  C   UNL     1      20.057  12.010  -6.821  1.00  0.00     0.000 C 
BRANCH   3   4
ATOM      4  C   UNL     1      19.030  11.561  -7.871  1.00  0.00     0.000 C 
BRANCH   4   5
ATOM      5  C   UNL     1      18.787  12.666  -8.910  1.00  0.00     0.006 C 
BRANCH   5   6
ATOM      6  C   UNL     1      19.616  13.924  -8.625  1.00  0.00     0.053 C 
BRANCH   6   7
ATOM      7  C   UNL     1      18.860  15.174  -8.957  1.00  0.00     0.041 C 
ATOM      8  O   UNL     1      17.626  15.124  -9.199  1.00  0.00    -0.550 OA
ATOM      9  O   UNL     1      19.527  16.390  -9.033  1.00  0.00    -0.550 OA
ENDBRANCH   6   7
ENDBRANCH   5   6
ENDBRANCH   4   5
ENDBRANCH   3   4
ENDBRANCH   2   3
ENDBRANCH   1   2
BRANCH   1  10
ATOM     10  C   UNL     1      19.941  14.139  -5.007  1.00  0.00     0.000 C 
BRANCH  10  11
ATOM     11  C   UNL     1      18.753  15.083  -5.255  1.00  0.00    -0.000 C 
BRANCH  11  12
ATOM     12  C   UNL     1      17.405  14.458  -4.851  1.00  0.00    -0.000 C 
BRANCH  12  13
ATOM     13  C   UNL     1      16.353  14.548  -5.968  1.00  0.00    -0.000 C 
BRANCH  13  14
ATOM     14  C   UNL     1      16.005  13.173  -6.563  1.00  0.00    -0.000 C 
BRANCH  14  15
ATOM     15  C   UNL     1      14.766  13.221  -7.472  1.00  0.00    -0.003 C 
ATOM     16  C   UNL     1      15.058  12.752  -8.897  1.00  0.00     0.004 C 
ENDBRANCH  14  15
ENDBRANCH  13  14
ENDBRANCH  12  13
ENDBRANCH  11  12
ENDBRANCH  10  11
ENDBRANCH   1  10
TORSDOF 12
ENDMDL
MODEL 4
REMARK VINA RESULT:    -3.932      1.840      2.814
REMARK INTER + INTRA:          -8.111
REMARK INTER:                  -6.464
REMARK INTRA:                  -1.647
REMARK UNBOUND:                -1.421
REMARK SMILES CCCCCCCCCCCCCC(=O)[O-]
REMARK SMILES IDX 8 1 9 2 10 3 11 4 12 5 13 6 14 7 15 8 16 9 7 10 6 11 5 12
REMARK SMILES IDX 4 13 3 14 2 15 1 16
REMARK H PARENT
REMARK Flexibility Score: inf
ROOT
ATOM      1  C   UNL     1      18.485  15.238  -6.978  1.00  0.00     0.000 C 
ENDROOT
BRANCH   1   2
ATOM      2  C   UNL     1      17.956  15.025  -8.408  1.00  0.00     0.000 C 
BRANCH   2   3
ATOM      3  C   UNL     1      18.641  13.895  -9.199  1.00  0.00     0.000 C 
BRANCH   3   4
ATOM      4  C   UNL     1      17.650  13.031  -9.993  1.00  0.00     0.000 C 
BRANCH   4   5
ATOM      5  C   UNL     1      16.245  13.651  -9.978  1.00  0.00     0.006 C 
BRANCH   5   6
ATOM      6  C   UNL     1      15.202  12.709  -9.364  1.00  0.00     0.053 C 
BRANCH   6   7
ATOM      7  C   UNL     1      14.749  13.184  -8.017  1.00  0.00     0.041 C 
ATOM      8  O   UNL     1      13.814  14.021  -7.921  1.00  0.00    -0.550 OA
ATOM      9  O   UNL     1      15.385  12.728  -6.870  1.00  0.00    -0.550 OA
ENDBRANCH   6   7
ENDBRANCH   5   6
ENDBRANCH   4   5
ENDBRANCH   3   4
ENDBRANCH   2   3
ENDBRANCH   1   2
BRANCH   1  10
ATOM     10  C   UNL     1      17.362  15.471  -5.953  1.00  0.00     0.000 C 
BRANCH  10  11
ATOM     11  C   UNL     1      17.455  14.519  -4.750  1.00  0.00    -0.000 C 
BRANCH  11  12
ATOM     12  C   UNL     1      18.853  14.510  -4.105  1.00  0.00    -0.000 C 
BRANCH  12  13
ATOM     13  C   UNL     1      19.584  13.172  -4.294  1.00  0.00    -0.000 C 
BRANCH  13  14
ATOM     14  C   UNL     1      18.736  12.139  -5.057  1.00  0.00    -0.000 C 
BRANCH  14  15
ATOM     15  C   UNL     1      19.401  11.683  -6.366  1.00  0.00    -0.003 C 
ATOM     16  C   UNL     1      18.513  10.748  -7.187  1.00  0.00     0.004 C 
ENDBRANCH  14  15
ENDBRANCH  13  14
ENDBRANCH  12  13
ENDBRANCH  11  12
ENDBRANCH  10  11
ENDBRANCH   1  10
TORSDOF 12
ENDMDL
MODEL 5
REMARK VINA RESULT:    -3.829      9.664     12.354
REMARK INTER + INTRA:          -7.937
REMARK INTER:                  -7.119
REMARK INTRA:                  -0.818
REMARK UNBOUND:                -1.421
REMARK SMILES CCCCCCCCCCCCCC(=O)[O-]
REMARK SMILES IDX 8 1 9 2 10 3 11 4 12 5 13 6 14 7 15 8 16 9 7 10 6 11 5 12
REMARK SMILES IDX 4 13 3 14 2 15 1 16
REMARK H PARENT
REMARK Flexibility Score: inf
ROOT
ATOM      1  C   UNL     1      18.679   2.861  -2.676  1.00  0.00     0.000 C 
ENDROOT
BRANCH   1   2
ATOM      2  C   UNL     1      18.407   3.403  -1.261  1.00  0.00     0.000 C 
BRANCH   2   3
ATOM      3  C   UNL     1      16.945   3.793  -0.977  1.00  0.00     0.000 C 
BRANCH   3   4
ATOM      4  C   UNL     1      16.463   3.345   0.411  1.00  0.00     0.000 C 
BRANCH   4   5
ATOM      5  C   UNL     1      17.622   3.329   1.418  1.00  0.00     0.006 C 
BRANCH   5   6
ATOM      6  C   UNL     1      17.556   4.507   2.398  1.00  0.00     0.053 C 
BRANCH   6   7
ATOM      7  C   UNL     1      18.546   5.575   2.051  1.00  0.00     0.041 C 
ATOM      8  O   UNL     1      19.563   5.756   2.770  1.00  0.00    -0.550 OA
ATOM      9  O   UNL     1      18.327   6.394   0.950  1.00  0.00    -0.550 OA
ENDBRANCH   6   7
ENDBRANCH   5   6
ENDBRANCH   4   5
ENDBRANCH   3   4
ENDBRANCH   2   3
ENDBRANCH   1   2
BRANCH   1  10
ATOM     10  C   UNL     1      17.465   2.993  -3.611  1.00  0.00     0.000 C 
BRANCH  10  11
ATOM     11  C   UNL     1      17.352   1.822  -4.601  1.00  0.00    -0.000 C 
BRANCH  11  12
ATOM     12  C   UNL     1      16.386   2.117  -5.762  1.00  0.00    -0.000 C 
BRANCH  12  13
ATOM     13  C   UNL     1      15.919   3.581  -5.787  1.00  0.00    -0.000 C 
BRANCH  13  14
ATOM     14  C   UNL     1      16.643   4.413  -6.859  1.00  0.00    -0.000 C 
BRANCH  14  15
ATOM     15  C   UNL     1      15.993   5.789  -7.075  1.00  0.00    -0.003 C 
ATOM     16  C   UNL     1      14.542   5.842  -6.596  1.00  0.00     0.004 C 
ENDBRANCH  14  15
ENDBRANCH  13  14
ENDBRANCH  12  13
ENDBRANCH  11  12
ENDBRANCH  10  11
ENDBRANCH   1  10
TORSDOF 12
ENDMDL
MODEL 6
REMARK VINA RESULT:    -3.826      1.796      2.876
REMARK INTER + INTRA:          -7.931
REMARK INTER:                  -6.291
REMARK INTRA:                  -1.640
REMARK UNBOUND:                -1.421
REMARK SMILES CCCCCCCCCCCCCC(=O)[O-]
REMARK SMILES IDX 8 1 9 2 10 3 11 4 12 5 13 6 14 7 15 8 16 9 7 10 6 11 5 12
REMARK SMILES IDX 4 13 3 14 2 15 1 16
REMARK H PARENT
REMARK Flexibility Score: inf
ROOT
ATOM      1  C   UNL     1      17.429  15.174  -4.676  1.00  0.00     0.000 C 
ENDROOT
BRANCH   1   2
ATOM      2  C   UNL     1      17.363  15.518  -6.176  1.00  0.00     0.000 C 
BRANCH   2   3
ATOM      3  C   UNL     1      18.477  14.900  -7.040  1.00  0.00     0.000 C 
BRANCH   3   4
ATOM      4  C   UNL     1      18.364  15.277  -8.525  1.00  0.00     0.000 C 
BRANCH   4   5
ATOM      5  C   UNL     1      17.813  14.105  -9.350  1.00  0.00     0.006 C 
BRANCH   5   6
ATOM      6  C   UNL     1      16.365  14.340  -9.797  1.00  0.00     0.053 C 
BRANCH   6   7
ATOM      7  C   UNL     1      15.437  13.303  -9.242  1.00  0.00     0.041 C 
ATOM      8  O   UNL     1      14.945  12.424  -9.997  1.00  0.00    -0.550 OA
ATOM      9  O   UNL     1      15.089  13.328  -7.898  1.00  0.00    -0.550 OA
ENDBRANCH   6   7
ENDBRANCH   5   6
ENDBRANCH   4   5
ENDBRANCH   3   4
ENDBRANCH   2   3
ENDBRANCH   1   2
BRANCH   1  10
ATOM     10  C   UNL     1      18.871  15.071  -4.148  1.00  0.00     0.000 C 
BRANCH  10  11
ATOM     11  C   UNL     1      19.220  13.655  -3.662  1.00  0.00    -0.000 C 
BRANCH  11  12
ATOM     12  C   UNL     1      20.123  12.894  -4.649  1.00  0.00    -0.000 C 
BRANCH  12  13
ATOM     13  C   UNL     1      19.604  11.481  -4.957  1.00  0.00    -0.000 C 
BRANCH  13  14
ATOM     14  C   UNL     1      19.533  11.194  -6.467  1.00  0.00    -0.000 C 
BRANCH  14  15
ATOM     15  C   UNL     1      18.093  11.224  -7.005  1.00  0.00    -0.003 C 
ATOM     16  C   UNL     1      17.075  11.654  -5.949  1.00  0.00     0.004 C 
ENDBRANCH  14  15
ENDBRANCH  13  14
ENDBRANCH  12  13
ENDBRANCH  11  12
ENDBRANCH  10  11
ENDBRANCH   1  10
TORSDOF 12
ENDMDL
MODEL 7
REMARK VINA RESULT:    -3.799      2.005      3.803
REMARK INTER + INTRA:          -7.885
REMARK INTER:                  -6.395
REMARK INTRA:                  -1.490
REMARK UNBOUND:                -1.421
REMARK SMILES CCCCCCCCCCCCCC(=O)[O-]
REMARK SMILES IDX 8 1 9 2 10 3 11 4 12 5 13 6 14 7 15 8 16 9 7 10 6 11 5 12
REMARK SMILES IDX 4 13 3 14 2 15 1 16
REMARK H PARENT
REMARK Flexibility Score: inf
ROOT
ATOM      1  C   UNL     1      14.887  12.864  -8.634  1.00  0.00     0.000 C 
ENDROOT
BRANCH   1   2
ATOM      2  C   UNL     1      15.718  13.342  -9.840  1.00  0.00     0.000 C 
BRANCH   2   3
ATOM      3  C   UNL     1      16.970  14.165  -9.488  1.00  0.00     0.000 C 
BRANCH   3   4
ATOM      4  C   UNL     1      18.281  13.431  -9.805  1.00  0.00     0.000 C 
BRANCH   4   5
ATOM      5  C   UNL     1      19.020  13.043  -8.515  1.00  0.00     0.006 C 
BRANCH   5   6
ATOM      6  C   UNL     1      19.738  11.694  -8.641  1.00  0.00     0.053 C 
BRANCH   6   7
ATOM      7  C   UNL     1      19.621  10.883  -7.387  1.00  0.00     0.041 C 
ATOM      8  O   UNL     1      19.310   9.665  -7.446  1.00  0.00    -0.550 OA
ATOM      9  O   UNL     1      19.821  11.482  -6.150  1.00  0.00    -0.550 OA
ENDBRANCH   6   7
ENDBRANCH   5   6
ENDBRANCH   4   5
ENDBRANCH   3   4
ENDBRANCH   2   3
ENDBRANCH   1   2
BRANCH   1  10
ATOM     10  C   UNL     1      15.293  13.548  -7.318  1.00  0.00     0.000 C 
BRANCH  10  11
ATOM     11  C   UNL     1      16.041  12.600  -6.367  1.00  0.00    -0.000 C 
BRANCH  11  12
ATOM     12  C   UNL     1      17.041  13.337  -5.458  1.00  0.00    -0.000 C 
BRANCH  12  13
ATOM     13  C   UNL     1      16.731  14.837  -5.331  1.00  0.00    -0.000 C 
BRANCH  13  14
ATOM     14  C   UNL     1      17.974  15.668  -4.967  1.00  0.00    -0.000 C 
BRANCH  14  15
ATOM     15  C   UNL     1      19.279  14.869  -5.113  1.00  0.00    -0.003 C 
ATOM     16  C   UNL     1      19.970  14.611  -3.774  1.00  0.00     0.004 C 
ENDBRANCH  14  15
ENDBRANCH  13  14
ENDBRANCH  12  13
ENDBRANCH  11  12
ENDBRANCH  10  11
ENDBRANCH   1  10
TORSDOF 12
ENDMDL
MODEL 8
REMARK VINA RESULT:    -3.778      1.493      5.034
REMARK INTER + INTRA:          -7.849
REMARK INTER:                  -6.325
REMARK INTRA:                  -1.525
REMARK UNBOUND:                -1.421
REMARK SMILES CCCCCCCCCCCCCC(=O)[O-]
REMARK SMILES IDX 8 1 9 2 10 3 11 4 12 5 13 6 14 7 15 8 16 9 7 10 6 11 5 12
REMARK SMILES IDX 4 13 3 14 2 15 1 16
REMARK H PARENT
REMARK Flexibility Score: inf
ROOT
ATOM      1  C   UNL     1      16.362  14.657  -5.974  1.00  0.00     0.000 C 
ENDROOT
BRANCH   1   2
ATOM      2  C   UNL     1      17.392  14.576  -4.833  1.00  0.00     0.000 C 
BRANCH   2   3
ATOM      3  C   UNL     1      18.781  15.154  -5.162  1.00  0.00     0.000 C 
BRANCH   3   4
ATOM      4  C   UNL     1      19.932  14.225  -4.746  1.00  0.00     0.000 C 
BRANCH   4   5
ATOM      5  C   UNL     1      19.415  12.811  -4.441  1.00  0.00     0.006 C 
BRANCH   5   6
ATOM      6  C   UNL     1      20.125  11.740  -5.277  1.00  0.00     0.053 C 
BRANCH   6   7
ATOM      7  C   UNL     1      19.461  11.541  -6.605  1.00  0.00     0.041 C 
ATOM      8  O   UNL     1      19.992  11.990  -7.654  1.00  0.00    -0.550 OA
ATOM      9  O   UNL     1      18.237  10.888  -6.679  1.00  0.00    -0.550 OA
ENDBRANCH   6   7
ENDBRANCH   5   6
ENDBRANCH   4   5
ENDBRANCH   3   4
ENDBRANCH   2   3
ENDBRANCH   1   2
BRANCH   1  10
ATOM     10  C   UNL     1      15.964  13.276  -6.521  1.00  0.00     0.000 C 
BRANCH  10  11
ATOM     11  C   UNL     1      14.781  13.347  -7.500  1.00  0.00    -0.000 C 
BRANCH  11  12
ATOM     12  C   UNL     1      15.220  13.227  -8.971  1.00  0.00    -0.000 C 
BRANCH  12  13
ATOM     13  C   UNL     1      16.701  12.843  -9.118  1.00  0.00    -0.000 C 
BRANCH  13  14
ATOM     14  C   UNL     1      17.452  13.753 -10.105  1.00  0.00    -0.000 C 
BRANCH  14  15
ATOM     15  C   UNL     1      17.601  15.191  -9.583  1.00  0.00    -0.003 C 
ATOM     16  C   UNL     1      18.864  15.391  -8.746  1.00  0.00     0.004 C 
ENDBRANCH  14  15
ENDBRANCH  13  14
ENDBRANCH  12  13
ENDBRANCH  11  12
ENDBRANCH  10  11
ENDBRANCH   1  10
TORSDOF 12
ENDMDL
MODEL 9
REMARK VINA RESULT:    -3.749     10.045     11.851
REMARK INTER + INTRA:          -7.801
REMARK INTER:                  -6.653
REMARK INTRA:                  -1.148
REMARK UNBOUND:                -1.421
REMARK SMILES CCCCCCCCCCCCCC(=O)[O-]
REMARK SMILES IDX 8 1 9 2 10 3 11 4 12 5 13 6 14 7 15 8 16 9 7 10 6 11 5 12
REMARK SMILES IDX 4 13 3 14 2 15 1 16
REMARK H PARENT
REMARK Flexibility Score: inf
ROOT
ATOM      1  C   UNL     1      16.357   3.856  -0.945  1.00  0.00     0.000 C 
ENDROOT
BRANCH   1   2
ATOM      2  C   UNL     1      17.759   3.357  -1.339  1.00  0.00     0.000 C 
BRANCH   2   3
ATOM      3  C   UNL     1      17.801   2.411  -2.553  1.00  0.00     0.000 C 
BRANCH   3   4
ATOM      4  C   UNL     1      17.093   2.988  -3.788  1.00  0.00     0.000 C 
BRANCH   4   5
ATOM      5  C   UNL     1      17.025   1.949  -4.918  1.00  0.00     0.006 C 
BRANCH   5   6
ATOM      6  C   UNL     1      16.008   2.333  -5.999  1.00  0.00     0.053 C 
BRANCH   6   7
ATOM      7  C   UNL     1      16.147   3.767  -6.408  1.00  0.00     0.041 C 
ATOM      8  O   UNL     1      15.217   4.585  -6.181  1.00  0.00    -0.550 OA
ATOM      9  O   UNL     1      17.290   4.193  -7.071  1.00  0.00    -0.550 OA
ENDBRANCH   6   7
ENDBRANCH   5   6
ENDBRANCH   4   5
ENDBRANCH   3   4
ENDBRANCH   2   3
ENDBRANCH   1   2
BRANCH   1  10
ATOM     10  C   UNL     1      15.808   3.167   0.316  1.00  0.00     0.000 C 
BRANCH  10  11
ATOM     11  C   UNL     1      16.903   2.446   1.119  1.00  0.00    -0.000 C 
BRANCH  11  12
ATOM     12  C   UNL     1      16.698   2.562   2.640  1.00  0.00    -0.000 C 
BRANCH  12  13
ATOM     13  C   UNL     1      17.408   3.785   3.242  1.00  0.00    -0.000 C 
BRANCH  13  14
ATOM     14  C   UNL     1      18.729   4.112   2.526  1.00  0.00    -0.000 C 
BRANCH  14  15
ATOM     15  C   UNL     1      18.972   5.625   2.400  1.00  0.00    -0.003 C 
ATOM     16  C   UNL     1      18.367   6.220   1.129  1.00  0.00     0.004 C 
ENDBRANCH  14  15
ENDBRANCH  13  14
ENDBRANCH  12  13
ENDBRANCH  11  12
ENDBRANCH  10  11
ENDBRANCH   1  10
TORSDOF 12
ENDMDL
