MODEL 1
REMARK VINA RESULT:    -6.034      0.000      0.000
REMARK INTER + INTRA:          -6.635
REMARK INTER:                  -6.563
REMARK INTRA:                  -0.072
REMARK UNBOUND:                -0.072
REMARK SMILES CCc1cccc(O)c1
REMARK SMILES IDX 3 1 9 2 7 3 6 4 5 5 4 6 2 7 1 8 8 9
REMARK H PARENT 8 10
REMARK Flexibility Score: inf
ROOT
ATOM      1  C   UNL     1     -36.376  71.549 -18.775  1.00  0.00    -0.045 A 
ATOM      2  C   UNL     1     -35.024  71.193 -18.908  1.00  0.00     0.049 A 
ATOM      3  C   UNL     1     -34.633  69.849 -18.814  1.00  0.00     0.115 A 
ATOM      4  C   UNL     1     -35.596  68.859 -18.594  1.00  0.00     0.046 A 
ATOM      5  C   UNL     1     -36.944  69.206 -18.474  1.00  0.00     0.004 A 
ATOM      6  C   UNL     1     -37.335  70.545 -18.568  1.00  0.00     0.004 A 
ENDROOT
BRANCH   1   7
ATOM      7  C   UNL     1     -36.800  72.987 -18.910  1.00  0.00     0.032 C 
ATOM      8  C   UNL     1     -38.137  73.090 -19.635  1.00  0.00     0.009 C 
ENDBRANCH   1   7
BRANCH   3   9
ATOM      9  O   UNL     1     -33.293  69.489 -18.938  1.00  0.00    -0.508 OA
ATOM     10  H   UNL     1     -32.731  69.248 -18.129  1.00  0.00     0.293 HD
ENDBRANCH   3   9
TORSDOF 2
ENDMDL
MODEL 2
REMARK VINA RESULT:    -5.948      1.314      2.106
REMARK INTER + INTRA:          -6.541
REMARK INTER:                  -6.495
REMARK INTRA:                  -0.046
REMARK UNBOUND:                -0.072
REMARK SMILES CCc1cccc(O)c1
REMARK SMILES IDX 3 1 9 2 7 3 6 4 5 5 4 6 2 7 1 8 8 9
REMARK H PARENT 8 10
REMARK Flexibility Score: inf
ROOT
ATOM      1  C   UNL     1     -36.112  71.756 -18.728  1.00  0.00    -0.045 A 
ATOM      2  C   UNL     1     -36.714  70.488 -18.651  1.00  0.00     0.049 A 
ATOM      3  C   UNL     1     -35.939  69.327 -18.788  1.00  0.00     0.115 A 
ATOM      4  C   UNL     1     -34.559  69.433 -18.995  1.00  0.00     0.046 A 
ATOM      5  C   UNL     1     -33.953  70.691 -19.059  1.00  0.00     0.004 A 
ATOM      6  C   UNL     1     -34.725  71.849 -18.921  1.00  0.00     0.004 A 
ENDROOT
BRANCH   1   7
ATOM      7  C   UNL     1     -36.939  73.001 -18.547  1.00  0.00     0.032 C 
ATOM      8  C   UNL     1     -38.032  73.082 -19.606  1.00  0.00     0.009 C 
ENDBRANCH   1   7
BRANCH   3   9
ATOM      9  O   UNL     1     -36.529  68.068 -18.720  1.00  0.00    -0.508 OA
ATOM     10  H   UNL     1     -36.076  67.295 -18.246  1.00  0.00     0.293 HD
ENDBRANCH   3   9
TORSDOF 2
ENDMDL
MODEL 3
REMARK VINA RESULT:    -5.931      2.480      4.269
REMARK INTER + INTRA:          -6.522
REMARK INTER:                  -6.454
REMARK INTRA:                  -0.069
REMARK UNBOUND:                -0.072
REMARK SMILES CCc1cccc(O)c1
REMARK SMILES IDX 3 1 9 2 7 3 6 4 5 5 4 6 2 7 1 8 8 9
REMARK H PARENT 8 10
REMARK Flexibility Score: inf
ROOT
ATOM      1  C   UNL     1     -36.701  70.496 -18.737  1.00  0.00    -0.045 A 
ATOM      2  C   UNL     1     -38.006  70.412 -19.252  1.00  0.00     0.049 A 
ATOM      3  C   UNL     1     -38.699  71.577 -19.616  1.00  0.00     0.115 A 
ATOM      4  C   UNL     1     -38.085  72.825 -19.472  1.00  0.00     0.046 A 
ATOM      5  C   UNL     1     -36.782  72.912 -18.973  1.00  0.00     0.004 A 
ATOM      6  C   UNL     1     -36.090  71.753 -18.611  1.00  0.00     0.004 A 
ENDROOT
BRANCH   1   7
ATOM      7  C   UNL     1     -35.945  69.244 -18.378  1.00  0.00     0.032 C 
ATOM      8  C   UNL     1     -34.564  69.245 -19.023  1.00  0.00     0.009 C 
ENDBRANCH   1   7
BRANCH   3   9
ATOM      9  O   UNL     1     -39.995  71.503 -20.120  1.00  0.00    -0.508 OA
ATOM     10  H   UNL     1     -40.724  72.133 -19.804  1.00  0.00     0.293 HD
ENDBRANCH   3   9
TORSDOF 2
ENDMDL
MODEL 4
REMARK VINA RESULT:    -5.895      1.198      2.142
REMARK INTER + INTRA:          -6.484
REMARK INTER:                  -6.418
REMARK INTRA:                  -0.066
REMARK UNBOUND:                -0.072
REMARK SMILES CCc1cccc(O)c1
REMARK SMILES IDX 3 1 9 2 7 3 6 4 5 5 4 6 2 7 1 8 8 9
REMARK H PARENT 8 10
REMARK Flexibility Score: inf
ROOT
ATOM      1  C   UNL     1     -36.759  70.383 -18.840  1.00  0.00    -0.045 A 
ATOM      2  C   UNL     1     -36.209  69.091 -18.765  1.00  0.00     0.049 A 
ATOM      3  C   UNL     1     -34.820  68.908 -18.838  1.00  0.00     0.115 A 
ATOM      4  C   UNL     1     -33.979  70.017 -18.978  1.00  0.00     0.046 A 
ATOM      5  C   UNL     1     -34.519  71.304 -19.039  1.00  0.00     0.004 A 
ATOM      6  C   UNL     1     -35.903  71.489 -18.966  1.00  0.00     0.004 A 
ENDROOT
BRANCH   1   7
ATOM      7  C   UNL     1     -38.247  70.582 -18.727  1.00  0.00     0.032 C 
ATOM      8  C   UNL     1     -38.749  71.522 -19.817  1.00  0.00     0.009 C 
ENDBRANCH   1   7
BRANCH   3   9
ATOM      9  O   UNL     1     -34.269  67.631 -18.772  1.00  0.00    -0.508 OA
ATOM     10  H   UNL     1     -33.281  67.488 -18.594  1.00  0.00     0.293 HD
ENDBRANCH   3   9
TORSDOF 2
ENDMDL
MODEL 5
REMARK VINA RESULT:    -5.290      1.342      2.056
REMARK INTER + INTRA:          -5.826
REMARK INTER:                  -5.775
REMARK INTRA:                  -0.051
REMARK UNBOUND:                -0.072
REMARK SMILES CCc1cccc(O)c1
REMARK SMILES IDX 3 1 9 2 7 3 6 4 5 5 4 6 2 7 1 8 8 9
REMARK H PARENT 8 10
REMARK Flexibility Score: inf
ROOT
ATOM      1  C   UNL     1     -37.260  70.426 -18.850  1.00  0.00    -0.045 A 
ATOM      2  C   UNL     1     -36.430  71.554 -18.960  1.00  0.00     0.049 A 
ATOM      3  C   UNL     1     -35.035  71.413 -18.916  1.00  0.00     0.115 A 
ATOM      4  C   UNL     1     -34.469  70.143 -18.770  1.00  0.00     0.046 A 
ATOM      5  C   UNL     1     -35.290  69.015 -18.674  1.00  0.00     0.004 A 
ATOM      6  C   UNL     1     -36.680  69.154 -18.718  1.00  0.00     0.004 A 
ENDROOT
BRANCH   1   7
ATOM      7  C   UNL     1     -38.757  70.573 -18.931  1.00  0.00     0.032 C 
ATOM      8  C   UNL     1     -39.142  71.594 -19.994  1.00  0.00     0.009 C 
ENDBRANCH   1   7
BRANCH   3   9
ATOM      9  O   UNL     1     -34.206  72.528 -19.017  1.00  0.00    -0.508 OA
ATOM     10  H   UNL     1     -34.282  73.306 -18.371  1.00  0.00     0.293 HD
ENDBRANCH   3   9
TORSDOF 2
ENDMDL
MODEL 6
REMARK VINA RESULT:    -5.006      2.017      4.255
REMARK INTER + INTRA:          -5.517
REMARK INTER:                  -5.466
REMARK INTRA:                  -0.051
REMARK UNBOUND:                -0.072
REMARK SMILES CCc1cccc(O)c1
REMARK SMILES IDX 3 1 9 2 7 3 6 4 5 5 4 6 2 7 1 8 8 9
REMARK H PARENT 8 10
REMARK Flexibility Score: inf
ROOT
ATOM      1  C   UNL     1     -34.588  69.128 -18.897  1.00  0.00    -0.045 A 
ATOM      2  C   UNL     1     -35.961  69.060 -18.606  1.00  0.00     0.049 A 
ATOM      3  C   UNL     1     -36.728  70.232 -18.532  1.00  0.00     0.115 A 
ATOM      4  C   UNL     1     -36.123  71.473 -18.756  1.00  0.00     0.046 A 
ATOM      5  C   UNL     1     -34.761  71.546 -19.060  1.00  0.00     0.004 A 
ATOM      6  C   UNL     1     -33.996  70.378 -19.135  1.00  0.00     0.004 A 
ENDROOT
BRANCH   1   7
ATOM      7  C   UNL     1     -33.772  67.867 -19.010  1.00  0.00     0.032 C 
ATOM      8  C   UNL     1     -34.582  66.658 -18.557  1.00  0.00     0.009 C 
ENDBRANCH   1   7
BRANCH   3   9
ATOM      9  O   UNL     1     -38.087  70.174 -18.237  1.00  0.00    -0.508 OA
ATOM     10  H   UNL     1     -38.693  70.977 -18.363  1.00  0.00     0.293 HD
ENDBRANCH   3   9
TORSDOF 2
ENDMDL
MODEL 7
REMARK VINA RESULT:    -4.855      2.565      3.906
REMARK INTER + INTRA:          -5.353
REMARK INTER:                  -5.286
REMARK INTRA:                  -0.067
REMARK UNBOUND:                -0.072
REMARK SMILES CCc1cccc(O)c1
REMARK SMILES IDX 3 1 9 2 7 3 6 4 5 5 4 6 2 7 1 8 8 9
REMARK H PARENT 8 10
REMARK Flexibility Score: inf
ROOT
ATOM      1  C   UNL     1     -36.270  71.556 -18.932  1.00  0.00    -0.045 A 
ATOM      2  C   UNL     1     -36.792  72.812 -19.288  1.00  0.00     0.049 A 
ATOM      3  C   UNL     1     -38.142  72.941 -19.647  1.00  0.00     0.115 A 
ATOM      4  C   UNL     1     -38.973  71.817 -19.642  1.00  0.00     0.046 A 
ATOM      5  C   UNL     1     -38.463  70.568 -19.276  1.00  0.00     0.004 A 
ATOM      6  C   UNL     1     -37.118  70.438 -18.918  1.00  0.00     0.004 A 
ENDROOT
BRANCH   1   7
ATOM      7  C   UNL     1     -34.830  71.423 -18.514  1.00  0.00     0.032 C 
ATOM      8  C   UNL     1     -34.176  70.232 -19.205  1.00  0.00     0.009 C 
ENDBRANCH   1   7
BRANCH   3   9
ATOM      9  O   UNL     1     -38.664  74.181 -20.008  1.00  0.00    -0.508 OA
ATOM     10  H   UNL     1     -39.035  74.822 -19.315  1.00  0.00     0.293 HD
ENDBRANCH   3   9
TORSDOF 2
ENDMDL
MODEL 8
REMARK VINA RESULT:    -4.845      1.825      3.748
REMARK INTER + INTRA:          -5.342
REMARK INTER:                  -5.266
REMARK INTRA:                  -0.076
REMARK UNBOUND:                -0.072
REMARK SMILES CCc1cccc(O)c1
REMARK SMILES IDX 3 1 9 2 7 3 6 4 5 5 4 6 2 7 1 8 8 9
REMARK H PARENT 8 10
REMARK Flexibility Score: inf
ROOT
ATOM      1  C   UNL     1     -34.916  69.397 -18.890  1.00  0.00    -0.045 A 
ATOM      2  C   UNL     1     -34.870  70.797 -19.002  1.00  0.00     0.049 A 
ATOM      3  C   UNL     1     -36.031  71.560 -18.813  1.00  0.00     0.115 A 
ATOM      4  C   UNL     1     -37.239  70.925 -18.505  1.00  0.00     0.046 A 
ATOM      5  C   UNL     1     -37.287  69.534 -18.378  1.00  0.00     0.004 A 
ATOM      6  C   UNL     1     -36.130  68.771 -18.565  1.00  0.00     0.004 A 
ENDROOT
BRANCH   1   7
ATOM      7  C   UNL     1     -33.662  68.579 -19.059  1.00  0.00     0.032 C 
ATOM      8  C   UNL     1     -33.930  67.111 -18.752  1.00  0.00     0.009 C 
ENDBRANCH   1   7
BRANCH   3   9
ATOM      9  O   UNL     1     -35.995  72.948 -18.929  1.00  0.00    -0.508 OA
ATOM     10  H   UNL     1     -36.607  73.442 -19.568  1.00  0.00     0.293 HD
ENDBRANCH   3   9
TORSDOF 2
ENDMDL
MODEL 9
REMARK VINA RESULT:    -4.442      9.036      9.756
REMARK INTER + INTRA:          -4.904
REMARK INTER:                  -4.837
REMARK INTRA:                  -0.067
REMARK UNBOUND:                -0.072
REMARK SMILES CCc1cccc(O)c1
REMARK SMILES IDX 3 1 9 2 7 3 6 4 5 5 4 6 2 7 1 8 8 9
REMARK H PARENT 8 10
REMARK Flexibility Score: inf
ROOT
ATOM      1  C   UNL     1     -39.021  72.802 -10.093  1.00  0.00    -0.045 A 
ATOM      2  C   UNL     1     -37.891  73.582  -9.795  1.00  0.00     0.049 A 
ATOM      3  C   UNL     1     -37.668  74.791 -10.471  1.00  0.00     0.115 A 
ATOM      4  C   UNL     1     -38.578  75.224 -11.440  1.00  0.00     0.046 A 
ATOM      5  C   UNL     1     -39.711  74.459 -11.731  1.00  0.00     0.004 A 
ATOM      6  C   UNL     1     -39.935  73.254 -11.058  1.00  0.00     0.004 A 
ENDROOT
BRANCH   1   7
ATOM      7  C   UNL     1     -39.279  71.521  -9.344  1.00  0.00     0.032 C 
ATOM      8  C   UNL     1     -39.678  70.406 -10.303  1.00  0.00     0.009 C 
ENDBRANCH   1   7
BRANCH   3   9
ATOM      9  O   UNL     1     -36.546  75.567 -10.185  1.00  0.00    -0.508 OA
ATOM     10  H   UNL     1     -36.294  75.804  -9.233  1.00  0.00     0.293 HD
ENDBRANCH   3   9
TORSDOF 2
ENDMDL
