MODEL 1
REMARK VINA RESULT:    -2.583      0.000      0.000
REMARK INTER + INTRA:          -8.325
REMARK INTER:                  -6.810
REMARK INTRA:                  -1.515
REMARK UNBOUND:                -1.515
REMARK SMILES CCCCCCCCCCCCCCCCCCCCCCCCCCCCCC(=O)[O-]
REMARK SMILES IDX 16 1 17 2 18 3 19 4 20 5 21 6 22 7 23 8 24 9 25 10 26 11
REMARK SMILES IDX 27 12 28 13 29 14 30 15 31 16 32 17 15 18 14 19 13 20 12 21
REMARK SMILES IDX 11 22 10 23 9 24 8 25 7 26 6 27 5 28 4 29 3 30 2 31 1 32
REMARK H PARENT
REMARK Flexibility Score: inf
ROOT
ATOM      1  C   UNL     1      -1.653  15.999  -3.426  1.00  0.00     0.000 C 
ENDROOT
BRANCH   1   2
ATOM      2  C   UNL     1      -1.316  16.251  -4.907  1.00  0.00     0.000 C 
BRANCH   2   3
ATOM      3  C   UNL     1      -1.913  15.188  -5.842  1.00  0.00     0.000 C 
BRANCH   3   4
ATOM      4  C   UNL     1      -2.934  14.313  -5.099  1.00  0.00     0.000 C 
BRANCH   4   5
ATOM      5  C   UNL     1      -3.001  12.872  -5.645  1.00  0.00     0.000 C 
BRANCH   5   6
ATOM      6  C   UNL     1      -2.349  11.805  -4.745  1.00  0.00     0.000 C 
BRANCH   6   7
ATOM      7  C   UNL     1      -0.944  12.160  -4.214  1.00  0.00     0.000 C 
BRANCH   7   8
ATOM      8  C   UNL     1      -0.271  11.021  -3.422  1.00  0.00     0.000 C 
BRANCH   8   9
ATOM      9  C   UNL     1       1.157  11.363  -2.938  1.00  0.00     0.000 C 
BRANCH   9  10
ATOM     10  C   UNL     1       2.212  10.351  -3.419  1.00  0.00     0.000 C 
BRANCH  10  11
ATOM     11  C   UNL     1       3.174   9.904  -2.303  1.00  0.00     0.000 C 
BRANCH  11  12
ATOM     12  C   UNL     1       2.425   9.434  -1.042  1.00  0.00     0.000 C 
BRANCH  12  13
ATOM     13  C   UNL     1       2.315   7.904  -0.965  1.00  0.00     0.006 C 
BRANCH  13  14
ATOM     14  C   UNL     1       3.400   7.285  -0.074  1.00  0.00     0.053 C 
BRANCH  14  15
ATOM     15  C   UNL     1       2.790   6.743   1.180  1.00  0.00     0.041 C 
ATOM     16  O   UNL     1       1.664   7.154   1.566  1.00  0.00    -0.550 OA
ATOM     17  O   UNL     1       3.493   5.837   1.959  1.00  0.00    -0.550 OA
ENDBRANCH  14  15
ENDBRANCH  13  14
ENDBRANCH  12  13
ENDBRANCH  11  12
ENDBRANCH  10  11
ENDBRANCH   9  10
ENDBRANCH   8   9
ENDBRANCH   7   8
ENDBRANCH   6   7
ENDBRANCH   5   6
ENDBRANCH   4   5
ENDBRANCH   3   4
ENDBRANCH   2   3
ENDBRANCH   1   2
BRANCH   1  18
ATOM     18  C   UNL     1      -0.436  15.878  -2.490  1.00  0.00     0.000 C 
BRANCH  18  19
ATOM     19  C   UNL     1      -0.721  16.148  -1.000  1.00  0.00     0.000 C 
BRANCH  19  20
ATOM     20  C   UNL     1       0.533  16.101  -0.098  1.00  0.00     0.000 C 
BRANCH  20  21
ATOM     21  C   UNL     1       0.502  17.057   1.114  1.00  0.00     0.000 C 
BRANCH  21  22
ATOM     22  C   UNL     1       1.821  17.172   1.906  1.00  0.00     0.000 C 
BRANCH  22  23
ATOM     23  C   UNL     1       1.813  16.512   3.298  1.00  0.00     0.000 C 
BRANCH  23  24
ATOM     24  C   UNL     1       1.356  17.427   4.449  1.00  0.00    -0.000 C 
BRANCH  24  25
ATOM     25  C   UNL     1       0.839  16.644   5.665  1.00  0.00    -0.000 C 
BRANCH  25  26
ATOM     26  C   UNL     1      -0.653  16.909   5.897  1.00  0.00    -0.000 C 
BRANCH  26  27
ATOM     27  C   UNL     1      -1.277  15.804   6.760  1.00  0.00    -0.000 C 
BRANCH  27  28
ATOM     28  C   UNL     1      -2.797  15.972   6.938  1.00  0.00    -0.000 C 
BRANCH  28  29
ATOM     29  C   UNL     1      -3.223  17.029   7.979  1.00  0.00    -0.000 C 
BRANCH  29  30
ATOM     30  C   UNL     1      -4.285  16.559   8.988  1.00  0.00    -0.000 C 
BRANCH  30  31
ATOM     31  C   UNL     1      -5.138  15.393   8.465  1.00  0.00    -0.003 C 
ATOM     32  C   UNL     1      -5.267  14.291   9.511  1.00  0.00     0.004 C 
ENDBRANCH  30  31
ENDBRANCH  29  30
ENDBRANCH  28  29
ENDBRANCH  27  28
ENDBRANCH  26  27
ENDBRANCH  25  26
ENDBRANCH  24  25
ENDBRANCH  23  24
ENDBRANCH  22  23
ENDBRANCH  21  22
ENDBRANCH  20  21
ENDBRANCH  19  20
ENDBRANCH  18  19
ENDBRANCH   1  18
TORSDOF 28
ENDMDL
MODEL 2
REMARK VINA RESULT:    -2.134      3.288     10.155
REMARK INTER + INTRA:          -7.141
REMARK INTER:                  -5.208
REMARK INTRA:                  -1.933
REMARK UNBOUND:                -1.515
REMARK SMILES CCCCCCCCCCCCCCCCCCCCCCCCCCCCCC(=O)[O-]
REMARK SMILES IDX 16 1 17 2 18 3 19 4 20 5 21 6 22 7 23 8 24 9 25 10 26 11
REMARK SMILES IDX 27 12 28 13 29 14 30 15 31 16 32 17 15 18 14 19 13 20 12 21
REMARK SMILES IDX 11 22 10 23 9 24 8 25 7 26 6 27 5 28 4 29 3 30 2 31 1 32
REMARK H PARENT
REMARK Flexibility Score: inf
ROOT
ATOM      1  C   UNL     1      -0.672  17.301  -4.879  1.00  0.00     0.000 C 
ENDROOT
BRANCH   1   2
ATOM      2  C   UNL     1       0.035  16.869  -3.581  1.00  0.00     0.000 C 
BRANCH   2   3
ATOM      3  C   UNL     1      -0.883  16.078  -2.637  1.00  0.00     0.000 C 
BRANCH   3   4
ATOM      4  C   UNL     1      -0.083  15.462  -1.479  1.00  0.00     0.000 C 
BRANCH   4   5
ATOM      5  C   UNL     1      -0.142  16.309  -0.192  1.00  0.00     0.000 C 
BRANCH   5   6
ATOM      6  C   UNL     1       1.135  16.273   0.669  1.00  0.00     0.000 C 
BRANCH   6   7
ATOM      7  C   UNL     1       1.186  17.305   1.815  1.00  0.00     0.000 C 
BRANCH   7   8
ATOM      8  C   UNL     1       1.856  16.777   3.100  1.00  0.00     0.000 C 
BRANCH   8   9
ATOM      9  C   UNL     1       1.487  17.584   4.366  1.00  0.00     0.000 C 
BRANCH   9  10
ATOM     10  C   UNL     1       0.926  16.702   5.496  1.00  0.00     0.000 C 
BRANCH  10  11
ATOM     11  C   UNL     1      -0.587  16.891   5.716  1.00  0.00     0.000 C 
BRANCH  11  12
ATOM     12  C   UNL     1      -1.170  15.845   6.683  1.00  0.00     0.000 C 
BRANCH  12  13
ATOM     13  C   UNL     1      -2.705  15.805   6.642  1.00  0.00     0.006 C 
BRANCH  13  14
ATOM     14  C   UNL     1      -3.340  16.523   7.840  1.00  0.00     0.053 C 
BRANCH  14  15
ATOM     15  C   UNL     1      -4.492  15.726   8.367  1.00  0.00     0.041 C 
ATOM     16  O   UNL     1      -5.012  16.021   9.476  1.00  0.00    -0.550 OA
ATOM     17  O   UNL     1      -4.944  14.616   7.671  1.00  0.00    -0.550 OA
ENDBRANCH  14  15
ENDBRANCH  13  14
ENDBRANCH  12  13
ENDBRANCH  11  12
ENDBRANCH  10  11
ENDBRANCH   9  10
ENDBRANCH   8   9
ENDBRANCH   7   8
ENDBRANCH   6   7
ENDBRANCH   5   6
ENDBRANCH   4   5
ENDBRANCH   3   4
ENDBRANCH   2   3
ENDBRANCH   1   2
BRANCH   1  18
ATOM     18  C   UNL     1      -0.449  16.370  -6.086  1.00  0.00     0.000 C 
BRANCH  18  19
ATOM     19  C   UNL     1      -1.053  14.959  -5.949  1.00  0.00     0.000 C 
BRANCH  19  20
ATOM     20  C   UNL     1      -2.583  14.945  -5.729  1.00  0.00     0.000 C 
BRANCH  20  21
ATOM     21  C   UNL     1      -3.073  13.986  -4.623  1.00  0.00     0.000 C 
BRANCH  21  22
ATOM     22  C   UNL     1      -3.278  12.519  -5.057  1.00  0.00     0.000 C 
BRANCH  22  23
ATOM     23  C   UNL     1      -2.034  11.617  -4.939  1.00  0.00     0.000 C 
BRANCH  23  24
ATOM     24  C   UNL     1      -1.244  11.768  -3.626  1.00  0.00    -0.000 C 
BRANCH  24  25
ATOM     25  C   UNL     1       0.213  12.197  -3.852  1.00  0.00    -0.000 C 
BRANCH  25  26
ATOM     26  C   UNL     1       1.169  11.389  -2.966  1.00  0.00    -0.000 C 
BRANCH  26  27
ATOM     27  C   UNL     1       0.401  10.351  -2.137  1.00  0.00    -0.000 C 
BRANCH  27  28
ATOM     28  C   UNL     1       1.048  10.084  -0.767  1.00  0.00    -0.000 C 
BRANCH  28  29
ATOM     29  C   UNL     1       2.231   9.092  -0.782  1.00  0.00    -0.000 C 
BRANCH  29  30
ATOM     30  C   UNL     1       2.430   8.294   0.519  1.00  0.00    -0.000 C 
BRANCH  30  31
ATOM     31  C   UNL     1       3.386   7.103   0.353  1.00  0.00    -0.003 C 
ATOM     32  C   UNL     1       3.728   6.479   1.701  1.00  0.00     0.004 C 
ENDBRANCH  30  31
ENDBRANCH  29  30
ENDBRANCH  28  29
ENDBRANCH  27  28
ENDBRANCH  26  27
ENDBRANCH  25  26
ENDBRANCH  24  25
ENDBRANCH  23  24
ENDBRANCH  22  23
ENDBRANCH  21  22
ENDBRANCH  20  21
ENDBRANCH  19  20
ENDBRANCH  18  19
ENDBRANCH   1  18
TORSDOF 28
ENDMDL
MODEL 3
REMARK VINA RESULT:    -1.915      0.959      1.805
REMARK INTER + INTRA:          -6.566
REMARK INTER:                  -5.089
REMARK INTRA:                  -1.477
REMARK UNBOUND:                -1.515
REMARK SMILES CCCCCCCCCCCCCCCCCCCCCCCCCCCCCC(=O)[O-]
REMARK SMILES IDX 16 1 17 2 18 3 19 4 20 5 21 6 22 7 23 8 24 9 25 10 26 11
REMARK SMILES IDX 27 12 28 13 29 14 30 15 31 16 32 17 15 18 14 19 13 20 12 21
REMARK SMILES IDX 11 22 10 23 9 24 8 25 7 26 6 27 5 28 4 29 3 30 2 31 1 32
REMARK H PARENT
REMARK Flexibility Score: inf
ROOT
ATOM      1  C   UNL     1      -0.491  15.728  -2.654  1.00  0.00     0.000 C 
ENDROOT
BRANCH   1   2
ATOM      2  C   UNL     1      -0.405  16.260  -4.097  1.00  0.00     0.000 C 
BRANCH   2   3
ATOM      3  C   UNL     1      -0.273  15.138  -5.138  1.00  0.00     0.000 C 
BRANCH   3   4
ATOM      4  C   UNL     1      -1.450  15.162  -6.125  1.00  0.00     0.000 C 
BRANCH   4   5
ATOM      5  C   UNL     1      -2.814  14.951  -5.438  1.00  0.00     0.000 C 
BRANCH   5   6
ATOM      6  C   UNL     1      -3.612  13.731  -5.937  1.00  0.00     0.000 C 
BRANCH   6   7
ATOM      7  C   UNL     1      -3.025  12.357  -5.553  1.00  0.00     0.000 C 
BRANCH   7   8
ATOM      8  C   UNL     1      -2.323  12.341  -4.180  1.00  0.00     0.000 C 
BRANCH   8   9
ATOM      9  C   UNL     1      -1.138  11.351  -4.103  1.00  0.00     0.000 C 
BRANCH   9  10
ATOM     10  C   UNL     1       0.164  12.011  -3.617  1.00  0.00     0.000 C 
BRANCH  10  11
ATOM     11  C   UNL     1       1.130  11.019  -2.942  1.00  0.00     0.000 C 
BRANCH  11  12
ATOM     12  C   UNL     1       0.551  10.437  -1.639  1.00  0.00     0.000 C 
BRANCH  12  13
ATOM     13  C   UNL     1       1.635   9.809  -0.750  1.00  0.00     0.006 C 
BRANCH  13  14
ATOM     14  C   UNL     1       1.070   8.730   0.184  1.00  0.00     0.053 C 
BRANCH  14  15
ATOM     15  C   UNL     1       2.063   7.622   0.351  1.00  0.00     0.041 C 
ATOM     16  O   UNL     1       2.795   7.276  -0.613  1.00  0.00    -0.550 OA
ATOM     17  O   UNL     1       2.130   6.926   1.548  1.00  0.00    -0.550 OA
ENDBRANCH  14  15
ENDBRANCH  13  14
ENDBRANCH  12  13
ENDBRANCH  11  12
ENDBRANCH  10  11
ENDBRANCH   9  10
ENDBRANCH   8   9
ENDBRANCH   7   8
ENDBRANCH   6   7
ENDBRANCH   5   6
ENDBRANCH   4   5
ENDBRANCH   3   4
ENDBRANCH   2   3
ENDBRANCH   1   2
BRANCH   1  18
ATOM     18  C   UNL     1       0.205  16.601  -1.593  1.00  0.00     0.000 C 
BRANCH  18  19
ATOM     19  C   UNL     1      -0.055  16.192  -0.130  1.00  0.00     0.000 C 
BRANCH  19  20
ATOM     20  C   UNL     1       1.228  15.913   0.686  1.00  0.00     0.000 C 
BRANCH  20  21
ATOM     21  C   UNL     1       1.607  17.012   1.701  1.00  0.00     0.000 C 
BRANCH  21  22
ATOM     22  C   UNL     1       1.895  16.523   3.136  1.00  0.00     0.000 C 
BRANCH  22  23
ATOM     23  C   UNL     1       1.391  17.448   4.261  1.00  0.00     0.000 C 
BRANCH  23  24
ATOM     24  C   UNL     1       0.983  16.729   5.560  1.00  0.00    -0.000 C 
BRANCH  24  25
ATOM     25  C   UNL     1      -0.477  16.996   5.956  1.00  0.00    -0.000 C 
BRANCH  25  26
ATOM     26  C   UNL     1      -1.096  15.768   6.634  1.00  0.00    -0.000 C 
BRANCH  26  27
ATOM     27  C   UNL     1      -2.603  15.961   6.845  1.00  0.00    -0.000 C 
BRANCH  27  28
ATOM     28  C   UNL     1      -2.931  17.157   7.757  1.00  0.00    -0.000 C 
BRANCH  28  29
ATOM     29  C   UNL     1      -3.856  16.837   8.951  1.00  0.00    -0.000 C 
BRANCH  29  30
ATOM     30  C   UNL     1      -5.211  16.211   8.577  1.00  0.00    -0.000 C 
BRANCH  30  31
ATOM     31  C   UNL     1      -5.142  14.685   8.411  1.00  0.00    -0.003 C 
ATOM     32  C   UNL     1      -5.465  13.973   9.721  1.00  0.00     0.004 C 
ENDBRANCH  30  31
ENDBRANCH  29  30
ENDBRANCH  28  29
ENDBRANCH  27  28
ENDBRANCH  26  27
ENDBRANCH  25  26
ENDBRANCH  24  25
ENDBRANCH  23  24
ENDBRANCH  22  23
ENDBRANCH  21  22
ENDBRANCH  20  21
ENDBRANCH  19  20
ENDBRANCH  18  19
ENDBRANCH   1  18
TORSDOF 28
ENDMDL
MODEL 4
REMARK VINA RESULT:    -1.841      1.541      2.067
REMARK INTER + INTRA:          -6.369
REMARK INTER:                  -5.125
REMARK INTRA:                  -1.244
REMARK UNBOUND:                -1.515
REMARK SMILES CCCCCCCCCCCCCCCCCCCCCCCCCCCCCC(=O)[O-]
REMARK SMILES IDX 16 1 17 2 18 3 19 4 20 5 21 6 22 7 23 8 24 9 25 10 26 11
REMARK SMILES IDX 27 12 28 13 29 14 30 15 31 16 32 17 15 18 14 19 13 20 12 21
REMARK SMILES IDX 11 22 10 23 9 24 8 25 7 26 6 27 5 28 4 29 3 30 2 31 1 32
REMARK H PARENT
REMARK Flexibility Score: inf
ROOT
ATOM      1  C   UNL     1      -1.575  16.183  -3.667  1.00  0.00     0.000 C 
ENDROOT
BRANCH   1   2
ATOM      2  C   UNL     1      -1.246  16.525  -5.133  1.00  0.00     0.000 C 
BRANCH   2   3
ATOM      3  C   UNL     1      -0.398  15.444  -5.819  1.00  0.00     0.000 C 
BRANCH   3   4
ATOM      4  C   UNL     1      -0.434  14.129  -5.025  1.00  0.00     0.000 C 
BRANCH   4   5
ATOM      5  C   UNL     1       0.967  13.526  -4.798  1.00  0.00     0.000 C 
BRANCH   5   6
ATOM      6  C   UNL     1       2.106  14.222  -5.567  1.00  0.00     0.000 C 
BRANCH   6   7
ATOM      7  C   UNL     1       3.494  13.563  -5.427  1.00  0.00     0.000 C 
BRANCH   7   8
ATOM      8  C   UNL     1       3.483  12.035  -5.640  1.00  0.00     0.000 C 
BRANCH   8   9
ATOM      9  C   UNL     1       4.101  11.242  -4.465  1.00  0.00     0.000 C 
BRANCH   9  10
ATOM     10  C   UNL     1       3.174  10.133  -3.938  1.00  0.00     0.000 C 
BRANCH  10  11
ATOM     11  C   UNL     1       3.883   9.158  -2.979  1.00  0.00     0.000 C 
BRANCH  11  12
ATOM     12  C   UNL     1       3.654   9.526  -1.501  1.00  0.00     0.000 C 
BRANCH  12  13
ATOM     13  C   UNL     1       2.163   9.671  -1.161  1.00  0.00     0.006 C 
BRANCH  13  14
ATOM     14  C   UNL     1       1.844   9.222   0.271  1.00  0.00     0.053 C 
BRANCH  14  15
ATOM     15  C   UNL     1       1.661   7.738   0.317  1.00  0.00     0.041 C 
ATOM     16  O   UNL     1       1.169   7.129  -0.670  1.00  0.00    -0.550 OA
ATOM     17  O   UNL     1       1.966   7.036   1.473  1.00  0.00    -0.550 OA
ENDBRANCH  14  15
ENDBRANCH  13  14
ENDBRANCH  12  13
ENDBRANCH  11  12
ENDBRANCH  10  11
ENDBRANCH   9  10
ENDBRANCH   8   9
ENDBRANCH   7   8
ENDBRANCH   6   7
ENDBRANCH   5   6
ENDBRANCH   4   5
ENDBRANCH   3   4
ENDBRANCH   2   3
ENDBRANCH   1   2
BRANCH   1  18
ATOM     18  C   UNL     1      -0.378  16.236  -2.699  1.00  0.00     0.000 C 
BRANCH  18  19
ATOM     19  C   UNL     1      -0.741  16.231  -1.201  1.00  0.00     0.000 C 
BRANCH  19  20
ATOM     20  C   UNL     1       0.468  16.035  -0.259  1.00  0.00     0.000 C 
BRANCH  20  21
ATOM     21  C   UNL     1       0.417  16.856   1.047  1.00  0.00     0.000 C 
BRANCH  21  22
ATOM     22  C   UNL     1       1.770  17.055   1.762  1.00  0.00     0.000 C 
BRANCH  22  23
ATOM     23  C   UNL     1       1.835  16.523   3.207  1.00  0.00     0.000 C 
BRANCH  23  24
ATOM     24  C   UNL     1       1.708  17.598   4.302  1.00  0.00    -0.000 C 
BRANCH  24  25
ATOM     25  C   UNL     1       1.103  17.055   5.605  1.00  0.00    -0.000 C 
BRANCH  25  26
ATOM     26  C   UNL     1      -0.415  16.884   5.477  1.00  0.00    -0.000 C 
BRANCH  26  27
ATOM     27  C   UNL     1      -0.966  16.014   6.615  1.00  0.00    -0.000 C 
BRANCH  27  28
ATOM     28  C   UNL     1      -2.503  15.963   6.638  1.00  0.00    -0.000 C 
BRANCH  28  29
ATOM     29  C   UNL     1      -3.152  16.319   7.993  1.00  0.00    -0.000 C 
BRANCH  29  30
ATOM     30  C   UNL     1      -4.672  16.091   8.068  1.00  0.00    -0.000 C 
BRANCH  30  31
ATOM     31  C   UNL     1      -5.156  15.723   9.479  1.00  0.00    -0.003 C 
ATOM     32  C   UNL     1      -5.406  14.224   9.602  1.00  0.00     0.004 C 
ENDBRANCH  30  31
ENDBRANCH  29  30
ENDBRANCH  28  29
ENDBRANCH  27  28
ENDBRANCH  26  27
ENDBRANCH  25  26
ENDBRANCH  24  25
ENDBRANCH  23  24
ENDBRANCH  22  23
ENDBRANCH  21  22
ENDBRANCH  20  21
ENDBRANCH  19  20
ENDBRANCH  18  19
ENDBRANCH   1  18
TORSDOF 28
ENDMDL
MODEL 5
REMARK VINA RESULT:    -1.761      3.533     10.484
REMARK INTER + INTRA:          -6.159
REMARK INTER:                  -4.413
REMARK INTRA:                  -1.747
REMARK UNBOUND:                -1.515
REMARK SMILES CCCCCCCCCCCCCCCCCCCCCCCCCCCCCC(=O)[O-]
REMARK SMILES IDX 16 1 17 2 18 3 19 4 20 5 21 6 22 7 23 8 24 9 25 10 26 11
REMARK SMILES IDX 27 12 28 13 29 14 30 15 31 16 32 17 15 18 14 19 13 20 12 21
REMARK SMILES IDX 11 22 10 23 9 24 8 25 7 26 6 27 5 28 4 29 3 30 2 31 1 32
REMARK H PARENT
REMARK Flexibility Score: inf
ROOT
ATOM      1  C   UNL     1      -0.775  16.349  -3.670  1.00  0.00     0.000 C 
ENDROOT
BRANCH   1   2
ATOM      2  C   UNL     1      -0.809  15.441  -2.426  1.00  0.00     0.000 C 
BRANCH   2   3
ATOM      3  C   UNL     1      -0.758  16.232  -1.110  1.00  0.00     0.000 C 
BRANCH   3   4
ATOM      4  C   UNL     1       0.503  15.882  -0.306  1.00  0.00     0.000 C 
BRANCH   4   5
ATOM      5  C   UNL     1       0.725  16.817   0.900  1.00  0.00     0.000 C 
BRANCH   5   6
ATOM      6  C   UNL     1       1.945  16.470   1.775  1.00  0.00     0.000 C 
BRANCH   6   7
ATOM      7  C   UNL     1       2.025  17.222   3.120  1.00  0.00     0.000 C 
BRANCH   7   8
ATOM      8  C   UNL     1       0.777  17.045   4.009  1.00  0.00     0.000 C 
BRANCH   8   9
ATOM      9  C   UNL     1       1.090  17.049   5.523  1.00  0.00     0.000 C 
BRANCH   9  10
ATOM     10  C   UNL     1       0.082  16.228   6.346  1.00  0.00     0.000 C 
BRANCH  10  11
ATOM     11  C   UNL     1      -1.376  16.675   6.135  1.00  0.00     0.000 C 
BRANCH  11  12
ATOM     12  C   UNL     1      -2.385  15.622   6.632  1.00  0.00     0.000 C 
BRANCH  12  13
ATOM     13  C   UNL     1      -3.494  16.241   7.496  1.00  0.00     0.006 C 
BRANCH  13  14
ATOM     14  C   UNL     1      -4.649  15.264   7.752  1.00  0.00     0.053 C 
BRANCH  14  15
ATOM     15  C   UNL     1      -4.973  15.220   9.212  1.00  0.00     0.041 C 
ATOM     16  O   UNL     1      -4.672  16.189   9.958  1.00  0.00    -0.550 OA
ATOM     17  O   UNL     1      -5.543  14.082   9.763  1.00  0.00    -0.550 OA
ENDBRANCH  14  15
ENDBRANCH  13  14
ENDBRANCH  12  13
ENDBRANCH  11  12
ENDBRANCH  10  11
ENDBRANCH   9  10
ENDBRANCH   8   9
ENDBRANCH   7   8
ENDBRANCH   6   7
ENDBRANCH   5   6
ENDBRANCH   4   5
ENDBRANCH   3   4
ENDBRANCH   2   3
ENDBRANCH   1   2
BRANCH   1  18
ATOM     18  C   UNL     1      -1.918  16.121  -4.677  1.00  0.00     0.000 C 
BRANCH  18  19
ATOM     19  C   UNL     1      -1.759  14.886  -5.585  1.00  0.00     0.000 C 
BRANCH  19  20
ATOM     20  C   UNL     1      -3.012  13.984  -5.651  1.00  0.00     0.000 C 
BRANCH  20  21
ATOM     21  C   UNL     1      -3.039  12.829  -4.628  1.00  0.00     0.000 C 
BRANCH  21  22
ATOM     22  C   UNL     1      -1.911  11.785  -4.772  1.00  0.00     0.000 C 
BRANCH  22  23
ATOM     23  C   UNL     1      -0.797  11.868  -3.711  1.00  0.00     0.000 C 
BRANCH  23  24
ATOM     24  C   UNL     1       0.454  12.656  -4.142  1.00  0.00    -0.000 C 
BRANCH  24  25
ATOM     25  C   UNL     1       1.739  11.819  -4.078  1.00  0.00    -0.000 C 
BRANCH  25  26
ATOM     26  C   UNL     1       1.622  10.710  -3.025  1.00  0.00    -0.000 C 
BRANCH  26  27
ATOM     27  C   UNL     1       2.916   9.889  -2.948  1.00  0.00    -0.000 C 
BRANCH  27  28
ATOM     28  C   UNL     1       2.897   8.850  -1.812  1.00  0.00    -0.000 C 
BRANCH  28  29
ATOM     29  C   UNL     1       1.606   8.825  -0.967  1.00  0.00    -0.000 C 
BRANCH  29  30
ATOM     30  C   UNL     1       1.822   8.676   0.549  1.00  0.00    -0.000 C 
BRANCH  30  31
ATOM     31  C   UNL     1       1.544   7.253   1.059  1.00  0.00    -0.003 C 
ATOM     32  C   UNL     1       2.838   6.541   1.439  1.00  0.00     0.004 C 
ENDBRANCH  30  31
ENDBRANCH  29  30
ENDBRANCH  28  29
ENDBRANCH  27  28
ENDBRANCH  26  27
ENDBRANCH  25  26
ENDBRANCH  24  25
ENDBRANCH  23  24
ENDBRANCH  22  23
ENDBRANCH  21  22
ENDBRANCH  20  21
ENDBRANCH  19  20
ENDBRANCH  18  19
ENDBRANCH   1  18
TORSDOF 28
ENDMDL
MODEL 6
REMARK VINA RESULT:    -1.617      3.840      6.760
REMARK INTER + INTRA:          -5.778
REMARK INTER:                  -6.241
REMARK INTRA:                   0.463
REMARK UNBOUND:                -1.515
REMARK SMILES CCCCCCCCCCCCCCCCCCCCCCCCCCCCCC(=O)[O-]
REMARK SMILES IDX 16 1 17 2 18 3 19 4 20 5 21 6 22 7 23 8 24 9 25 10 26 11
REMARK SMILES IDX 27 12 28 13 29 14 30 15 31 16 32 17 15 18 14 19 13 20 12 21
REMARK SMILES IDX 11 22 10 23 9 24 8 25 7 26 6 27 5 28 4 29 3 30 2 31 1 32
REMARK H PARENT
REMARK Flexibility Score: inf
ROOT
ATOM      1  C   UNL     1      -0.236  11.765  -3.358  1.00  0.00     0.000 C 
ENDROOT
BRANCH   1   2
ATOM      2  C   UNL     1       0.915  12.460  -4.110  1.00  0.00     0.000 C 
BRANCH   2   3
ATOM      3  C   UNL     1       0.424  13.556  -5.068  1.00  0.00     0.000 C 
BRANCH   3   4
ATOM      4  C   UNL     1       1.603  14.366  -5.627  1.00  0.00     0.000 C 
BRANCH   4   5
ATOM      5  C   UNL     1       2.958  13.956  -5.015  1.00  0.00     0.000 C 
BRANCH   5   6
ATOM      6  C   UNL     1       3.659  12.779  -5.719  1.00  0.00     0.000 C 
BRANCH   6   7
ATOM      7  C   UNL     1       4.118  11.635  -4.791  1.00  0.00     0.000 C 
BRANCH   7   8
ATOM      8  C   UNL     1       3.122  10.461  -4.709  1.00  0.00     0.000 C 
BRANCH   8   9
ATOM      9  C   UNL     1       3.790   9.105  -4.382  1.00  0.00     0.000 C 
BRANCH   9  10
ATOM     10  C   UNL     1       4.125   8.946  -2.889  1.00  0.00     0.000 C 
BRANCH  10  11
ATOM     11  C   UNL     1       2.874   8.836  -1.997  1.00  0.00     0.000 C 
BRANCH  11  12
ATOM     12  C   UNL     1       3.053   9.562  -0.650  1.00  0.00     0.000 C 
BRANCH  12  13
ATOM     13  C   UNL     1       3.951   8.779   0.319  1.00  0.00     0.006 C 
BRANCH  13  14
ATOM     14  C   UNL     1       3.781   7.261   0.177  1.00  0.00     0.053 C 
BRANCH  14  15
ATOM     15  C   UNL     1       2.894   6.738   1.262  1.00  0.00     0.041 C 
ATOM     16  O   UNL     1       3.290   5.806   2.011  1.00  0.00    -0.550 OA
ATOM     17  O   UNL     1       1.605   7.231   1.404  1.00  0.00    -0.550 OA
ENDBRANCH  14  15
ENDBRANCH  13  14
ENDBRANCH  12  13
ENDBRANCH  11  12
ENDBRANCH  10  11
ENDBRANCH   9  10
ENDBRANCH   8   9
ENDBRANCH   7   8
ENDBRANCH   6   7
ENDBRANCH   5   6
ENDBRANCH   4   5
ENDBRANCH   3   4
ENDBRANCH   2   3
ENDBRANCH   1   2
BRANCH   1  18
ATOM     18  C   UNL     1      -1.473  11.437  -4.215  1.00  0.00     0.000 C 
BRANCH  18  19
ATOM     19  C   UNL     1      -1.771  12.436  -5.350  1.00  0.00     0.000 C 
BRANCH  19  20
ATOM     20  C   UNL     1      -3.271  12.763  -5.526  1.00  0.00     0.000 C 
BRANCH  20  21
ATOM     21  C   UNL     1      -3.795  13.915  -4.643  1.00  0.00     0.000 C 
BRANCH  21  22
ATOM     22  C   UNL     1      -2.786  15.047  -4.356  1.00  0.00     0.000 C 
BRANCH  22  23
ATOM     23  C   UNL     1      -2.190  15.730  -5.602  1.00  0.00     0.000 C 
BRANCH  23  24
ATOM     24  C   UNL     1      -1.915  17.237  -5.450  1.00  0.00    -0.000 C 
BRANCH  24  25
ATOM     25  C   UNL     1      -0.417  17.570  -5.411  1.00  0.00    -0.000 C 
BRANCH  25  26
ATOM     26  C   UNL     1       0.175  17.283  -4.026  1.00  0.00    -0.000 C 
BRANCH  26  27
ATOM     27  C   UNL     1      -0.826  16.517  -3.151  1.00  0.00    -0.000 C 
BRANCH  27  28
ATOM     28  C   UNL     1      -0.146  15.718  -2.025  1.00  0.00    -0.000 C 
BRANCH  28  29
ATOM     29  C   UNL     1      -0.298  16.317  -0.611  1.00  0.00    -0.000 C 
BRANCH  29  30
ATOM     30  C   UNL     1       0.912  16.111   0.318  1.00  0.00    -0.000 C 
BRANCH  30  31
ATOM     31  C   UNL     1       0.900  17.046   1.537  1.00  0.00    -0.003 C 
ATOM     32  C   UNL     1       2.182  16.908   2.350  1.00  0.00     0.004 C 
ENDBRANCH  30  31
ENDBRANCH  29  30
ENDBRANCH  28  29
ENDBRANCH  27  28
ENDBRANCH  26  27
ENDBRANCH  25  26
ENDBRANCH  24  25
ENDBRANCH  23  24
ENDBRANCH  22  23
ENDBRANCH  21  22
ENDBRANCH  20  21
ENDBRANCH  19  20
ENDBRANCH  18  19
ENDBRANCH   1  18
TORSDOF 28
ENDMDL
MODEL 7
REMARK VINA RESULT:    -1.529      3.461     10.795
REMARK INTER + INTRA:          -5.547
REMARK INTER:                  -3.875
REMARK INTRA:                  -1.672
REMARK UNBOUND:                -1.515
REMARK SMILES CCCCCCCCCCCCCCCCCCCCCCCCCCCCCC(=O)[O-]
REMARK SMILES IDX 16 1 17 2 18 3 19 4 20 5 21 6 22 7 23 8 24 9 25 10 26 11
REMARK SMILES IDX 27 12 28 13 29 14 30 15 31 16 32 17 15 18 14 19 13 20 12 21
REMARK SMILES IDX 11 22 10 23 9 24 8 25 7 26 6 27 5 28 4 29 3 30 2 31 1 32
REMARK H PARENT
REMARK Flexibility Score: inf
ROOT
ATOM      1  C   UNL     1      -0.948  15.890  -2.597  1.00  0.00     0.000 C 
ENDROOT
BRANCH   1   2
ATOM      2  C   UNL     1       0.072  15.445  -1.532  1.00  0.00     0.000 C 
BRANCH   2   3
ATOM      3  C   UNL     1      -0.064  16.225  -0.216  1.00  0.00     0.000 C 
BRANCH   3   4
ATOM      4  C   UNL     1       1.255  16.206   0.574  1.00  0.00     0.000 C 
BRANCH   4   5
ATOM      5  C   UNL     1       1.270  17.212   1.742  1.00  0.00     0.000 C 
BRANCH   5   6
ATOM      6  C   UNL     1       1.862  16.671   3.058  1.00  0.00     0.000 C 
BRANCH   6   7
ATOM      7  C   UNL     1       1.502  17.478   4.323  1.00  0.00     0.000 C 
BRANCH   7   8
ATOM      8  C   UNL     1       0.996  16.610   5.493  1.00  0.00     0.000 C 
BRANCH   8   9
ATOM      9  C   UNL     1      -0.473  16.895   5.884  1.00  0.00     0.000 C 
BRANCH   9  10
ATOM     10  C   UNL     1      -1.103  15.764   6.714  1.00  0.00     0.000 C 
BRANCH  10  11
ATOM     11  C   UNL     1      -2.632  15.891   6.849  1.00  0.00     0.000 C 
BRANCH  11  12
ATOM     12  C   UNL     1      -3.039  16.985   7.852  1.00  0.00     0.000 C 
BRANCH  12  13
ATOM     13  C   UNL     1      -4.358  16.658   8.568  1.00  0.00     0.006 C 
BRANCH  13  14
ATOM     14  C   UNL     1      -4.875  15.254   8.226  1.00  0.00     0.053 C 
BRANCH  14  15
ATOM     15  C   UNL     1      -5.444  14.603   9.447  1.00  0.00     0.041 C 
ATOM     16  O   UNL     1      -5.307  13.364   9.628  1.00  0.00    -0.550 OA
ATOM     17  O   UNL     1      -6.187  15.349  10.350  1.00  0.00    -0.550 OA
ENDBRANCH  14  15
ENDBRANCH  13  14
ENDBRANCH  12  13
ENDBRANCH  11  12
ENDBRANCH  10  11
ENDBRANCH   9  10
ENDBRANCH   8   9
ENDBRANCH   7   8
ENDBRANCH   6   7
ENDBRANCH   5   6
ENDBRANCH   4   5
ENDBRANCH   3   4
ENDBRANCH   2   3
ENDBRANCH   1   2
BRANCH   1  18
ATOM     18  C   UNL     1      -0.486  17.049  -3.500  1.00  0.00     0.000 C 
BRANCH  18  19
ATOM     19  C   UNL     1      -0.076  16.647  -4.930  1.00  0.00     0.000 C 
BRANCH  19  20
ATOM     20  C   UNL     1      -1.184  16.857  -5.987  1.00  0.00     0.000 C 
BRANCH  20  21
ATOM     21  C   UNL     1      -2.471  16.037  -5.755  1.00  0.00     0.000 C 
BRANCH  21  22
ATOM     22  C   UNL     1      -2.385  14.542  -6.125  1.00  0.00     0.000 C 
BRANCH  22  23
ATOM     23  C   UNL     1      -3.500  13.653  -5.541  1.00  0.00     0.000 C 
BRANCH  23  24
ATOM     24  C   UNL     1      -3.009  12.449  -4.716  1.00  0.00    -0.000 C 
BRANCH  24  25
ATOM     25  C   UNL     1      -1.675  12.718  -4.005  1.00  0.00    -0.000 C 
BRANCH  25  26
ATOM     26  C   UNL     1      -0.738  11.509  -4.117  1.00  0.00    -0.000 C 
BRANCH  26  27
ATOM     27  C   UNL     1       0.635  11.823  -3.509  1.00  0.00    -0.000 C 
BRANCH  27  28
ATOM     28  C   UNL     1       1.316  10.584  -2.901  1.00  0.00    -0.000 C 
BRANCH  28  29
ATOM     29  C   UNL     1       1.398  10.570  -1.359  1.00  0.00    -0.000 C 
BRANCH  29  30
ATOM     30  C   UNL     1       0.780   9.333  -0.684  1.00  0.00    -0.000 C 
BRANCH  30  31
ATOM     31  C   UNL     1       1.831   8.313  -0.222  1.00  0.00    -0.003 C 
ATOM     32  C   UNL     1       1.248   7.347   0.804  1.00  0.00     0.004 C 
ENDBRANCH  30  31
ENDBRANCH  29  30
ENDBRANCH  28  29
ENDBRANCH  27  28
ENDBRANCH  26  27
ENDBRANCH  25  26
ENDBRANCH  24  25
ENDBRANCH  23  24
ENDBRANCH  22  23
ENDBRANCH  21  22
ENDBRANCH  20  21
ENDBRANCH  19  20
ENDBRANCH  18  19
ENDBRANCH   1  18
TORSDOF 28
ENDMDL
MODEL 8
REMARK VINA RESULT:    -1.303      3.255     10.898
REMARK INTER + INTRA:          -4.950
REMARK INTER:                  -3.334
REMARK INTRA:                  -1.616
REMARK UNBOUND:                -1.515
REMARK SMILES CCCCCCCCCCCCCCCCCCCCCCCCCCCCCC(=O)[O-]
REMARK SMILES IDX 16 1 17 2 18 3 19 4 20 5 21 6 22 7 23 8 24 9 25 10 26 11
REMARK SMILES IDX 27 12 28 13 29 14 30 15 31 16 32 17 15 18 14 19 13 20 12 21
REMARK SMILES IDX 11 22 10 23 9 24 8 25 7 26 6 27 5 28 4 29 3 30 2 31 1 32
REMARK H PARENT
REMARK Flexibility Score: inf
ROOT
ATOM      1  C   UNL     1      -0.726  15.936  -2.390  1.00  0.00     0.000 C 
ENDROOT
BRANCH   1   2
ATOM      2  C   UNL     1      -0.679  15.976  -0.851  1.00  0.00     0.000 C 
BRANCH   2   3
ATOM      3  C   UNL     1       0.754  16.010  -0.300  1.00  0.00     0.000 C 
BRANCH   3   4
ATOM      4  C   UNL     1       0.787  16.619   1.111  1.00  0.00     0.000 C 
BRANCH   4   5
ATOM      5  C   UNL     1       2.137  16.407   1.825  1.00  0.00     0.000 C 
BRANCH   5   6
ATOM      6  C   UNL     1       2.218  16.993   3.248  1.00  0.00     0.000 C 
BRANCH   6   7
ATOM      7  C   UNL     1       0.865  17.162   3.969  1.00  0.00     0.000 C 
BRANCH   7   8
ATOM      8  C   UNL     1       0.975  17.171   5.508  1.00  0.00     0.000 C 
BRANCH   8   9
ATOM      9  C   UNL     1      -0.009  16.203   6.204  1.00  0.00     0.000 C 
BRANCH   9  10
ATOM     10  C   UNL     1      -1.483  16.590   5.991  1.00  0.00     0.000 C 
BRANCH  10  11
ATOM     11  C   UNL     1      -2.427  15.976   7.042  1.00  0.00     0.000 C 
BRANCH  11  12
ATOM     12  C   UNL     1      -2.958  17.028   8.033  1.00  0.00     0.000 C 
BRANCH  12  13
ATOM     13  C   UNL     1      -4.453  16.844   8.333  1.00  0.00     0.006 C 
BRANCH  13  14
ATOM     14  C   UNL     1      -4.698  15.938   9.546  1.00  0.00     0.053 C 
BRANCH  14  15
ATOM     15  C   UNL     1      -5.227  14.611   9.100  1.00  0.00     0.041 C 
ATOM     16  O   UNL     1      -5.635  13.774   9.949  1.00  0.00    -0.550 OA
ATOM     17  O   UNL     1      -5.205  14.271   7.757  1.00  0.00    -0.550 OA
ENDBRANCH  14  15
ENDBRANCH  13  14
ENDBRANCH  12  13
ENDBRANCH  11  12
ENDBRANCH  10  11
ENDBRANCH   9  10
ENDBRANCH   8   9
ENDBRANCH   7   8
ENDBRANCH   6   7
ENDBRANCH   5   6
ENDBRANCH   4   5
ENDBRANCH   3   4
ENDBRANCH   2   3
ENDBRANCH   1   2
BRANCH   1  18
ATOM     18  C   UNL     1      -2.139  15.955  -3.002  1.00  0.00     0.000 C 
BRANCH  18  19
ATOM     19  C   UNL     1      -2.234  15.455  -4.457  1.00  0.00     0.000 C 
BRANCH  19  20
ATOM     20  C   UNL     1      -3.005  14.126  -4.619  1.00  0.00     0.000 C 
BRANCH  20  21
ATOM     21  C   UNL     1      -2.117  12.874  -4.788  1.00  0.00     0.000 C 
BRANCH  21  22
ATOM     22  C   UNL     1      -0.596  13.135  -4.818  1.00  0.00     0.000 C 
BRANCH  22  23
ATOM     23  C   UNL     1       0.171  12.706  -3.552  1.00  0.00     0.000 C 
BRANCH  23  24
ATOM     24  C   UNL     1       0.253  11.185  -3.325  1.00  0.00    -0.000 C 
BRANCH  24  25
ATOM     25  C   UNL     1       1.498  10.767  -2.529  1.00  0.00    -0.000 C 
BRANCH  25  26
ATOM     26  C   UNL     1       2.617  10.295  -3.464  1.00  0.00    -0.000 C 
BRANCH  26  27
ATOM     27  C   UNL     1       3.843   9.836  -2.663  1.00  0.00    -0.000 C 
BRANCH  27  28
ATOM     28  C   UNL     1       4.001   8.306  -2.636  1.00  0.00    -0.000 C 
BRANCH  28  29
ATOM     29  C   UNL     1       3.813   7.651  -1.251  1.00  0.00    -0.000 C 
BRANCH  29  30
ATOM     30  C   UNL     1       3.076   8.518  -0.215  1.00  0.00    -0.000 C 
BRANCH  30  31
ATOM     31  C   UNL     1       1.817   7.841   0.348  1.00  0.00    -0.003 C 
ATOM     32  C   UNL     1       2.164   6.901   1.498  1.00  0.00     0.004 C 
ENDBRANCH  30  31
ENDBRANCH  29  30
ENDBRANCH  28  29
ENDBRANCH  27  28
ENDBRANCH  26  27
ENDBRANCH  25  26
ENDBRANCH  24  25
ENDBRANCH  23  24
ENDBRANCH  22  23
ENDBRANCH  21  22
ENDBRANCH  20  21
ENDBRANCH  19  20
ENDBRANCH  18  19
ENDBRANCH   1  18
TORSDOF 28
ENDMDL
MODEL 9
REMARK VINA RESULT:    -1.291      0.986      2.475
REMARK INTER + INTRA:          -4.920
REMARK INTER:                  -3.273
REMARK INTRA:                  -1.648
REMARK UNBOUND:                -1.515
REMARK SMILES CCCCCCCCCCCCCCCCCCCCCCCCCCCCCC(=O)[O-]
REMARK SMILES IDX 16 1 17 2 18 3 19 4 20 5 21 6 22 7 23 8 24 9 25 10 26 11
REMARK SMILES IDX 27 12 28 13 29 14 30 15 31 16 32 17 15 18 14 19 13 20 12 21
REMARK SMILES IDX 11 22 10 23 9 24 8 25 7 26 6 27 5 28 4 29 3 30 2 31 1 32
REMARK H PARENT
REMARK Flexibility Score: inf
ROOT
ATOM      1  C   UNL     1      -0.384  16.250  -0.795  1.00  0.00     0.000 C 
ENDROOT
BRANCH   1   2
ATOM      2  C   UNL     1       0.036  16.213  -2.276  1.00  0.00     0.000 C 
BRANCH   2   3
ATOM      3  C   UNL     1      -1.116  16.557  -3.231  1.00  0.00     0.000 C 
BRANCH   3   4
ATOM      4  C   UNL     1      -2.212  15.481  -3.181  1.00  0.00     0.000 C 
BRANCH   4   5
ATOM      5  C   UNL     1      -2.475  14.829  -4.553  1.00  0.00     0.000 C 
BRANCH   5   6
ATOM      6  C   UNL     1      -1.847  13.435  -4.742  1.00  0.00     0.000 C 
BRANCH   6   7
ATOM      7  C   UNL     1      -0.305  13.400  -4.729  1.00  0.00     0.000 C 
BRANCH   7   8
ATOM      8  C   UNL     1       0.294  12.805  -3.438  1.00  0.00     0.000 C 
BRANCH   8   9
ATOM      9  C   UNL     1       0.166  11.267  -3.349  1.00  0.00     0.000 C 
BRANCH   9  10
ATOM     10  C   UNL     1       1.229  10.629  -2.437  1.00  0.00     0.000 C 
BRANCH  10  11
ATOM     11  C   UNL     1       2.493  10.189  -3.198  1.00  0.00     0.000 C 
BRANCH  11  12
ATOM     12  C   UNL     1       3.457   9.381  -2.309  1.00  0.00     0.000 C 
BRANCH  12  13
ATOM     13  C   UNL     1       2.868   9.097  -0.919  1.00  0.00     0.006 C 
BRANCH  13  14
ATOM     14  C   UNL     1       2.751   7.595  -0.630  1.00  0.00     0.053 C 
BRANCH  14  15
ATOM     15  C   UNL     1       2.237   7.376   0.758  1.00  0.00     0.041 C 
ATOM     16  O   UNL     1       1.038   7.640   1.039  1.00  0.00    -0.550 OA
ATOM     17  O   UNL     1       3.097   6.947   1.757  1.00  0.00    -0.550 OA
ENDBRANCH  14  15
ENDBRANCH  13  14
ENDBRANCH  12  13
ENDBRANCH  11  12
ENDBRANCH  10  11
ENDBRANCH   9  10
ENDBRANCH   8   9
ENDBRANCH   7   8
ENDBRANCH   6   7
ENDBRANCH   5   6
ENDBRANCH   4   5
ENDBRANCH   3   4
ENDBRANCH   2   3
ENDBRANCH   1   2
BRANCH   1  18
ATOM     18  C   UNL     1       0.747  15.970   0.213  1.00  0.00     0.000 C 
BRANCH  18  19
ATOM     19  C   UNL     1       0.919  17.028   1.321  1.00  0.00     0.000 C 
BRANCH  19  20
ATOM     20  C   UNL     1       1.853  16.590   2.472  1.00  0.00     0.000 C 
BRANCH  20  21
ATOM     21  C   UNL     1       1.801  17.485   3.729  1.00  0.00     0.000 C 
BRANCH  21  22
ATOM     22  C   UNL     1       1.373  16.778   5.033  1.00  0.00     0.000 C 
BRANCH  22  23
ATOM     23  C   UNL     1      -0.065  17.073   5.500  1.00  0.00     0.000 C 
BRANCH  23  24
ATOM     24  C   UNL     1      -0.713  15.965   6.350  1.00  0.00    -0.000 C 
BRANCH  24  25
ATOM     25  C   UNL     1      -2.155  16.295   6.763  1.00  0.00    -0.000 C 
BRANCH  25  26
ATOM     26  C   UNL     1      -3.132  15.230   6.250  1.00  0.00    -0.000 C 
BRANCH  26  27
ATOM     27  C   UNL     1      -4.527  15.430   6.856  1.00  0.00    -0.000 C 
BRANCH  27  28
ATOM     28  C   UNL     1      -4.975  14.244   7.729  1.00  0.00    -0.000 C 
BRANCH  28  29
ATOM     29  C   UNL     1      -5.230  14.582   9.213  1.00  0.00    -0.000 C 
BRANCH  29  30
ATOM     30  C   UNL     1      -5.244  16.084   9.548  1.00  0.00    -0.000 C 
BRANCH  30  31
ATOM     31  C   UNL     1      -3.880  16.606  10.024  1.00  0.00    -0.003 C 
ATOM     32  C   UNL     1      -3.536  17.936   9.361  1.00  0.00     0.004 C 
ENDBRANCH  30  31
ENDBRANCH  29  30
ENDBRANCH  28  29
ENDBRANCH  27  28
ENDBRANCH  26  27
ENDBRANCH  25  26
ENDBRANCH  24  25
ENDBRANCH  23  24
ENDBRANCH  22  23
ENDBRANCH  21  22
ENDBRANCH  20  21
ENDBRANCH  19  20
ENDBRANCH  18  19
ENDBRANCH   1  18
TORSDOF 28
ENDMDL
