MODEL 1
REMARK VINA RESULT:    -3.533      0.000      0.000
REMARK INTER + INTRA:          -4.089
REMARK INTER:                  -3.843
REMARK INTRA:                  -0.246
REMARK UNBOUND:                -0.246
REMARK SMILES O=C([O-])c1ccccc1O
REMARK SMILES IDX 4 1 9 2 5 3 8 4 6 5 7 6 2 7 1 8 3 9 10 10
REMARK H PARENT 10 11
REMARK Flexibility Score: inf
ROOT
ATOM      1  C   UNL     1      63.636  42.209  17.023  1.00  0.00     0.039 A 
ATOM      2  C   UNL     1      64.218  41.866  15.780  1.00  0.00     0.124 A 
ATOM      3  C   UNL     1      63.043  43.479  17.167  1.00  0.00     0.014 A 
ATOM      4  C   UNL     1      64.197  42.785  14.719  1.00  0.00     0.047 A 
ATOM      5  C   UNL     1      63.029  44.385  16.103  1.00  0.00     0.001 A 
ATOM      6  C   UNL     1      63.605  44.039  14.881  1.00  0.00     0.004 A 
ENDROOT
BRANCH   1   7
ATOM      7  C   UNL     1      63.637  41.267  18.172  1.00  0.00     0.075 C 
ATOM      8  O   UNL     1      62.555  40.954  18.739  1.00  0.00    -0.545 OA
ATOM      9  O   UNL     1      64.819  40.711  18.644  1.00  0.00    -0.545 OA
ENDBRANCH   1   7
BRANCH   2  10
ATOM     10  O   UNL     1      64.816  40.621  15.590  1.00  0.00    -0.507 OA
ATOM     11  H   UNL     1      65.816  40.525  15.452  1.00  0.00     0.293 HD
ENDBRANCH   2  10
TORSDOF 2
ENDMDL
MODEL 2
REMARK VINA RESULT:    -3.526     14.610     15.841
REMARK INTER + INTRA:          -4.081
REMARK INTER:                  -3.830
REMARK INTRA:                  -0.251
REMARK UNBOUND:                -0.246
REMARK SMILES O=C([O-])c1ccccc1O
REMARK SMILES IDX 4 1 9 2 5 3 8 4 6 5 7 6 2 7 1 8 3 9 10 10
REMARK H PARENT 10 11
REMARK Flexibility Score: inf
ROOT
ATOM      1  C   UNL     1      50.686  48.752  12.690  1.00  0.00     0.039 A 
ATOM      2  C   UNL     1      49.460  48.989  13.356  1.00  0.00     0.124 A 
ATOM      3  C   UNL     1      51.417  47.590  13.009  1.00  0.00     0.014 A 
ATOM      4  C   UNL     1      48.996  48.076  14.315  1.00  0.00     0.047 A 
ATOM      5  C   UNL     1      50.942  46.688  13.965  1.00  0.00     0.001 A 
ATOM      6  C   UNL     1      49.734  46.931  14.617  1.00  0.00     0.004 A 
ENDROOT
BRANCH   1   7
ATOM      7  C   UNL     1      51.215  49.692  11.669  1.00  0.00     0.075 C 
ATOM      8  O   UNL     1      52.396  50.124  11.753  1.00  0.00    -0.545 OA
ATOM      9  O   UNL     1      50.427  50.115  10.605  1.00  0.00    -0.545 OA
ENDBRANCH   1   7
BRANCH   2  10
ATOM     10  O   UNL     1      48.702  50.125  13.073  1.00  0.00    -0.507 OA
ATOM     11  H   UNL     1      48.892  50.705  12.263  1.00  0.00     0.293 HD
ENDBRANCH   2  10
TORSDOF 2
ENDMDL
MODEL 3
REMARK VINA RESULT:    -3.471     16.354     17.327
REMARK INTER + INTRA:          -4.021
REMARK INTER:                  -3.905
REMARK INTRA:                  -0.116
REMARK UNBOUND:                -0.246
REMARK SMILES O=C([O-])c1ccccc1O
REMARK SMILES IDX 4 1 9 2 5 3 8 4 6 5 7 6 2 7 1 8 3 9 10 10
REMARK H PARENT 10 11
REMARK Flexibility Score: inf
ROOT
ATOM      1  C   UNL     1      47.369  44.136  14.941  1.00  0.00     0.039 A 
ATOM      2  C   UNL     1      46.054  44.459  15.349  1.00  0.00     0.124 A 
ATOM      3  C   UNL     1      47.659  42.805  14.577  1.00  0.00     0.014 A 
ATOM      4  C   UNL     1      45.067  43.461  15.387  1.00  0.00     0.047 A 
ATOM      5  C   UNL     1      46.667  41.822  14.619  1.00  0.00     0.001 A 
ATOM      6  C   UNL     1      45.374  42.149  15.023  1.00  0.00     0.004 A 
ENDROOT
BRANCH   1   7
ATOM      7  C   UNL     1      48.444  45.160  14.887  1.00  0.00     0.075 C 
ATOM      8  O   UNL     1      49.594  44.855  14.470  1.00  0.00    -0.545 OA
ATOM      9  O   UNL     1      48.210  46.469  15.291  1.00  0.00    -0.545 OA
ENDBRANCH   1   7
BRANCH   2  10
ATOM     10  O   UNL     1      45.720  45.762  15.718  1.00  0.00    -0.507 OA
ATOM     11  H   UNL     1      46.430  46.458  15.917  1.00  0.00     0.293 HD
ENDBRANCH   2  10
TORSDOF 2
ENDMDL
MODEL 4
REMARK VINA RESULT:    -3.452     20.844     21.187
REMARK INTER + INTRA:          -4.000
REMARK INTER:                  -3.756
REMARK INTRA:                  -0.244
REMARK UNBOUND:                -0.246
REMARK SMILES O=C([O-])c1ccccc1O
REMARK SMILES IDX 4 1 9 2 5 3 8 4 6 5 7 6 2 7 1 8 3 9 10 10
REMARK H PARENT 10 11
REMARK Flexibility Score: inf
ROOT
ATOM      1  C   UNL     1      47.632  32.505   7.375  1.00  0.00     0.039 A 
ATOM      2  C   UNL     1      47.457  33.904   7.251  1.00  0.00     0.124 A 
ATOM      3  C   UNL     1      46.559  31.728   7.859  1.00  0.00     0.014 A 
ATOM      4  C   UNL     1      46.234  34.491   7.608  1.00  0.00     0.047 A 
ATOM      5  C   UNL     1      45.347  32.326   8.210  1.00  0.00     0.001 A 
ATOM      6  C   UNL     1      45.184  33.705   8.085  1.00  0.00     0.004 A 
ENDROOT
BRANCH   1   7
ATOM      7  C   UNL     1      48.910  31.842   7.009  1.00  0.00     0.075 C 
ATOM      8  O   UNL     1      49.988  32.190   7.562  1.00  0.00    -0.545 OA
ATOM      9  O   UNL     1      48.947  30.830   6.058  1.00  0.00    -0.545 OA
ENDBRANCH   1   7
BRANCH   2  10
ATOM     10  O   UNL     1      48.489  34.713   6.777  1.00  0.00    -0.507 OA
ATOM     11  H   UNL     1      48.457  35.133   5.855  1.00  0.00     0.293 HD
ENDBRANCH   2  10
TORSDOF 2
ENDMDL
MODEL 5
REMARK VINA RESULT:    -3.405     18.833     19.066
REMARK INTER + INTRA:          -3.950
REMARK INTER:                  -3.713
REMARK INTRA:                  -0.237
REMARK UNBOUND:                -0.246
REMARK SMILES O=C([O-])c1ccccc1O
REMARK SMILES IDX 4 1 9 2 5 3 8 4 6 5 7 6 2 7 1 8 3 9 10 10
REMARK H PARENT 10 11
REMARK Flexibility Score: inf
ROOT
ATOM      1  C   UNL     1      48.048  35.149   9.277  1.00  0.00     0.039 A 
ATOM      2  C   UNL     1      48.480  34.672   8.017  1.00  0.00     0.124 A 
ATOM      3  C   UNL     1      46.664  35.256   9.524  1.00  0.00     0.014 A 
ATOM      4  C   UNL     1      47.536  34.316   7.042  1.00  0.00     0.047 A 
ATOM      5  C   UNL     1      45.735  34.898   8.544  1.00  0.00     0.001 A 
ATOM      6  C   UNL     1      46.170  34.429   7.305  1.00  0.00     0.004 A 
ENDROOT
BRANCH   1   7
ATOM      7  C   UNL     1      49.013  35.537  10.338  1.00  0.00     0.075 C 
ATOM      8  O   UNL     1      49.819  34.689  10.807  1.00  0.00    -0.545 OA
ATOM      9  O   UNL     1      49.051  36.835  10.834  1.00  0.00    -0.545 OA
ENDBRANCH   1   7
BRANCH   2  10
ATOM     10  O   UNL     1      49.838  34.549   7.728  1.00  0.00    -0.507 OA
ATOM     11  H   UNL     1      50.258  35.015   6.931  1.00  0.00     0.293 HD
ENDBRANCH   2  10
TORSDOF 2
ENDMDL
MODEL 6
REMARK VINA RESULT:    -3.395      2.626      3.868
REMARK INTER + INTRA:          -3.939
REMARK INTER:                  -3.686
REMARK INTRA:                  -0.253
REMARK UNBOUND:                -0.246
REMARK SMILES O=C([O-])c1ccccc1O
REMARK SMILES IDX 4 1 9 2 5 3 8 4 6 5 7 6 2 7 1 8 3 9 10 10
REMARK H PARENT 10 11
REMARK Flexibility Score: inf
ROOT
ATOM      1  C   UNL     1      63.204  44.031  16.337  1.00  0.00     0.039 A 
ATOM      2  C   UNL     1      63.202  43.019  17.327  1.00  0.00     0.124 A 
ATOM      3  C   UNL     1      63.759  43.742  15.074  1.00  0.00     0.014 A 
ATOM      4  C   UNL     1      63.747  41.758  17.040  1.00  0.00     0.047 A 
ATOM      5  C   UNL     1      64.297  42.482  14.802  1.00  0.00     0.001 A 
ATOM      6  C   UNL     1      64.291  41.491  15.783  1.00  0.00     0.004 A 
ENDROOT
BRANCH   1   7
ATOM      7  C   UNL     1      62.639  45.380  16.598  1.00  0.00     0.075 C 
ATOM      8  O   UNL     1      63.310  46.413  16.332  1.00  0.00    -0.545 OA
ATOM      9  O   UNL     1      61.368  45.534  17.136  1.00  0.00    -0.545 OA
ENDBRANCH   1   7
BRANCH   2  10
ATOM     10  O   UNL     1      62.665  43.259  18.591  1.00  0.00    -0.507 OA
ATOM     11  H   UNL     1      62.620  42.533  19.297  1.00  0.00     0.293 HD
ENDBRANCH   2  10
TORSDOF 2
ENDMDL
MODEL 7
REMARK VINA RESULT:    -3.370     17.381     18.246
REMARK INTER + INTRA:          -3.912
REMARK INTER:                  -3.661
REMARK INTRA:                  -0.250
REMARK UNBOUND:                -0.246
REMARK SMILES O=C([O-])c1ccccc1O
REMARK SMILES IDX 4 1 9 2 5 3 8 4 6 5 7 6 2 7 1 8 3 9 10 10
REMARK H PARENT 10 11
REMARK Flexibility Score: inf
ROOT
ATOM      1  C   UNL     1      45.612  44.043  15.799  1.00  0.00     0.039 A 
ATOM      2  C   UNL     1      46.748  44.126  14.961  1.00  0.00     0.124 A 
ATOM      3  C   UNL     1      44.947  42.806  15.921  1.00  0.00     0.014 A 
ATOM      4  C   UNL     1      47.193  42.988  14.269  1.00  0.00     0.047 A 
ATOM      5  C   UNL     1      45.401  41.681  15.228  1.00  0.00     0.001 A 
ATOM      6  C   UNL     1      46.521  41.772  14.403  1.00  0.00     0.004 A 
ENDROOT
BRANCH   1   7
ATOM      7  C   UNL     1      45.106  45.222  16.548  1.00  0.00     0.075 C 
ATOM      8  O   UNL     1      44.876  46.306  15.948  1.00  0.00    -0.545 OA
ATOM      9  O   UNL     1      44.877  45.159  17.917  1.00  0.00    -0.545 OA
ENDBRANCH   1   7
BRANCH   2  10
ATOM     10  O   UNL     1      47.438  45.328  14.809  1.00  0.00    -0.507 OA
ATOM     11  H   UNL     1      48.431  45.351  14.608  1.00  0.00     0.293 HD
ENDBRANCH   2  10
TORSDOF 2
ENDMDL
MODEL 8
REMARK VINA RESULT:    -3.324     13.787     14.913
REMARK INTER + INTRA:          -3.861
REMARK INTER:                  -3.614
REMARK INTRA:                  -0.247
REMARK UNBOUND:                -0.246
REMARK SMILES O=C([O-])c1ccccc1O
REMARK SMILES IDX 4 1 9 2 5 3 8 4 6 5 7 6 2 7 1 8 3 9 10 10
REMARK H PARENT 10 11
REMARK Flexibility Score: inf
ROOT
ATOM      1  C   UNL     1      50.194  46.623  14.167  1.00  0.00     0.039 A 
ATOM      2  C   UNL     1      49.091  47.475  14.410  1.00  0.00     0.124 A 
ATOM      3  C   UNL     1      51.252  47.096  13.365  1.00  0.00     0.014 A 
ATOM      4  C   UNL     1      49.065  48.764  13.854  1.00  0.00     0.047 A 
ATOM      5  C   UNL     1      51.214  48.381  12.818  1.00  0.00     0.001 A 
ATOM      6  C   UNL     1      50.122  49.213  13.061  1.00  0.00     0.004 A 
ENDROOT
BRANCH   1   7
ATOM      7  C   UNL     1      50.262  45.252  14.735  1.00  0.00     0.075 C 
ATOM      8  O   UNL     1      49.339  44.424  14.512  1.00  0.00    -0.545 OA
ATOM      9  O   UNL     1      51.338  44.853  15.519  1.00  0.00    -0.545 OA
ENDBRANCH   1   7
BRANCH   2  10
ATOM     10  O   UNL     1      48.021  47.051  15.198  1.00  0.00    -0.507 OA
ATOM     11  H   UNL     1      47.844  47.448  16.114  1.00  0.00     0.293 HD
ENDBRANCH   2  10
TORSDOF 2
ENDMDL
