MODEL 1
REMARK VINA RESULT:    -2.956      0.000      0.000
REMARK INTER + INTRA:          -3.435
REMARK INTER:                  -3.388
REMARK INTRA:                  -0.047
REMARK UNBOUND:                -0.047
REMARK SMILES CC(C)[C@@H]([NH3+])C(=O)[O-]
REMARK SMILES IDX 4 1 5 2 6 6 7 7 8 8 2 9 1 10 3 11
REMARK H PARENT 5 3 5 4 5 5
REMARK Flexibility Score: inf
ROOT
ATOM      1  C   UNL     1      74.878  -9.151 -25.742  1.00  0.00     0.230 C 
ENDROOT
BRANCH   1   2
ATOM      2  N   UNL     1      74.007  -9.408 -26.900  1.00  0.00    -0.350 N 
ATOM      3  H   UNL     1      73.818  -8.518 -27.414  1.00  0.00     0.345 HD
ATOM      4  H   UNL     1      74.449 -10.101 -27.548  1.00  0.00     0.345 HD
ATOM      5  H   UNL     1      73.084  -9.781 -26.580  1.00  0.00     0.345 HD
ENDBRANCH   1   2
BRANCH   1   6
ATOM      6  C   UNL     1      76.178  -8.552 -26.221  1.00  0.00     0.099 C 
ATOM      7  O   UNL     1      76.187  -7.749 -27.191  1.00  0.00    -0.544 OA
ATOM      8  O   UNL     1      77.373  -8.887 -25.597  1.00  0.00    -0.544 OA
ENDBRANCH   1   6
BRANCH   1   9
ATOM      9  C   UNL     1      74.193  -8.218 -24.697  1.00  0.00     0.047 C 
ATOM     10  C   UNL     1      74.035  -8.925 -23.339  1.00  0.00     0.014 C 
ATOM     11  C   UNL     1      72.814  -7.736 -25.176  1.00  0.00     0.014 C 
ENDBRANCH   1   9
TORSDOF 3
ENDMDL
MODEL 2
REMARK VINA RESULT:    -2.826      2.453      3.442
REMARK INTER + INTRA:          -3.286
REMARK INTER:                  -3.222
REMARK INTRA:                  -0.064
REMARK UNBOUND:                -0.047
REMARK SMILES CC(C)[C@@H]([NH3+])C(=O)[O-]
REMARK SMILES IDX 4 1 5 2 6 6 7 7 8 8 2 9 1 10 3 11
REMARK H PARENT 5 3 5 4 5 5
REMARK Flexibility Score: inf
ROOT
ATOM      1  C   UNL     1      75.410  -9.048 -25.975  1.00  0.00     0.230 C 
ENDROOT
BRANCH   1   2
ATOM      2  N   UNL     1      76.647  -8.333 -25.628  1.00  0.00    -0.350 N 
ATOM      3  H   UNL     1      77.479  -8.936 -25.819  1.00  0.00     0.345 HD
ATOM      4  H   UNL     1      76.726  -7.443 -26.172  1.00  0.00     0.345 HD
ATOM      5  H   UNL     1      76.658  -8.109 -24.605  1.00  0.00     0.345 HD
ENDBRANCH   1   2
BRANCH   1   6
ATOM      6  C   UNL     1      74.264  -8.478 -25.176  1.00  0.00     0.099 C 
ATOM      7  O   UNL     1      73.256  -8.004 -25.764  1.00  0.00    -0.544 OA
ATOM      8  O   UNL     1      74.316  -8.469 -23.788  1.00  0.00    -0.544 OA
ENDBRANCH   1   6
BRANCH   1   9
ATOM      9  C   UNL     1      75.108  -8.976 -27.503  1.00  0.00     0.047 C 
ATOM     10  C   UNL     1      74.816 -10.373 -28.081  1.00  0.00     0.014 C 
ATOM     11  C   UNL     1      76.266  -8.339 -28.288  1.00  0.00     0.014 C 
ENDBRANCH   1   9
TORSDOF 3
ENDMDL
MODEL 3
REMARK VINA RESULT:    -2.798      1.983      3.342
REMARK INTER + INTRA:          -3.253
REMARK INTER:                  -3.193
REMARK INTRA:                  -0.060
REMARK UNBOUND:                -0.047
REMARK SMILES CC(C)[C@@H]([NH3+])C(=O)[O-]
REMARK SMILES IDX 4 1 5 2 6 6 7 7 8 8 2 9 1 10 3 11
REMARK H PARENT 5 3 5 4 5 5
REMARK Flexibility Score: inf
ROOT
ATOM      1  C   UNL     1      74.959  -8.683 -26.780  1.00  0.00     0.230 C 
ENDROOT
BRANCH   1   2
ATOM      2  N   UNL     1      74.382  -9.824 -27.508  1.00  0.00    -0.350 N 
ATOM      3  H   UNL     1      73.341  -9.815 -27.427  1.00  0.00     0.345 HD
ATOM      4  H   UNL     1      74.656  -9.796 -28.517  1.00  0.00     0.345 HD
ATOM      5  H   UNL     1      74.715 -10.723 -27.088  1.00  0.00     0.345 HD
ENDBRANCH   1   2
BRANCH   1   6
ATOM      6  C   UNL     1      74.171  -8.450 -25.514  1.00  0.00     0.099 C 
ATOM      7  O   UNL     1      72.939  -8.197 -25.573  1.00  0.00    -0.544 OA
ATOM      8  O   UNL     1      74.801  -8.511 -24.277  1.00  0.00    -0.544 OA
ENDBRANCH   1   6
BRANCH   1   9
ATOM      9  C   UNL     1      76.469  -8.904 -26.458  1.00  0.00     0.047 C 
ATOM     10  C   UNL     1      77.310  -7.679 -26.862  1.00  0.00     0.014 C 
ATOM     11  C   UNL     1      77.028 -10.152 -27.159  1.00  0.00     0.014 C 
ENDBRANCH   1   9
TORSDOF 3
ENDMDL
MODEL 4
REMARK VINA RESULT:    -2.762      7.384      8.124
REMARK INTER + INTRA:          -3.212
REMARK INTER:                  -3.169
REMARK INTRA:                  -0.043
REMARK UNBOUND:                -0.047
REMARK SMILES CC(C)[C@@H]([NH3+])C(=O)[O-]
REMARK SMILES IDX 4 1 5 2 6 6 7 7 8 8 2 9 1 10 3 11
REMARK H PARENT 5 3 5 4 5 5
REMARK Flexibility Score: inf
ROOT
ATOM      1  C   UNL     1      77.238 -15.958 -25.407  1.00  0.00     0.230 C 
ENDROOT
BRANCH   1   2
ATOM      2  N   UNL     1      75.882 -16.001 -24.837  1.00  0.00    -0.350 N 
ATOM      3  H   UNL     1      75.921 -16.296 -23.835  1.00  0.00     0.345 HD
ATOM      4  H   UNL     1      75.421 -15.065 -24.909  1.00  0.00     0.345 HD
ATOM      5  H   UNL     1      75.301 -16.708 -25.344  1.00  0.00     0.345 HD
ENDBRANCH   1   2
BRANCH   1   6
ATOM      6  C   UNL     1      77.520 -17.260 -26.115  1.00  0.00     0.099 C 
ATOM      7  O   UNL     1      77.530 -18.342 -25.471  1.00  0.00    -0.544 OA
ATOM      8  O   UNL     1      77.774 -17.272 -27.481  1.00  0.00    -0.544 OA
ENDBRANCH   1   6
BRANCH   1   9
ATOM      9  C   UNL     1      77.420 -14.751 -26.378  1.00  0.00     0.047 C 
ATOM     10  C   UNL     1      78.125 -13.575 -25.677  1.00  0.00     0.014 C 
ATOM     11  C   UNL     1      76.078 -14.265 -26.948  1.00  0.00     0.014 C 
ENDBRANCH   1   9
TORSDOF 3
ENDMDL
MODEL 5
REMARK VINA RESULT:    -2.732      1.718      2.339
REMARK INTER + INTRA:          -3.179
REMARK INTER:                  -3.119
REMARK INTRA:                  -0.059
REMARK UNBOUND:                -0.047
REMARK SMILES CC(C)[C@@H]([NH3+])C(=O)[O-]
REMARK SMILES IDX 4 1 5 2 6 6 7 7 8 8 2 9 1 10 3 11
REMARK H PARENT 5 3 5 4 5 5
REMARK Flexibility Score: inf
ROOT
ATOM      1  C   UNL     1      75.194  -8.369 -25.909  1.00  0.00     0.230 C 
ENDROOT
BRANCH   1   2
ATOM      2  N   UNL     1      76.451  -8.706 -25.224  1.00  0.00    -0.350 N 
ATOM      3  H   UNL     1      76.503  -9.735 -25.051  1.00  0.00     0.345 HD
ATOM      4  H   UNL     1      77.275  -8.404 -25.793  1.00  0.00     0.345 HD
ATOM      5  H   UNL     1      76.490  -8.235 -24.291  1.00  0.00     0.345 HD
ENDBRANCH   1   2
BRANCH   1   6
ATOM      6  C   UNL     1      75.170  -9.035 -27.263  1.00  0.00     0.099 C 
ATOM      7  O   UNL     1      74.527 -10.105 -27.431  1.00  0.00    -0.544 OA
ATOM      8  O   UNL     1      75.860  -8.474 -28.330  1.00  0.00    -0.544 OA
ENDBRANCH   1   6
BRANCH   1   9
ATOM      9  C   UNL     1      73.947  -8.781 -25.069  1.00  0.00     0.047 C 
ATOM     10  C   UNL     1      72.785  -7.792 -25.272  1.00  0.00     0.014 C 
ATOM     11  C   UNL     1      74.271  -8.874 -23.569  1.00  0.00     0.014 C 
ENDBRANCH   1   9
TORSDOF 3
ENDMDL
MODEL 6
REMARK VINA RESULT:    -2.569      4.483      5.233
REMARK INTER + INTRA:          -2.992
REMARK INTER:                  -2.938
REMARK INTRA:                  -0.053
REMARK UNBOUND:                -0.047
REMARK SMILES CC(C)[C@@H]([NH3+])C(=O)[O-]
REMARK SMILES IDX 4 1 5 2 6 6 7 7 8 8 2 9 1 10 3 11
REMARK H PARENT 5 3 5 4 5 5
REMARK Flexibility Score: inf
ROOT
ATOM      1  C   UNL     1      75.059 -12.230 -29.024  1.00  0.00     0.230 C 
ENDROOT
BRANCH   1   2
ATOM      2  N   UNL     1      73.988 -13.239 -28.983  1.00  0.00    -0.350 N 
ATOM      3  H   UNL     1      73.054 -12.772 -28.933  1.00  0.00     0.345 HD
ATOM      4  H   UNL     1      74.028 -13.855 -29.828  1.00  0.00     0.345 HD
ATOM      5  H   UNL     1      74.083 -13.830 -28.125  1.00  0.00     0.345 HD
ENDBRANCH   1   2
BRANCH   1   6
ATOM      6  C   UNL     1      74.444 -10.852 -29.024  1.00  0.00     0.099 C 
ATOM      7  O   UNL     1      73.794 -10.449 -30.024  1.00  0.00    -0.544 OA
ATOM      8  O   UNL     1      74.596 -10.019 -27.923  1.00  0.00    -0.544 OA
ENDBRANCH   1   6
BRANCH   1   9
ATOM      9  C   UNL     1      76.053 -12.392 -27.833  1.00  0.00     0.047 C 
ATOM     10  C   UNL     1      77.490 -12.038 -28.255  1.00  0.00     0.014 C 
ATOM     11  C   UNL     1      76.033 -13.818 -27.259  1.00  0.00     0.014 C 
ENDBRANCH   1   9
TORSDOF 3
ENDMDL
MODEL 7
REMARK VINA RESULT:    -2.559      2.762      4.132
REMARK INTER + INTRA:          -2.979
REMARK INTER:                  -2.921
REMARK INTRA:                  -0.058
REMARK UNBOUND:                -0.047
REMARK SMILES CC(C)[C@@H]([NH3+])C(=O)[O-]
REMARK SMILES IDX 4 1 5 2 6 6 7 7 8 8 2 9 1 10 3 11
REMARK H PARENT 5 3 5 4 5 5
REMARK Flexibility Score: inf
ROOT
ATOM      1  C   UNL     1      76.574  -8.720 -27.053  1.00  0.00     0.230 C 
ENDROOT
BRANCH   1   2
ATOM      2  N   UNL     1      77.056  -8.501 -25.680  1.00  0.00    -0.350 N 
ATOM      3  H   UNL     1      76.256  -8.263 -25.051  1.00  0.00     0.345 HD
ATOM      4  H   UNL     1      77.545  -9.352 -25.320  1.00  0.00     0.345 HD
ATOM      5  H   UNL     1      77.717  -7.690 -25.657  1.00  0.00     0.345 HD
ENDBRANCH   1   2
BRANCH   1   6
ATOM      6  C   UNL     1      75.108  -9.077 -27.015  1.00  0.00     0.099 C 
ATOM      7  O   UNL     1      74.316  -8.424 -26.285  1.00  0.00    -0.544 OA
ATOM      8  O   UNL     1      74.624 -10.130 -27.781  1.00  0.00    -0.544 OA
ENDBRANCH   1   6
BRANCH   1   9
ATOM      9  C   UNL     1      76.815  -7.474 -27.959  1.00  0.00     0.047 C 
ATOM     10  C   UNL     1      76.845  -7.864 -29.448  1.00  0.00     0.014 C 
ATOM     11  C   UNL     1      78.125  -6.751 -27.602  1.00  0.00     0.014 C 
ENDBRANCH   1   9
TORSDOF 3
ENDMDL
MODEL 8
REMARK VINA RESULT:    -2.544      3.085      4.062
REMARK INTER + INTRA:          -2.963
REMARK INTER:                  -2.906
REMARK INTRA:                  -0.057
REMARK UNBOUND:                -0.047
REMARK SMILES CC(C)[C@@H]([NH3+])C(=O)[O-]
REMARK SMILES IDX 4 1 5 2 6 6 7 7 8 8 2 9 1 10 3 11
REMARK H PARENT 5 3 5 4 5 5
REMARK Flexibility Score: inf
ROOT
ATOM      1  C   UNL     1      75.392 -10.348 -27.657  1.00  0.00     0.230 C 
ENDROOT
BRANCH   1   2
ATOM      2  N   UNL     1      76.808 -10.385 -28.058  1.00  0.00    -0.350 N 
ATOM      3  H   UNL     1      77.256  -9.457 -27.886  1.00  0.00     0.345 HD
ATOM      4  H   UNL     1      77.322 -11.127 -27.530  1.00  0.00     0.345 HD
ATOM      5  H   UNL     1      76.886 -10.579 -29.083  1.00  0.00     0.345 HD
ENDBRANCH   1   2
BRANCH   1   6
ATOM      6  C   UNL     1      75.071  -8.986 -27.093  1.00  0.00     0.099 C 
ATOM      7  O   UNL     1      74.086  -8.836 -26.321  1.00  0.00    -0.544 OA
ATOM      8  O   UNL     1      75.857  -7.889 -27.423  1.00  0.00    -0.544 OA
ENDBRANCH   1   6
BRANCH   1   9
ATOM      9  C   UNL     1      74.444 -10.691 -28.846  1.00  0.00     0.047 C 
ATOM     10  C   UNL     1      74.445 -12.202 -29.143  1.00  0.00     0.014 C 
ATOM     11  C   UNL     1      74.827  -9.928 -30.125  1.00  0.00     0.014 C 
ENDBRANCH   1   9
TORSDOF 3
ENDMDL
