MODEL 1
REMARK VINA RESULT:    -1.139      0.000      0.000
REMARK INTER + INTRA:          -0.545
REMARK INTER:                  -1.306
REMARK INTRA:                   0.761
REMARK UNBOUND:                 0.761
REMARK SMILES C=C(C)[C@H]1CC[C@]2(C(=O)[O-])CC[C@@]3(C)[C@H](CC[C@@H]4[C@@]5(C)CC[C@@H](O)C(C)(C)[C@H]5CC[C@@]43C)[C@@H]12
REMARK SMILES IDX 7 1 6 2 33 3 11 4 5 5 15 6 4 7 12 8 16 9 13 10 17 11 31 12
REMARK SMILES IDX 14 13 18 14 30 15 32 16 19 17 29 18 21 19 20 20 28 21 22 22
REMARK SMILES IDX 25 23 23 24 26 25 27 26 8 27 9 28 10 29 2 30 3 31 1 32 24 33
REMARK H PARENT 24 34
REMARK Flexibility Score: inf
ROOT
ATOM      1  C   UNL     1      -0.692   8.977  -9.167  1.00  0.00     0.014 C 
ATOM      2  C   UNL     1       0.332  10.125  -9.092  1.00  0.00     0.014 C 
ATOM      3  C   UNL     1      -1.258   9.003  -7.742  1.00  0.00     0.012 C 
ATOM      4  C   UNL     1      -1.856   9.248 -10.125  1.00  0.00     0.014 C 
ATOM      5  C   UNL     1       0.983   9.988  -7.708  1.00  0.00     0.009 C 
ATOM      6  C   UNL     1      -2.320   7.913  -7.418  1.00  0.00     0.000 C 
ATOM      7  C   UNL     1      -0.059   9.290  -6.801  1.00  0.00     0.018 C 
ATOM      8  C   UNL     1      -2.931   8.145  -9.996  1.00  0.00     0.008 C 
ATOM      9  C   UNL     1      -2.847   8.110  -5.979  1.00  0.00     0.005 C 
ATOM     10  C   UNL     1      -3.471   7.780  -8.533  1.00  0.00    -0.024 C 
ATOM     11  C   UNL     1      -4.309   7.753  -5.774  1.00  0.00     0.005 C 
ATOM     12  C   UNL     1      -4.842   8.619  -8.174  1.00  0.00    -0.024 C 
ATOM     13  C   UNL     1      -3.769   6.242  -8.645  1.00  0.00     0.012 C 
ATOM     14  C   UNL     1      -5.229   8.669  -6.620  1.00  0.00     0.002 C 
ATOM     15  C   UNL     1      -6.052   8.075  -9.008  1.00  0.00     0.008 C 
ATOM     16  C   UNL     1      -4.666  10.109  -8.620  1.00  0.00     0.012 C 
ATOM     17  C   UNL     1      -6.784   8.526  -6.240  1.00  0.00    -0.026 C 
ATOM     18  C   UNL     1      -6.903   6.978  -8.347  1.00  0.00     0.005 C 
ATOM     19  C   UNL     1      -7.619   9.767  -6.708  1.00  0.00     0.010 C 
ATOM     20  C   UNL     1      -6.877   8.521  -4.676  1.00  0.00     0.012 C 
ATOM     21  C   UNL     1      -7.381   7.208  -6.870  1.00  0.00     0.003 C 
ATOM     22  C   UNL     1      -9.145   9.612  -6.538  1.00  0.00     0.033 C 
ATOM     23  C   UNL     1      -8.961   7.037  -6.700  1.00  0.00    -0.006 C 
ATOM     24  C   UNL     1      -9.698   8.325  -7.187  1.00  0.00     0.120 C 
ATOM     25  C   UNL     1      -9.493   5.797  -7.493  1.00  0.00     0.014 C 
ATOM     26  C   UNL     1      -9.349   6.730  -5.218  1.00  0.00     0.014 C 
ENDROOT
BRANCH   1  27
ATOM     27  C   UNL     1       0.024   7.694  -9.601  1.00  0.00     0.048 C 
ATOM     28  O   UNL     1      -0.605   6.719 -10.085  1.00  0.00    -0.550 OA
ATOM     29  O   UNL     1       1.413   7.632  -9.581  1.00  0.00    -0.550 OA
ENDBRANCH   1  27
BRANCH   7  30
ATOM     30  C   UNL     1       0.495   8.110  -5.997  1.00  0.00    -0.077 C 
ATOM     31  C   UNL     1      -0.070   7.814  -4.627  1.00  0.00     0.039 C 
ATOM     32  C   UNL     1       1.541   7.371  -6.406  1.00  0.00     0.008 C 
ENDBRANCH   7  30
BRANCH  24  33
ATOM     33  O   UNL     1      -9.613   8.444  -8.586  1.00  0.00    -0.393 OA
ATOM     34  H   UNL     1      -9.707   9.408  -8.803  1.00  0.00     0.210 HD
ENDBRANCH  24  33
TORSDOF 3
ENDMDL
MODEL 2
REMARK VINA RESULT:     0.297      1.756      7.928
REMARK INTER + INTRA:           1.101
REMARK INTER:                   0.864
REMARK INTRA:                   0.237
REMARK UNBOUND:                 0.761
REMARK SMILES C=C(C)[C@H]1CC[C@]2(C(=O)[O-])CC[C@@]3(C)[C@H](CC[C@@H]4[C@@]5(C)CC[C@@H](O)C(C)(C)[C@H]5CC[C@@]43C)[C@@H]12
REMARK SMILES IDX 7 1 6 2 33 3 11 4 5 5 15 6 4 7 12 8 16 9 13 10 17 11 31 12
REMARK SMILES IDX 14 13 18 14 30 15 32 16 19 17 29 18 21 19 20 20 28 21 22 22
REMARK SMILES IDX 25 23 23 24 26 25 27 26 8 27 9 28 10 29 2 30 3 31 1 32 24 33
REMARK H PARENT 24 34
REMARK Flexibility Score: inf
ROOT
ATOM      1  C   UNL     1      -8.267   8.145  -6.595  1.00  0.00     0.014 C 
ATOM      2  C   UNL     1      -9.483   8.789  -7.286  1.00  0.00     0.014 C 
ATOM      3  C   UNL     1      -7.427   7.739  -7.812  1.00  0.00     0.012 C 
ATOM      4  C   UNL     1      -7.431   9.129  -5.772  1.00  0.00     0.014 C 
ATOM      5  C   UNL     1      -9.771   7.895  -8.502  1.00  0.00     0.009 C 
ATOM      6  C   UNL     1      -6.101   6.989  -7.497  1.00  0.00     0.000 C 
ATOM      7  C   UNL     1      -8.427   7.230  -8.883  1.00  0.00     0.018 C 
ATOM      8  C   UNL     1      -6.132   8.454  -5.277  1.00  0.00     0.008 C 
ATOM      9  C   UNL     1      -5.334   6.712  -8.809  1.00  0.00     0.005 C 
ATOM     10  C   UNL     1      -5.219   7.689  -6.349  1.00  0.00    -0.024 C 
ATOM     11  C   UNL     1      -3.820   6.759  -8.693  1.00  0.00     0.005 C 
ATOM     12  C   UNL     1      -4.031   8.669  -6.930  1.00  0.00    -0.024 C 
ATOM     13  C   UNL     1      -4.612   6.508  -5.509  1.00  0.00     0.012 C 
ATOM     14  C   UNL     1      -3.338   8.175  -8.289  1.00  0.00     0.002 C 
ATOM     15  C   UNL     1      -2.938   8.916  -5.834  1.00  0.00     0.008 C 
ATOM     16  C   UNL     1      -4.632  10.079  -7.244  1.00  0.00     0.012 C 
ATOM     17  C   UNL     1      -1.746   8.361  -8.417  1.00  0.00    -0.026 C 
ATOM     18  C   UNL     1      -1.738   7.955  -5.831  1.00  0.00     0.005 C 
ATOM     19  C   UNL     1      -1.336   9.870  -8.504  1.00  0.00     0.010 C 
ATOM     20  C   UNL     1      -1.318   7.727  -9.785  1.00  0.00     0.012 C 
ATOM     21  C   UNL     1      -1.017   7.675  -7.197  1.00  0.00     0.003 C 
ATOM     22  C   UNL     1       0.184  10.125  -8.444  1.00  0.00     0.033 C 
ATOM     23  C   UNL     1       0.559   7.932  -7.124  1.00  0.00    -0.006 C 
ATOM     24  C   UNL     1       0.861   9.461  -7.226  1.00  0.00     0.120 C 
ATOM     25  C   UNL     1       1.174   7.363  -5.802  1.00  0.00     0.014 C 
ATOM     26  C   UNL     1       1.318   7.164  -8.253  1.00  0.00     0.014 C 
ENDROOT
BRANCH   1  27
ATOM     27  C   UNL     1      -8.750   7.013  -5.683  1.00  0.00     0.048 C 
ATOM     28  O   UNL     1      -8.007   6.045  -5.384  1.00  0.00    -0.550 OA
ATOM     29  O   UNL     1      -9.990   7.102  -5.062  1.00  0.00    -0.550 OA
ENDBRANCH   1  27
BRANCH   7  30
ATOM     30  C   UNL     1      -8.511   5.715  -9.095  1.00  0.00    -0.077 C 
ATOM     31  C   UNL     1      -7.597   5.054 -10.099  1.00  0.00     0.039 C 
ATOM     32  C   UNL     1      -9.436   4.943  -8.500  1.00  0.00     0.008 C 
ENDBRANCH   7  30
BRANCH  24  33
ATOM     33  O   UNL     1       0.451  10.125  -6.056  1.00  0.00    -0.393 OA
ATOM     34  H   UNL     1       1.083   9.864  -5.336  1.00  0.00     0.210 HD
ENDBRANCH  24  33
TORSDOF 3
ENDMDL
