MODEL 1
REMARK VINA RESULT:     1.876      0.000      0.000
REMARK INTER + INTRA:           1.969
REMARK INTER:                   1.986
REMARK INTRA:                  -0.016
REMARK UNBOUND:                -0.016
REMARK SMILES O=C([O-])c1cccnc1
REMARK SMILES IDX 4 1 5 2 9 3 6 4 8 5 7 6 2 7 1 8 3 9
REMARK H PARENT
REMARK Flexibility Score: inf
ROOT
ATOM      1  C   UNL     1      35.036  55.106  92.125  1.00  0.00     0.016 A 
ATOM      2  C   UNL     1      34.743  55.689  90.881  1.00  0.00     0.013 A 
ATOM      3  C   UNL     1      34.048  55.133  93.125  1.00  0.00     0.120 A 
ATOM      4  C   UNL     1      33.497  56.278  90.659  1.00  0.00     0.021 A 
ATOM      5  N   UNL     1      32.842  55.713  92.882  1.00  0.00    -0.264 NA
ATOM      6  C   UNL     1      32.549  56.280  91.683  1.00  0.00     0.111 A 
ENDROOT
BRANCH   1   7
ATOM      7  C   UNL     1      36.353  54.479  92.371  1.00  0.00     0.073 C 
ATOM      8  O   UNL     1      36.611  53.333  91.916  1.00  0.00    -0.545 OA
ATOM      9  O   UNL     1      37.323  55.147  93.109  1.00  0.00    -0.545 OA
ENDBRANCH   1   7
TORSDOF 1
ENDMDL
MODEL 2
REMARK VINA RESULT:     2.639      2.990      3.825
REMARK INTER + INTRA:           2.777
REMARK INTER:                   2.798
REMARK INTRA:                  -0.021
REMARK UNBOUND:                -0.016
REMARK SMILES O=C([O-])c1cccnc1
REMARK SMILES IDX 4 1 5 2 9 3 6 4 8 5 7 6 2 7 1 8 3 9
REMARK H PARENT
REMARK Flexibility Score: inf
ROOT
ATOM      1  C   UNL     1      33.600  56.156  91.237  1.00  0.00     0.016 A 
ATOM      2  C   UNL     1      34.981  55.920  91.135  1.00  0.00     0.013 A 
ATOM      3  C   UNL     1      32.885  55.510  92.261  1.00  0.00     0.120 A 
ATOM      4  C   UNL     1      35.614  55.061  92.034  1.00  0.00     0.021 A 
ATOM      5  N   UNL     1      33.527  54.677  93.124  1.00  0.00    -0.264 NA
ATOM      6  C   UNL     1      34.862  54.442  93.033  1.00  0.00     0.111 A 
ENDROOT
BRANCH   1   7
ATOM      7  C   UNL     1      32.919  57.065  90.289  1.00  0.00     0.073 C 
ATOM      8  O   UNL     1      33.480  58.124  89.903  1.00  0.00    -0.545 OA
ATOM      9  O   UNL     1      31.649  56.761  89.813  1.00  0.00    -0.545 OA
ENDBRANCH   1   7
TORSDOF 1
ENDMDL
MODEL 3
REMARK VINA RESULT:     3.407      3.068      3.994
REMARK INTER + INTRA:           3.590
REMARK INTER:                   3.612
REMARK INTRA:                  -0.022
REMARK UNBOUND:                -0.016
REMARK SMILES O=C([O-])c1cccnc1
REMARK SMILES IDX 4 1 5 2 9 3 6 4 8 5 7 6 2 7 1 8 3 9
REMARK H PARENT
REMARK Flexibility Score: inf
ROOT
ATOM      1  C   UNL     1      33.899  56.125  91.376  1.00  0.00     0.016 A 
ATOM      2  C   UNL     1      33.241  55.282  92.285  1.00  0.00     0.013 A 
ATOM      3  C   UNL     1      35.304  56.100  91.337  1.00  0.00     0.120 A 
ATOM      4  C   UNL     1      33.977  54.445  93.125  1.00  0.00     0.021 A 
ATOM      5  N   UNL     1      35.998  55.275  92.166  1.00  0.00    -0.264 NA
ATOM      6  C   UNL     1      35.371  54.455  93.050  1.00  0.00     0.111 A 
ENDROOT
BRANCH   1   7
ATOM      7  C   UNL     1      33.128  57.017  90.481  1.00  0.00     0.073 C 
ATOM      8  O   UNL     1      33.611  58.118  90.105  1.00  0.00    -0.545 OA
ATOM      9  O   UNL     1      31.861  56.651  90.045  1.00  0.00    -0.545 OA
ENDBRANCH   1   7
TORSDOF 1
ENDMDL
MODEL 4
REMARK VINA RESULT:     4.389      2.853      3.873
REMARK INTER + INTRA:           4.629
REMARK INTER:                   4.646
REMARK INTRA:                  -0.017
REMARK UNBOUND:                -0.016
REMARK SMILES O=C([O-])c1cccnc1
REMARK SMILES IDX 4 1 5 2 9 3 6 4 8 5 7 6 2 7 1 8 3 9
REMARK H PARENT
REMARK Flexibility Score: inf
ROOT
ATOM      1  C   UNL     1      34.639  55.360  91.996  1.00  0.00     0.016 A 
ATOM      2  C   UNL     1      35.557  55.981  92.859  1.00  0.00     0.013 A 
ATOM      3  C   UNL     1      35.002  54.139  91.402  1.00  0.00     0.120 A 
ATOM      4  C   UNL     1      36.795  55.388  93.111  1.00  0.00     0.021 A 
ATOM      5  N   UNL     1      36.215  53.582  91.663  1.00  0.00    -0.264 NA
ATOM      6  C   UNL     1      37.110  54.175  92.497  1.00  0.00     0.111 A 
ENDROOT
BRANCH   1   7
ATOM      7  C   UNL     1      33.324  55.980  91.723  1.00  0.00     0.073 C 
ATOM      8  O   UNL     1      32.451  56.053  92.628  1.00  0.00    -0.545 OA
ATOM      9  O   UNL     1      33.034  56.488  90.463  1.00  0.00    -0.545 OA
ENDBRANCH   1   7
TORSDOF 1
ENDMDL
