MODEL 1
REMARK VINA RESULT:    -3.336      0.000      0.000
REMARK INTER + INTRA:          -6.132
REMARK INTER:                  -5.091
REMARK INTRA:                  -1.041
REMARK UNBOUND:                -1.041
REMARK SMILES CCCCCCCCCCC(=O)[O-]
REMARK SMILES IDX 7 1 8 2 9 3 10 4 11 5 12 6 13 7 6 8 5 9 4 10 3 11 2 12 1 13
REMARK H PARENT
REMARK Flexibility Score: inf
ROOT
ATOM      1  C   UNL     1      61.834  31.972  59.387  1.00  0.00     0.000 C 
ENDROOT
BRANCH   1   2
ATOM      2  C   UNL     1      61.227  31.977  60.801  1.00  0.00     0.000 C 
BRANCH   2   3
ATOM      3  C   UNL     1      60.921  30.561  61.317  1.00  0.00     0.006 C 
BRANCH   3   4
ATOM      4  C   UNL     1      62.188  29.727  61.544  1.00  0.00     0.053 C 
BRANCH   4   5
ATOM      5  C   UNL     1      62.059  28.392  60.880  1.00  0.00     0.041 C 
ATOM      6  O   UNL     1      62.009  27.341  61.573  1.00  0.00    -0.550 OA
ATOM      7  O   UNL     1      62.041  28.305  59.494  1.00  0.00    -0.550 OA
ENDBRANCH   4   5
ENDBRANCH   3   4
ENDBRANCH   2   3
ENDBRANCH   1   2
BRANCH   1   8
ATOM      8  C   UNL     1      63.087  32.857  59.279  1.00  0.00     0.000 C 
BRANCH   8   9
ATOM      9  C   UNL     1      63.913  32.873  60.578  1.00  0.00    -0.000 C 
BRANCH   9  10
ATOM     10  C   UNL     1      64.117  34.294  61.130  1.00  0.00    -0.000 C 
BRANCH  10  11
ATOM     11  C   UNL     1      63.378  35.361  60.305  1.00  0.00    -0.000 C 
BRANCH  11  12
ATOM     12  C   UNL     1      62.202  35.988  61.072  1.00  0.00    -0.003 C 
ATOM     13  C   UNL     1      60.844  35.640  60.464  1.00  0.00     0.004 C 
ENDBRANCH  11  12
ENDBRANCH  10  11
ENDBRANCH   9  10
ENDBRANCH   8   9
ENDBRANCH   1   8
TORSDOF 9
ENDMDL
MODEL 2
REMARK VINA RESULT:    -3.220      1.479      2.170
REMARK INTER + INTRA:          -5.955
REMARK INTER:                  -5.359
REMARK INTRA:                  -0.596
REMARK UNBOUND:                -1.041
REMARK SMILES CCCCCCCCCCC(=O)[O-]
REMARK SMILES IDX 7 1 8 2 9 3 10 4 11 5 12 6 13 7 6 8 5 9 4 10 3 11 2 12 1 13
REMARK H PARENT
REMARK Flexibility Score: inf
ROOT
ATOM      1  C   UNL     1      60.922  31.393  59.734  1.00  0.00     0.000 C 
ENDROOT
BRANCH   1   2
ATOM      2  C   UNL     1      60.956  31.171  61.257  1.00  0.00     0.000 C 
BRANCH   2   3
ATOM      3  C   UNL     1      61.859  29.994  61.662  1.00  0.00     0.006 C 
BRANCH   3   4
ATOM      4  C   UNL     1      63.165  29.945  60.857  1.00  0.00     0.053 C 
BRANCH   4   5
ATOM      5  C   UNL     1      63.736  28.562  60.877  1.00  0.00     0.041 C 
ATOM      6  O   UNL     1      62.982  27.566  61.038  1.00  0.00    -0.550 OA
ATOM      7  O   UNL     1      65.108  28.376  60.766  1.00  0.00    -0.550 OA
ENDBRANCH   4   5
ENDBRANCH   3   4
ENDBRANCH   2   3
ENDBRANCH   1   2
BRANCH   1   8
ATOM      8  C   UNL     1      61.331  32.820  59.335  1.00  0.00     0.000 C 
BRANCH   8   9
ATOM      9  C   UNL     1      62.092  33.552  60.456  1.00  0.00    -0.000 C 
BRANCH   9  10
ATOM     10  C   UNL     1      61.808  35.063  60.473  1.00  0.00    -0.000 C 
BRANCH  10  11
ATOM     11  C   UNL     1      62.898  35.861  61.209  1.00  0.00    -0.000 C 
BRANCH  11  12
ATOM     12  C   UNL     1      64.134  35.007  61.533  1.00  0.00    -0.003 C 
ATOM     13  C   UNL     1      65.444  35.681  61.127  1.00  0.00     0.004 C 
ENDBRANCH  11  12
ENDBRANCH  10  11
ENDBRANCH   9  10
ENDBRANCH   8   9
ENDBRANCH   1   8
TORSDOF 9
ENDMDL
MODEL 3
REMARK VINA RESULT:    -3.207     10.596     12.305
REMARK INTER + INTRA:          -5.935
REMARK INTER:                  -5.031
REMARK INTRA:                  -0.904
REMARK UNBOUND:                -1.041
REMARK SMILES CCCCCCCCCCC(=O)[O-]
REMARK SMILES IDX 7 1 8 2 9 3 10 4 11 5 12 6 13 7 6 8 5 9 4 10 3 11 2 12 1 13
REMARK H PARENT
REMARK Flexibility Score: inf
ROOT
ATOM      1  C   UNL     1      59.210  29.237  51.657  1.00  0.00     0.000 C 
ENDROOT
BRANCH   1   2
ATOM      2  C   UNL     1      59.014  29.222  50.131  1.00  0.00     0.000 C 
BRANCH   2   3
ATOM      3  C   UNL     1      59.740  28.048  49.454  1.00  0.00     0.006 C 
BRANCH   3   4
ATOM      4  C   UNL     1      59.317  26.685  50.018  1.00  0.00     0.053 C 
BRANCH   4   5
ATOM      5  C   UNL     1      60.522  25.858  50.337  1.00  0.00     0.041 C 
ATOM      6  O   UNL     1      60.401  24.628  50.579  1.00  0.00    -0.550 OA
ATOM      7  O   UNL     1      61.774  26.454  50.414  1.00  0.00    -0.550 OA
ENDBRANCH   4   5
ENDBRANCH   3   4
ENDBRANCH   2   3
ENDBRANCH   1   2
BRANCH   1   8
ATOM      8  C   UNL     1      57.911  29.548  52.418  1.00  0.00     0.000 C 
BRANCH   8   9
ATOM      9  C   UNL     1      56.794  28.532  52.118  1.00  0.00    -0.000 C 
BRANCH   9  10
ATOM     10  C   UNL     1      55.592  29.170  51.400  1.00  0.00    -0.000 C 
BRANCH  10  11
ATOM     11  C   UNL     1      54.869  28.185  50.467  1.00  0.00    -0.000 C 
BRANCH  11  12
ATOM     12  C   UNL     1      55.499  26.782  50.491  1.00  0.00    -0.003 C 
ATOM     13  C   UNL     1      54.641  25.735  49.784  1.00  0.00     0.004 C 
ENDBRANCH  11  12
ENDBRANCH  10  11
ENDBRANCH   9  10
ENDBRANCH   8   9
ENDBRANCH   1   8
TORSDOF 9
ENDMDL
MODEL 4
REMARK VINA RESULT:    -3.174     11.758     12.996
REMARK INTER + INTRA:          -5.885
REMARK INTER:                  -5.141
REMARK INTRA:                  -0.744
REMARK UNBOUND:                -1.041
REMARK SMILES CCCCCCCCCCC(=O)[O-]
REMARK SMILES IDX 7 1 8 2 9 3 10 4 11 5 12 6 13 7 6 8 5 9 4 10 3 11 2 12 1 13
REMARK H PARENT
REMARK Flexibility Score: inf
ROOT
ATOM      1  C   UNL     1      57.384  28.156  50.997  1.00  0.00     0.000 C 
ENDROOT
BRANCH   1   2
ATOM      2  C   UNL     1      56.022  28.865  50.896  1.00  0.00     0.000 C 
BRANCH   2   3
ATOM      3  C   UNL     1      54.890  27.912  50.477  1.00  0.00     0.006 C 
BRANCH   3   4
ATOM      4  C   UNL     1      55.362  26.459  50.337  1.00  0.00     0.053 C 
BRANCH   4   5
ATOM      5  C   UNL     1      54.195  25.554  50.098  1.00  0.00     0.041 C 
ATOM      6  O   UNL     1      53.609  25.555  48.982  1.00  0.00    -0.550 OA
ATOM      7  O   UNL     1      53.722  24.744  51.122  1.00  0.00    -0.550 OA
ENDBRANCH   4   5
ENDBRANCH   3   4
ENDBRANCH   2   3
ENDBRANCH   1   2
BRANCH   1   8
ATOM      8  C   UNL     1      58.554  29.060  50.575  1.00  0.00     0.000 C 
BRANCH   8   9
ATOM      9  C   UNL     1      59.461  28.398  49.523  1.00  0.00    -0.000 C 
BRANCH   9  10
ATOM     10  C   UNL     1      60.873  28.107  50.059  1.00  0.00    -0.000 C 
BRANCH  10  11
ATOM     11  C   UNL     1      60.931  26.825  50.907  1.00  0.00    -0.000 C 
BRANCH  11  12
ATOM     12  C   UNL     1      60.184  25.652  50.252  1.00  0.00    -0.003 C 
ATOM     13  C   UNL     1      59.206  24.965  51.204  1.00  0.00     0.004 C 
ENDBRANCH  11  12
ENDBRANCH  10  11
ENDBRANCH   9  10
ENDBRANCH   8   9
ENDBRANCH   1   8
TORSDOF 9
ENDMDL
MODEL 5
REMARK VINA RESULT:    -3.125      3.379      6.202
REMARK INTER + INTRA:          -5.811
REMARK INTER:                  -5.249
REMARK INTRA:                  -0.561
REMARK UNBOUND:                -1.041
REMARK SMILES CCCCCCCCCCC(=O)[O-]
REMARK SMILES IDX 7 1 8 2 9 3 10 4 11 5 12 6 13 7 6 8 5 9 4 10 3 11 2 12 1 13
REMARK H PARENT
REMARK Flexibility Score: inf
ROOT
ATOM      1  C   UNL     1      62.112  32.691  60.483  1.00  0.00     0.000 C 
ENDROOT
BRANCH   1   2
ATOM      2  C   UNL     1      61.688  34.149  60.232  1.00  0.00     0.000 C 
BRANCH   2   3
ATOM      3  C   UNL     1      62.647  35.162  60.877  1.00  0.00     0.006 C 
BRANCH   3   4
ATOM      4  C   UNL     1      64.007  34.547  61.232  1.00  0.00     0.053 C 
BRANCH   4   5
ATOM      5  C   UNL     1      65.102  35.243  60.488  1.00  0.00     0.041 C 
ATOM      6  O   UNL     1      65.937  35.956  61.107  1.00  0.00    -0.550 OA
ATOM      7  O   UNL     1      65.175  35.144  59.105  1.00  0.00    -0.550 OA
ENDBRANCH   4   5
ENDBRANCH   3   4
ENDBRANCH   2   3
ENDBRANCH   1   2
BRANCH   1   8
ATOM      8  C   UNL     1      60.938  31.800  60.922  1.00  0.00     0.000 C 
BRANCH   8   9
ATOM      9  C   UNL     1      61.393  30.397  61.360  1.00  0.00    -0.000 C 
BRANCH   9  10
ATOM     10  C   UNL     1      62.920  30.223  61.292  1.00  0.00    -0.000 C 
BRANCH  10  11
ATOM     11  C   UNL     1      63.337  28.776  60.983  1.00  0.00    -0.000 C 
BRANCH  11  12
ATOM     12  C   UNL     1      62.132  27.826  60.880  1.00  0.00    -0.003 C 
ATOM     13  C   UNL     1      62.483  26.381  61.233  1.00  0.00     0.004 C 
ENDBRANCH  11  12
ENDBRANCH  10  11
ENDBRANCH   9  10
ENDBRANCH   8   9
ENDBRANCH   1   8
TORSDOF 9
ENDMDL
MODEL 6
REMARK VINA RESULT:    -3.112     11.760     13.515
REMARK INTER + INTRA:          -5.790
REMARK INTER:                  -4.801
REMARK INTRA:                  -0.989
REMARK UNBOUND:                -1.041
REMARK SMILES CCCCCCCCCCC(=O)[O-]
REMARK SMILES IDX 7 1 8 2 9 3 10 4 11 5 12 6 13 7 6 8 5 9 4 10 3 11 2 12 1 13
REMARK H PARENT
REMARK Flexibility Score: inf
ROOT
ATOM      1  C   UNL     1      56.396  27.638  52.029  1.00  0.00     0.000 C 
ENDROOT
BRANCH   1   2
ATOM      2  C   UNL     1      57.245  26.359  51.924  1.00  0.00     0.000 C 
BRANCH   2   3
ATOM      3  C   UNL     1      57.899  26.196  50.542  1.00  0.00     0.006 C 
BRANCH   3   4
ATOM      4  C   UNL     1      59.432  26.199  50.608  1.00  0.00     0.053 C 
BRANCH   4   5
ATOM      5  C   UNL     1      59.978  27.428  49.952  1.00  0.00     0.041 C 
ATOM      6  O   UNL     1      59.206  28.365  49.617  1.00  0.00    -0.550 OA
ATOM      7  O   UNL     1      61.335  27.519  49.668  1.00  0.00    -0.550 OA
ENDBRANCH   4   5
ENDBRANCH   3   4
ENDBRANCH   2   3
ENDBRANCH   1   2
BRANCH   1   8
ATOM      8  C   UNL     1      55.888  28.124  50.661  1.00  0.00     0.000 C 
BRANCH   8   9
ATOM      9  C   UNL     1      54.399  28.513  50.689  1.00  0.00    -0.000 C 
BRANCH   9  10
ATOM     10  C   UNL     1      53.497  27.440  50.055  1.00  0.00    -0.000 C 
BRANCH  10  11
ATOM     11  C   UNL     1      54.275  26.178  49.648  1.00  0.00    -0.000 C 
BRANCH  11  12
ATOM     12  C   UNL     1      53.578  24.885  50.103  1.00  0.00    -0.003 C 
ATOM     13  C   UNL     1      53.482  24.766  51.623  1.00  0.00     0.004 C 
ENDBRANCH  11  12
ENDBRANCH  10  11
ENDBRANCH   9  10
ENDBRANCH   8   9
ENDBRANCH   1   8
TORSDOF 9
ENDMDL
MODEL 7
REMARK VINA RESULT:    -3.090     11.318     13.169
REMARK INTER + INTRA:          -5.757
REMARK INTER:                  -5.435
REMARK INTRA:                  -0.322
REMARK UNBOUND:                -1.041
REMARK SMILES CCCCCCCCCCC(=O)[O-]
REMARK SMILES IDX 7 1 8 2 9 3 10 4 11 5 12 6 13 7 6 8 5 9 4 10 3 11 2 12 1 13
REMARK H PARENT
REMARK Flexibility Score: inf
ROOT
ATOM      1  C   UNL     1      58.261  29.097  50.465  1.00  0.00     0.000 C 
ENDROOT
BRANCH   1   2
ATOM      2  C   UNL     1      59.448  28.494  49.694  1.00  0.00     0.000 C 
BRANCH   2   3
ATOM      3  C   UNL     1      60.716  28.381  50.557  1.00  0.00     0.006 C 
BRANCH   3   4
ATOM      4  C   UNL     1      61.740  27.396  49.979  1.00  0.00     0.053 C 
BRANCH   4   5
ATOM      5  C   UNL     1      63.102  28.014  49.956  1.00  0.00     0.041 C 
ATOM      6  O   UNL     1      63.732  28.123  48.871  1.00  0.00    -0.550 OA
ATOM      7  O   UNL     1      63.697  28.428  51.141  1.00  0.00    -0.550 OA
ENDBRANCH   4   5
ENDBRANCH   3   4
ENDBRANCH   2   3
ENDBRANCH   1   2
BRANCH   1   8
ATOM      8  C   UNL     1      57.194  28.050  50.822  1.00  0.00     0.000 C 
BRANCH   8   9
ATOM      9  C   UNL     1      55.790  28.663  50.966  1.00  0.00    -0.000 C 
BRANCH   9  10
ATOM     10  C   UNL     1      54.690  27.767  50.369  1.00  0.00    -0.000 C 
BRANCH  10  11
ATOM     11  C   UNL     1      55.178  26.334  50.097  1.00  0.00    -0.000 C 
BRANCH  11  12
ATOM     12  C   UNL     1      54.021  25.326  50.009  1.00  0.00    -0.003 C 
ATOM     13  C   UNL     1      52.875  25.814  49.124  1.00  0.00     0.004 C 
ENDBRANCH  11  12
ENDBRANCH  10  11
ENDBRANCH   9  10
ENDBRANCH   8   9
ENDBRANCH   1   8
TORSDOF 9
ENDMDL
MODEL 8
REMARK VINA RESULT:    -3.087      1.781      2.842
REMARK INTER + INTRA:          -5.752
REMARK INTER:                  -4.935
REMARK INTRA:                  -0.817
REMARK UNBOUND:                -1.041
REMARK SMILES CCCCCCCCCCC(=O)[O-]
REMARK SMILES IDX 7 1 8 2 9 3 10 4 11 5 12 6 13 7 6 8 5 9 4 10 3 11 2 12 1 13
REMARK H PARENT
REMARK Flexibility Score: inf
ROOT
ATOM      1  C   UNL     1      62.094  34.038  60.579  1.00  0.00     0.000 C 
ENDROOT
BRANCH   1   2
ATOM      2  C   UNL     1      61.332  33.416  59.395  1.00  0.00     0.000 C 
BRANCH   2   3
ATOM      3  C   UNL     1      61.200  31.889  59.515  1.00  0.00     0.006 C 
BRANCH   3   4
ATOM      4  C   UNL     1      61.175  31.410  60.973  1.00  0.00     0.053 C 
BRANCH   4   5
ATOM      5  C   UNL     1      62.291  30.444  61.222  1.00  0.00     0.041 C 
ATOM      6  O   UNL     1      62.046  29.296  61.680  1.00  0.00    -0.550 OA
ATOM      7  O   UNL     1      63.606  30.828  60.994  1.00  0.00    -0.550 OA
ENDBRANCH   4   5
ENDBRANCH   3   4
ENDBRANCH   2   3
ENDBRANCH   1   2
BRANCH   1   8
ATOM      8  C   UNL     1      61.856  35.552  60.706  1.00  0.00     0.000 C 
BRANCH   8   9
ATOM      9  C   UNL     1      63.060  36.289  61.318  1.00  0.00    -0.000 C 
BRANCH   9  10
ATOM     10  C   UNL     1      64.253  35.355  61.581  1.00  0.00    -0.000 C 
BRANCH  10  11
ATOM     11  C   UNL     1      65.561  35.877  60.963  1.00  0.00    -0.000 C 
BRANCH  11  12
ATOM     12  C   UNL     1      65.456  36.073  59.442  1.00  0.00    -0.003 C 
ATOM     13  C   UNL     1      65.189  34.768  58.693  1.00  0.00     0.004 C 
ENDBRANCH  11  12
ENDBRANCH  10  11
ENDBRANCH   9  10
ENDBRANCH   8   9
ENDBRANCH   1   8
TORSDOF 9
ENDMDL
MODEL 9
REMARK VINA RESULT:    -3.028      3.403      5.764
REMARK INTER + INTRA:          -5.662
REMARK INTER:                  -4.770
REMARK INTRA:                  -0.893
REMARK UNBOUND:                -1.041
REMARK SMILES CCCCCCCCCCC(=O)[O-]
REMARK SMILES IDX 7 1 8 2 9 3 10 4 11 5 12 6 13 7 6 8 5 9 4 10 3 11 2 12 1 13
REMARK H PARENT
REMARK Flexibility Score: inf
ROOT
ATOM      1  C   UNL     1      61.802  35.706  60.509  1.00  0.00     0.000 C 
ENDROOT
BRANCH   1   2
ATOM      2  C   UNL     1      62.974  36.351  61.269  1.00  0.00     0.000 C 
BRANCH   2   3
ATOM      3  C   UNL     1      64.121  35.362  61.534  1.00  0.00     0.006 C 
BRANCH   3   4
ATOM      4  C   UNL     1      65.443  35.802  60.889  1.00  0.00     0.053 C 
BRANCH   4   5
ATOM      5  C   UNL     1      65.404  35.566  59.412  1.00  0.00     0.041 C 
ATOM      6  O   UNL     1      65.018  34.456  58.957  1.00  0.00    -0.550 OA
ATOM      7  O   UNL     1      65.839  36.555  58.539  1.00  0.00    -0.550 OA
ENDBRANCH   4   5
ENDBRANCH   3   4
ENDBRANCH   2   3
ENDBRANCH   1   2
BRANCH   1   8
ATOM      8  C   UNL     1      61.829  34.170  60.573  1.00  0.00     0.000 C 
BRANCH   8   9
ATOM      9  C   UNL     1      61.421  33.517  59.241  1.00  0.00    -0.000 C 
BRANCH   9  10
ATOM     10  C   UNL     1      61.821  32.033  59.163  1.00  0.00    -0.000 C 
BRANCH  10  11
ATOM     11  C   UNL     1      62.690  31.592  60.353  1.00  0.00    -0.000 C 
BRANCH  11  12
ATOM     12  C   UNL     1      62.057  30.441  61.149  1.00  0.00    -0.003 C 
ATOM     13  C   UNL     1      60.642  30.760  61.630  1.00  0.00     0.004 C 
ENDBRANCH  11  12
ENDBRANCH  10  11
ENDBRANCH   9  10
ENDBRANCH   8   9
ENDBRANCH   1   8
TORSDOF 9
ENDMDL
