MODEL 1
REMARK VINA RESULT:    -3.822      0.000      0.000
REMARK INTER + INTRA:          -4.820
REMARK INTER:                  -4.716
REMARK INTRA:                  -0.104
REMARK UNBOUND:                -0.104
REMARK SMILES CCCCCC(=O)[O-]
REMARK SMILES IDX 4 1 5 2 6 3 7 4 8 5 3 6 2 7 1 8
REMARK H PARENT
REMARK Flexibility Score: inf
ROOT
ATOM      1  C   UNL     1     -30.447 -21.174 -24.570  1.00  0.00     0.006 C 
ENDROOT
BRANCH   1   2
ATOM      2  C   UNL     1     -31.309 -21.442 -23.328  1.00  0.00     0.053 C 
BRANCH   2   3
ATOM      3  C   UNL     1     -30.498 -21.994 -22.196  1.00  0.00     0.041 C 
ATOM      4  O   UNL     1     -31.065 -22.584 -21.239  1.00  0.00    -0.550 OA
ATOM      5  O   UNL     1     -29.119 -21.827 -22.181  1.00  0.00    -0.550 OA
ENDBRANCH   2   3
ENDBRANCH   1   2
BRANCH   1   6
ATOM      6  C   UNL     1     -31.052 -20.090 -25.474  1.00  0.00     0.000 C 
BRANCH   6   7
ATOM      7  C   UNL     1     -30.982 -20.505 -26.949  1.00  0.00    -0.003 C 
ATOM      8  C   UNL     1     -30.970 -22.024 -27.093  1.00  0.00     0.004 C 
ENDBRANCH   6   7
ENDBRANCH   1   6
TORSDOF 4
ENDMDL
MODEL 2
REMARK VINA RESULT:    -3.742      0.947      1.414
REMARK INTER + INTRA:          -4.721
REMARK INTER:                  -4.598
REMARK INTRA:                  -0.123
REMARK UNBOUND:                -0.104
REMARK SMILES CCCCCC(=O)[O-]
REMARK SMILES IDX 4 1 5 2 6 3 7 4 8 5 3 6 2 7 1 8
REMARK H PARENT
REMARK Flexibility Score: inf
ROOT
ATOM      1  C   UNL     1     -31.328 -21.144 -23.538  1.00  0.00     0.006 C 
ENDROOT
BRANCH   1   2
ATOM      2  C   UNL     1     -31.002 -22.316 -22.602  1.00  0.00     0.053 C 
BRANCH   2   3
ATOM      3  C   UNL     1     -29.811 -22.025 -21.740  1.00  0.00     0.041 C 
ATOM      4  O   UNL     1     -28.743 -22.673 -21.896  1.00  0.00    -0.550 OA
ATOM      5  O   UNL     1     -29.893 -21.062 -20.743  1.00  0.00    -0.550 OA
ENDBRANCH   2   3
ENDBRANCH   1   2
BRANCH   1   6
ATOM      6  C   UNL     1     -30.314 -21.016 -24.684  1.00  0.00     0.000 C 
BRANCH   6   7
ATOM      7  C   UNL     1     -31.018 -20.666 -26.001  1.00  0.00    -0.003 C 
ATOM      8  C   UNL     1     -31.002 -21.848 -26.966  1.00  0.00     0.004 C 
ENDBRANCH   6   7
ENDBRANCH   1   6
TORSDOF 4
ENDMDL
MODEL 3
REMARK VINA RESULT:    -3.725      2.667      4.541
REMARK INTER + INTRA:          -4.700
REMARK INTER:                  -4.584
REMARK INTRA:                  -0.117
REMARK UNBOUND:                -0.104
REMARK SMILES CCCCCC(=O)[O-]
REMARK SMILES IDX 4 1 5 2 6 3 7 4 8 5 3 6 2 7 1 8
REMARK H PARENT
REMARK Flexibility Score: inf
ROOT
ATOM      1  C   UNL     1     -32.003 -20.813 -23.023  1.00  0.00     0.006 C 
ENDROOT
BRANCH   1   2
ATOM      2  C   UNL     1     -30.938 -21.383 -23.970  1.00  0.00     0.053 C 
BRANCH   2   3
ATOM      3  C   UNL     1     -31.252 -21.087 -25.404  1.00  0.00     0.041 C 
ATOM      4  O   UNL     1     -31.280 -19.896 -25.813  1.00  0.00    -0.550 OA
ATOM      5  O   UNL     1     -31.548 -22.123 -26.281  1.00  0.00    -0.550 OA
ENDBRANCH   2   3
ENDBRANCH   1   2
BRANCH   1   6
ATOM      6  C   UNL     1     -31.714 -21.149 -21.553  1.00  0.00     0.000 C 
BRANCH   6   7
ATOM      7  C   UNL     1     -30.396 -21.921 -21.417  1.00  0.00    -0.003 C 
ATOM      8  C   UNL     1     -29.438 -21.212 -20.464  1.00  0.00     0.004 C 
ENDBRANCH   6   7
ENDBRANCH   1   6
TORSDOF 4
ENDMDL
MODEL 4
REMARK VINA RESULT:    -3.716      1.625      2.386
REMARK INTER + INTRA:          -4.689
REMARK INTER:                  -4.545
REMARK INTRA:                  -0.145
REMARK UNBOUND:                -0.104
REMARK SMILES CCCCCC(=O)[O-]
REMARK SMILES IDX 4 1 5 2 6 3 7 4 8 5 3 6 2 7 1 8
REMARK H PARENT
REMARK Flexibility Score: inf
ROOT
ATOM      1  C   UNL     1     -31.704 -21.247 -21.821  1.00  0.00     0.006 C 
ENDROOT
BRANCH   1   2
ATOM      2  C   UNL     1     -30.565 -22.265 -21.972  1.00  0.00     0.053 C 
BRANCH   2   3
ATOM      3  C   UNL     1     -29.504 -22.072 -20.933  1.00  0.00     0.041 C 
ATOM      4  O   UNL     1     -29.428 -20.985 -20.301  1.00  0.00    -0.550 OA
ATOM      5  O   UNL     1     -28.578 -23.077 -20.687  1.00  0.00    -0.550 OA
ENDBRANCH   2   3
ENDBRANCH   1   2
BRANCH   1   6
ATOM      6  C   UNL     1     -32.047 -20.558 -23.150  1.00  0.00     0.000 C 
BRANCH   6   7
ATOM      7  C   UNL     1     -31.258 -21.178 -24.309  1.00  0.00    -0.003 C 
ATOM      8  C   UNL     1     -30.960 -20.143 -25.389  1.00  0.00     0.004 C 
ENDBRANCH   6   7
ENDBRANCH   1   6
TORSDOF 4
ENDMDL
MODEL 5
REMARK VINA RESULT:    -3.602      2.842      5.361
REMARK INTER + INTRA:          -4.548
REMARK INTER:                  -4.473
REMARK INTRA:                  -0.075
REMARK UNBOUND:                -0.104
REMARK SMILES CCCCCC(=O)[O-]
REMARK SMILES IDX 4 1 5 2 6 3 7 4 8 5 3 6 2 7 1 8
REMARK H PARENT
REMARK Flexibility Score: inf
ROOT
ATOM      1  C   UNL     1     -29.300 -22.099 -21.665  1.00  0.00     0.006 C 
ENDROOT
BRANCH   1   2
ATOM      2  C   UNL     1     -30.694 -22.602 -22.065  1.00  0.00     0.053 C 
BRANCH   2   3
ATOM      3  C   UNL     1     -31.442 -21.587 -22.873  1.00  0.00     0.041 C 
ATOM      4  O   UNL     1     -31.261 -21.510 -24.118  1.00  0.00    -0.550 OA
ATOM      5  O   UNL     1     -32.311 -20.703 -22.249  1.00  0.00    -0.550 OA
ENDBRANCH   2   3
ENDBRANCH   1   2
BRANCH   1   6
ATOM      6  C   UNL     1     -29.222 -21.725 -20.178  1.00  0.00     0.000 C 
BRANCH   6   7
ATOM      7  C   UNL     1     -28.556 -22.842 -19.366  1.00  0.00    -0.003 C 
ATOM      8  C   UNL     1     -27.976 -22.305 -18.061  1.00  0.00     0.004 C 
ENDBRANCH   6   7
ENDBRANCH   1   6
TORSDOF 4
ENDMDL
MODEL 6
REMARK VINA RESULT:    -3.581      3.044      5.623
REMARK INTER + INTRA:          -4.523
REMARK INTER:                  -4.468
REMARK INTRA:                  -0.055
REMARK UNBOUND:                -0.104
REMARK SMILES CCCCCC(=O)[O-]
REMARK SMILES IDX 4 1 5 2 6 3 7 4 8 5 3 6 2 7 1 8
REMARK H PARENT
REMARK Flexibility Score: inf
ROOT
ATOM      1  C   UNL     1     -29.408 -21.940 -20.789  1.00  0.00     0.006 C 
ENDROOT
BRANCH   1   2
ATOM      2  C   UNL     1     -30.638 -22.565 -21.463  1.00  0.00     0.053 C 
BRANCH   2   3
ATOM      3  C   UNL     1     -31.299 -21.612 -22.410  1.00  0.00     0.041 C 
ATOM      4  O   UNL     1     -32.166 -20.801 -21.989  1.00  0.00    -0.550 OA
ATOM      5  O   UNL     1     -30.982 -21.641 -23.762  1.00  0.00    -0.550 OA
ENDBRANCH   2   3
ENDBRANCH   1   2
BRANCH   1   6
ATOM      6  C   UNL     1     -28.482 -22.999 -20.172  1.00  0.00     0.000 C 
BRANCH   6   7
ATOM      7  C   UNL     1     -28.722 -23.124 -18.663  1.00  0.00    -0.003 C 
ATOM      8  C   UNL     1     -27.649 -22.382 -17.871  1.00  0.00     0.004 C 
ENDBRANCH   6   7
ENDBRANCH   1   6
TORSDOF 4
ENDMDL
MODEL 7
REMARK VINA RESULT:    -3.422      2.970      4.243
REMARK INTER + INTRA:          -4.326
REMARK INTER:                  -4.165
REMARK INTRA:                  -0.161
REMARK UNBOUND:                -0.104
REMARK SMILES CCCCCC(=O)[O-]
REMARK SMILES IDX 4 1 5 2 6 3 7 4 8 5 3 6 2 7 1 8
REMARK H PARENT
REMARK Flexibility Score: inf
ROOT
ATOM      1  C   UNL     1     -29.659 -21.585 -21.168  1.00  0.00     0.006 C 
ENDROOT
BRANCH   1   2
ATOM      2  C   UNL     1     -31.068 -22.069 -21.539  1.00  0.00     0.053 C 
BRANCH   2   3
ATOM      3  C   UNL     1     -31.635 -21.300 -22.692  1.00  0.00     0.041 C 
ATOM      4  O   UNL     1     -31.188 -21.482 -23.855  1.00  0.00    -0.550 OA
ATOM      5  O   UNL     1     -32.634 -20.359 -22.479  1.00  0.00    -0.550 OA
ENDBRANCH   2   3
ENDBRANCH   1   2
BRANCH   1   6
ATOM      6  C   UNL     1     -28.719 -22.747 -20.814  1.00  0.00     0.000 C 
BRANCH   6   7
ATOM      7  C   UNL     1     -27.768 -23.055 -21.976  1.00  0.00    -0.003 C 
ATOM      8  C   UNL     1     -27.722 -21.900 -22.972  1.00  0.00     0.004 C 
ENDBRANCH   6   7
ENDBRANCH   1   6
TORSDOF 4
ENDMDL
MODEL 8
REMARK VINA RESULT:    -3.361      2.588      3.368
REMARK INTER + INTRA:          -4.251
REMARK INTER:                  -4.134
REMARK INTRA:                  -0.118
REMARK UNBOUND:                -0.104
REMARK SMILES CCCCCC(=O)[O-]
REMARK SMILES IDX 4 1 5 2 6 3 7 4 8 5 3 6 2 7 1 8
REMARK H PARENT
REMARK Flexibility Score: inf
ROOT
ATOM      1  C   UNL     1     -29.698 -21.853 -22.494  1.00  0.00     0.006 C 
ENDROOT
BRANCH   1   2
ATOM      2  C   UNL     1     -29.249 -22.771 -21.349  1.00  0.00     0.053 C 
BRANCH   2   3
ATOM      3  C   UNL     1     -29.119 -22.026 -20.056  1.00  0.00     0.041 C 
ATOM      4  O   UNL     1     -28.894 -22.650 -18.986  1.00  0.00    -0.550 OA
ATOM      5  O   UNL     1     -29.280 -20.647 -20.028  1.00  0.00    -0.550 OA
ENDBRANCH   2   3
ENDBRANCH   1   2
BRANCH   1   6
ATOM      6  C   UNL     1     -31.176 -22.058 -22.858  1.00  0.00     0.000 C 
BRANCH   6   7
ATOM      7  C   UNL     1     -31.789 -20.763 -23.404  1.00  0.00    -0.003 C 
ATOM      8  C   UNL     1     -32.638 -20.067 -22.344  1.00  0.00     0.004 C 
ENDBRANCH   6   7
ENDBRANCH   1   6
TORSDOF 4
ENDMDL
MODEL 9
REMARK VINA RESULT:    -3.203      2.188      3.222
REMARK INTER + INTRA:          -4.056
REMARK INTER:                  -3.900
REMARK INTRA:                  -0.156
REMARK UNBOUND:                -0.104
REMARK SMILES CCCCCC(=O)[O-]
REMARK SMILES IDX 4 1 5 2 6 3 7 4 8 5 3 6 2 7 1 8
REMARK H PARENT
REMARK Flexibility Score: inf
ROOT
ATOM      1  C   UNL     1     -30.913 -22.237 -21.849  1.00  0.00     0.006 C 
ENDROOT
BRANCH   1   2
ATOM      2  C   UNL     1     -29.590 -22.273 -21.073  1.00  0.00     0.053 C 
BRANCH   2   3
ATOM      3  C   UNL     1     -28.412 -22.425 -21.985  1.00  0.00     0.041 C 
ATOM      4  O   UNL     1     -27.425 -23.125 -21.635  1.00  0.00    -0.550 OA
ATOM      5  O   UNL     1     -28.389 -21.767 -23.208  1.00  0.00    -0.550 OA
ENDBRANCH   2   3
ENDBRANCH   1   2
BRANCH   1   6
ATOM      6  C   UNL     1     -31.716 -20.958 -21.572  1.00  0.00     0.000 C 
BRANCH   6   7
ATOM      7  C   UNL     1     -32.341 -20.413 -22.861  1.00  0.00    -0.003 C 
ATOM      8  C   UNL     1     -31.560 -20.873 -24.089  1.00  0.00     0.004 C 
ENDBRANCH   6   7
ENDBRANCH   1   6
TORSDOF 4
ENDMDL
