MODEL 1
REMARK VINA RESULT:    -4.375      0.000      0.000
REMARK INTER + INTRA:          -6.257
REMARK INTER:                  -6.421
REMARK INTRA:                   0.163
REMARK UNBOUND:                 0.163
REMARK SMILES C=C1CC=CC(C)(C)CC=C(C)CCC1
REMARK SMILES IDX 2 1 1 2 15 3 14 4 13 5 11 6 12 7 10 8 3 10 4 11 5 12 6 13
REMARK SMILES IDX 7 14 8 15 9 16
REMARK H PARENT
REMARK Flexibility Score: 60.00
ROOT
ATOM      1  C   UNL     1     101.154 105.797 127.772  1.00  0.00    -0.074 C 
ATOM      2  C   UNL     1     100.882 104.864 128.698  1.00  0.00     0.008 C 
ENDROOT
BRANCH   1   3
ATOM      3  C   UNL     1     101.266 107.256 128.187  1.00  0.00     0.031 C 
BRANCH   3   4
ATOM      4  C   UNL     1     102.395 107.469 129.218  1.00  0.00     0.009 C 
BRANCH   4   5
ATOM      5  C   UNL     1     103.778 107.039 128.691  1.00  0.00     0.030 C 
BRANCH   5   6
ATOM      6  C   UNL     1     104.368 108.113 127.799  1.00  0.00    -0.077 C 
ATOM      7  C   UNL     1     104.801 109.409 128.435  1.00  0.00     0.039 C 
ATOM      8  C   UNL     1     104.498 107.989 126.457  1.00  0.00    -0.027 CG0
ATOM      9  G   UNL     1     104.225 106.743 125.632  1.00  0.00     0.000 G0
ENDBRANCH   5   6
ENDBRANCH   4   5
ENDBRANCH   3   4
ENDBRANCH   1   3
BRANCH   1  10
ATOM     10  C   UNL     1     101.196 105.396 126.308  1.00  0.00     0.057 C 
BRANCH  10  11
ATOM     11  C   UNL     1     101.067 106.599 125.407  1.00  0.00    -0.026 C 
ATOM     12  C   UNL     1     101.962 107.181 124.573  1.00  0.00    -0.024 C 
BRANCH  12  13
ATOM     13  C   UNL     1     103.449 106.933 124.263  1.00  0.00    -0.014 C 
ATOM     14  C   UNL     1     103.480 105.586 123.501  1.00  0.00     0.016 C 
ATOM     15  C   UNL     1     104.146 107.963 123.350  1.00  0.00     0.016 C 
BRANCH  13  16
ATOM     16  C   UNL     1     104.226 106.745 125.620  1.00  0.00     0.038 CG0
ATOM     17  G   UNL     1     104.477 107.992 126.451  1.00  0.00     0.000 G0
ENDBRANCH  13  16
ENDBRANCH  12  13
ENDBRANCH  10  11
ENDBRANCH   1  10
TORSDOF 0
ENDMDL
MODEL 2
REMARK VINA RESULT:    -4.289      5.767      7.510
REMARK INTER + INTRA:          -6.131
REMARK INTER:                  -6.290
REMARK INTRA:                   0.159
REMARK UNBOUND:                 0.163
REMARK SMILES C=C1CC=CC(C)(C)CC=C(C)CCC1
REMARK SMILES IDX 2 1 1 2 15 3 14 4 13 5 11 6 12 7 10 8 3 10 4 11 5 12 6 13
REMARK SMILES IDX 7 14 8 15 9 16
REMARK H PARENT
REMARK Flexibility Score: 60.00
ROOT
ATOM      1  C   UNL     1     111.350 106.827 128.241  1.00  0.00    -0.074 C 
ATOM      2  C   UNL     1     111.688 107.702 129.203  1.00  0.00     0.008 C 
ENDROOT
BRANCH   1   3
ATOM      3  C   UNL     1     111.356 105.337 128.545  1.00  0.00     0.031 C 
BRANCH   3   4
ATOM      4  C   UNL     1     110.064 104.899 129.267  1.00  0.00     0.009 C 
BRANCH   4   5
ATOM      5  C   UNL     1     108.789 105.467 128.614  1.00  0.00     0.030 C 
BRANCH   5   6
ATOM      6  C   UNL     1     108.191 104.466 127.647  1.00  0.00    -0.077 C 
ATOM      7  C   UNL     1     107.878 103.082 128.156  1.00  0.00     0.039 C 
ATOM      8  C   UNL     1     107.951 104.731 126.341  1.00  0.00    -0.027 CG0
ATOM      9  G   UNL     1     108.093 106.076 125.650  1.00  0.00     0.000 G0
ENDBRANCH   5   6
ENDBRANCH   4   5
ENDBRANCH   3   4
ENDBRANCH   1   3
BRANCH   1  10
ATOM     10  C   UNL     1     111.112 107.336 126.830  1.00  0.00     0.057 C 
BRANCH  10  11
ATOM     11  C   UNL     1     111.300 106.237 125.813  1.00  0.00    -0.026 C 
ATOM     12  C   UNL     1     110.486 105.799 124.823  1.00  0.00    -0.024 C 
BRANCH  12  13
ATOM     13  C   UNL     1     109.055 106.156 124.382  1.00  0.00    -0.014 C 
ATOM     14  C   UNL     1     109.132 107.633 123.928  1.00  0.00     0.016 C 
ATOM     15  C   UNL     1     108.483 105.365 123.186  1.00  0.00     0.016 C 
BRANCH  13  16
ATOM     16  C   UNL     1     108.103 106.078 125.634  1.00  0.00     0.038 CG0
ATOM     17  G   UNL     1     107.974 104.729 126.321  1.00  0.00     0.000 G0
ENDBRANCH  13  16
ENDBRANCH  12  13
ENDBRANCH  10  11
ENDBRANCH   1  10
TORSDOF 0
ENDMDL
MODEL 3
REMARK VINA RESULT:    -4.266      4.125      5.173
REMARK INTER + INTRA:          -6.098
REMARK INTER:                  -6.288
REMARK INTRA:                   0.190
REMARK UNBOUND:                 0.163
REMARK SMILES C=C1CC=CC(C)(C)CC=C(C)CCC1
REMARK SMILES IDX 2 1 1 2 15 3 14 4 13 5 11 6 12 7 10 8 3 10 4 11 5 12 6 13
REMARK SMILES IDX 7 14 8 15 9 16
REMARK H PARENT
REMARK Flexibility Score: 60.00
ROOT
ATOM      1  C   UNL     1     105.759 111.328 127.961  1.00  0.00    -0.074 C 
ATOM      2  C   UNL     1     104.939 111.674 128.966  1.00  0.00     0.008 C 
ENDROOT
BRANCH   1   3
ATOM      3  C   UNL     1     107.241 111.127 128.236  1.00  0.00     0.031 C 
BRANCH   3   4
ATOM      4  C   UNL     1     107.483 109.971 129.229  1.00  0.00     0.009 C 
BRANCH   4   5
ATOM      5  C   UNL     1     106.940 108.620 128.721  1.00  0.00     0.030 C 
BRANCH   5   6
ATOM      6  C   UNL     1     107.906 107.993 127.736  1.00  0.00    -0.077 C 
ATOM      7  C   UNL     1     109.227 107.485 128.257  1.00  0.00     0.039 C 
ATOM      8  C   UNL     1     107.665 107.890 126.408  1.00  0.00    -0.027 CG0
ATOM      9  G   UNL     1     106.372 108.238 125.693  1.00  0.00     0.000 G0
ENDBRANCH   5   6
ENDBRANCH   4   5
ENDBRANCH   3   4
ENDBRANCH   1   3
BRANCH   1  10
ATOM     10  C   UNL     1     105.216 111.292 126.544  1.00  0.00     0.057 C 
BRANCH  10  11
ATOM     11  C   UNL     1     106.326 111.402 125.528  1.00  0.00    -0.026 C 
ATOM     12  C   UNL     1     106.799 110.503 124.631  1.00  0.00    -0.024 C 
BRANCH  12  13
ATOM     13  C   UNL     1     106.481 109.028 124.332  1.00  0.00    -0.014 C 
ATOM     14  C   UNL     1     105.082 109.045 123.669  1.00  0.00     0.016 C 
ATOM     15  C   UNL     1     107.420 108.306 123.341  1.00  0.00     0.016 C 
BRANCH  13  16
ATOM     16  C   UNL     1     106.367 108.246 125.694  1.00  0.00     0.038 CG0
ATOM     17  G   UNL     1     107.665 107.898 126.401  1.00  0.00     0.000 G0
ENDBRANCH  13  16
ENDBRANCH  12  13
ENDBRANCH  10  11
ENDBRANCH   1  10
TORSDOF 0
ENDMDL
MODEL 4
REMARK VINA RESULT:    -4.080      1.599      3.690
REMARK INTER + INTRA:          -5.824
REMARK INTER:                  -6.182
REMARK INTRA:                   0.357
REMARK UNBOUND:                 0.163
REMARK SMILES C=C1CC=CC(C)(C)CC=C(C)CCC1
REMARK SMILES IDX 2 1 1 2 15 3 14 4 13 5 11 6 12 7 10 8 3 10 4 11 5 12 6 13
REMARK SMILES IDX 7 14 8 15 9 16
REMARK H PARENT
REMARK Flexibility Score: 60.00
ROOT
ATOM      1  C   UNL     1     101.856 106.078 125.764  1.00  0.00    -0.074 C 
ATOM      2  C   UNL     1     101.057 107.068 125.334  1.00  0.00     0.008 C 
ENDROOT
BRANCH   1   3
ATOM      3  C   UNL     1     101.241 104.819 126.356  1.00  0.00     0.031 C 
BRANCH   3   4
ATOM      4  C   UNL     1     100.693 105.068 127.777  1.00  0.00     0.009 C 
BRANCH   4   5
ATOM      5  C   UNL     1     101.804 105.344 128.809  1.00  0.00     0.030 C 
BRANCH   5   6
ATOM      6  C   UNL     1     101.818 106.807 129.202  1.00  0.00    -0.077 C 
ATOM      7  C   UNL     1     100.511 107.456 129.581  1.00  0.00     0.039 C 
ATOM      8  C   UNL     1     102.932 107.575 129.203  1.00  0.00    -0.027 CG0
ATOM      9  G   UNL     1     104.356 107.106 128.960  1.00  0.00     0.000 G0
ENDBRANCH   5   6
ENDBRANCH   4   5
ENDBRANCH   3   4
ENDBRANCH   1   3
BRANCH   1  10
ATOM     10  C   UNL     1     103.358 106.299 125.789  1.00  0.00     0.057 C 
BRANCH  10  11
ATOM     11  C   UNL     1     103.694 107.764 125.920  1.00  0.00    -0.026 C 
ATOM     12  C   UNL     1     104.492 108.414 126.801  1.00  0.00    -0.024 C 
BRANCH  12  13
ATOM     13  C   UNL     1     105.293 107.975 128.039  1.00  0.00    -0.014 C 
ATOM     14  C   UNL     1     106.415 107.062 127.488  1.00  0.00     0.016 C 
ATOM     15  C   UNL     1     105.998 109.091 128.839  1.00  0.00     0.016 C 
BRANCH  13  16
ATOM     16  C   UNL     1     104.363 107.103 128.963  1.00  0.00     0.038 CG0
ATOM     17  G   UNL     1     102.946 107.602 129.186  1.00  0.00     0.000 G0
ENDBRANCH  13  16
ENDBRANCH  12  13
ENDBRANCH  10  11
ENDBRANCH   1  10
TORSDOF 0
ENDMDL
MODEL 5
REMARK VINA RESULT:    -4.053      3.951      5.075
REMARK INTER + INTRA:          -5.786
REMARK INTER:                  -5.932
REMARK INTRA:                   0.146
REMARK UNBOUND:                 0.163
REMARK SMILES C=C1CC=CC(C)(C)CC=C(C)CCC1
REMARK SMILES IDX 2 1 1 2 15 3 14 4 13 5 11 6 12 7 10 8 3 10 4 11 5 12 6 13
REMARK SMILES IDX 7 14 8 15 9 16
REMARK H PARENT
REMARK Flexibility Score: 60.00
ROOT
ATOM      1  C   UNL     1     106.663 101.731 127.465  1.00  0.00    -0.074 C 
ATOM      2  C   UNL     1     107.715 101.786 128.299  1.00  0.00     0.008 C 
ENDROOT
BRANCH   1   3
ATOM      3  C   UNL     1     105.260 101.593 128.035  1.00  0.00     0.031 C 
BRANCH   3   4
ATOM      4  C   UNL     1     104.903 102.777 128.959  1.00  0.00     0.009 C 
BRANCH   4   5
ATOM      5  C   UNL     1     105.066 104.147 128.270  1.00  0.00     0.030 C 
BRANCH   5   6
ATOM      6  C   UNL     1     103.846 104.473 127.434  1.00  0.00    -0.077 C 
ATOM      7  C   UNL     1     102.526 104.660 128.139  1.00  0.00     0.039 C 
ATOM      8  C   UNL     1     103.865 104.576 126.084  1.00  0.00    -0.027 CG0
ATOM      9  G   UNL     1     105.091 104.530 125.189  1.00  0.00     0.000 G0
ENDBRANCH   5   6
ENDBRANCH   4   5
ENDBRANCH   3   4
ENDBRANCH   1   3
BRANCH   1  10
ATOM     10  C   UNL     1     106.909 101.658 125.969  1.00  0.00     0.057 C 
BRANCH  10  11
ATOM     11  C   UNL     1     105.635 101.360 125.218  1.00  0.00    -0.026 C 
ATOM     12  C   UNL     1     104.903 102.130 124.375  1.00  0.00    -0.024 C 
BRANCH  12  13
ATOM     13  C   UNL     1     105.003 103.592 123.909  1.00  0.00    -0.014 C 
ATOM     14  C   UNL     1     106.356 103.685 123.163  1.00  0.00     0.016 C 
ATOM     15  C   UNL     1     103.926 104.076 122.914  1.00  0.00     0.016 C 
BRANCH  13  16
ATOM     16  C   UNL     1     105.078 104.525 125.176  1.00  0.00     0.038 CG0
ATOM     17  G   UNL     1     103.854 104.572 126.073  1.00  0.00     0.000 G0
ENDBRANCH  13  16
ENDBRANCH  12  13
ENDBRANCH  10  11
ENDBRANCH   1  10
TORSDOF 0
ENDMDL
MODEL 6
REMARK VINA RESULT:    -4.046      0.927      3.616
REMARK INTER + INTRA:          -5.775
REMARK INTER:                  -6.331
REMARK INTRA:                   0.556
REMARK UNBOUND:                 0.163
REMARK SMILES C=C1CC=CC(C)(C)CC=C(C)CCC1
REMARK SMILES IDX 2 1 1 2 15 3 14 4 13 5 11 6 12 7 10 8 3 10 4 11 5 12 6 13
REMARK SMILES IDX 7 14 8 15 9 16
REMARK H PARENT
REMARK Flexibility Score: 60.00
ROOT
ATOM      1  C   UNL     1     100.972 105.840 127.996  1.00  0.00    -0.074 C 
ATOM      2  C   UNL     1     100.831 105.101 129.109  1.00  0.00     0.008 C 
ENDROOT
BRANCH   1   3
ATOM      3  C   UNL     1     100.800 105.186 126.634  1.00  0.00     0.031 C 
BRANCH   3   4
ATOM      4  C   UNL     1     101.261 106.119 125.493  1.00  0.00     0.009 C 
BRANCH   4   5
ATOM      5  C   UNL     1     102.618 105.704 124.890  1.00  0.00     0.030 C 
BRANCH   5   6
ATOM      6  C   UNL     1     103.498 106.917 124.670  1.00  0.00    -0.077 C 
ATOM      7  C   UNL     1     103.408 107.634 123.346  1.00  0.00     0.039 C 
ATOM      8  C   UNL     1     104.386 107.378 125.582  1.00  0.00    -0.027 CG0
ATOM      9  G   UNL     1     104.564 106.878 127.005  1.00  0.00     0.000 G0
ENDBRANCH   5   6
ENDBRANCH   4   5
ENDBRANCH   3   4
ENDBRANCH   1   3
BRANCH   1  10
ATOM     10  C   UNL     1     101.445 107.277 128.118  1.00  0.00     0.057 C 
BRANCH  10  11
ATOM     11  C   UNL     1     102.419 107.438 129.259  1.00  0.00    -0.026 C 
ATOM     12  C   UNL     1     103.742 107.733 129.260  1.00  0.00    -0.024 C 
BRANCH  12  13
ATOM     13  C   UNL     1     104.789 107.937 128.152  1.00  0.00    -0.014 C 
ATOM     14  C   UNL     1     104.486 109.337 127.566  1.00  0.00     0.016 C 
ATOM     15  C   UNL     1     106.268 107.965 128.595  1.00  0.00     0.016 C 
BRANCH  13  16
ATOM     16  C   UNL     1     104.546 106.870 127.020  1.00  0.00     0.038 CG0
ATOM     17  G   UNL     1     104.374 107.392 125.604  1.00  0.00     0.000 G0
ENDBRANCH  13  16
ENDBRANCH  12  13
ENDBRANCH  10  11
ENDBRANCH   1  10
TORSDOF 0
ENDMDL
MODEL 7
REMARK VINA RESULT:    -4.018      4.680      5.624
REMARK INTER + INTRA:          -5.734
REMARK INTER:                  -6.097
REMARK INTRA:                   0.363
REMARK UNBOUND:                 0.163
REMARK SMILES C=C1CC=CC(C)(C)CC=C(C)CCC1
REMARK SMILES IDX 2 1 1 2 15 3 14 4 13 5 11 6 12 7 10 8 3 10 4 11 5 12 6 13
REMARK SMILES IDX 7 14 8 15 9 16
REMARK H PARENT
REMARK Flexibility Score: 60.00
ROOT
ATOM      1  C   UNL     1     106.827 100.927 128.156  1.00  0.00    -0.074 C 
ATOM      2  C   UNL     1     107.500 100.566 129.261  1.00  0.00     0.008 C 
ENDROOT
BRANCH   1   3
ATOM      3  C   UNL     1     105.402 101.444 128.281  1.00  0.00     0.031 C 
BRANCH   3   4
ATOM      4  C   UNL     1     105.362 102.853 128.911  1.00  0.00     0.009 C 
BRANCH   4   5
ATOM      5  C   UNL     1     104.639 103.887 128.025  1.00  0.00     0.030 C 
BRANCH   5   6
ATOM      6  C   UNL     1     105.627 104.886 127.456  1.00  0.00    -0.077 C 
ATOM      7  C   UNL     1     106.379 105.771 128.417  1.00  0.00     0.039 C 
ATOM      8  C   UNL     1     105.850 105.052 126.131  1.00  0.00    -0.027 CG0
ATOM      9  G   UNL     1     105.285 104.205 125.005  1.00  0.00     0.000 G0
ENDBRANCH   5   6
ENDBRANCH   4   5
ENDBRANCH   3   4
ENDBRANCH   1   3
BRANCH   1  10
ATOM     10  C   UNL     1     107.448 100.671 126.795  1.00  0.00     0.057 C 
BRANCH  10  11
ATOM     11  C   UNL     1     107.965 101.948 126.180  1.00  0.00    -0.026 C 
ATOM     12  C   UNL     1     107.370 102.832 125.342  1.00  0.00    -0.024 C 
BRANCH  12  13
ATOM     13  C   UNL     1     106.009 102.871 124.625  1.00  0.00    -0.014 C 
ATOM     14  C   UNL     1     106.351 102.903 123.116  1.00  0.00     0.016 C 
ATOM     15  C   UNL     1     105.084 101.652 124.833  1.00  0.00     0.016 C 
BRANCH  13  16
ATOM     16  C   UNL     1     105.280 104.218 124.990  1.00  0.00     0.038 CG0
ATOM     17  G   UNL     1     105.864 105.032 126.131  1.00  0.00     0.000 G0
ENDBRANCH  13  16
ENDBRANCH  12  13
ENDBRANCH  10  11
ENDBRANCH   1  10
TORSDOF 0
ENDMDL
MODEL 8
REMARK VINA RESULT:    -3.981      4.026      5.462
REMARK INTER + INTRA:          -5.680
REMARK INTER:                  -5.594
REMARK INTRA:                  -0.086
REMARK UNBOUND:                 0.163
REMARK SMILES C=C1CC=CC(C)(C)CC=C(C)CCC1
REMARK SMILES IDX 2 1 1 2 15 3 14 4 13 5 11 6 12 7 10 8 3 10 4 11 5 12 6 13
REMARK SMILES IDX 7 14 8 15 9 16
REMARK H PARENT
REMARK Flexibility Score: 60.00
ROOT
ATOM      1  C   UNL     1     106.275 110.344 125.278  1.00  0.00    -0.074 C 
ATOM      2  C   UNL     1     107.109 111.396 125.275  1.00  0.00     0.008 C 
ENDROOT
BRANCH   1   3
ATOM      3  C   UNL     1     104.879 110.492 125.863  1.00  0.00     0.031 C 
BRANCH   3   4
ATOM      4  C   UNL     1     104.913 111.172 127.248  1.00  0.00     0.009 C 
BRANCH   4   5
ATOM      5  C   UNL     1     105.205 110.184 128.395  1.00  0.00     0.030 C 
BRANCH   5   6
ATOM      6  C   UNL     1     106.634 110.332 128.877  1.00  0.00    -0.077 C 
ATOM      7  C   UNL     1     107.154 111.719 129.155  1.00  0.00     0.039 C 
ATOM      8  C   UNL     1     107.483 109.291 129.043  1.00  0.00    -0.027 CG0
ATOM      9  G   UNL     1     107.142 107.815 128.922  1.00  0.00     0.000 G0
ENDBRANCH   5   6
ENDBRANCH   4   5
ENDBRANCH   3   4
ENDBRANCH   1   3
BRANCH   1  10
ATOM     10  C   UNL     1     106.795 108.988 124.832  1.00  0.00     0.057 C 
BRANCH  10  11
ATOM     11  C   UNL     1     106.046 107.866 125.507  1.00  0.00    -0.026 C 
ATOM     12  C   UNL     1     106.343 107.144 126.615  1.00  0.00    -0.024 C 
BRANCH  12  13
ATOM     13  C   UNL     1     107.551 107.100 127.567  1.00  0.00    -0.014 C 
ATOM     14  C   UNL     1     107.781 105.597 127.856  1.00  0.00     0.016 C 
ATOM     15  C   UNL     1     108.886 107.642 127.014  1.00  0.00     0.016 C 
BRANCH  13  16
ATOM     16  C   UNL     1     107.158 107.804 128.920  1.00  0.00     0.038 CG0
ATOM     17  G   UNL     1     107.492 109.279 129.053  1.00  0.00     0.000 G0
ENDBRANCH  13  16
ENDBRANCH  12  13
ENDBRANCH  10  11
ENDBRANCH   1  10
TORSDOF 0
ENDMDL
MODEL 9
REMARK VINA RESULT:    -3.974      2.557      3.780
REMARK INTER + INTRA:          -5.669
REMARK INTER:                  -5.645
REMARK INTRA:                  -0.024
REMARK UNBOUND:                 0.163
REMARK SMILES C=C1CC=CC(C)(C)CC=C(C)CCC1
REMARK SMILES IDX 2 1 1 2 15 3 14 4 13 5 11 6 12 7 10 8 3 10 4 11 5 12 6 13
REMARK SMILES IDX 7 14 8 15 9 16
REMARK H PARENT
REMARK Flexibility Score: 60.00
ROOT
ATOM      1  C   UNL     1     102.006 105.928 125.389  1.00  0.00    -0.074 C 
ATOM      2  C   UNL     1     101.471 107.135 125.141  1.00  0.00     0.008 C 
ENDROOT
BRANCH   1   3
ATOM      3  C   UNL     1     101.208 104.900 126.176  1.00  0.00     0.031 C 
BRANCH   3   4
ATOM      4  C   UNL     1     100.818 105.431 127.572  1.00  0.00     0.009 C 
BRANCH   4   5
ATOM      5  C   UNL     1     101.759 104.933 128.688  1.00  0.00     0.030 C 
BRANCH   5   6
ATOM      6  C   UNL     1     103.025 105.764 128.729  1.00  0.00    -0.077 C 
ATOM      7  C   UNL     1     102.912 107.220 129.103  1.00  0.00     0.039 C 
ATOM      8  C   UNL     1     104.252 105.282 128.418  1.00  0.00    -0.027 CG0
ATOM      9  G   UNL     1     104.607 103.836 128.118  1.00  0.00     0.000 G0
ENDBRANCH   5   6
ENDBRANCH   4   5
ENDBRANCH   3   4
ENDBRANCH   1   3
BRANCH   1  10
ATOM     10  C   UNL     1     103.453 105.669 125.007  1.00  0.00     0.057 C 
BRANCH  10  11
ATOM     11  C   UNL     1     103.729 104.192 124.877  1.00  0.00    -0.026 C 
ATOM     12  C   UNL     1     104.510 103.368 125.618  1.00  0.00    -0.024 C 
BRANCH  12  13
ATOM     13  C   UNL     1     105.472 103.588 126.798  1.00  0.00    -0.014 C 
ATOM     14  C   UNL     1     106.215 102.240 126.967  1.00  0.00     0.016 C 
ATOM     15  C   UNL     1     106.564 104.662 126.610  1.00  0.00     0.016 C 
BRANCH  13  16
ATOM     16  C   UNL     1     104.626 103.847 128.102  1.00  0.00     0.038 CG0
ATOM     17  G   UNL     1     104.249 105.287 128.406  1.00  0.00     0.000 G0
ENDBRANCH  13  16
ENDBRANCH  12  13
ENDBRANCH  10  11
ENDBRANCH   1  10
TORSDOF 0
ENDMDL
