MODEL 1
REMARK VINA RESULT:    -3.436      0.000      0.000
REMARK INTER + INTRA:          -8.045
REMARK INTER:                  -6.249
REMARK INTRA:                  -1.797
REMARK UNBOUND:                -1.797
REMARK SMILES CCCCCCCCCCCCCCCC(=O)[O-]
REMARK SMILES IDX 9 1 10 2 11 3 12 4 13 5 14 6 15 7 16 8 17 9 18 10 8 11 7 12
REMARK SMILES IDX 6 13 5 14 4 15 3 16 2 17 1 18
REMARK H PARENT
REMARK Flexibility Score: inf
ROOT
ATOM      1  C   UNL     1      63.948  45.055  15.607  1.00  0.00     0.000 C 
ENDROOT
BRANCH   1   2
ATOM      2  C   UNL     1      63.125  45.132  16.901  1.00  0.00     0.000 C 
BRANCH   2   3
ATOM      3  C   UNL     1      61.755  44.469  16.722  1.00  0.00     0.000 C 
BRANCH   3   4
ATOM      4  C   UNL     1      60.655  45.278  17.426  1.00  0.00     0.000 C 
BRANCH   4   5
ATOM      5  C   UNL     1      59.300  44.554  17.438  1.00  0.00     0.000 C 
BRANCH   5   6
ATOM      6  C   UNL     1      58.301  45.151  16.432  1.00  0.00     0.006 C 
BRANCH   6   7
ATOM      7  C   UNL     1      57.593  44.067  15.608  1.00  0.00     0.053 C 
BRANCH   7   8
ATOM      8  C   UNL     1      56.122  44.332  15.491  1.00  0.00     0.041 C 
ATOM      9  O   UNL     1      55.707  45.459  15.114  1.00  0.00    -0.550 OA
ATOM     10  O   UNL     1      55.210  43.322  15.772  1.00  0.00    -0.550 OA
ENDBRANCH   7   8
ENDBRANCH   6   7
ENDBRANCH   5   6
ENDBRANCH   4   5
ENDBRANCH   3   4
ENDBRANCH   2   3
ENDBRANCH   1   2
BRANCH   1  11
ATOM     11  C   UNL     1      63.826  43.693  14.900  1.00  0.00     0.000 C 
BRANCH  11  12
ATOM     12  C   UNL     1      64.766  42.595  15.438  1.00  0.00    -0.000 C 
BRANCH  12  13
ATOM     13  C   UNL     1      64.123  41.201  15.592  1.00  0.00    -0.000 C 
BRANCH  13  14
ATOM     14  C   UNL     1      63.901  40.749  17.046  1.00  0.00    -0.000 C 
BRANCH  14  15
ATOM     15  C   UNL     1      64.369  41.795  18.072  1.00  0.00    -0.000 C 
BRANCH  15  16
ATOM     16  C   UNL     1      63.338  42.029  19.187  1.00  0.00    -0.000 C 
BRANCH  16  17
ATOM     17  C   UNL     1      61.945  41.495  18.825  1.00  0.00    -0.003 C 
ATOM     18  C   UNL     1      60.880  42.053  19.765  1.00  0.00     0.004 C 
ENDBRANCH  16  17
ENDBRANCH  15  16
ENDBRANCH  14  15
ENDBRANCH  13  14
ENDBRANCH  12  13
ENDBRANCH  11  12
ENDBRANCH   1  11
TORSDOF 14
ENDMDL
MODEL 2
REMARK VINA RESULT:    -3.396      1.152      1.650
REMARK INTER + INTRA:          -7.973
REMARK INTER:                  -6.229
REMARK INTRA:                  -1.744
REMARK UNBOUND:                -1.797
REMARK SMILES CCCCCCCCCCCCCCCC(=O)[O-]
REMARK SMILES IDX 9 1 10 2 11 3 12 4 13 5 14 6 15 7 16 8 17 9 18 10 8 11 7 12
REMARK SMILES IDX 6 13 5 14 4 15 3 16 2 17 1 18
REMARK H PARENT
REMARK Flexibility Score: inf
ROOT
ATOM      1  C   UNL     1      63.355  45.530  16.480  1.00  0.00     0.000 C 
ENDROOT
BRANCH   1   2
ATOM      2  C   UNL     1      61.991  44.827  16.419  1.00  0.00     0.000 C 
BRANCH   2   3
ATOM      3  C   UNL     1      61.012  45.435  17.431  1.00  0.00     0.000 C 
BRANCH   3   4
ATOM      4  C   UNL     1      59.928  44.421  17.825  1.00  0.00     0.000 C 
BRANCH   4   5
ATOM      5  C   UNL     1      58.787  44.343  16.799  1.00  0.00     0.000 C 
BRANCH   5   6
ATOM      6  C   UNL     1      57.664  45.354  17.085  1.00  0.00     0.006 C 
BRANCH   6   7
ATOM      7  C   UNL     1      57.650  46.506  16.070  1.00  0.00     0.053 C 
BRANCH   7   8
ATOM      8  C   UNL     1      56.817  46.177  14.868  1.00  0.00     0.041 C 
ATOM      9  O   UNL     1      57.009  46.778  13.779  1.00  0.00    -0.550 OA
ATOM     10  O   UNL     1      55.847  45.186  14.945  1.00  0.00    -0.550 OA
ENDBRANCH   7   8
ENDBRANCH   6   7
ENDBRANCH   5   6
ENDBRANCH   4   5
ENDBRANCH   3   4
ENDBRANCH   2   3
ENDBRANCH   1   2
BRANCH   1  11
ATOM     11  C   UNL     1      64.414  44.860  15.587  1.00  0.00     0.000 C 
BRANCH  11  12
ATOM     12  C   UNL     1      63.966  43.543  14.923  1.00  0.00    -0.000 C 
BRANCH  12  13
ATOM     13  C   UNL     1      64.871  42.326  15.205  1.00  0.00    -0.000 C 
BRANCH  13  14
ATOM     14  C   UNL     1      64.127  41.060  15.664  1.00  0.00    -0.000 C 
BRANCH  14  15
ATOM     15  C   UNL     1      64.206  40.841  17.184  1.00  0.00    -0.000 C 
BRANCH  15  16
ATOM     16  C   UNL     1      63.136  41.633  17.951  1.00  0.00    -0.000 C 
BRANCH  16  17
ATOM     17  C   UNL     1      63.740  42.707  18.867  1.00  0.00    -0.003 C 
ATOM     18  C   UNL     1      62.760  43.107  19.967  1.00  0.00     0.004 C 
ENDBRANCH  16  17
ENDBRANCH  15  16
ENDBRANCH  14  15
ENDBRANCH  13  14
ENDBRANCH  12  13
ENDBRANCH  11  12
ENDBRANCH   1  11
TORSDOF 14
ENDMDL
MODEL 3
REMARK VINA RESULT:    -3.166      9.072     13.053
REMARK INTER + INTRA:          -7.554
REMARK INTER:                  -6.201
REMARK INTRA:                  -1.354
REMARK UNBOUND:                -1.797
REMARK SMILES CCCCCCCCCCCCCCCC(=O)[O-]
REMARK SMILES IDX 9 1 10 2 11 3 12 4 13 5 14 6 15 7 16 8 17 9 18 10 8 11 7 12
REMARK SMILES IDX 6 13 5 14 4 15 3 16 2 17 1 18
REMARK H PARENT
REMARK Flexibility Score: inf
ROOT
ATOM      1  C   UNL     1      49.979  47.654  15.442  1.00  0.00     0.000 C 
ENDROOT
BRANCH   1   2
ATOM      2  C   UNL     1      49.889  49.108  14.956  1.00  0.00     0.000 C 
BRANCH   2   3
ATOM      3  C   UNL     1      49.283  49.182  13.550  1.00  0.00     0.000 C 
BRANCH   3   4
ATOM      4  C   UNL     1      50.309  49.709  12.536  1.00  0.00     0.000 C 
BRANCH   4   5
ATOM      5  C   UNL     1      51.380  48.665  12.178  1.00  0.00     0.000 C 
BRANCH   5   6
ATOM      6  C   UNL     1      52.780  49.059  12.680  1.00  0.00     0.006 C 
BRANCH   6   7
ATOM      7  C   UNL     1      53.353  48.031  13.664  1.00  0.00     0.053 C 
BRANCH   7   8
ATOM      8  C   UNL     1      54.849  47.974  13.600  1.00  0.00     0.041 C 
ATOM      9  O   UNL     1      55.432  46.893  13.326  1.00  0.00    -0.550 OA
ATOM     10  O   UNL     1      55.598  49.124  13.815  1.00  0.00    -0.550 OA
ENDBRANCH   7   8
ENDBRANCH   6   7
ENDBRANCH   5   6
ENDBRANCH   4   5
ENDBRANCH   3   4
ENDBRANCH   2   3
ENDBRANCH   1   2
BRANCH   1  11
ATOM     11  C   UNL     1      49.268  46.664  14.501  1.00  0.00     0.000 C 
BRANCH  11  12
ATOM     12  C   UNL     1      49.937  45.279  14.388  1.00  0.00    -0.000 C 
BRANCH  12  13
ATOM     13  C   UNL     1      49.184  44.129  15.087  1.00  0.00    -0.000 C 
BRANCH  13  14
ATOM     14  C   UNL     1      47.734  44.454  15.486  1.00  0.00    -0.000 C 
BRANCH  14  15
ATOM     15  C   UNL     1      46.699  43.775  14.571  1.00  0.00    -0.000 C 
BRANCH  15  16
ATOM     16  C   UNL     1      47.039  42.304  14.288  1.00  0.00    -0.000 C 
BRANCH  16  17
ATOM     17  C   UNL     1      46.014  41.334  14.895  1.00  0.00    -0.003 C 
ATOM     18  C   UNL     1      46.584  40.630  16.123  1.00  0.00     0.004 C 
ENDBRANCH  16  17
ENDBRANCH  15  16
ENDBRANCH  14  15
ENDBRANCH  13  14
ENDBRANCH  12  13
ENDBRANCH  11  12
ENDBRANCH   1  11
TORSDOF 14
ENDMDL
MODEL 4
REMARK VINA RESULT:    -3.158      8.985     12.563
REMARK INTER + INTRA:          -7.539
REMARK INTER:                  -5.289
REMARK INTRA:                  -2.250
REMARK UNBOUND:                -1.797
REMARK SMILES CCCCCCCCCCCCCCCC(=O)[O-]
REMARK SMILES IDX 9 1 10 2 11 3 12 4 13 5 14 6 15 7 16 8 17 9 18 10 8 11 7 12
REMARK SMILES IDX 6 13 5 14 4 15 3 16 2 17 1 18
REMARK H PARENT
REMARK Flexibility Score: inf
ROOT
ATOM      1  C   UNL     1      48.982  48.361  14.106  1.00  0.00     0.000 C 
ENDROOT
BRANCH   1   2
ATOM      2  C   UNL     1      49.171  49.796  13.592  1.00  0.00     0.000 C 
BRANCH   2   3
ATOM      3  C   UNL     1      50.071  49.821  12.351  1.00  0.00     0.000 C 
BRANCH   3   4
ATOM      4  C   UNL     1      51.552  49.719  12.743  1.00  0.00     0.000 C 
BRANCH   4   5
ATOM      5  C   UNL     1      52.197  48.399  12.290  1.00  0.00     0.000 C 
BRANCH   5   6
ATOM      6  C   UNL     1      53.511  48.098  13.030  1.00  0.00     0.006 C 
BRANCH   6   7
ATOM      7  C   UNL     1      53.470  48.559  14.493  1.00  0.00     0.053 C 
BRANCH   7   8
ATOM      8  C   UNL     1      54.060  47.534  15.414  1.00  0.00     0.041 C 
ATOM      9  O   UNL     1      53.834  47.586  16.651  1.00  0.00    -0.550 OA
ATOM     10  O   UNL     1      54.839  46.505  14.901  1.00  0.00    -0.550 OA
ENDBRANCH   7   8
ENDBRANCH   6   7
ENDBRANCH   5   6
ENDBRANCH   4   5
ENDBRANCH   3   4
ENDBRANCH   2   3
ENDBRANCH   1   2
BRANCH   1  11
ATOM     11  C   UNL     1      49.513  48.163  15.537  1.00  0.00     0.000 C 
BRANCH  11  12
ATOM     12  C   UNL     1      50.385  46.908  15.740  1.00  0.00    -0.000 C 
BRANCH  12  13
ATOM     13  C   UNL     1      50.575  46.031  14.485  1.00  0.00    -0.000 C 
BRANCH  13  14
ATOM     14  C   UNL     1      49.751  44.732  14.473  1.00  0.00    -0.000 C 
BRANCH  14  15
ATOM     15  C   UNL     1      49.266  44.323  15.875  1.00  0.00    -0.000 C 
BRANCH  15  16
ATOM     16  C   UNL     1      47.819  43.806  15.870  1.00  0.00    -0.000 C 
BRANCH  16  17
ATOM     17  C   UNL     1      46.822  44.849  15.344  1.00  0.00    -0.003 C 
ATOM     18  C   UNL     1      46.615  45.972  16.355  1.00  0.00     0.004 C 
ENDBRANCH  16  17
ENDBRANCH  15  16
ENDBRANCH  14  15
ENDBRANCH  13  14
ENDBRANCH  12  13
ENDBRANCH  11  12
ENDBRANCH   1  11
TORSDOF 14
ENDMDL
MODEL 5
REMARK VINA RESULT:    -3.144      1.576      3.634
REMARK INTER + INTRA:          -7.514
REMARK INTER:                  -5.356
REMARK INTRA:                  -2.158
REMARK UNBOUND:                -1.797
REMARK SMILES CCCCCCCCCCCCCCCC(=O)[O-]
REMARK SMILES IDX 9 1 10 2 11 3 12 4 13 5 14 6 15 7 16 8 17 9 18 10 8 11 7 12
REMARK SMILES IDX 6 13 5 14 4 15 3 16 2 17 1 18
REMARK H PARENT
REMARK Flexibility Score: inf
ROOT
ATOM      1  C   UNL     1      63.646  42.259  17.723  1.00  0.00     0.000 C 
ENDROOT
BRANCH   1   2
ATOM      2  C   UNL     1      62.504  41.651  18.551  1.00  0.00     0.000 C 
BRANCH   2   3
ATOM      3  C   UNL     1      61.288  42.585  18.580  1.00  0.00     0.000 C 
BRANCH   3   4
ATOM      4  C   UNL     1      61.698  44.032  18.271  1.00  0.00     0.000 C 
BRANCH   4   5
ATOM      5  C   UNL     1      60.903  44.639  17.104  1.00  0.00     0.000 C 
BRANCH   5   6
ATOM      6  C   UNL     1      59.859  45.667  17.571  1.00  0.00     0.006 C 
BRANCH   6   7
ATOM      7  C   UNL     1      58.539  45.005  17.988  1.00  0.00     0.053 C 
BRANCH   7   8
ATOM      8  C   UNL     1      58.048  44.043  16.949  1.00  0.00     0.041 C 
ATOM      9  O   UNL     1      57.944  42.817  17.217  1.00  0.00    -0.550 OA
ATOM     10  O   UNL     1      57.680  44.506  15.692  1.00  0.00    -0.550 OA
ENDBRANCH   7   8
ENDBRANCH   6   7
ENDBRANCH   5   6
ENDBRANCH   4   5
ENDBRANCH   3   4
ENDBRANCH   2   3
ENDBRANCH   1   2
BRANCH   1  11
ATOM     11  C   UNL     1      64.034  41.392  16.512  1.00  0.00     0.000 C 
BRANCH  11  12
ATOM     12  C   UNL     1      64.411  42.180  15.242  1.00  0.00    -0.000 C 
BRANCH  12  13
ATOM     13  C   UNL     1      63.730  43.556  15.098  1.00  0.00    -0.000 C 
BRANCH  13  14
ATOM     14  C   UNL     1      64.691  44.758  15.120  1.00  0.00    -0.000 C 
BRANCH  14  15
ATOM     15  C   UNL     1      64.612  45.559  16.431  1.00  0.00    -0.000 C 
BRANCH  15  16
ATOM     16  C   UNL     1      63.766  46.834  16.292  1.00  0.00    -0.000 C 
BRANCH  16  17
ATOM     17  C   UNL     1      63.416  47.461  17.650  1.00  0.00    -0.003 C 
ATOM     18  C   UNL     1      64.111  46.725  18.791  1.00  0.00     0.004 C 
ENDBRANCH  16  17
ENDBRANCH  15  16
ENDBRANCH  14  15
ENDBRANCH  13  14
ENDBRANCH  12  13
ENDBRANCH  11  12
ENDBRANCH   1  11
TORSDOF 14
ENDMDL
MODEL 6
REMARK VINA RESULT:    -3.129      6.375     11.263
REMARK INTER + INTRA:          -7.486
REMARK INTER:                  -5.552
REMARK INTRA:                  -1.934
REMARK UNBOUND:                -1.797
REMARK SMILES CCCCCCCCCCCCCCCC(=O)[O-]
REMARK SMILES IDX 9 1 10 2 11 3 12 4 13 5 14 6 15 7 16 8 17 9 18 10 8 11 7 12
REMARK SMILES IDX 6 13 5 14 4 15 3 16 2 17 1 18
REMARK H PARENT
REMARK Flexibility Score: inf
ROOT
ATOM      1  C   UNL     1      52.589  48.392  12.619  1.00  0.00     0.000 C 
ENDROOT
BRANCH   1   2
ATOM      2  C   UNL     1      53.316  49.445  13.469  1.00  0.00     0.000 C 
BRANCH   2   3
ATOM      3  C   UNL     1      54.521  48.833  14.192  1.00  0.00     0.000 C 
BRANCH   3   4
ATOM      4  C   UNL     1      54.923  47.494  13.555  1.00  0.00     0.000 C 
BRANCH   4   5
ATOM      5  C   UNL     1      56.430  47.214  13.663  1.00  0.00     0.000 C 
BRANCH   5   6
ATOM      6  C   UNL     1      56.769  46.228  14.794  1.00  0.00     0.006 C 
BRANCH   6   7
ATOM      7  C   UNL     1      55.536  45.450  15.273  1.00  0.00     0.053 C 
BRANCH   7   8
ATOM      8  C   UNL     1      55.853  44.006  15.520  1.00  0.00     0.041 C 
ATOM      9  O   UNL     1      57.030  43.581  15.381  1.00  0.00    -0.550 OA
ATOM     10  O   UNL     1      54.851  43.135  15.930  1.00  0.00    -0.550 OA
ENDBRANCH   7   8
ENDBRANCH   6   7
ENDBRANCH   5   6
ENDBRANCH   4   5
ENDBRANCH   3   4
ENDBRANCH   2   3
ENDBRANCH   1   2
BRANCH   1  11
ATOM     11  C   UNL     1      51.481  48.995  11.738  1.00  0.00     0.000 C 
BRANCH  11  12
ATOM     12  C   UNL     1      50.661  50.120  12.402  1.00  0.00    -0.000 C 
BRANCH  12  13
ATOM     13  C   UNL     1      49.480  49.643  13.272  1.00  0.00    -0.000 C 
BRANCH  13  14
ATOM     14  C   UNL     1      49.738  49.679  14.788  1.00  0.00    -0.000 C 
BRANCH  14  15
ATOM     15  C   UNL     1      49.874  48.275  15.402  1.00  0.00    -0.000 C 
BRANCH  15  16
ATOM     16  C   UNL     1      49.429  47.165  14.438  1.00  0.00    -0.000 C 
BRANCH  16  17
ATOM     17  C   UNL     1      50.369  45.950  14.462  1.00  0.00    -0.003 C 
ATOM     18  C   UNL     1      51.608  46.230  15.308  1.00  0.00     0.004 C 
ENDBRANCH  16  17
ENDBRANCH  15  16
ENDBRANCH  14  15
ENDBRANCH  13  14
ENDBRANCH  12  13
ENDBRANCH  11  12
ENDBRANCH   1  11
TORSDOF 14
ENDMDL
MODEL 7
REMARK VINA RESULT:    -3.103      9.647     13.036
REMARK INTER + INTRA:          -7.439
REMARK INTER:                  -5.912
REMARK INTRA:                  -1.527
REMARK UNBOUND:                -1.797
REMARK SMILES CCCCCCCCCCCCCCCC(=O)[O-]
REMARK SMILES IDX 9 1 10 2 11 3 12 4 13 5 14 6 15 7 16 8 17 9 18 10 8 11 7 12
REMARK SMILES IDX 6 13 5 14 4 15 3 16 2 17 1 18
REMARK H PARENT
REMARK Flexibility Score: inf
ROOT
ATOM      1  C   UNL     1      49.867  47.482  14.841  1.00  0.00     0.000 C 
ENDROOT
BRANCH   1   2
ATOM      2  C   UNL     1      50.122  46.138  14.143  1.00  0.00     0.000 C 
BRANCH   2   3
ATOM      3  C   UNL     1      50.328  45.017  15.168  1.00  0.00     0.000 C 
BRANCH   3   4
ATOM      4  C   UNL     1      49.220  43.960  15.058  1.00  0.00     0.000 C 
BRANCH   4   5
ATOM      5  C   UNL     1      47.812  44.555  15.223  1.00  0.00     0.000 C 
BRANCH   5   6
ATOM      6  C   UNL     1      46.753  43.808  14.396  1.00  0.00     0.006 C 
BRANCH   6   7
ATOM      7  C   UNL     1      47.039  42.303  14.312  1.00  0.00     0.053 C 
BRANCH   7   8
ATOM      8  C   UNL     1      45.914  41.491  14.880  1.00  0.00     0.041 C 
ATOM      9  O   UNL     1      44.875  42.058  15.308  1.00  0.00    -0.550 OA
ATOM     10  O   UNL     1      46.003  40.105  14.910  1.00  0.00    -0.550 OA
ENDBRANCH   7   8
ENDBRANCH   6   7
ENDBRANCH   5   6
ENDBRANCH   4   5
ENDBRANCH   3   4
ENDBRANCH   2   3
ENDBRANCH   1   2
BRANCH   1  11
ATOM     11  C   UNL     1      49.007  48.440  13.997  1.00  0.00     0.000 C 
BRANCH  11  12
ATOM     12  C   UNL     1      49.764  49.650  13.413  1.00  0.00    -0.000 C 
BRANCH  12  13
ATOM     13  C   UNL     1      50.500  49.384  12.084  1.00  0.00    -0.000 C 
BRANCH  13  14
ATOM     14  C   UNL     1      51.865  50.081  11.950  1.00  0.00    -0.000 C 
BRANCH  14  15
ATOM     15  C   UNL     1      52.717  49.970  13.227  1.00  0.00    -0.000 C 
BRANCH  15  16
ATOM     16  C   UNL     1      53.178  48.531  13.504  1.00  0.00    -0.000 C 
BRANCH  16  17
ATOM     17  C   UNL     1      53.521  48.296  14.983  1.00  0.00    -0.003 C 
ATOM     18  C   UNL     1      53.670  46.808  15.283  1.00  0.00     0.004 C 
ENDBRANCH  16  17
ENDBRANCH  15  16
ENDBRANCH  14  15
ENDBRANCH  13  14
ENDBRANCH  12  13
ENDBRANCH  11  12
ENDBRANCH   1  11
TORSDOF 14
ENDMDL
MODEL 8
REMARK VINA RESULT:    -3.068     11.734     14.295
REMARK INTER + INTRA:          -7.375
REMARK INTER:                  -5.071
REMARK INTRA:                  -2.304
REMARK UNBOUND:                -1.797
REMARK SMILES CCCCCCCCCCCCCCCC(=O)[O-]
REMARK SMILES IDX 9 1 10 2 11 3 12 4 13 5 14 6 15 7 16 8 17 9 18 10 8 11 7 12
REMARK SMILES IDX 6 13 5 14 4 15 3 16 2 17 1 18
REMARK H PARENT
REMARK Flexibility Score: inf
ROOT
ATOM      1  C   UNL     1      47.688  44.360  18.641  1.00  0.00     0.000 C 
ENDROOT
BRANCH   1   2
ATOM      2  C   UNL     1      48.668  43.435  17.903  1.00  0.00     0.000 C 
BRANCH   2   3
ATOM      3  C   UNL     1      49.732  44.245  17.154  1.00  0.00     0.000 C 
BRANCH   3   4
ATOM      4  C   UNL     1      50.001  43.649  15.765  1.00  0.00     0.000 C 
BRANCH   4   5
ATOM      5  C   UNL     1      49.642  44.615  14.624  1.00  0.00     0.000 C 
BRANCH   5   6
ATOM      6  C   UNL     1      50.194  46.032  14.853  1.00  0.00     0.006 C 
BRANCH   6   7
ATOM      7  C   UNL     1      49.090  47.097  14.807  1.00  0.00     0.053 C 
BRANCH   7   8
ATOM      8  C   UNL     1      49.581  48.378  14.202  1.00  0.00     0.041 C 
ATOM      9  O   UNL     1      48.802  49.100  13.526  1.00  0.00    -0.550 OA
ATOM     10  O   UNL     1      50.892  48.787  14.410  1.00  0.00    -0.550 OA
ENDBRANCH   7   8
ENDBRANCH   6   7
ENDBRANCH   5   6
ENDBRANCH   4   5
ENDBRANCH   3   4
ENDBRANCH   2   3
ENDBRANCH   1   2
BRANCH   1  11
ATOM     11  C   UNL     1      46.310  44.436  17.960  1.00  0.00     0.000 C 
BRANCH  11  12
ATOM     12  C   UNL     1      46.283  45.214  16.629  1.00  0.00    -0.000 C 
BRANCH  12  13
ATOM     13  C   UNL     1      45.491  44.538  15.491  1.00  0.00    -0.000 C 
BRANCH  13  14
ATOM     14  C   UNL     1      46.355  43.829  14.435  1.00  0.00    -0.000 C 
BRANCH  14  15
ATOM     15  C   UNL     1      46.594  42.344  14.760  1.00  0.00    -0.000 C 
BRANCH  15  16
ATOM     16  C   UNL     1      45.316  41.631  15.229  1.00  0.00    -0.000 C 
BRANCH  16  17
ATOM     17  C   UNL     1      45.468  41.004  16.623  1.00  0.00    -0.003 C 
ATOM     18  C   UNL     1      46.880  40.463  16.832  1.00  0.00     0.004 C 
ENDBRANCH  16  17
ENDBRANCH  15  16
ENDBRANCH  14  15
ENDBRANCH  13  14
ENDBRANCH  12  13
ENDBRANCH  11  12
ENDBRANCH   1  11
TORSDOF 14
ENDMDL
MODEL 9
REMARK VINA RESULT:    -3.066     11.122     14.216
REMARK INTER + INTRA:          -7.372
REMARK INTER:                  -5.137
REMARK INTRA:                  -2.235
REMARK UNBOUND:                -1.797
REMARK SMILES CCCCCCCCCCCCCCCC(=O)[O-]
REMARK SMILES IDX 9 1 10 2 11 3 12 4 13 5 14 6 15 7 16 8 17 9 18 10 8 11 7 12
REMARK SMILES IDX 6 13 5 14 4 15 3 16 2 17 1 18
REMARK H PARENT
REMARK Flexibility Score: inf
ROOT
ATOM      1  C   UNL     1      46.302  44.301  18.268  1.00  0.00     0.000 C 
ENDROOT
BRANCH   1   2
ATOM      2  C   UNL     1      45.700  45.404  17.385  1.00  0.00     0.000 C 
BRANCH   2   3
ATOM      3  C   UNL     1      46.729  45.922  16.374  1.00  0.00     0.000 C 
BRANCH   3   4
ATOM      4  C   UNL     1      47.615  47.010  16.999  1.00  0.00     0.000 C 
BRANCH   4   5
ATOM      5  C   UNL     1      49.067  46.953  16.498  1.00  0.00     0.000 C 
BRANCH   5   6
ATOM      6  C   UNL     1      49.224  47.509  15.073  1.00  0.00     0.006 C 
BRANCH   6   7
ATOM      7  C   UNL     1      50.037  46.571  14.171  1.00  0.00     0.053 C 
BRANCH   7   8
ATOM      8  C   UNL     1      51.371  47.158  13.820  1.00  0.00     0.041 C 
ATOM      9  O   UNL     1      51.661  47.402  12.620  1.00  0.00    -0.550 OA
ATOM     10  O   UNL     1      52.283  47.460  14.823  1.00  0.00    -0.550 OA
ENDBRANCH   7   8
ENDBRANCH   6   7
ENDBRANCH   5   6
ENDBRANCH   4   5
ENDBRANCH   3   4
ENDBRANCH   2   3
ENDBRANCH   1   2
BRANCH   1  11
ATOM     11  C   UNL     1      45.854  42.889  17.850  1.00  0.00     0.000 C 
BRANCH  11  12
ATOM     12  C   UNL     1      44.875  42.842  16.660  1.00  0.00    -0.000 C 
BRANCH  12  13
ATOM     13  C   UNL     1      45.152  41.731  15.627  1.00  0.00    -0.000 C 
BRANCH  13  14
ATOM     14  C   UNL     1      46.610  41.648  15.142  1.00  0.00    -0.000 C 
BRANCH  14  15
ATOM     15  C   UNL     1      47.019  42.851  14.275  1.00  0.00    -0.000 C 
BRANCH  15  16
ATOM     16  C   UNL     1      48.433  43.357  14.597  1.00  0.00    -0.000 C 
BRANCH  16  17
ATOM     17  C   UNL     1      48.908  42.929  15.994  1.00  0.00    -0.003 C 
ATOM     18  C   UNL     1      50.318  43.441  16.276  1.00  0.00     0.004 C 
ENDBRANCH  16  17
ENDBRANCH  15  16
ENDBRANCH  14  15
ENDBRANCH  13  14
ENDBRANCH  12  13
ENDBRANCH  11  12
ENDBRANCH   1  11
TORSDOF 14
ENDMDL
