MODEL 1
REMARK VINA RESULT:    -2.746      0.000      0.000
REMARK INTER + INTRA:          -3.909
REMARK INTER:                  -3.709
REMARK INTRA:                  -0.199
REMARK UNBOUND:                -0.199
REMARK SMILES CCCCCCCC(=O)[O-]
REMARK SMILES IDX 5 1 6 2 7 3 8 4 9 5 10 6 4 7 3 8 2 9 1 10
REMARK H PARENT
REMARK Flexibility Score: inf
ROOT
ATOM      1  C   UNL     1      86.330  81.991  20.028  1.00  0.00     0.000 C 
ENDROOT
BRANCH   1   2
ATOM      2  C   UNL     1      86.985  81.748  18.664  1.00  0.00     0.006 C 
BRANCH   2   3
ATOM      3  C   UNL     1      88.236  80.875  18.804  1.00  0.00     0.053 C 
BRANCH   3   4
ATOM      4  C   UNL     1      89.463  81.728  18.890  1.00  0.00     0.041 C 
ATOM      5  O   UNL     1      89.439  82.807  19.540  1.00  0.00    -0.550 OA
ATOM      6  O   UNL     1      90.646  81.309  18.295  1.00  0.00    -0.550 OA
ENDBRANCH   3   4
ENDBRANCH   2   3
ENDBRANCH   1   2
BRANCH   1   7
ATOM      7  C   UNL     1      84.975  81.272  20.123  1.00  0.00     0.000 C 
BRANCH   7   8
ATOM      8  C   UNL     1      84.274  81.146  18.760  1.00  0.00    -0.000 C 
BRANCH   8   9
ATOM      9  C   UNL     1      82.907  81.846  18.732  1.00  0.00    -0.003 C 
ATOM     10  C   UNL     1      82.989  83.236  19.358  1.00  0.00     0.004 C 
ENDBRANCH   8   9
ENDBRANCH   7   8
ENDBRANCH   1   7
TORSDOF 6
ENDMDL
MODEL 2
REMARK VINA RESULT:    -2.209      1.187      1.504
REMARK INTER + INTRA:          -3.183
REMARK INTER:                  -2.885
REMARK INTRA:                  -0.298
REMARK UNBOUND:                -0.199
REMARK SMILES CCCCCCCC(=O)[O-]
REMARK SMILES IDX 5 1 6 2 7 3 8 4 9 5 10 6 4 7 3 8 2 9 1 10
REMARK H PARENT
REMARK Flexibility Score: inf
ROOT
ATOM      1  C   UNL     1      86.780  82.219  19.017  1.00  0.00     0.000 C 
ENDROOT
BRANCH   1   2
ATOM      2  C   UNL     1      88.002  82.001  19.916  1.00  0.00     0.006 C 
BRANCH   2   3
ATOM      3  C   UNL     1      89.242  82.688  19.333  1.00  0.00     0.053 C 
BRANCH   3   4
ATOM      4  C   UNL     1      90.147  81.681  18.696  1.00  0.00     0.041 C 
ATOM      5  O   UNL     1      91.320  81.522  19.126  1.00  0.00    -0.550 OA
ATOM      6  O   UNL     1      89.680  80.881  17.660  1.00  0.00    -0.550 OA
ENDBRANCH   3   4
ENDBRANCH   2   3
ENDBRANCH   1   2
BRANCH   1   7
ATOM      7  C   UNL     1      86.151  80.877  18.610  1.00  0.00     0.000 C 
BRANCH   7   8
ATOM      8  C   UNL     1      84.617  80.887  18.709  1.00  0.00    -0.000 C 
BRANCH   8   9
ATOM      9  C   UNL     1      84.099  81.881  19.759  1.00  0.00    -0.003 C 
ATOM     10  C   UNL     1      83.039  82.805  19.164  1.00  0.00     0.004 C 
ENDBRANCH   8   9
ENDBRANCH   7   8
ENDBRANCH   1   7
TORSDOF 6
ENDMDL
MODEL 3
REMARK VINA RESULT:    -1.956     20.740     22.756
REMARK INTER + INTRA:          -2.841
REMARK INTER:                  -2.560
REMARK INTRA:                  -0.280
REMARK UNBOUND:                -0.199
REMARK SMILES CCCCCCCC(=O)[O-]
REMARK SMILES IDX 5 1 6 2 7 3 8 4 9 5 10 6 4 7 3 8 2 9 1 10
REMARK H PARENT
REMARK Flexibility Score: inf
ROOT
ATOM      1  C   UNL     1     100.931  96.997  10.415  1.00  0.00     0.000 C 
ENDROOT
BRANCH   1   2
ATOM      2  C   UNL     1      99.452  97.210  10.754  1.00  0.00     0.006 C 
BRANCH   2   3
ATOM      3  C   UNL     1      98.634  95.948  10.464  1.00  0.00     0.053 C 
BRANCH   3   4
ATOM      4  C   UNL     1      98.940  94.884  11.470  1.00  0.00     0.041 C 
ATOM      5  O   UNL     1      98.494  94.976  12.645  1.00  0.00    -0.550 OA
ATOM      6  O   UNL     1      99.677  93.765  11.100  1.00  0.00    -0.550 OA
ENDBRANCH   3   4
ENDBRANCH   2   3
ENDBRANCH   1   2
BRANCH   1   7
ATOM      7  C   UNL     1     101.673  98.340  10.322  1.00  0.00     0.000 C 
BRANCH   7   8
ATOM      8  C   UNL     1     100.800  99.530  10.750  1.00  0.00    -0.000 C 
BRANCH   8   9
ATOM      9  C   UNL     1     101.106 100.805   9.950  1.00  0.00    -0.003 C 
ATOM     10  C   UNL     1     102.598 101.125   9.978  1.00  0.00     0.004 C 
ENDBRANCH   8   9
ENDBRANCH   7   8
ENDBRANCH   1   7
TORSDOF 6
ENDMDL
MODEL 4
REMARK VINA RESULT:    -1.199     20.980     22.841
REMARK INTER + INTRA:          -1.818
REMARK INTER:                  -1.573
REMARK INTRA:                  -0.245
REMARK UNBOUND:                -0.199
REMARK SMILES CCCCCCCC(=O)[O-]
REMARK SMILES IDX 5 1 6 2 7 3 8 4 9 5 10 6 4 7 3 8 2 9 1 10
REMARK H PARENT
REMARK Flexibility Score: inf
ROOT
ATOM      1  C   UNL     1     101.895  96.272  10.348  1.00  0.00     0.000 C 
ENDROOT
BRANCH   1   2
ATOM      2  C   UNL     1     101.240  97.635  10.599  1.00  0.00     0.006 C 
BRANCH   2   3
ATOM      3  C   UNL     1     102.026  98.756   9.913  1.00  0.00     0.053 C 
BRANCH   3   4
ATOM      4  C   UNL     1     101.474 100.093  10.297  1.00  0.00     0.041 C 
ATOM      5  O   UNL     1     102.196 101.122  10.221  1.00  0.00    -0.550 OA
ATOM      6  O   UNL     1     100.147 100.211  10.693  1.00  0.00    -0.550 OA
ENDBRANCH   3   4
ENDBRANCH   2   3
ENDBRANCH   1   2
BRANCH   1   7
ATOM      7  C   UNL     1     100.859  95.140  10.433  1.00  0.00     0.000 C 
BRANCH   7   8
ATOM      8  C   UNL     1      99.457  95.647  10.804  1.00  0.00    -0.000 C 
BRANCH   8   9
ATOM      9  C   UNL     1      98.652  94.620  11.613  1.00  0.00    -0.003 C 
ATOM     10  C   UNL     1      98.318  95.155  13.003  1.00  0.00     0.004 C 
ENDBRANCH   8   9
ENDBRANCH   7   8
ENDBRANCH   1   7
TORSDOF 6
ENDMDL
MODEL 5
REMARK VINA RESULT:    -1.004     21.411     23.236
REMARK INTER + INTRA:          -1.555
REMARK INTER:                  -1.416
REMARK INTRA:                  -0.139
REMARK UNBOUND:                -0.199
REMARK SMILES CCCCCCCC(=O)[O-]
REMARK SMILES IDX 5 1 6 2 7 3 8 4 9 5 10 6 4 7 3 8 2 9 1 10
REMARK H PARENT
REMARK Flexibility Score: inf
ROOT
ATOM      1  C   UNL     1     101.149  96.820  10.402  1.00  0.00     0.000 C 
ENDROOT
BRANCH   1   2
ATOM      2  C   UNL     1     101.949  98.116  10.231  1.00  0.00     0.006 C 
BRANCH   2   3
ATOM      3  C   UNL     1     101.169  99.318  10.773  1.00  0.00     0.053 C 
BRANCH   3   4
ATOM      4  C   UNL     1     101.534 100.560  10.023  1.00  0.00     0.041 C 
ATOM      5  O   UNL     1     100.686 101.124   9.281  1.00  0.00    -0.550 OA
ATOM      6  O   UNL     1     102.794 101.124  10.181  1.00  0.00    -0.550 OA
ENDBRANCH   3   4
ENDBRANCH   2   3
ENDBRANCH   1   2
BRANCH   1   7
ATOM      7  C   UNL     1      99.718  97.116  10.878  1.00  0.00     0.000 C 
BRANCH   7   8
ATOM      8  C   UNL     1      98.723  96.011  10.487  1.00  0.00    -0.000 C 
BRANCH   8   9
ATOM      9  C   UNL     1      98.675  94.869  11.513  1.00  0.00    -0.003 C 
ATOM     10  C   UNL     1      99.703  93.790  11.182  1.00  0.00     0.004 C 
ENDBRANCH   8   9
ENDBRANCH   7   8
ENDBRANCH   1   7
TORSDOF 6
ENDMDL
