MODEL 1
REMARK VINA RESULT:    -4.409      0.000      0.000
REMARK INTER + INTRA:          -5.360
REMARK INTER:                  -5.311
REMARK INTRA:                  -0.049
REMARK UNBOUND:                -0.049
REMARK SMILES OCCc1ccc(O)c(O)c1
REMARK SMILES IDX 3 1 4 2 5 3 6 4 7 5 11 6 9 7 8 8 10 10 2 12 1 13
REMARK H PARENT 8 9 10 11 1 14
REMARK Flexibility Score: inf
ROOT
ATOM      1  C   UNL     1      12.290  36.560  50.044  1.00  0.00     0.064 C 
ENDROOT
BRANCH   1   2
ATOM      2  C   UNL     1      13.717  36.999  49.849  1.00  0.00    -0.042 A 
ATOM      3  C   UNL     1      14.292  36.990  48.569  1.00  0.00     0.008 A 
ATOM      4  C   UNL     1      15.625  37.369  48.393  1.00  0.00     0.050 A 
ATOM      5  C   UNL     1      16.403  37.752  49.491  1.00  0.00     0.157 A 
ATOM      6  C   UNL     1      14.501  37.370  50.953  1.00  0.00     0.054 A 
ATOM      7  C   UNL     1      15.839  37.751  50.779  1.00  0.00     0.157 A 
BRANCH   5   8
ATOM      8  O   UNL     1      17.730  38.125  49.284  1.00  0.00    -0.504 OA
ATOM      9  H   UNL     1      18.055  38.481  48.392  1.00  0.00     0.293 HD
ENDBRANCH   5   8
BRANCH   7  10
ATOM     10  O   UNL     1      16.611  38.125  51.879  1.00  0.00    -0.504 OA
ATOM     11  H   UNL     1      16.269  38.786  52.565  1.00  0.00     0.293 HD
ENDBRANCH   7  10
ENDBRANCH   1   2
BRANCH   1  12
ATOM     12  C   UNL     1      12.235  35.173  50.690  1.00  0.00     0.161 C 
BRANCH  12  13
ATOM     13  O   UNL     1      12.035  35.290  52.072  1.00  0.00    -0.396 OA
ATOM     14  H   UNL     1      11.101  35.005  52.248  1.00  0.00     0.210 HD
ENDBRANCH  12  13
ENDBRANCH   1  12
TORSDOF 5
ENDMDL
MODEL 2
REMARK VINA RESULT:    -4.290      2.071      3.596
REMARK INTER + INTRA:          -5.216
REMARK INTER:                  -5.147
REMARK INTRA:                  -0.069
REMARK UNBOUND:                -0.049
REMARK SMILES OCCc1ccc(O)c(O)c1
REMARK SMILES IDX 3 1 4 2 5 3 6 4 7 5 11 6 9 7 8 8 10 10 2 12 1 13
REMARK H PARENT 8 9 10 11 1 14
REMARK Flexibility Score: inf
ROOT
ATOM      1  C   UNL     1      13.850  36.641  47.086  1.00  0.00     0.064 C 
ENDROOT
BRANCH   1   2
ATOM      2  C   UNL     1      14.584  37.002  48.349  1.00  0.00    -0.042 A 
ATOM      3  C   UNL     1      13.910  37.011  49.581  1.00  0.00     0.008 A 
ATOM      4  C   UNL     1      14.584  37.376  50.749  1.00  0.00     0.050 A 
ATOM      5  C   UNL     1      15.933  37.745  50.703  1.00  0.00     0.157 A 
ATOM      6  C   UNL     1      15.933  37.385  48.300  1.00  0.00     0.054 A 
ATOM      7  C   UNL     1      16.611  37.752  49.472  1.00  0.00     0.157 A 
BRANCH   5   8
ATOM      8  O   UNL     1      16.578  38.103  51.886  1.00  0.00    -0.504 OA
ATOM      9  H   UNL     1      17.198  38.904  51.938  1.00  0.00     0.293 HD
ENDBRANCH   5   8
BRANCH   7  10
ATOM     10  O   UNL     1      17.954  38.125  49.417  1.00  0.00    -0.504 OA
ATOM     11  H   UNL     1      18.231  39.090  49.287  1.00  0.00     0.293 HD
ENDBRANCH   7  10
ENDBRANCH   1   2
BRANCH   1  12
ATOM     12  C   UNL     1      14.473  37.345  45.879  1.00  0.00     0.161 C 
BRANCH  12  13
ATOM     13  O   UNL     1      13.474  37.748  44.983  1.00  0.00    -0.396 OA
ATOM     14  H   UNL     1      13.543  38.735  44.906  1.00  0.00     0.210 HD
ENDBRANCH  12  13
ENDBRANCH   1  12
TORSDOF 5
ENDMDL
MODEL 3
REMARK VINA RESULT:    -4.226      0.828      2.037
REMARK INTER + INTRA:          -5.139
REMARK INTER:                  -5.087
REMARK INTRA:                  -0.052
REMARK UNBOUND:                -0.049
REMARK SMILES OCCc1ccc(O)c(O)c1
REMARK SMILES IDX 3 1 4 2 5 3 6 4 7 5 11 6 9 7 8 8 10 10 2 12 1 13
REMARK H PARENT 8 9 10 11 1 14
REMARK Flexibility Score: inf
ROOT
ATOM      1  C   UNL     1      12.453  36.628  50.049  1.00  0.00     0.064 C 
ENDROOT
BRANCH   1   2
ATOM      2  C   UNL     1      13.908  36.995  49.926  1.00  0.00    -0.042 A 
ATOM      3  C   UNL     1      14.634  37.402  51.057  1.00  0.00     0.008 A 
ATOM      4  C   UNL     1      15.975  37.771  50.937  1.00  0.00     0.050 A 
ATOM      5  C   UNL     1      16.607  37.750  49.688  1.00  0.00     0.157 A 
ATOM      6  C   UNL     1      14.537  36.987  48.671  1.00  0.00     0.054 A 
ATOM      7  C   UNL     1      15.884  37.358  48.548  1.00  0.00     0.157 A 
BRANCH   5   8
ATOM      8  O   UNL     1      17.946  38.125  49.601  1.00  0.00    -0.504 OA
ATOM      9  H   UNL     1      18.660  37.713  50.192  1.00  0.00     0.293 HD
ENDBRANCH   5   8
BRANCH   7  10
ATOM     10  O   UNL     1      16.505  37.341  47.300  1.00  0.00    -0.504 OA
ATOM     11  H   UNL     1      17.047  38.129  46.967  1.00  0.00     0.293 HD
ENDBRANCH   7  10
ENDBRANCH   1   2
BRANCH   1  12
ATOM     12  C   UNL     1      12.296  35.259  50.714  1.00  0.00     0.161 C 
BRANCH  12  13
ATOM     13  O   UNL     1      12.042  35.413  52.084  1.00  0.00    -0.396 OA
ATOM     14  H   UNL     1      11.060  35.333  52.201  1.00  0.00     0.210 HD
ENDBRANCH  12  13
ENDBRANCH   1  12
TORSDOF 5
ENDMDL
MODEL 4
REMARK VINA RESULT:    -4.095      1.777      2.802
REMARK INTER + INTRA:          -4.982
REMARK INTER:                  -4.890
REMARK INTRA:                  -0.092
REMARK UNBOUND:                -0.049
REMARK SMILES OCCc1ccc(O)c(O)c1
REMARK SMILES IDX 3 1 4 2 5 3 6 4 7 5 11 6 9 7 8 8 10 10 2 12 1 13
REMARK H PARENT 8 9 10 11 1 14
REMARK Flexibility Score: inf
ROOT
ATOM      1  C   UNL     1      13.666  36.582  47.166  1.00  0.00     0.064 C 
ENDROOT
BRANCH   1   2
ATOM      2  C   UNL     1      14.421  36.962  48.412  1.00  0.00    -0.042 A 
ATOM      3  C   UNL     1      13.770  36.982  49.656  1.00  0.00     0.008 A 
ATOM      4  C   UNL     1      14.463  37.364  50.807  1.00  0.00     0.050 A 
ATOM      5  C   UNL     1      15.808  37.741  50.731  1.00  0.00     0.157 A 
ATOM      6  C   UNL     1      15.767  37.353  48.333  1.00  0.00     0.054 A 
ATOM      7  C   UNL     1      16.464  37.738  49.488  1.00  0.00     0.157 A 
BRANCH   5   8
ATOM      8  O   UNL     1      16.473  38.118  51.897  1.00  0.00    -0.504 OA
ATOM      9  H   UNL     1      16.020  38.097  52.804  1.00  0.00     0.293 HD
ENDBRANCH   5   8
BRANCH   7  10
ATOM     10  O   UNL     1      17.803  38.119  49.404  1.00  0.00    -0.504 OA
ATOM     11  H   UNL     1      18.210  38.772  50.063  1.00  0.00     0.293 HD
ENDBRANCH   7  10
ENDBRANCH   1   2
BRANCH   1  12
ATOM     12  C   UNL     1      12.216  36.227  47.501  1.00  0.00     0.161 C 
BRANCH  12  13
ATOM     13  O   UNL     1      11.918  34.933  47.050  1.00  0.00    -0.396 OA
ATOM     14  H   UNL     1      11.602  35.024  46.114  1.00  0.00     0.210 HD
ENDBRANCH  12  13
ENDBRANCH   1  12
TORSDOF 5
ENDMDL
MODEL 5
REMARK VINA RESULT:    -4.055      1.910      4.085
REMARK INTER + INTRA:          -4.933
REMARK INTER:                  -4.852
REMARK INTRA:                  -0.081
REMARK UNBOUND:                -0.049
REMARK SMILES OCCc1ccc(O)c(O)c1
REMARK SMILES IDX 3 1 4 2 5 3 6 4 7 5 11 6 9 7 8 8 10 10 2 12 1 13
REMARK H PARENT 8 9 10 11 1 14
REMARK Flexibility Score: inf
ROOT
ATOM      1  C   UNL     1      14.907  37.098  46.608  1.00  0.00     0.064 C 
ENDROOT
BRANCH   1   2
ATOM      2  C   UNL     1      15.013  37.288  48.097  1.00  0.00    -0.042 A 
ATOM      3  C   UNL     1      16.208  37.752  48.668  1.00  0.00     0.008 A 
ATOM      4  C   UNL     1      16.316  37.900  50.053  1.00  0.00     0.050 A 
ATOM      5  C   UNL     1      15.238  37.578  50.885  1.00  0.00     0.157 A 
ATOM      6  C   UNL     1      13.936  36.953  48.932  1.00  0.00     0.054 A 
ATOM      7  C   UNL     1      14.042  37.101  50.323  1.00  0.00     0.157 A 
BRANCH   5   8
ATOM      8  O   UNL     1      15.376  37.736  52.263  1.00  0.00    -0.504 OA
ATOM      9  H   UNL     1      14.622  38.090  52.842  1.00  0.00     0.293 HD
ENDBRANCH   5   8
BRANCH   7  10
ATOM     10  O   UNL     1      12.966  36.772  51.147  1.00  0.00    -0.504 OA
ATOM     11  H   UNL     1      12.602  35.828  51.192  1.00  0.00     0.293 HD
ENDBRANCH   7  10
ENDBRANCH   1   2
BRANCH   1  12
ATOM     12  C   UNL     1      16.021  36.179  46.100  1.00  0.00     0.161 C 
BRANCH  12  13
ATOM     13  O   UNL     1      16.661  36.759  44.996  1.00  0.00    -0.396 OA
ATOM     14  H   UNL     1      17.622  36.526  45.071  1.00  0.00     0.210 HD
ENDBRANCH  12  13
ENDBRANCH   1  12
TORSDOF 5
ENDMDL
MODEL 6
REMARK VINA RESULT:    -3.969      1.641      4.725
REMARK INTER + INTRA:          -4.830
REMARK INTER:                  -4.736
REMARK INTRA:                  -0.094
REMARK UNBOUND:                -0.049
REMARK SMILES OCCc1ccc(O)c(O)c1
REMARK SMILES IDX 3 1 4 2 5 3 6 4 7 5 11 6 9 7 8 8 10 10 2 12 1 13
REMARK H PARENT 8 9 10 11 1 14
REMARK Flexibility Score: inf
ROOT
ATOM      1  C   UNL     1      16.720  37.077  48.104  1.00  0.00     0.064 C 
ENDROOT
BRANCH   1   2
ATOM      2  C   UNL     1      15.465  37.105  48.933  1.00  0.00    -0.042 A 
ATOM      3  C   UNL     1      15.519  37.470  50.288  1.00  0.00     0.008 A 
ATOM      4  C   UNL     1      14.359  37.466  51.065  1.00  0.00     0.050 A 
ATOM      5  C   UNL     1      13.133  37.089  50.506  1.00  0.00     0.157 A 
ATOM      6  C   UNL     1      14.237  36.714  48.375  1.00  0.00     0.054 A 
ATOM      7  C   UNL     1      13.071  36.708  49.154  1.00  0.00     0.157 A 
BRANCH   5   8
ATOM      8  O   UNL     1      11.992  37.095  51.307  1.00  0.00    -0.504 OA
ATOM      9  H   UNL     1      12.038  37.259  52.307  1.00  0.00     0.293 HD
ENDBRANCH   5   8
BRANCH   7  10
ATOM     10  O   UNL     1      11.854  36.325  48.591  1.00  0.00    -0.504 OA
ATOM     11  H   UNL     1      11.383  35.475  48.877  1.00  0.00     0.293 HD
ENDBRANCH   7  10
ENDBRANCH   1   2
BRANCH   1  12
ATOM     12  C   UNL     1      17.868  37.774  48.838  1.00  0.00     0.161 C 
BRANCH  12  13
ATOM     13  O   UNL     1      18.854  36.842  49.191  1.00  0.00    -0.396 OA
ATOM     14  H   UNL     1      18.946  36.886  50.178  1.00  0.00     0.210 HD
ENDBRANCH  12  13
ENDBRANCH   1  12
TORSDOF 5
ENDMDL
MODEL 7
REMARK VINA RESULT:    -3.954      2.361      3.921
REMARK INTER + INTRA:          -4.812
REMARK INTER:                  -4.722
REMARK INTRA:                  -0.090
REMARK UNBOUND:                -0.049
REMARK SMILES OCCc1ccc(O)c(O)c1
REMARK SMILES IDX 3 1 4 2 5 3 6 4 7 5 11 6 9 7 8 8 10 10 2 12 1 13
REMARK H PARENT 8 9 10 11 1 14
REMARK Flexibility Score: inf
ROOT
ATOM      1  C   UNL     1      14.418  37.395  51.067  1.00  0.00     0.064 C 
ENDROOT
BRANCH   1   2
ATOM      2  C   UNL     1      14.134  37.098  49.619  1.00  0.00    -0.042 A 
ATOM      3  C   UNL     1      12.877  36.609  49.230  1.00  0.00     0.008 A 
ATOM      4  C   UNL     1      12.624  36.305  47.890  1.00  0.00     0.050 A 
ATOM      5  C   UNL     1      13.622  36.476  46.924  1.00  0.00     0.157 A 
ATOM      6  C   UNL     1      15.140  37.258  48.653  1.00  0.00     0.054 A 
ATOM      7  C   UNL     1      14.888  36.953  47.307  1.00  0.00     0.157 A 
BRANCH   5   8
ATOM      8  O   UNL     1      13.339  36.164  45.596  1.00  0.00    -0.504 OA
ATOM      9  H   UNL     1      14.072  36.005  44.913  1.00  0.00     0.293 HD
ENDBRANCH   5   8
BRANCH   7  10
ATOM     10  O   UNL     1      15.889  37.119  46.351  1.00  0.00    -0.504 OA
ATOM     11  H   UNL     1      16.328  36.325  45.900  1.00  0.00     0.293 HD
ENDBRANCH   7  10
ENDBRANCH   1   2
BRANCH   1  12
ATOM     12  C   UNL     1      15.851  37.000  51.429  1.00  0.00     0.161 C 
BRANCH  12  13
ATOM     13  O   UNL     1      16.571  38.125  51.854  1.00  0.00    -0.396 OA
ATOM     14  H   UNL     1      16.396  38.841  51.190  1.00  0.00     0.210 HD
ENDBRANCH  12  13
ENDBRANCH   1  12
TORSDOF 5
ENDMDL
MODEL 8
REMARK VINA RESULT:    -3.916      1.892      4.201
REMARK INTER + INTRA:          -4.766
REMARK INTER:                  -4.673
REMARK INTRA:                  -0.094
REMARK UNBOUND:                -0.049
REMARK SMILES OCCc1ccc(O)c(O)c1
REMARK SMILES IDX 3 1 4 2 5 3 6 4 7 5 11 6 9 7 8 8 10 10 2 12 1 13
REMARK H PARENT 8 9 10 11 1 14
REMARK Flexibility Score: inf
ROOT
ATOM      1  C   UNL     1      16.759  36.880  47.483  1.00  0.00     0.064 C 
ENDROOT
BRANCH   1   2
ATOM      2  C   UNL     1      15.646  36.935  48.495  1.00  0.00    -0.042 A 
ATOM      3  C   UNL     1      14.321  36.685  48.104  1.00  0.00     0.008 A 
ATOM      4  C   UNL     1      13.284  36.765  49.037  1.00  0.00     0.050 A 
ATOM      5  C   UNL     1      13.554  37.106  50.367  1.00  0.00     0.157 A 
ATOM      6  C   UNL     1      15.915  37.289  49.826  1.00  0.00     0.054 A 
ATOM      7  C   UNL     1      14.876  37.371  50.764  1.00  0.00     0.157 A 
BRANCH   5   8
ATOM      8  O   UNL     1      12.498  37.179  51.275  1.00  0.00    -0.504 OA
ATOM      9  H   UNL     1      12.406  37.946  51.931  1.00  0.00     0.293 HD
ENDBRANCH   5   8
BRANCH   7  10
ATOM     10  O   UNL     1      15.151  37.718  52.087  1.00  0.00    -0.504 OA
ATOM     11  H   UNL     1      15.071  37.044  52.839  1.00  0.00     0.293 HD
ENDBRANCH   7  10
ENDBRANCH   1   2
BRANCH   1  12
ATOM     12  C   UNL     1      16.357  36.019  46.284  1.00  0.00     0.161 C 
BRANCH  12  13
ATOM     13  O   UNL     1      16.426  36.770  45.103  1.00  0.00    -0.396 OA
ATOM     14  H   UNL     1      15.726  37.470  45.170  1.00  0.00     0.210 HD
ENDBRANCH  12  13
ENDBRANCH   1  12
TORSDOF 5
ENDMDL
MODEL 9
REMARK VINA RESULT:    -3.710      1.449      4.495
REMARK INTER + INTRA:          -4.517
REMARK INTER:                  -4.458
REMARK INTRA:                  -0.059
REMARK UNBOUND:                -0.049
REMARK SMILES OCCc1ccc(O)c(O)c1
REMARK SMILES IDX 3 1 4 2 5 3 6 4 7 5 11 6 9 7 8 8 10 10 2 12 1 13
REMARK H PARENT 8 9 10 11 1 14
REMARK Flexibility Score: inf
ROOT
ATOM      1  C   UNL     1      15.924  37.445  48.545  1.00  0.00     0.064 C 
ENDROOT
BRANCH   1   2
ATOM      2  C   UNL     1      14.493  37.025  48.750  1.00  0.00    -0.042 A 
ATOM      3  C   UNL     1      13.726  36.571  47.666  1.00  0.00     0.008 A 
ATOM      4  C   UNL     1      12.389  36.210  47.851  1.00  0.00     0.050 A 
ATOM      5  C   UNL     1      11.799  36.307  49.116  1.00  0.00     0.157 A 
ATOM      6  C   UNL     1      13.898  37.134  50.017  1.00  0.00     0.054 A 
ATOM      7  C   UNL     1      12.556  36.773  50.205  1.00  0.00     0.157 A 
BRANCH   5   8
ATOM      8  O   UNL     1      10.463  35.939  49.270  1.00  0.00    -0.504 OA
ATOM      9  H   UNL     1       9.703  36.539  48.971  1.00  0.00     0.293 HD
ENDBRANCH   5   8
BRANCH   7  10
ATOM     10  O   UNL     1      11.972  36.878  51.467  1.00  0.00    -0.504 OA
ATOM     11  H   UNL     1      10.970  36.968  51.582  1.00  0.00     0.293 HD
ENDBRANCH   7  10
ENDBRANCH   1   2
BRANCH   1  12
ATOM     12  C   UNL     1      16.813  36.902  49.666  1.00  0.00     0.161 C 
BRANCH  12  13
ATOM     13  O   UNL     1      18.146  37.280  49.453  1.00  0.00    -0.396 OA
ATOM     14  H   UNL     1      18.125  38.064  48.845  1.00  0.00     0.210 HD
ENDBRANCH  12  13
ENDBRANCH   1  12
TORSDOF 5
ENDMDL
