MODEL 1
REMARK VINA RESULT:    -5.487      0.000      0.000
REMARK INTER + INTRA:          -9.467
REMARK INTER:                  -8.695
REMARK INTRA:                  -0.773
REMARK UNBOUND:                -0.773
REMARK SMILES CCCCCCCCCCCC(=O)[O-]
REMARK SMILES IDX 7 1 8 2 9 3 10 4 11 5 12 6 13 7 14 8 6 9 5 10 4 11 3 12 2 13
REMARK SMILES IDX 1 14
REMARK H PARENT
REMARK Flexibility Score: inf
ROOT
ATOM      1  C   UNL     1     -13.190   3.721 -17.016  1.00  0.00     0.000 C 
ENDROOT
BRANCH   1   2
ATOM      2  C   UNL     1     -13.597   3.430 -18.469  1.00  0.00     0.000 C 
BRANCH   2   3
ATOM      3  C   UNL     1     -13.784   1.922 -18.693  1.00  0.00     0.000 C 
BRANCH   3   4
ATOM      4  C   UNL     1     -14.893   1.603 -19.712  1.00  0.00     0.006 C 
BRANCH   4   5
ATOM      5  C   UNL     1     -15.837   0.466 -19.284  1.00  0.00     0.053 C 
BRANCH   5   6
ATOM      6  C   UNL     1     -16.336   0.648 -17.884  1.00  0.00     0.041 C 
ATOM      7  O   UNL     1     -17.174   1.550 -17.621  1.00  0.00    -0.550 OA
ATOM      8  O   UNL     1     -15.902  -0.202 -16.874  1.00  0.00    -0.550 OA
ENDBRANCH   5   6
ENDBRANCH   4   5
ENDBRANCH   3   4
ENDBRANCH   2   3
ENDBRANCH   1   2
BRANCH   1   9
ATOM      9  C   UNL     1     -13.565   2.583 -16.053  1.00  0.00     0.000 C 
BRANCH   9  10
ATOM     10  C   UNL     1     -14.880   2.854 -15.302  1.00  0.00    -0.000 C 
BRANCH  10  11
ATOM     11  C   UNL     1     -15.033   1.981 -14.045  1.00  0.00    -0.000 C 
BRANCH  11  12
ATOM     12  C   UNL     1     -15.431   2.798 -12.804  1.00  0.00    -0.000 C 
BRANCH  12  13
ATOM     13  C   UNL     1     -15.764   1.908 -11.595  1.00  0.00    -0.003 C 
ATOM     14  C   UNL     1     -17.241   1.970 -11.203  1.00  0.00     0.004 C 
ENDBRANCH  12  13
ENDBRANCH  11  12
ENDBRANCH  10  11
ENDBRANCH   9  10
ENDBRANCH   1   9
TORSDOF 10
ENDMDL
MODEL 2
REMARK VINA RESULT:    -5.481      1.446      2.615
REMARK INTER + INTRA:          -9.458
REMARK INTER:                  -8.999
REMARK INTRA:                  -0.459
REMARK UNBOUND:                -0.773
REMARK SMILES CCCCCCCCCCCC(=O)[O-]
REMARK SMILES IDX 7 1 8 2 9 3 10 4 11 5 12 6 13 7 14 8 6 9 5 10 4 11 3 12 2 13
REMARK SMILES IDX 1 14
REMARK H PARENT
REMARK Flexibility Score: inf
ROOT
ATOM      1  C   UNL     1     -15.212   2.674 -15.761  1.00  0.00     0.000 C 
ENDROOT
BRANCH   1   2
ATOM      2  C   UNL     1     -13.693   2.600 -15.976  1.00  0.00     0.000 C 
BRANCH   2   3
ATOM      3  C   UNL     1     -13.223   3.699 -16.940  1.00  0.00     0.000 C 
BRANCH   3   4
ATOM      4  C   UNL     1     -13.235   3.247 -18.412  1.00  0.00     0.006 C 
BRANCH   4   5
ATOM      5  C   UNL     1     -13.628   1.775 -18.618  1.00  0.00     0.053 C 
BRANCH   5   6
ATOM      6  C   UNL     1     -14.811   1.631 -19.526  1.00  0.00     0.041 C 
ATOM      7  O   UNL     1     -14.726   1.967 -20.736  1.00  0.00    -0.550 OA
ATOM      8  O   UNL     1     -15.998   1.093 -19.042  1.00  0.00    -0.550 OA
ENDBRANCH   5   6
ENDBRANCH   4   5
ENDBRANCH   3   4
ENDBRANCH   2   3
ENDBRANCH   1   2
BRANCH   1   9
ATOM      9  C   UNL     1     -15.667   1.975 -14.470  1.00  0.00     0.000 C 
BRANCH   9  10
ATOM     10  C   UNL     1     -15.520   2.873 -13.229  1.00  0.00    -0.000 C 
BRANCH  10  11
ATOM     11  C   UNL     1     -15.555   2.075 -11.915  1.00  0.00    -0.000 C 
BRANCH  11  12
ATOM     12  C   UNL     1     -16.962   2.014 -11.297  1.00  0.00    -0.000 C 
BRANCH  12  13
ATOM     13  C   UNL     1     -17.505   0.579 -11.208  1.00  0.00    -0.003 C 
ATOM     14  C   UNL     1     -17.987   0.042 -12.557  1.00  0.00     0.004 C 
ENDBRANCH  12  13
ENDBRANCH  11  12
ENDBRANCH  10  11
ENDBRANCH   9  10
ENDBRANCH   1   9
TORSDOF 10
ENDMDL
MODEL 3
REMARK VINA RESULT:    -5.398      2.342      5.595
REMARK INTER + INTRA:          -9.327
REMARK INTER:                  -8.056
REMARK INTRA:                  -1.271
REMARK UNBOUND:                -0.773
REMARK SMILES CCCCCCCCCCCC(=O)[O-]
REMARK SMILES IDX 7 1 8 2 9 3 10 4 11 5 12 6 13 7 14 8 6 9 5 10 4 11 3 12 2 13
REMARK SMILES IDX 1 14
REMARK H PARENT
REMARK Flexibility Score: inf
ROOT
ATOM      1  C   UNL     1     -16.634  -0.879 -18.202  1.00  0.00     0.000 C 
ENDROOT
BRANCH   1   2
ATOM      2  C   UNL     1     -17.403  -0.648 -16.892  1.00  0.00     0.000 C 
BRANCH   2   3
ATOM      3  C   UNL     1     -17.093   0.741 -16.314  1.00  0.00     0.000 C 
BRANCH   3   4
ATOM      4  C   UNL     1     -15.881   0.736 -15.364  1.00  0.00     0.006 C 
BRANCH   4   5
ATOM      5  C   UNL     1     -15.409   2.134 -14.933  1.00  0.00     0.053 C 
BRANCH   5   6
ATOM      6  C   UNL     1     -15.052   2.183 -13.479  1.00  0.00     0.041 C 
ATOM      7  O   UNL     1     -15.171   3.257 -12.833  1.00  0.00    -0.550 OA
ATOM      8  O   UNL     1     -14.620   1.033 -12.829  1.00  0.00    -0.550 OA
ENDBRANCH   5   6
ENDBRANCH   4   5
ENDBRANCH   3   4
ENDBRANCH   2   3
ENDBRANCH   1   2
BRANCH   1   9
ATOM      9  C   UNL     1     -16.854   0.243 -19.228  1.00  0.00     0.000 C 
BRANCH   9  10
ATOM     10  C   UNL     1     -15.536   0.766 -19.825  1.00  0.00    -0.000 C 
BRANCH  10  11
ATOM     11  C   UNL     1     -14.298   0.186 -19.120  1.00  0.00    -0.000 C 
BRANCH  11  12
ATOM     12  C   UNL     1     -13.598   1.214 -18.214  1.00  0.00    -0.000 C 
BRANCH  12  13
ATOM     13  C   UNL     1     -13.966   2.663 -18.573  1.00  0.00    -0.003 C 
ATOM     14  C   UNL     1     -12.954   3.679 -18.043  1.00  0.00     0.004 C 
ENDBRANCH  12  13
ENDBRANCH  11  12
ENDBRANCH  10  11
ENDBRANCH   9  10
ENDBRANCH   1   9
TORSDOF 10
ENDMDL
MODEL 4
REMARK VINA RESULT:    -5.394      2.162      4.358
REMARK INTER + INTRA:          -9.320
REMARK INTER:                  -8.167
REMARK INTRA:                  -1.153
REMARK UNBOUND:                -0.773
REMARK SMILES CCCCCCCCCCCC(=O)[O-]
REMARK SMILES IDX 7 1 8 2 9 3 10 4 11 5 12 6 13 7 14 8 6 9 5 10 4 11 3 12 2 13
REMARK SMILES IDX 1 14
REMARK H PARENT
REMARK Flexibility Score: inf
ROOT
ATOM      1  C   UNL     1     -15.108   2.666 -15.430  1.00  0.00     0.000 C 
ENDROOT
BRANCH   1   2
ATOM      2  C   UNL     1     -13.630   2.700 -15.848  1.00  0.00     0.000 C 
BRANCH   2   3
ATOM      3  C   UNL     1     -13.397   3.745 -16.949  1.00  0.00     0.000 C 
BRANCH   3   4
ATOM      4  C   UNL     1     -13.069   3.111 -18.313  1.00  0.00     0.006 C 
BRANCH   4   5
ATOM      5  C   UNL     1     -14.270   2.445 -19.006  1.00  0.00     0.053 C 
BRANCH   5   6
ATOM      6  C   UNL     1     -14.049   0.980 -19.226  1.00  0.00     0.041 C 
ATOM      7  O   UNL     1     -14.158   0.488 -20.380  1.00  0.00    -0.550 OA
ATOM      8  O   UNL     1     -13.690   0.163 -18.161  1.00  0.00    -0.550 OA
ENDBRANCH   5   6
ENDBRANCH   4   5
ENDBRANCH   3   4
ENDBRANCH   2   3
ENDBRANCH   1   2
BRANCH   1   9
ATOM      9  C   UNL     1     -15.550   1.289 -14.910  1.00  0.00     0.000 C 
BRANCH   9  10
ATOM     10  C   UNL     1     -16.379   0.506 -15.942  1.00  0.00    -0.000 C 
BRANCH  10  11
ATOM     11  C   UNL     1     -17.049   1.422 -16.980  1.00  0.00    -0.000 C 
BRANCH  11  12
ATOM     12  C   UNL     1     -18.132   0.696 -17.797  1.00  0.00    -0.000 C 
BRANCH  12  13
ATOM     13  C   UNL     1     -17.576   0.072 -19.087  1.00  0.00    -0.003 C 
ATOM     14  C   UNL     1     -17.300  -1.426 -18.949  1.00  0.00     0.004 C 
ENDBRANCH  12  13
ENDBRANCH  11  12
ENDBRANCH  10  11
ENDBRANCH   9  10
ENDBRANCH   1   9
TORSDOF 10
ENDMDL
MODEL 5
REMARK VINA RESULT:    -5.366      1.895      2.842
REMARK INTER + INTRA:          -9.276
REMARK INTER:                  -8.202
REMARK INTRA:                  -1.074
REMARK UNBOUND:                -0.773
REMARK SMILES CCCCCCCCCCCC(=O)[O-]
REMARK SMILES IDX 7 1 8 2 9 3 10 4 11 5 12 6 13 7 14 8 6 9 5 10 4 11 3 12 2 13
REMARK SMILES IDX 1 14
REMARK H PARENT
REMARK Flexibility Score: inf
ROOT
ATOM      1  C   UNL     1     -16.065   0.659 -15.236  1.00  0.00     0.000 C 
ENDROOT
BRANCH   1   2
ATOM      2  C   UNL     1     -17.350   0.572 -16.073  1.00  0.00     0.000 C 
BRANCH   2   3
ATOM      3  C   UNL     1     -17.209   1.371 -17.377  1.00  0.00     0.000 C 
BRANCH   3   4
ATOM      4  C   UNL     1     -17.049   0.469 -18.615  1.00  0.00     0.006 C 
BRANCH   4   5
ATOM      5  C   UNL     1     -15.740   0.688 -19.392  1.00  0.00     0.053 C 
BRANCH   5   6
ATOM      6  C   UNL     1     -14.534   0.406 -18.551  1.00  0.00     0.041 C 
ATOM      7  O   UNL     1     -14.344  -0.746 -18.079  1.00  0.00    -0.550 OA
ATOM      8  O   UNL     1     -13.599   1.408 -18.316  1.00  0.00    -0.550 OA
ENDBRANCH   5   6
ENDBRANCH   4   5
ENDBRANCH   3   4
ENDBRANCH   2   3
ENDBRANCH   1   2
BRANCH   1   9
ATOM      9  C   UNL     1     -15.437   2.062 -15.251  1.00  0.00     0.000 C 
BRANCH   9  10
ATOM     10  C   UNL     1     -14.698   2.393 -13.943  1.00  0.00    -0.000 C 
BRANCH  10  11
ATOM     11  C   UNL     1     -15.658   2.741 -12.793  1.00  0.00    -0.000 C 
BRANCH  11  12
ATOM     12  C   UNL     1     -15.580   1.736 -11.632  1.00  0.00    -0.000 C 
BRANCH  12  13
ATOM     13  C   UNL     1     -16.954   1.450 -11.006  1.00  0.00    -0.003 C 
ATOM     14  C   UNL     1     -17.908   0.740 -11.968  1.00  0.00     0.004 C 
ENDBRANCH  12  13
ENDBRANCH  11  12
ENDBRANCH  10  11
ENDBRANCH   9  10
ENDBRANCH   1   9
TORSDOF 10
ENDMDL
MODEL 6
REMARK VINA RESULT:    -5.361      2.243      5.015
REMARK INTER + INTRA:          -9.268
REMARK INTER:                  -8.339
REMARK INTRA:                  -0.929
REMARK UNBOUND:                -0.773
REMARK SMILES CCCCCCCCCCCC(=O)[O-]
REMARK SMILES IDX 7 1 8 2 9 3 10 4 11 5 12 6 13 7 14 8 6 9 5 10 4 11 3 12 2 13
REMARK SMILES IDX 1 14
REMARK H PARENT
REMARK Flexibility Score: inf
ROOT
ATOM      1  C   UNL     1     -14.029   2.491 -18.779  1.00  0.00     0.000 C 
ENDROOT
BRANCH   1   2
ATOM      2  C   UNL     1     -13.392   3.418 -17.733  1.00  0.00     0.000 C 
BRANCH   2   3
ATOM      3  C   UNL     1     -13.610   2.871 -16.314  1.00  0.00     0.000 C 
BRANCH   3   4
ATOM      4  C   UNL     1     -15.095   2.836 -15.909  1.00  0.00     0.006 C 
BRANCH   4   5
ATOM      5  C   UNL     1     -15.459   1.701 -14.937  1.00  0.00     0.053 C 
BRANCH   5   6
ATOM      6  C   UNL     1     -15.092   2.032 -13.523  1.00  0.00     0.041 C 
ATOM      7  O   UNL     1     -15.193   3.215 -13.102  1.00  0.00    -0.550 OA
ATOM      8  O   UNL     1     -14.670   1.028 -12.660  1.00  0.00    -0.550 OA
ENDBRANCH   5   6
ENDBRANCH   4   5
ENDBRANCH   3   4
ENDBRANCH   2   3
ENDBRANCH   1   2
BRANCH   1   9
ATOM      9  C   UNL     1     -13.633   1.018 -18.591  1.00  0.00     0.000 C 
BRANCH   9  10
ATOM     10  C   UNL     1     -14.837   0.065 -18.691  1.00  0.00    -0.000 C 
BRANCH  10  11
ATOM     11  C   UNL     1     -16.084   0.747 -19.277  1.00  0.00    -0.000 C 
BRANCH  11  12
ATOM     12  C   UNL     1     -17.382  -0.012 -18.950  1.00  0.00    -0.000 C 
BRANCH  12  13
ATOM     13  C   UNL     1     -17.182  -1.535 -18.924  1.00  0.00    -0.003 C 
ATOM     14  C   UNL     1     -17.476  -2.149 -17.555  1.00  0.00     0.004 C 
ENDBRANCH  12  13
ENDBRANCH  11  12
ENDBRANCH  10  11
ENDBRANCH   9  10
ENDBRANCH   1   9
TORSDOF 10
ENDMDL
MODEL 7
REMARK VINA RESULT:    -5.332      2.496      6.035
REMARK INTER + INTRA:          -9.222
REMARK INTER:                  -8.464
REMARK INTRA:                  -0.759
REMARK UNBOUND:                -0.773
REMARK SMILES CCCCCCCCCCCC(=O)[O-]
REMARK SMILES IDX 7 1 8 2 9 3 10 4 11 5 12 6 13 7 14 8 6 9 5 10 4 11 3 12 2 13
REMARK SMILES IDX 1 14
REMARK H PARENT
REMARK Flexibility Score: inf
ROOT
ATOM      1  C   UNL     1     -15.161   2.755 -15.936  1.00  0.00     0.000 C 
ENDROOT
BRANCH   1   2
ATOM      2  C   UNL     1     -15.539   1.472 -15.180  1.00  0.00     0.000 C 
BRANCH   2   3
ATOM      3  C   UNL     1     -14.982   1.497 -13.749  1.00  0.00     0.000 C 
BRANCH   3   4
ATOM      4  C   UNL     1     -15.826   2.361 -12.795  1.00  0.00     0.006 C 
BRANCH   4   5
ATOM      5  C   UNL     1     -15.907   1.822 -11.357  1.00  0.00     0.053 C 
BRANCH   5   6
ATOM      6  C   UNL     1     -17.217   1.151 -11.081  1.00  0.00     0.041 C 
ATOM      7  O   UNL     1     -17.562   0.895  -9.898  1.00  0.00    -0.550 OA
ATOM      8  O   UNL     1     -18.074   0.839 -12.130  1.00  0.00    -0.550 OA
ENDBRANCH   5   6
ENDBRANCH   4   5
ENDBRANCH   3   4
ENDBRANCH   2   3
ENDBRANCH   1   2
BRANCH   1   9
ATOM      9  C   UNL     1     -13.656   2.851 -16.232  1.00  0.00     0.000 C 
BRANCH   9  10
ATOM     10  C   UNL     1     -13.355   2.976 -17.736  1.00  0.00    -0.000 C 
BRANCH  10  11
ATOM     11  C   UNL     1     -13.662   1.683 -18.509  1.00  0.00    -0.000 C 
BRANCH  11  12
ATOM     12  C   UNL     1     -14.700   1.894 -19.625  1.00  0.00    -0.000 C 
BRANCH  12  13
ATOM     13  C   UNL     1     -15.560   0.645 -19.874  1.00  0.00    -0.003 C 
ATOM     14  C   UNL     1     -16.704   0.503 -18.869  1.00  0.00     0.004 C 
ENDBRANCH  12  13
ENDBRANCH  11  12
ENDBRANCH  10  11
ENDBRANCH   9  10
ENDBRANCH   1   9
TORSDOF 10
ENDMDL
MODEL 8
REMARK VINA RESULT:    -5.278      2.207      4.228
REMARK INTER + INTRA:          -9.136
REMARK INTER:                  -8.054
REMARK INTRA:                  -1.082
REMARK UNBOUND:                -0.773
REMARK SMILES CCCCCCCCCCCC(=O)[O-]
REMARK SMILES IDX 7 1 8 2 9 3 10 4 11 5 12 6 13 7 14 8 6 9 5 10 4 11 3 12 2 13
REMARK SMILES IDX 1 14
REMARK H PARENT
REMARK Flexibility Score: inf
ROOT
ATOM      1  C   UNL     1     -15.473   0.169 -20.144  1.00  0.00     0.000 C 
ENDROOT
BRANCH   1   2
ATOM      2  C   UNL     1     -16.744   0.012 -19.296  1.00  0.00     0.000 C 
BRANCH   2   3
ATOM      3  C   UNL     1     -17.012  -1.468 -18.982  1.00  0.00     0.000 C 
BRANCH   3   4
ATOM      4  C   UNL     1     -16.406  -1.911 -17.638  1.00  0.00     0.006 C 
BRANCH   4   5
ATOM      5  C   UNL     1     -16.313  -0.794 -16.586  1.00  0.00     0.053 C 
BRANCH   5   6
ATOM      6  C   UNL     1     -17.520  -0.754 -15.701  1.00  0.00     0.041 C 
ATOM      7  O   UNL     1     -17.795   0.287 -15.049  1.00  0.00    -0.550 OA
ATOM      8  O   UNL     1     -18.362  -1.857 -15.622  1.00  0.00    -0.550 OA
ENDBRANCH   5   6
ENDBRANCH   4   5
ENDBRANCH   3   4
ENDBRANCH   2   3
ENDBRANCH   1   2
BRANCH   1   9
ATOM      9  C   UNL     1     -14.755   1.506 -19.899  1.00  0.00     0.000 C 
BRANCH   9  10
ATOM     10  C   UNL     1     -13.964   1.518 -18.579  1.00  0.00    -0.000 C 
BRANCH  10  11
ATOM     11  C   UNL     1     -13.423   2.914 -18.227  1.00  0.00    -0.000 C 
BRANCH  11  12
ATOM     12  C   UNL     1     -14.430   3.752 -17.421  1.00  0.00    -0.000 C 
BRANCH  12  13
ATOM     13  C   UNL     1     -15.484   2.886 -16.713  1.00  0.00    -0.003 C 
ATOM     14  C   UNL     1     -15.148   2.625 -15.245  1.00  0.00     0.004 C 
ENDBRANCH  12  13
ENDBRANCH  11  12
ENDBRANCH  10  11
ENDBRANCH   9  10
ENDBRANCH   1   9
TORSDOF 10
ENDMDL
MODEL 9
REMARK VINA RESULT:    -5.264      1.361      2.958
REMARK INTER + INTRA:          -9.115
REMARK INTER:                  -8.139
REMARK INTRA:                  -0.976
REMARK UNBOUND:                -0.773
REMARK SMILES CCCCCCCCCCCC(=O)[O-]
REMARK SMILES IDX 7 1 8 2 9 3 10 4 11 5 12 6 13 7 14 8 6 9 5 10 4 11 3 12 2 13
REMARK SMILES IDX 1 14
REMARK H PARENT
REMARK Flexibility Score: inf
ROOT
ATOM      1  C   UNL     1     -14.731   1.934 -19.900  1.00  0.00     0.000 C 
ENDROOT
BRANCH   1   2
ATOM      2  C   UNL     1     -15.134   0.564 -20.467  1.00  0.00     0.000 C 
BRANCH   2   3
ATOM      3  C   UNL     1     -15.262  -0.476 -19.344  1.00  0.00     0.000 C 
BRANCH   3   4
ATOM      4  C   UNL     1     -16.691  -1.031 -19.203  1.00  0.00     0.006 C 
BRANCH   4   5
ATOM      5  C   UNL     1     -17.737   0.015 -18.781  1.00  0.00     0.053 C 
BRANCH   5   6
ATOM      6  C   UNL     1     -17.415   0.626 -17.452  1.00  0.00     0.041 C 
ATOM      7  O   UNL     1     -17.224   1.866 -17.354  1.00  0.00    -0.550 OA
ATOM      8  O   UNL     1     -17.360  -0.171 -16.314  1.00  0.00    -0.550 OA
ENDBRANCH   5   6
ENDBRANCH   4   5
ENDBRANCH   3   4
ENDBRANCH   2   3
ENDBRANCH   1   2
BRANCH   1   9
ATOM      9  C   UNL     1     -13.895   1.825 -18.615  1.00  0.00     0.000 C 
BRANCH   9  10
ATOM     10  C   UNL     1     -13.254   3.164 -18.212  1.00  0.00    -0.000 C 
BRANCH  10  11
ATOM     11  C   UNL     1     -13.226   3.372 -16.689  1.00  0.00    -0.000 C 
BRANCH  11  12
ATOM     12  C   UNL     1     -13.795   2.168 -15.918  1.00  0.00    -0.000 C 
BRANCH  12  13
ATOM     13  C   UNL     1     -14.847   2.580 -14.876  1.00  0.00    -0.003 C 
ATOM     14  C   UNL     1     -14.892   1.636 -13.674  1.00  0.00     0.004 C 
ENDBRANCH  12  13
ENDBRANCH  11  12
ENDBRANCH  10  11
ENDBRANCH   9  10
ENDBRANCH   1   9
TORSDOF 10
ENDMDL
