MODEL 1
REMARK VINA RESULT:    -4.480      0.000      0.000
REMARK INTER + INTRA:          -7.315
REMARK INTER:                  -6.051
REMARK INTRA:                  -1.264
REMARK UNBOUND:                -1.264
REMARK SMILES CC(=O)CCC=C(C)CCC=C(C)C
REMARK SMILES IDX 7 1 6 2 8 3 9 4 10 5 11 6 13 7 12 8 14 9 5 10 4 11 2 12 3 13
REMARK SMILES IDX 1 14
REMARK H PARENT
REMARK Flexibility Score: inf
ROOT
ATOM      1  C   UNL     1     -13.034  14.890 -29.927  1.00  0.00    -0.077 C 
ATOM      2  C   UNL     1     -13.975  13.934 -29.751  1.00  0.00    -0.028 C 
ATOM      3  C   UNL     1     -13.370  16.243 -30.509  1.00  0.00     0.039 C 
ENDROOT
BRANCH   1   4
ATOM      4  C   UNL     1     -11.609  14.596 -29.514  1.00  0.00     0.034 C 
BRANCH   4   5
ATOM      5  C   UNL     1     -10.625  15.124 -30.565  1.00  0.00     0.032 C 
BRANCH   5   6
ATOM      6  C   UNL     1     -10.417  14.109 -31.660  1.00  0.00    -0.028 C 
ATOM      7  C   UNL     1     -10.818  15.772 -33.489  1.00  0.00     0.039 C 
ATOM      8  C   UNL     1     -10.524  14.380 -32.980  1.00  0.00    -0.080 C 
ATOM      9  C   UNL     1     -10.325  13.255 -33.963  1.00  0.00     0.039 C 
ENDBRANCH   5   6
ENDBRANCH   4   5
ENDBRANCH   1   4
BRANCH   2  10
ATOM     10  C   UNL     1     -15.412  14.053 -30.199  1.00  0.00     0.035 C 
BRANCH  10  11
ATOM     11  C   UNL     1     -15.654  13.295 -31.511  1.00  0.00     0.079 C 
BRANCH  11  12
ATOM     12  C   UNL     1     -15.532  14.204 -32.707  1.00  0.00     0.130 C 
ATOM     13  O   UNL     1     -16.478  14.907 -33.028  1.00  0.00    -0.300 OA
ATOM     14  C   UNL     1     -14.271  14.260 -33.517  1.00  0.00     0.087 C 
ENDBRANCH  11  12
ENDBRANCH  10  11
ENDBRANCH   2  10
TORSDOF 6
ENDMDL
MODEL 2
REMARK VINA RESULT:    -4.442      2.386      5.086
REMARK INTER + INTRA:          -7.264
REMARK INTER:                  -5.877
REMARK INTRA:                  -1.387
REMARK UNBOUND:                -1.264
REMARK SMILES CC(=O)CCC=C(C)CCC=C(C)C
REMARK SMILES IDX 7 1 6 2 8 3 9 4 10 5 11 6 13 7 12 8 14 9 5 10 4 11 2 12 3 13
REMARK SMILES IDX 1 14
REMARK H PARENT
REMARK Flexibility Score: inf
ROOT
ATOM      1  C   UNL     1     -13.585  15.612 -31.993  1.00  0.00    -0.077 C 
ATOM      2  C   UNL     1     -12.433  14.910 -32.094  1.00  0.00    -0.028 C 
ATOM      3  C   UNL     1     -13.804  16.635 -30.903  1.00  0.00     0.039 C 
ENDROOT
BRANCH   1   4
ATOM      4  C   UNL     1     -14.677  15.372 -33.012  1.00  0.00     0.034 C 
BRANCH   4   5
ATOM      5  C   UNL     1     -15.876  14.672 -32.360  1.00  0.00     0.032 C 
BRANCH   5   6
ATOM      6  C   UNL     1     -15.478  13.320 -31.825  1.00  0.00    -0.028 C 
ATOM      7  C   UNL     1     -15.970  13.944 -29.450  1.00  0.00     0.039 C 
ATOM      8  C   UNL     1     -15.492  12.985 -30.516  1.00  0.00    -0.080 C 
ATOM      9  C   UNL     1     -15.032  11.605 -30.122  1.00  0.00     0.039 C 
ENDBRANCH   5   6
ENDBRANCH   4   5
ENDBRANCH   1   4
BRANCH   2  10
ATOM     10  C   UNL     1     -11.299  14.978 -31.099  1.00  0.00     0.035 C 
BRANCH  10  11
ATOM     11  C   UNL     1     -11.351  13.808 -30.108  1.00  0.00     0.079 C 
BRANCH  11  12
ATOM     12  C   UNL     1     -11.844  14.251 -28.754  1.00  0.00     0.130 C 
ATOM     13  O   UNL     1     -11.636  15.396 -28.383  1.00  0.00    -0.300 OA
ATOM     14  C   UNL     1     -12.581  13.310 -27.848  1.00  0.00     0.087 C 
ENDBRANCH  11  12
ENDBRANCH  10  11
ENDBRANCH   2  10
TORSDOF 6
ENDMDL
MODEL 3
REMARK VINA RESULT:    -4.399      1.745      3.920
REMARK INTER + INTRA:          -7.205
REMARK INTER:                  -6.081
REMARK INTRA:                  -1.124
REMARK UNBOUND:                -1.264
REMARK SMILES CC(=O)CCC=C(C)CCC=C(C)C
REMARK SMILES IDX 7 1 6 2 8 3 9 4 10 5 11 6 13 7 12 8 14 9 5 10 4 11 2 12 3 13
REMARK SMILES IDX 1 14
REMARK H PARENT
REMARK Flexibility Score: inf
ROOT
ATOM      1  C   UNL     1     -11.714  15.092 -30.197  1.00  0.00    -0.077 C 
ATOM      2  C   UNL     1     -12.820  15.459 -30.883  1.00  0.00    -0.028 C 
ATOM      3  C   UNL     1     -10.362  14.978 -30.862  1.00  0.00     0.039 C 
ENDROOT
BRANCH   1   4
ATOM      4  C   UNL     1     -11.836  14.803 -28.717  1.00  0.00     0.034 C 
BRANCH   4   5
ATOM      5  C   UNL     1     -12.167  13.324 -28.484  1.00  0.00     0.032 C 
BRANCH   5   6
ATOM      6  C   UNL     1     -13.640  13.141 -28.219  1.00  0.00    -0.028 C 
ATOM      7  C   UNL     1     -14.056  12.031 -30.425  1.00  0.00     0.039 C 
ATOM      8  C   UNL     1     -14.507  12.583 -29.093  1.00  0.00    -0.080 C 
ATOM      9  C   UNL     1     -15.962  12.500 -28.707  1.00  0.00     0.039 C 
ENDBRANCH   5   6
ENDBRANCH   4   5
ENDBRANCH   1   4
BRANCH   2  10
ATOM     10  C   UNL     1     -12.866  15.689 -32.375  1.00  0.00     0.035 C 
BRANCH  10  11
ATOM     11  C   UNL     1     -14.298  15.951 -32.858  1.00  0.00     0.079 C 
BRANCH  11  12
ATOM     12  C   UNL     1     -15.058  14.665 -33.061  1.00  0.00     0.130 C 
ATOM     13  O   UNL     1     -14.717  13.898 -33.948  1.00  0.00    -0.300 OA
ATOM     14  C   UNL     1     -16.232  14.309 -32.197  1.00  0.00     0.087 C 
ENDBRANCH  11  12
ENDBRANCH  10  11
ENDBRANCH   2  10
TORSDOF 6
ENDMDL
MODEL 4
REMARK VINA RESULT:    -4.387      2.446      3.881
REMARK INTER + INTRA:          -7.190
REMARK INTER:                  -6.089
REMARK INTRA:                  -1.100
REMARK UNBOUND:                -1.264
REMARK SMILES CC(=O)CCC=C(C)CCC=C(C)C
REMARK SMILES IDX 7 1 6 2 8 3 9 4 10 5 11 6 13 7 12 8 14 9 5 10 4 11 2 12 3 13
REMARK SMILES IDX 1 14
REMARK H PARENT
REMARK Flexibility Score: inf
ROOT
ATOM      1  C   UNL     1     -15.098  14.280 -30.942  1.00  0.00    -0.077 C 
ATOM      2  C   UNL     1     -15.441  14.178 -29.638  1.00  0.00    -0.028 C 
ATOM      3  C   UNL     1     -15.030  13.073 -31.848  1.00  0.00     0.039 C 
ENDROOT
BRANCH   1   4
ATOM      4  C   UNL     1     -14.788  15.648 -31.510  1.00  0.00     0.034 C 
BRANCH   4   5
ATOM      5  C   UNL     1     -13.614  16.288 -30.760  1.00  0.00     0.032 C 
BRANCH   5   6
ATOM      6  C   UNL     1     -12.311  15.636 -31.150  1.00  0.00    -0.028 C 
ATOM      7  C   UNL     1     -11.823  14.858 -28.821  1.00  0.00     0.039 C 
ATOM      8  C   UNL     1     -11.483  15.010 -30.285  1.00  0.00    -0.080 C 
ATOM      9  C   UNL     1     -10.194  14.436 -30.814  1.00  0.00     0.039 C 
ENDBRANCH   5   6
ENDBRANCH   4   5
ENDBRANCH   1   4
BRANCH   2  10
ATOM     10  C   UNL     1     -15.686  12.874 -28.917  1.00  0.00     0.035 C 
BRANCH  10  11
ATOM     11  C   UNL     1     -17.062  12.860 -28.237  1.00  0.00     0.079 C 
BRANCH  11  12
ATOM     12  C   UNL     1     -18.034  11.971 -28.972  1.00  0.00     0.130 C 
ATOM     13  O   UNL     1     -18.493  10.988 -28.410  1.00  0.00    -0.300 OA
ATOM     14  C   UNL     1     -18.445  12.267 -30.383  1.00  0.00     0.087 C 
ENDBRANCH  11  12
ENDBRANCH  10  11
ENDBRANCH   2  10
TORSDOF 6
ENDMDL
MODEL 5
REMARK VINA RESULT:    -4.200      2.012      5.337
REMARK INTER + INTRA:          -6.937
REMARK INTER:                  -5.716
REMARK INTRA:                  -1.221
REMARK UNBOUND:                -1.264
REMARK SMILES CC(=O)CCC=C(C)CCC=C(C)C
REMARK SMILES IDX 7 1 6 2 8 3 9 4 10 5 11 6 13 7 12 8 14 9 5 10 4 11 2 12 3 13
REMARK SMILES IDX 1 14
REMARK H PARENT
REMARK Flexibility Score: inf
ROOT
ATOM      1  C   UNL     1     -14.177  15.421 -32.099  1.00  0.00    -0.077 C 
ATOM      2  C   UNL     1     -13.197  14.992 -32.927  1.00  0.00    -0.028 C 
ATOM      3  C   UNL     1     -13.891  16.331 -30.927  1.00  0.00     0.039 C 
ENDROOT
BRANCH   1   4
ATOM      4  C   UNL     1     -15.601  14.987 -32.367  1.00  0.00     0.034 C 
BRANCH   4   5
ATOM      5  C   UNL     1     -15.824  13.549 -31.884  1.00  0.00     0.032 C 
BRANCH   5   6
ATOM      6  C   UNL     1     -16.605  13.534 -30.594  1.00  0.00    -0.028 C 
ATOM      7  C   UNL     1     -14.583  13.062 -29.195  1.00  0.00     0.039 C 
ATOM      8  C   UNL     1     -16.065  13.292 -29.379  1.00  0.00    -0.080 C 
ATOM      9  C   UNL     1     -16.976  13.272 -28.179  1.00  0.00     0.039 C 
ENDBRANCH   5   6
ENDBRANCH   4   5
ENDBRANCH   1   4
BRANCH   2  10
ATOM     10  C   UNL     1     -11.726  15.270 -32.729  1.00  0.00     0.035 C 
BRANCH  10  11
ATOM     11  C   UNL     1     -10.919  13.969 -32.631  1.00  0.00     0.079 C 
BRANCH  11  12
ATOM     12  C   UNL     1     -11.262  13.195 -31.383  1.00  0.00     0.130 C 
ATOM     13  O   UNL     1     -11.745  12.078 -31.483  1.00  0.00    -0.300 OA
ATOM     14  C   UNL     1     -11.028  13.773 -30.020  1.00  0.00     0.087 C 
ENDBRANCH  11  12
ENDBRANCH  10  11
ENDBRANCH   2  10
TORSDOF 6
ENDMDL
MODEL 6
REMARK VINA RESULT:    -4.123      1.857      3.140
REMARK INTER + INTRA:          -6.833
REMARK INTER:                  -5.429
REMARK INTRA:                  -1.404
REMARK UNBOUND:                -1.264
REMARK SMILES CC(=O)CCC=C(C)CCC=C(C)C
REMARK SMILES IDX 7 1 6 2 8 3 9 4 10 5 11 6 13 7 12 8 14 9 5 10 4 11 2 12 3 13
REMARK SMILES IDX 1 14
REMARK H PARENT
REMARK Flexibility Score: inf
ROOT
ATOM      1  C   UNL     1     -11.253  13.888 -29.778  1.00  0.00    -0.077 C 
ATOM      2  C   UNL     1     -11.625  12.639 -29.414  1.00  0.00    -0.028 C 
ATOM      3  C   UNL     1     -11.717  15.111 -29.022  1.00  0.00     0.039 C 
ENDROOT
BRANCH   1   4
ATOM      4  C   UNL     1     -10.334  14.058 -30.967  1.00  0.00     0.034 C 
BRANCH   4   5
ATOM      5  C   UNL     1     -10.920  15.069 -31.959  1.00  0.00     0.032 C 
BRANCH   5   6
ATOM      6  C   UNL     1     -12.114  14.487 -32.674  1.00  0.00    -0.028 C 
ATOM      7  C   UNL     1     -13.622  16.377 -32.022  1.00  0.00     0.039 C 
ATOM      8  C   UNL     1     -13.342  15.051 -32.691  1.00  0.00    -0.080 C 
ATOM      9  C   UNL     1     -14.452  14.335 -33.416  1.00  0.00     0.039 C 
ENDBRANCH   5   6
ENDBRANCH   4   5
ENDBRANCH   1   4
BRANCH   2  10
ATOM     10  C   UNL     1     -12.606  12.325 -28.311  1.00  0.00     0.035 C 
BRANCH  10  11
ATOM     11  C   UNL     1     -13.820  11.551 -28.843  1.00  0.00     0.079 C 
BRANCH  11  12
ATOM     12  C   UNL     1     -14.473  12.270 -29.996  1.00  0.00     0.130 C 
ATOM     13  O   UNL     1     -14.442  11.771 -31.111  1.00  0.00    -0.300 OA
ATOM     14  C   UNL     1     -15.156  13.591 -29.804  1.00  0.00     0.087 C 
ENDBRANCH  11  12
ENDBRANCH  10  11
ENDBRANCH   2  10
TORSDOF 6
ENDMDL
MODEL 7
REMARK VINA RESULT:    -4.120      2.718      4.343
REMARK INTER + INTRA:          -6.829
REMARK INTER:                  -5.646
REMARK INTRA:                  -1.183
REMARK UNBOUND:                -1.264
REMARK SMILES CC(=O)CCC=C(C)CCC=C(C)C
REMARK SMILES IDX 7 1 6 2 8 3 9 4 10 5 11 6 13 7 12 8 14 9 5 10 4 11 2 12 3 13
REMARK SMILES IDX 1 14
REMARK H PARENT
REMARK Flexibility Score: inf
ROOT
ATOM      1  C   UNL     1     -15.302  13.993 -30.485  1.00  0.00    -0.077 C 
ATOM      2  C   UNL     1     -14.677  12.800 -30.610  1.00  0.00    -0.028 C 
ATOM      3  C   UNL     1     -16.318  14.253 -29.398  1.00  0.00     0.039 C 
ENDROOT
BRANCH   1   4
ATOM      4  C   UNL     1     -14.959  15.102 -31.456  1.00  0.00     0.034 C 
BRANCH   4   5
ATOM      5  C   UNL     1     -13.957  16.077 -30.826  1.00  0.00     0.032 C 
BRANCH   5   6
ATOM      6  C   UNL     1     -12.545  15.721 -31.220  1.00  0.00    -0.028 C 
ATOM      7  C   UNL     1     -11.933  14.951 -28.917  1.00  0.00     0.039 C 
ATOM      8  C   UNL     1     -11.616  15.236 -30.366  1.00  0.00    -0.080 C 
ATOM      9  C   UNL     1     -10.231  14.960 -30.894  1.00  0.00     0.039 C 
ENDBRANCH   5   6
ENDBRANCH   4   5
ENDBRANCH   1   4
BRANCH   2  10
ATOM     10  C   UNL     1     -14.984  11.581 -29.775  1.00  0.00     0.035 C 
BRANCH  10  11
ATOM     11  C   UNL     1     -13.916  11.355 -28.697  1.00  0.00     0.079 C 
BRANCH  11  12
ATOM     12  C   UNL     1     -14.327  11.952 -27.375  1.00  0.00     0.130 C 
ATOM     13  O   UNL     1     -13.557  12.692 -26.783  1.00  0.00    -0.300 OA
ATOM     14  C   UNL     1     -15.664  11.649 -26.767  1.00  0.00     0.087 C 
ENDBRANCH  11  12
ENDBRANCH  10  11
ENDBRANCH   2  10
TORSDOF 6
ENDMDL
MODEL 8
REMARK VINA RESULT:    -4.120      1.566      3.358
REMARK INTER + INTRA:          -6.829
REMARK INTER:                  -5.430
REMARK INTRA:                  -1.399
REMARK UNBOUND:                -1.264
REMARK SMILES CC(=O)CCC=C(C)CCC=C(C)C
REMARK SMILES IDX 7 1 6 2 8 3 9 4 10 5 11 6 13 7 12 8 14 9 5 10 4 11 2 12 3 13
REMARK SMILES IDX 1 14
REMARK H PARENT
REMARK Flexibility Score: inf
ROOT
ATOM      1  C   UNL     1     -11.465  15.083 -32.954  1.00  0.00    -0.077 C 
ATOM      2  C   UNL     1     -12.452  15.820 -32.396  1.00  0.00    -0.028 C 
ATOM      3  C   UNL     1     -11.749  14.029 -33.999  1.00  0.00     0.039 C 
ENDROOT
BRANCH   1   4
ATOM      4  C   UNL     1     -10.036  15.336 -32.529  1.00  0.00     0.034 C 
BRANCH   4   5
ATOM      5  C   UNL     1      -9.878  15.121 -31.019  1.00  0.00     0.032 C 
BRANCH   5   6
ATOM      6  C   UNL     1     -10.351  13.745 -30.622  1.00  0.00    -0.028 C 
ATOM      7  C   UNL     1     -11.906  14.616 -28.864  1.00  0.00     0.039 C 
ATOM      8  C   UNL     1     -11.245  13.500 -29.639  1.00  0.00    -0.080 C 
ATOM      9  C   UNL     1     -11.596  12.068 -29.327  1.00  0.00     0.039 C 
ENDBRANCH   5   6
ENDBRANCH   4   5
ENDBRANCH   1   4
BRANCH   2  10
ATOM     10  C   UNL     1     -13.926  15.615 -32.655  1.00  0.00     0.035 C 
BRANCH  10  11
ATOM     11  C   UNL     1     -14.655  15.135 -31.394  1.00  0.00     0.079 C 
BRANCH  11  12
ATOM     12  C   UNL     1     -14.836  13.638 -31.394  1.00  0.00     0.130 C 
ATOM     13  O   UNL     1     -14.740  13.021 -32.444  1.00  0.00    -0.300 OA
ATOM     14  C   UNL     1     -15.139  12.889 -30.130  1.00  0.00     0.087 C 
ENDBRANCH  11  12
ENDBRANCH  10  11
ENDBRANCH   2  10
TORSDOF 6
ENDMDL
MODEL 9
REMARK VINA RESULT:    -4.101      2.521      3.556
REMARK INTER + INTRA:          -6.803
REMARK INTER:                  -5.661
REMARK INTRA:                  -1.142
REMARK UNBOUND:                -1.264
REMARK SMILES CC(=O)CCC=C(C)CCC=C(C)C
REMARK SMILES IDX 7 1 6 2 8 3 9 4 10 5 11 6 13 7 12 8 14 9 5 10 4 11 2 12 3 13
REMARK SMILES IDX 1 14
REMARK H PARENT
REMARK Flexibility Score: inf
ROOT
ATOM      1  C   UNL     1     -13.670  12.614 -28.955  1.00  0.00    -0.077 C 
ATOM      2  C   UNL     1     -14.512  12.736 -27.904  1.00  0.00    -0.028 C 
ATOM      3  C   UNL     1     -14.118  12.029 -30.274  1.00  0.00     0.039 C 
ENDROOT
BRANCH   1   4
ATOM      4  C   UNL     1     -12.243  13.093 -28.806  1.00  0.00     0.034 C 
BRANCH   4   5
ATOM      5  C   UNL     1     -12.169  14.618 -28.945  1.00  0.00     0.032 C 
BRANCH   5   6
ATOM      6  C   UNL     1     -11.939  15.013 -30.381  1.00  0.00    -0.028 C 
ATOM      7  C   UNL     1     -14.292  15.809 -30.702  1.00  0.00     0.039 C 
ATOM      8  C   UNL     1     -12.890  15.528 -31.192  1.00  0.00    -0.080 C 
ATOM      9  C   UNL     1     -12.524  15.843 -32.620  1.00  0.00     0.039 C 
ENDBRANCH   5   6
ENDBRANCH   4   5
ENDBRANCH   1   4
BRANCH   2  10
ATOM     10  C   UNL     1     -15.931  12.220 -27.879  1.00  0.00     0.035 C 
BRANCH  10  11
ATOM     11  C   UNL     1     -16.933  13.315 -28.270  1.00  0.00     0.079 C 
BRANCH  11  12
ATOM     12  C   UNL     1     -17.905  12.829 -29.314  1.00  0.00     0.130 C 
ATOM     13  O   UNL     1     -18.873  12.166 -28.973  1.00  0.00    -0.300 OA
ATOM     14  C   UNL     1     -17.706  13.138 -30.768  1.00  0.00     0.087 C 
ENDBRANCH  11  12
ENDBRANCH  10  11
ENDBRANCH   2  10
TORSDOF 6
ENDMDL
