MODEL 1
REMARK VINA RESULT:    -3.712      0.000      0.000
REMARK INTER + INTRA:          -8.129
REMARK INTER:                  -6.749
REMARK INTRA:                  -1.380
REMARK UNBOUND:                -1.380
REMARK SMILES CCCCCCCCCCCCCC[C@H](C)C(=O)[O-]
REMARK SMILES IDX 9 1 10 2 11 3 12 4 13 5 14 6 15 7 16 8 17 9 18 10 19 11 8 12
REMARK SMILES IDX 7 13 6 14 5 15 4 16 3 17 2 18 1 19
REMARK H PARENT
REMARK Flexibility Score: inf
ROOT
ATOM      1  C   UNL     1      34.704  28.972  18.393  1.00  0.00     0.000 C 
ENDROOT
BRANCH   1   2
ATOM      2  C   UNL     1      34.788  29.049  16.864  1.00  0.00     0.000 C 
BRANCH   2   3
ATOM      3  C   UNL     1      36.240  28.892  16.385  1.00  0.00     0.000 C 
BRANCH   3   4
ATOM      4  C   UNL     1      36.553  27.476  15.869  1.00  0.00     0.000 C 
BRANCH   4   5
ATOM      5  C   UNL     1      35.500  26.875  14.918  1.00  0.00     0.001 C 
BRANCH   5   6
ATOM      6  C   UNL     1      35.531  27.402  13.468  1.00  0.00     0.009 C 
BRANCH   6   7
ATOM      7  C   UNL     1      34.147  27.414  12.773  1.00  0.00     0.032 C 
ATOM      8  C   UNL     1      34.296  27.188  11.264  1.00  0.00     0.014 C 
BRANCH   7   9
ATOM      9  C   UNL     1      33.407  28.704  13.009  1.00  0.00     0.044 C 
ATOM     10  O   UNL     1      32.445  28.752  13.822  1.00  0.00    -0.550 OA
ATOM     11  O   UNL     1      33.812  29.864  12.361  1.00  0.00    -0.550 OA
ENDBRANCH   7   9
ENDBRANCH   6   7
ENDBRANCH   5   6
ENDBRANCH   4   5
ENDBRANCH   3   4
ENDBRANCH   2   3
ENDBRANCH   1   2
BRANCH   1  12
ATOM     12  C   UNL     1      34.539  27.519  18.862  1.00  0.00     0.000 C 
BRANCH  12  13
ATOM     13  C   UNL     1      35.716  27.034  19.723  1.00  0.00    -0.000 C 
BRANCH  13  14
ATOM     14  C   UNL     1      36.768  28.132  19.957  1.00  0.00    -0.000 C 
BRANCH  14  15
ATOM     15  C   UNL     1      36.920  28.497  21.443  1.00  0.00    -0.000 C 
BRANCH  15  16
ATOM     16  C   UNL     1      35.691  28.108  22.278  1.00  0.00    -0.000 C 
BRANCH  16  17
ATOM     17  C   UNL     1      35.406  29.162  23.359  1.00  0.00    -0.000 C 
BRANCH  17  18
ATOM     18  C   UNL     1      36.678  29.880  23.834  1.00  0.00    -0.003 C 
ATOM     19  C   UNL     1      36.484  31.389  23.988  1.00  0.00     0.004 C 
ENDBRANCH  17  18
ENDBRANCH  16  17
ENDBRANCH  15  16
ENDBRANCH  14  15
ENDBRANCH  13  14
ENDBRANCH  12  13
ENDBRANCH   1  12
TORSDOF 14
ENDMDL
MODEL 2
REMARK VINA RESULT:    -3.652      3.858      8.629
REMARK INTER + INTRA:          -8.021
REMARK INTER:                  -7.066
REMARK INTRA:                  -0.956
REMARK UNBOUND:                -1.380
REMARK SMILES CCCCCCCCCCCCCC[C@H](C)C(=O)[O-]
REMARK SMILES IDX 9 1 10 2 11 3 12 4 13 5 14 6 15 7 16 8 17 9 18 10 19 11 8 12
REMARK SMILES IDX 7 13 6 14 5 15 4 16 3 17 2 18 1 19
REMARK H PARENT
REMARK Flexibility Score: inf
ROOT
ATOM      1  C   UNL     1      35.356  28.663  16.206  1.00  0.00     0.000 C 
ENDROOT
BRANCH   1   2
ATOM      2  C   UNL     1      36.706  29.147  16.749  1.00  0.00     0.000 C 
BRANCH   2   3
ATOM      3  C   UNL     1      36.687  29.219  18.284  1.00  0.00     0.000 C 
BRANCH   3   4
ATOM      4  C   UNL     1      35.306  28.900  18.884  1.00  0.00     0.000 C 
BRANCH   4   5
ATOM      5  C   UNL     1      35.310  27.872  20.031  1.00  0.00     0.001 C 
BRANCH   5   6
ATOM      6  C   UNL     1      36.199  28.225  21.242  1.00  0.00     0.009 C 
BRANCH   6   7
ATOM      7  C   UNL     1      35.558  29.243  22.219  1.00  0.00     0.032 C 
ATOM      8  C   UNL     1      36.419  30.507  22.326  1.00  0.00     0.014 C 
BRANCH   7   9
ATOM      9  C   UNL     1      35.359  28.660  23.592  1.00  0.00     0.044 C 
ATOM     10  O   UNL     1      36.029  27.662  23.969  1.00  0.00    -0.550 OA
ATOM     11  O   UNL     1      34.460  29.252  24.472  1.00  0.00    -0.550 OA
ENDBRANCH   7   9
ENDBRANCH   6   7
ENDBRANCH   5   6
ENDBRANCH   4   5
ENDBRANCH   3   4
ENDBRANCH   2   3
ENDBRANCH   1   2
BRANCH   1  12
ATOM     12  C   UNL     1      35.415  27.174  15.834  1.00  0.00     0.000 C 
BRANCH  12  13
ATOM     13  C   UNL     1      34.784  26.877  14.464  1.00  0.00    -0.000 C 
BRANCH  13  14
ATOM     14  C   UNL     1      35.752  27.140  13.298  1.00  0.00    -0.000 C 
BRANCH  14  15
ATOM     15  C   UNL     1      35.110  26.875  11.926  1.00  0.00    -0.000 C 
BRANCH  15  16
ATOM     16  C   UNL     1      33.851  27.723  11.686  1.00  0.00    -0.000 C 
BRANCH  16  17
ATOM     17  C   UNL     1      34.098  29.191  12.064  1.00  0.00    -0.000 C 
BRANCH  17  18
ATOM     18  C   UNL     1      32.904  29.821  12.797  1.00  0.00    -0.003 C 
ATOM     19  C   UNL     1      32.342  28.920  13.898  1.00  0.00     0.004 C 
ENDBRANCH  17  18
ENDBRANCH  16  17
ENDBRANCH  15  16
ENDBRANCH  14  15
ENDBRANCH  13  14
ENDBRANCH  12  13
ENDBRANCH   1  12
TORSDOF 14
ENDMDL
MODEL 3
REMARK VINA RESULT:    -3.337      4.051      8.928
REMARK INTER + INTRA:          -7.448
REMARK INTER:                  -6.402
REMARK INTRA:                  -1.046
REMARK UNBOUND:                -1.380
REMARK SMILES CCCCCCCCCCCCCC[C@H](C)C(=O)[O-]
REMARK SMILES IDX 9 1 10 2 11 3 12 4 13 5 14 6 15 7 16 8 17 9 18 10 19 11 8 12
REMARK SMILES IDX 7 13 6 14 5 15 4 16 3 17 2 18 1 19
REMARK H PARENT
REMARK Flexibility Score: inf
ROOT
ATOM      1  C   UNL     1      34.694  28.990  18.092  1.00  0.00     0.000 C 
ENDROOT
BRANCH   1   2
ATOM      2  C   UNL     1      35.133  27.695  18.785  1.00  0.00     0.000 C 
BRANCH   2   3
ATOM      3  C   UNL     1      36.609  27.768  19.204  1.00  0.00     0.000 C 
BRANCH   3   4
ATOM      4  C   UNL     1      36.823  27.498  20.704  1.00  0.00     0.000 C 
BRANCH   4   5
ATOM      5  C   UNL     1      35.611  27.803  21.606  1.00  0.00     0.001 C 
BRANCH   5   6
ATOM      6  C   UNL     1      35.685  29.122  22.403  1.00  0.00     0.009 C 
BRANCH   6   7
ATOM      7  C   UNL     1      35.917  28.927  23.922  1.00  0.00     0.032 C 
ATOM      8  C   UNL     1      35.887  27.438  24.288  1.00  0.00     0.014 C 
BRANCH   7   9
ATOM      9  C   UNL     1      34.896  29.661  24.750  1.00  0.00     0.044 C 
ATOM     10  O   UNL     1      35.088  30.859  25.092  1.00  0.00    -0.550 OA
ATOM     11  O   UNL     1      33.710  29.031  25.106  1.00  0.00    -0.550 OA
ENDBRANCH   7   9
ENDBRANCH   6   7
ENDBRANCH   5   6
ENDBRANCH   4   5
ENDBRANCH   3   4
ENDBRANCH   2   3
ENDBRANCH   1   2
BRANCH   1  12
ATOM     12  C   UNL     1      34.831  28.871  16.567  1.00  0.00     0.000 C 
BRANCH  12  13
ATOM     13  C   UNL     1      35.255  27.464  16.116  1.00  0.00    -0.000 C 
BRANCH  13  14
ATOM     14  C   UNL     1      36.520  27.479  15.242  1.00  0.00    -0.000 C 
BRANCH  14  15
ATOM     15  C   UNL     1      36.257  26.979  13.812  1.00  0.00    -0.000 C 
BRANCH  15  16
ATOM     16  C   UNL     1      34.759  26.878  13.485  1.00  0.00    -0.000 C 
BRANCH  16  17
ATOM     17  C   UNL     1      34.484  27.299  12.033  1.00  0.00    -0.000 C 
BRANCH  17  18
ATOM     18  C   UNL     1      33.429  28.410  11.930  1.00  0.00    -0.003 C 
ATOM     19  C   UNL     1      33.033  28.980  13.293  1.00  0.00     0.004 C 
ENDBRANCH  17  18
ENDBRANCH  16  17
ENDBRANCH  15  16
ENDBRANCH  14  15
ENDBRANCH  13  14
ENDBRANCH  12  13
ENDBRANCH   1  12
TORSDOF 14
ENDMDL
MODEL 4
REMARK VINA RESULT:    -3.315      1.066      1.464
REMARK INTER + INTRA:          -7.408
REMARK INTER:                  -6.532
REMARK INTRA:                  -0.876
REMARK UNBOUND:                -1.380
REMARK SMILES CCCCCCCCCCCCCC[C@H](C)C(=O)[O-]
REMARK SMILES IDX 9 1 10 2 11 3 12 4 13 5 14 6 15 7 16 8 17 9 18 10 19 11 8 12
REMARK SMILES IDX 7 13 6 14 5 15 4 16 3 17 2 18 1 19
REMARK H PARENT
REMARK Flexibility Score: inf
ROOT
ATOM      1  C   UNL     1      34.812  29.130  17.425  1.00  0.00     0.000 C 
ENDROOT
BRANCH   1   2
ATOM      2  C   UNL     1      36.182  28.821  16.809  1.00  0.00     0.000 C 
BRANCH   2   3
ATOM      3  C   UNL     1      36.272  27.350  16.375  1.00  0.00     0.000 C 
BRANCH   3   4
ATOM      4  C   UNL     1      37.107  27.150  15.097  1.00  0.00     0.000 C 
BRANCH   4   5
ATOM      5  C   UNL     1      36.293  26.948  13.805  1.00  0.00     0.001 C 
BRANCH   5   6
ATOM      6  C   UNL     1      34.762  26.875  13.984  1.00  0.00     0.009 C 
BRANCH   6   7
ATOM      7  C   UNL     1      33.960  27.326  12.738  1.00  0.00     0.032 C 
ATOM      8  C   UNL     1      34.792  27.144  11.463  1.00  0.00     0.014 C 
BRANCH   7   9
ATOM      9  C   UNL     1      33.517  28.761  12.839  1.00  0.00     0.044 C 
ATOM     10  O   UNL     1      32.678  29.114  13.711  1.00  0.00    -0.550 OA
ATOM     11  O   UNL     1      34.067  29.717  11.994  1.00  0.00    -0.550 OA
ENDBRANCH   7   9
ENDBRANCH   6   7
ENDBRANCH   5   6
ENDBRANCH   4   5
ENDBRANCH   3   4
ENDBRANCH   2   3
ENDBRANCH   1   2
BRANCH   1  12
ATOM     12  C   UNL     1      34.636  28.401  18.766  1.00  0.00     0.000 C 
BRANCH  12  13
ATOM     13  C   UNL     1      35.809  28.639  19.731  1.00  0.00    -0.000 C 
BRANCH  13  14
ATOM     14  C   UNL     1      35.559  28.036  21.124  1.00  0.00    -0.000 C 
BRANCH  14  15
ATOM     15  C   UNL     1      36.183  28.876  22.251  1.00  0.00    -0.000 C 
BRANCH  15  16
ATOM     16  C   UNL     1      36.711  28.016  23.409  1.00  0.00    -0.000 C 
BRANCH  16  17
ATOM     17  C   UNL     1      36.212  28.549  24.761  1.00  0.00    -0.000 C 
BRANCH  17  18
ATOM     18  C   UNL     1      35.072  29.567  24.610  1.00  0.00    -0.003 C 
ATOM     19  C   UNL     1      33.730  29.033  25.112  1.00  0.00     0.004 C 
ENDBRANCH  17  18
ENDBRANCH  16  17
ENDBRANCH  15  16
ENDBRANCH  14  15
ENDBRANCH  13  14
ENDBRANCH  12  13
ENDBRANCH   1  12
TORSDOF 14
ENDMDL
MODEL 5
REMARK VINA RESULT:    -3.266      0.844      1.522
REMARK INTER + INTRA:          -7.319
REMARK INTER:                  -6.519
REMARK INTRA:                  -0.800
REMARK UNBOUND:                -1.380
REMARK SMILES CCCCCCCCCCCCCC[C@H](C)C(=O)[O-]
REMARK SMILES IDX 9 1 10 2 11 3 12 4 13 5 14 6 15 7 16 8 17 9 18 10 19 11 8 12
REMARK SMILES IDX 7 13 6 14 5 15 4 16 3 17 2 18 1 19
REMARK H PARENT
REMARK Flexibility Score: inf
ROOT
ATOM      1  C   UNL     1      36.221  29.122  18.993  1.00  0.00     0.000 C 
ENDROOT
BRANCH   1   2
ATOM      2  C   UNL     1      35.302  28.637  17.865  1.00  0.00     0.000 C 
BRANCH   2   3
ATOM      3  C   UNL     1      35.888  28.986  16.489  1.00  0.00     0.000 C 
BRANCH   3   4
ATOM      4  C   UNL     1      36.243  27.743  15.653  1.00  0.00     0.000 C 
BRANCH   4   5
ATOM      5  C   UNL     1      35.062  27.098  14.902  1.00  0.00     0.001 C 
BRANCH   5   6
ATOM      6  C   UNL     1      35.273  26.875  13.390  1.00  0.00     0.009 C 
BRANCH   6   7
ATOM      7  C   UNL     1      34.044  27.244  12.522  1.00  0.00     0.032 C 
ATOM      8  C   UNL     1      34.367  27.085  11.031  1.00  0.00     0.014 C 
BRANCH   7   9
ATOM      9  C   UNL     1      33.570  28.649  12.779  1.00  0.00     0.044 C 
ATOM     10  O   UNL     1      34.079  29.621  12.159  1.00  0.00    -0.550 OA
ATOM     11  O   UNL     1      32.534  28.877  13.676  1.00  0.00    -0.550 OA
ENDBRANCH   7   9
ENDBRANCH   6   7
ENDBRANCH   5   6
ENDBRANCH   4   5
ENDBRANCH   3   4
ENDBRANCH   2   3
ENDBRANCH   1   2
BRANCH   1  12
ATOM     12  C   UNL     1      36.629  27.958  19.908  1.00  0.00     0.000 C 
BRANCH  12  13
ATOM     13  C   UNL     1      35.558  27.621  20.957  1.00  0.00    -0.000 C 
BRANCH  13  14
ATOM     14  C   UNL     1      36.140  26.903  22.187  1.00  0.00    -0.000 C 
BRANCH  14  15
ATOM     15  C   UNL     1      36.465  27.871  23.337  1.00  0.00    -0.000 C 
BRANCH  15  16
ATOM     16  C   UNL     1      35.724  29.211  23.213  1.00  0.00    -0.000 C 
BRANCH  16  17
ATOM     17  C   UNL     1      36.004  30.107  24.429  1.00  0.00    -0.000 C 
BRANCH  17  18
ATOM     18  C   UNL     1      36.422  31.530  24.030  1.00  0.00    -0.003 C 
ATOM     19  C   UNL     1      36.849  31.634  22.565  1.00  0.00     0.004 C 
ENDBRANCH  17  18
ENDBRANCH  16  17
ENDBRANCH  15  16
ENDBRANCH  14  15
ENDBRANCH  13  14
ENDBRANCH  12  13
ENDBRANCH   1  12
TORSDOF 14
ENDMDL
MODEL 6
REMARK VINA RESULT:    -2.729      3.998      8.900
REMARK INTER + INTRA:          -6.342
REMARK INTER:                  -5.647
REMARK INTRA:                  -0.694
REMARK UNBOUND:                -1.380
REMARK SMILES CCCCCCCCCCCCCC[C@H](C)C(=O)[O-]
REMARK SMILES IDX 9 1 10 2 11 3 12 4 13 5 14 6 15 7 16 8 17 9 18 10 19 11 8 12
REMARK SMILES IDX 7 13 6 14 5 15 4 16 3 17 2 18 1 19
REMARK H PARENT
REMARK Flexibility Score: inf
ROOT
ATOM      1  C   UNL     1      37.040  27.805  16.401  1.00  0.00     0.000 C 
ENDROOT
BRANCH   1   2
ATOM      2  C   UNL     1      35.782  28.507  16.926  1.00  0.00     0.000 C 
BRANCH   2   3
ATOM      3  C   UNL     1      36.042  29.148  18.299  1.00  0.00     0.000 C 
BRANCH   3   4
ATOM      4  C   UNL     1      35.416  28.355  19.460  1.00  0.00     0.000 C 
BRANCH   4   5
ATOM      5  C   UNL     1      36.083  28.564  20.833  1.00  0.00     0.001 C 
BRANCH   5   6
ATOM      6  C   UNL     1      35.132  28.943  21.988  1.00  0.00     0.009 C 
BRANCH   6   7
ATOM      7  C   UNL     1      35.771  28.825  23.394  1.00  0.00     0.032 C 
ATOM      8  C   UNL     1      35.907  27.354  23.806  1.00  0.00     0.014 C 
BRANCH   7   9
ATOM      9  C   UNL     1      34.977  29.561  24.440  1.00  0.00     0.044 C 
ATOM     10  O   UNL     1      33.856  29.126  24.818  1.00  0.00    -0.550 OA
ATOM     11  O   UNL     1      35.499  30.707  25.027  1.00  0.00    -0.550 OA
ENDBRANCH   7   9
ENDBRANCH   6   7
ENDBRANCH   5   6
ENDBRANCH   4   5
ENDBRANCH   3   4
ENDBRANCH   2   3
ENDBRANCH   1   2
BRANCH   1  12
ATOM     12  C   UNL     1      36.703  26.889  15.215  1.00  0.00     0.000 C 
BRANCH  12  13
ATOM     13  C   UNL     1      35.222  26.963  14.808  1.00  0.00    -0.000 C 
BRANCH  13  14
ATOM     14  C   UNL     1      35.023  26.876  13.285  1.00  0.00    -0.000 C 
BRANCH  14  15
ATOM     15  C   UNL     1      34.548  28.204  12.674  1.00  0.00    -0.000 C 
BRANCH  15  16
ATOM     16  C   UNL     1      33.018  28.345  12.675  1.00  0.00    -0.000 C 
BRANCH  16  17
ATOM     17  C   UNL     1      32.573  29.491  13.597  1.00  0.00    -0.000 C 
BRANCH  17  18
ATOM     18  C   UNL     1      32.648  30.863  12.913  1.00  0.00    -0.003 C 
ATOM     19  C   UNL     1      31.315  31.613  12.943  1.00  0.00     0.004 C 
ENDBRANCH  17  18
ENDBRANCH  16  17
ENDBRANCH  15  16
ENDBRANCH  14  15
ENDBRANCH  13  14
ENDBRANCH  12  13
ENDBRANCH   1  12
TORSDOF 14
ENDMDL
MODEL 7
REMARK VINA RESULT:    -2.108      1.421      2.706
REMARK INTER + INTRA:          -5.213
REMARK INTER:                  -4.622
REMARK INTRA:                  -0.591
REMARK UNBOUND:                -1.380
REMARK SMILES CCCCCCCCCCCCCC[C@H](C)C(=O)[O-]
REMARK SMILES IDX 9 1 10 2 11 3 12 4 13 5 14 6 15 7 16 8 17 9 18 10 19 11 8 12
REMARK SMILES IDX 7 13 6 14 5 15 4 16 3 17 2 18 1 19
REMARK H PARENT
REMARK Flexibility Score: inf
ROOT
ATOM      1  C   UNL     1      35.942  28.407  15.968  1.00  0.00     0.000 C 
ENDROOT
BRANCH   1   2
ATOM      2  C   UNL     1      36.302  27.277  14.996  1.00  0.00     0.000 C 
BRANCH   2   3
ATOM      3  C   UNL     1      36.162  27.739  13.538  1.00  0.00     0.000 C 
BRANCH   3   4
ATOM      4  C   UNL     1      35.179  26.876  12.726  1.00  0.00     0.000 C 
BRANCH   4   5
ATOM      5  C   UNL     1      34.119  27.661  11.930  1.00  0.00     0.001 C 
BRANCH   5   6
ATOM      6  C   UNL     1      34.069  29.179  12.200  1.00  0.00     0.009 C 
BRANCH   6   7
ATOM      7  C   UNL     1      32.689  29.687  12.689  1.00  0.00     0.032 C 
ATOM      8  C   UNL     1      32.666  31.219  12.750  1.00  0.00     0.014 C 
BRANCH   7   9
ATOM      9  C   UNL     1      32.329  29.131  14.041  1.00  0.00     0.044 C 
ATOM     10  O   UNL     1      31.189  28.635  14.248  1.00  0.00    -0.550 OA
ATOM     11  O   UNL     1      33.273  29.125  15.061  1.00  0.00    -0.550 OA
ENDBRANCH   7   9
ENDBRANCH   6   7
ENDBRANCH   5   6
ENDBRANCH   4   5
ENDBRANCH   3   4
ENDBRANCH   2   3
ENDBRANCH   1   2
BRANCH   1  12
ATOM     12  C   UNL     1      37.066  28.633  16.990  1.00  0.00     0.000 C 
BRANCH  12  13
ATOM     13  C   UNL     1      36.594  28.457  18.442  1.00  0.00    -0.000 C 
BRANCH  13  14
ATOM     14  C   UNL     1      35.234  29.124  18.706  1.00  0.00    -0.000 C 
BRANCH  14  15
ATOM     15  C   UNL     1      34.710  28.855  20.126  1.00  0.00    -0.000 C 
BRANCH  15  16
ATOM     16  C   UNL     1      35.641  29.404  21.217  1.00  0.00    -0.000 C 
BRANCH  16  17
ATOM     17  C   UNL     1      35.530  28.572  22.504  1.00  0.00    -0.000 C 
BRANCH  17  18
ATOM     18  C   UNL     1      35.356  29.443  23.758  1.00  0.00    -0.003 C 
ATOM     19  C   UNL     1      35.773  28.723  25.041  1.00  0.00     0.004 C 
ENDBRANCH  17  18
ENDBRANCH  16  17
ENDBRANCH  15  16
ENDBRANCH  14  15
ENDBRANCH  13  14
ENDBRANCH  12  13
ENDBRANCH   1  12
TORSDOF 14
ENDMDL
MODEL 8
REMARK VINA RESULT:    -2.092     16.119     18.250
REMARK INTER + INTRA:          -5.185
REMARK INTER:                  -4.030
REMARK INTRA:                  -1.154
REMARK UNBOUND:                -1.380
REMARK SMILES CCCCCCCCCCCCCC[C@H](C)C(=O)[O-]
REMARK SMILES IDX 9 1 10 2 11 3 12 4 13 5 14 6 15 7 16 8 17 9 18 10 19 11 8 12
REMARK SMILES IDX 7 13 6 14 5 15 4 16 3 17 2 18 1 19
REMARK H PARENT
REMARK Flexibility Score: inf
ROOT
ATOM      1  C   UNL     1      36.180  44.676  23.286  1.00  0.00     0.000 C 
ENDROOT
BRANCH   1   2
ATOM      2  C   UNL     1      35.350  44.789  24.570  1.00  0.00     0.000 C 
BRANCH   2   3
ATOM      3  C   UNL     1      34.952  43.400  25.092  1.00  0.00     0.000 C 
BRANCH   3   4
ATOM      4  C   UNL     1      33.483  43.045  24.799  1.00  0.00     0.000 C 
BRANCH   4   5
ATOM      5  C   UNL     1      32.650  44.173  24.159  1.00  0.00     0.001 C 
BRANCH   5   6
ATOM      6  C   UNL     1      31.520  43.714  23.214  1.00  0.00     0.009 C 
BRANCH   6   7
ATOM      7  C   UNL     1      31.386  44.571  21.930  1.00  0.00     0.032 C 
ATOM      8  C   UNL     1      32.702  44.577  21.143  1.00  0.00     0.014 C 
BRANCH   7   9
ATOM      9  C   UNL     1      30.985  45.989  22.235  1.00  0.00     0.044 C 
ATOM     10  O   UNL     1      31.378  46.939  21.505  1.00  0.00    -0.550 OA
ATOM     11  O   UNL     1      30.139  46.255  23.305  1.00  0.00    -0.550 OA
ENDBRANCH   7   9
ENDBRANCH   6   7
ENDBRANCH   5   6
ENDBRANCH   4   5
ENDBRANCH   3   4
ENDBRANCH   2   3
ENDBRANCH   1   2
BRANCH   1  12
ATOM     12  C   UNL     1      35.904  45.861  22.347  1.00  0.00     0.000 C 
BRANCH  12  13
ATOM     13  C   UNL     1      36.869  45.911  21.153  1.00  0.00    -0.000 C 
BRANCH  13  14
ATOM     14  C   UNL     1      36.823  44.631  20.301  1.00  0.00    -0.000 C 
BRANCH  14  15
ATOM     15  C   UNL     1      37.125  44.897  18.817  1.00  0.00    -0.000 C 
BRANCH  15  16
ATOM     16  C   UNL     1      37.001  43.636  17.950  1.00  0.00    -0.000 C 
BRANCH  16  17
ATOM     17  C   UNL     1      37.023  43.992  16.455  1.00  0.00    -0.000 C 
BRANCH  17  18
ATOM     18  C   UNL     1      37.059  45.508  16.210  1.00  0.00    -0.003 C 
ATOM     19  C   UNL     1      36.727  45.882  14.765  1.00  0.00     0.004 C 
ENDBRANCH  17  18
ENDBRANCH  16  17
ENDBRANCH  15  16
ENDBRANCH  14  15
ENDBRANCH  13  14
ENDBRANCH  12  13
ENDBRANCH   1  12
TORSDOF 14
ENDMDL
