MODEL 1
REMARK VINA RESULT:    -2.464      0.000      0.000
REMARK INTER + INTRA:         -10.346
REMARK INTER:                  -5.633
REMARK INTRA:                  -4.713
REMARK UNBOUND:                -4.713
REMARK SMILES CCCCCCCCCCCCCCCCCCCCCCCC(=O)[O-]
REMARK SMILES IDX 13 1 14 2 15 3 16 4 17 5 18 6 19 7 20 8 21 9 22 10 23 11
REMARK SMILES IDX 24 12 25 13 26 14 12 15 11 16 10 17 9 18 8 19 7 20 6 21 5 22
REMARK SMILES IDX 4 23 3 24 2 25 1 26
REMARK H PARENT
REMARK Flexibility Score: inf
ROOT
ATOM      1  C   UNL     1      55.885 -35.155  26.995  1.00  0.00     0.000 C 
ENDROOT
BRANCH   1   2
ATOM      2  C   UNL     1      55.513 -36.563  26.499  1.00  0.00     0.000 C 
BRANCH   2   3
ATOM      3  C   UNL     1      54.001 -36.869  26.454  1.00  0.00     0.000 C 
BRANCH   3   4
ATOM      4  C   UNL     1      53.087 -35.769  27.024  1.00  0.00     0.000 C 
BRANCH   4   5
ATOM      5  C   UNL     1      51.678 -35.784  26.406  1.00  0.00     0.000 C 
BRANCH   5   6
ATOM      6  C   UNL     1      51.546 -36.772  25.232  1.00  0.00     0.000 C 
BRANCH   6   7
ATOM      7  C   UNL     1      50.447 -36.431  24.209  1.00  0.00     0.000 C 
BRANCH   7   8
ATOM      8  C   UNL     1      50.056 -34.942  24.222  1.00  0.00     0.000 C 
BRANCH   8   9
ATOM      9  C   UNL     1      50.606 -34.178  23.007  1.00  0.00     0.000 C 
BRANCH   9  10
ATOM     10  C   UNL     1      50.203 -32.693  23.012  1.00  0.00     0.006 C 
BRANCH  10  11
ATOM     11  C   UNL     1      51.421 -31.762  23.075  1.00  0.00     0.053 C 
BRANCH  11  12
ATOM     12  C   UNL     1      51.024 -30.344  23.348  1.00  0.00     0.041 C 
ATOM     13  O   UNL     1      50.314 -29.714  22.522  1.00  0.00    -0.550 OA
ATOM     14  O   UNL     1      51.413 -29.730  24.533  1.00  0.00    -0.550 OA
ENDBRANCH  11  12
ENDBRANCH  10  11
ENDBRANCH   9  10
ENDBRANCH   8   9
ENDBRANCH   7   8
ENDBRANCH   6   7
ENDBRANCH   5   6
ENDBRANCH   4   5
ENDBRANCH   3   4
ENDBRANCH   2   3
ENDBRANCH   1   2
BRANCH   1  15
ATOM     15  C   UNL     1      57.298 -34.726  26.565  1.00  0.00     0.000 C 
BRANCH  15  16
ATOM     16  C   UNL     1      57.874 -35.619  25.453  1.00  0.00     0.000 C 
BRANCH  16  17
ATOM     17  C   UNL     1      58.333 -34.821  24.224  1.00  0.00     0.000 C 
BRANCH  17  18
ATOM     18  C   UNL     1      58.186 -35.653  22.945  1.00  0.00    -0.000 C 
BRANCH  18  19
ATOM     19  C   UNL     1      57.231 -36.838  23.162  1.00  0.00    -0.000 C 
BRANCH  19  20
ATOM     20  C   UNL     1      56.075 -36.856  22.139  1.00  0.00    -0.000 C 
BRANCH  20  21
ATOM     21  C   UNL     1      55.303 -35.524  22.048  1.00  0.00    -0.000 C 
BRANCH  21  22
ATOM     22  C   UNL     1      54.096 -35.406  22.996  1.00  0.00    -0.000 C 
BRANCH  22  23
ATOM     23  C   UNL     1      54.185 -34.185  23.924  1.00  0.00    -0.000 C 
BRANCH  23  24
ATOM     24  C   UNL     1      55.178 -33.152  23.375  1.00  0.00    -0.000 C 
BRANCH  24  25
ATOM     25  C   UNL     1      55.550 -32.123  24.448  1.00  0.00    -0.003 C 
ATOM     26  C   UNL     1      54.354 -31.798  25.338  1.00  0.00     0.004 C 
ENDBRANCH  24  25
ENDBRANCH  23  24
ENDBRANCH  22  23
ENDBRANCH  21  22
ENDBRANCH  20  21
ENDBRANCH  19  20
ENDBRANCH  18  19
ENDBRANCH  17  18
ENDBRANCH  16  17
ENDBRANCH  15  16
ENDBRANCH   1  15
TORSDOF 22
ENDMDL
MODEL 2
REMARK VINA RESULT:    -2.312      2.060      5.299
REMARK INTER + INTRA:          -9.998
REMARK INTER:                  -5.686
REMARK INTRA:                  -4.312
REMARK UNBOUND:                -4.713
REMARK SMILES CCCCCCCCCCCCCCCCCCCCCCCC(=O)[O-]
REMARK SMILES IDX 13 1 14 2 15 3 16 4 17 5 18 6 19 7 20 8 21 9 22 10 23 11
REMARK SMILES IDX 24 12 25 13 26 14 12 15 11 16 10 17 9 18 8 19 7 20 6 21 5 22
REMARK SMILES IDX 4 23 3 24 2 25 1 26
REMARK H PARENT
REMARK Flexibility Score: inf
ROOT
ATOM      1  C   UNL     1      55.726 -36.158  26.512  1.00  0.00     0.000 C 
ENDROOT
BRANCH   1   2
ATOM      2  C   UNL     1      56.763 -36.752  25.542  1.00  0.00     0.000 C 
BRANCH   2   3
ATOM      3  C   UNL     1      57.695 -35.726  24.865  1.00  0.00     0.000 C 
BRANCH   3   4
ATOM      4  C   UNL     1      57.732 -35.780  23.326  1.00  0.00     0.000 C 
BRANCH   4   5
ATOM      5  C   UNL     1      56.650 -36.701  22.735  1.00  0.00     0.000 C 
BRANCH   5   6
ATOM      6  C   UNL     1      55.523 -35.928  22.026  1.00  0.00     0.000 C 
BRANCH   6   7
ATOM      7  C   UNL     1      54.460 -35.317  22.959  1.00  0.00     0.000 C 
BRANCH   7   8
ATOM      8  C   UNL     1      54.572 -33.786  23.074  1.00  0.00     0.000 C 
BRANCH   8   9
ATOM      9  C   UNL     1      54.857 -33.323  24.512  1.00  0.00     0.000 C 
BRANCH   9  10
ATOM     10  C   UNL     1      55.164 -31.818  24.596  1.00  0.00     0.006 C 
BRANCH  10  11
ATOM     11  C   UNL     1      56.589 -31.490  24.129  1.00  0.00     0.053 C 
BRANCH  11  12
ATOM     12  C   UNL     1      56.858 -30.017  24.158  1.00  0.00     0.041 C 
ATOM     13  O   UNL     1      55.957 -29.215  24.517  1.00  0.00    -0.550 OA
ATOM     14  O   UNL     1      58.117 -29.534  23.819  1.00  0.00    -0.550 OA
ENDBRANCH  11  12
ENDBRANCH  10  11
ENDBRANCH   9  10
ENDBRANCH   8   9
ENDBRANCH   7   8
ENDBRANCH   6   7
ENDBRANCH   5   6
ENDBRANCH   4   5
ENDBRANCH   3   4
ENDBRANCH   2   3
ENDBRANCH   1   2
BRANCH   1  15
ATOM     15  C   UNL     1      54.400 -36.937  26.515  1.00  0.00     0.000 C 
BRANCH  15  16
ATOM     16  C   UNL     1      53.171 -36.015  26.480  1.00  0.00     0.000 C 
BRANCH  16  17
ATOM     17  C   UNL     1      52.184 -36.375  25.359  1.00  0.00     0.000 C 
BRANCH  17  18
ATOM     18  C   UNL     1      51.290 -35.180  25.012  1.00  0.00    -0.000 C 
BRANCH  18  19
ATOM     19  C   UNL     1      51.470 -34.039  26.026  1.00  0.00    -0.000 C 
BRANCH  19  20
ATOM     20  C   UNL     1      51.361 -32.646  25.371  1.00  0.00    -0.000 C 
BRANCH  20  21
ATOM     21  C   UNL     1      51.074 -32.690  23.857  1.00  0.00    -0.000 C 
BRANCH  21  22
ATOM     22  C   UNL     1      51.651 -31.514  23.050  1.00  0.00    -0.000 C 
BRANCH  22  23
ATOM     23  C   UNL     1      50.617 -30.409  22.784  1.00  0.00    -0.000 C 
BRANCH  23  24
ATOM     24  C   UNL     1      51.052 -29.087  23.428  1.00  0.00    -0.000 C 
BRANCH  24  25
ATOM     25  C   UNL     1      52.466 -29.198  24.009  1.00  0.00    -0.003 C 
ATOM     26  C   UNL     1      52.487 -28.807  25.484  1.00  0.00     0.004 C 
ENDBRANCH  24  25
ENDBRANCH  23  24
ENDBRANCH  22  23
ENDBRANCH  21  22
ENDBRANCH  20  21
ENDBRANCH  19  20
ENDBRANCH  18  19
ENDBRANCH  17  18
ENDBRANCH  16  17
ENDBRANCH  15  16
ENDBRANCH   1  15
TORSDOF 22
ENDMDL
MODEL 3
REMARK VINA RESULT:    -2.296      2.913      6.571
REMARK INTER + INTRA:          -9.963
REMARK INTER:                  -5.860
REMARK INTRA:                  -4.103
REMARK UNBOUND:                -4.713
REMARK SMILES CCCCCCCCCCCCCCCCCCCCCCCC(=O)[O-]
REMARK SMILES IDX 13 1 14 2 15 3 16 4 17 5 18 6 19 7 20 8 21 9 22 10 23 11
REMARK SMILES IDX 24 12 25 13 26 14 12 15 11 16 10 17 9 18 8 19 7 20 6 21 5 22
REMARK SMILES IDX 4 23 3 24 2 25 1 26
REMARK H PARENT
REMARK Flexibility Score: inf
ROOT
ATOM      1  C   UNL     1      54.457 -35.201  24.226  1.00  0.00     0.000 C 
ENDROOT
BRANCH   1   2
ATOM      2  C   UNL     1      54.808 -34.821  22.777  1.00  0.00     0.000 C 
BRANCH   2   3
ATOM      3  C   UNL     1      55.683 -35.842  22.021  1.00  0.00     0.000 C 
BRANCH   3   4
ATOM      4  C   UNL     1      56.654 -36.657  22.895  1.00  0.00     0.000 C 
BRANCH   4   5
ATOM      5  C   UNL     1      58.125 -36.476  22.481  1.00  0.00     0.000 C 
BRANCH   5   6
ATOM      6  C   UNL     1      58.971 -35.768  23.555  1.00  0.00     0.000 C 
BRANCH   6   7
ATOM      7  C   UNL     1      58.599 -34.296  23.816  1.00  0.00     0.000 C 
BRANCH   7   8
ATOM      8  C   UNL     1      58.050 -34.059  25.235  1.00  0.00     0.000 C 
BRANCH   8   9
ATOM      9  C   UNL     1      56.991 -32.945  25.278  1.00  0.00     0.000 C 
BRANCH   9  10
ATOM     10  C   UNL     1      57.074 -32.005  24.064  1.00  0.00     0.006 C 
BRANCH  10  11
ATOM     11  C   UNL     1      57.842 -30.715  24.381  1.00  0.00     0.053 C 
BRANCH  11  12
ATOM     12  C   UNL     1      59.102 -30.605  23.579  1.00  0.00     0.041 C 
ATOM     13  O   UNL     1      60.175 -31.098  24.015  1.00  0.00    -0.550 OA
ATOM     14  O   UNL     1      59.082 -29.986  22.335  1.00  0.00    -0.550 OA
ENDBRANCH  11  12
ENDBRANCH  10  11
ENDBRANCH   9  10
ENDBRANCH   8   9
ENDBRANCH   7   8
ENDBRANCH   6   7
ENDBRANCH   5   6
ENDBRANCH   4   5
ENDBRANCH   3   4
ENDBRANCH   2   3
ENDBRANCH   1   2
BRANCH   1  15
ATOM     15  C   UNL     1      52.986 -35.617  24.392  1.00  0.00     0.000 C 
BRANCH  15  16
ATOM     16  C   UNL     1      52.105 -35.158  23.218  1.00  0.00     0.000 C 
BRANCH  16  17
ATOM     17  C   UNL     1      50.689 -34.758  23.655  1.00  0.00     0.000 C 
BRANCH  17  18
ATOM     18  C   UNL     1      50.218 -33.505  22.907  1.00  0.00    -0.000 C 
BRANCH  18  19
ATOM     19  C   UNL     1      50.533 -32.231  23.708  1.00  0.00    -0.000 C 
BRANCH  19  20
ATOM     20  C   UNL     1      51.691 -31.418  23.090  1.00  0.00    -0.000 C 
BRANCH  20  21
ATOM     21  C   UNL     1      53.066 -31.715  23.720  1.00  0.00    -0.000 C 
BRANCH  21  22
ATOM     22  C   UNL     1      53.076 -31.785  25.257  1.00  0.00    -0.000 C 
BRANCH  22  23
ATOM     23  C   UNL     1      53.914 -30.668  25.899  1.00  0.00    -0.000 C 
BRANCH  23  24
ATOM     24  C   UNL     1      54.320 -29.621  24.854  1.00  0.00    -0.000 C 
BRANCH  24  25
ATOM     25  C   UNL     1      53.566 -28.305  25.072  1.00  0.00    -0.003 C 
ATOM     26  C   UNL     1      52.754 -27.924  23.837  1.00  0.00     0.004 C 
ENDBRANCH  24  25
ENDBRANCH  23  24
ENDBRANCH  22  23
ENDBRANCH  21  22
ENDBRANCH  20  21
ENDBRANCH  19  20
ENDBRANCH  18  19
ENDBRANCH  17  18
ENDBRANCH  16  17
ENDBRANCH  15  16
ENDBRANCH   1  15
TORSDOF 22
ENDMDL
MODEL 4
REMARK VINA RESULT:    -2.220      2.795      6.129
REMARK INTER + INTRA:          -9.789
REMARK INTER:                  -5.589
REMARK INTRA:                  -4.200
REMARK UNBOUND:                -4.713
REMARK SMILES CCCCCCCCCCCCCCCCCCCCCCCC(=O)[O-]
REMARK SMILES IDX 13 1 14 2 15 3 16 4 17 5 18 6 19 7 20 8 21 9 22 10 23 11
REMARK SMILES IDX 24 12 25 13 26 14 12 15 11 16 10 17 9 18 8 19 7 20 6 21 5 22
REMARK SMILES IDX 4 23 3 24 2 25 1 26
REMARK H PARENT
REMARK Flexibility Score: inf
ROOT
ATOM      1  C   UNL     1      54.897 -33.639  25.690  1.00  0.00     0.000 C 
ENDROOT
BRANCH   1   2
ATOM      2  C   UNL     1      54.485 -32.930  24.388  1.00  0.00     0.000 C 
BRANCH   2   3
ATOM      3  C   UNL     1      54.901 -33.647  23.087  1.00  0.00     0.000 C 
BRANCH   3   4
ATOM      4  C   UNL     1      54.502 -35.132  22.993  1.00  0.00     0.000 C 
BRANCH   4   5
ATOM      5  C   UNL     1      55.374 -35.923  22.003  1.00  0.00     0.000 C 
BRANCH   5   6
ATOM      6  C   UNL     1      56.738 -36.328  22.592  1.00  0.00     0.000 C 
BRANCH   6   7
ATOM      7  C   UNL     1      56.752 -36.556  24.115  1.00  0.00     0.000 C 
BRANCH   7   8
ATOM      8  C   UNL     1      57.866 -35.769  24.829  1.00  0.00     0.000 C 
BRANCH   8   9
ATOM      9  C   UNL     1      58.362 -34.570  24.004  1.00  0.00     0.000 C 
BRANCH   9  10
ATOM     10  C   UNL     1      58.520 -33.296  24.852  1.00  0.00     0.006 C 
BRANCH  10  11
ATOM     11  C   UNL     1      58.104 -32.034  24.084  1.00  0.00     0.053 C 
BRANCH  11  12
ATOM     12  C   UNL     1      59.292 -31.272  23.582  1.00  0.00     0.041 C 
ATOM     13  O   UNL     1      60.129 -31.830  22.825  1.00  0.00    -0.550 OA
ATOM     14  O   UNL     1      59.457 -29.936  23.927  1.00  0.00    -0.550 OA
ENDBRANCH  11  12
ENDBRANCH  10  11
ENDBRANCH   9  10
ENDBRANCH   8   9
ENDBRANCH   7   8
ENDBRANCH   6   7
ENDBRANCH   5   6
ENDBRANCH   4   5
ENDBRANCH   3   4
ENDBRANCH   2   3
ENDBRANCH   1   2
BRANCH   1  15
ATOM     15  C   UNL     1      53.690 -34.139  26.503  1.00  0.00     0.000 C 
BRANCH  15  16
ATOM     16  C   UNL     1      53.579 -35.672  26.514  1.00  0.00     0.000 C 
BRANCH  16  17
ATOM     17  C   UNL     1      52.129 -36.166  26.407  1.00  0.00     0.000 C 
BRANCH  17  18
ATOM     18  C   UNL     1      51.792 -36.568  24.966  1.00  0.00    -0.000 C 
BRANCH  18  19
ATOM     19  C   UNL     1      50.591 -35.770  24.435  1.00  0.00    -0.000 C 
BRANCH  19  20
ATOM     20  C   UNL     1      50.929 -34.985  23.149  1.00  0.00    -0.000 C 
BRANCH  20  21
ATOM     21  C   UNL     1      51.062 -33.464  23.363  1.00  0.00    -0.000 C 
BRANCH  21  22
ATOM     22  C   UNL     1      50.717 -32.974  24.780  1.00  0.00    -0.000 C 
BRANCH  22  23
ATOM     23  C   UNL     1      50.407 -31.470  24.832  1.00  0.00    -0.000 C 
BRANCH  23  24
ATOM     24  C   UNL     1      51.698 -30.645  24.786  1.00  0.00    -0.000 C 
BRANCH  24  25
ATOM     25  C   UNL     1      51.795 -29.847  23.481  1.00  0.00    -0.003 C 
ATOM     26  C   UNL     1      52.279 -28.423  23.740  1.00  0.00     0.004 C 
ENDBRANCH  24  25
ENDBRANCH  23  24
ENDBRANCH  22  23
ENDBRANCH  21  22
ENDBRANCH  20  21
ENDBRANCH  19  20
ENDBRANCH  18  19
ENDBRANCH  17  18
ENDBRANCH  16  17
ENDBRANCH  15  16
ENDBRANCH   1  15
TORSDOF 22
ENDMDL
MODEL 5
REMARK VINA RESULT:    -2.203      1.844      3.355
REMARK INTER + INTRA:          -9.750
REMARK INTER:                  -5.412
REMARK INTRA:                  -4.338
REMARK UNBOUND:                -4.713
REMARK SMILES CCCCCCCCCCCCCCCCCCCCCCCC(=O)[O-]
REMARK SMILES IDX 13 1 14 2 15 3 16 4 17 5 18 6 19 7 20 8 21 9 22 10 23 11
REMARK SMILES IDX 24 12 25 13 26 14 12 15 11 16 10 17 9 18 8 19 7 20 6 21 5 22
REMARK SMILES IDX 4 23 3 24 2 25 1 26
REMARK H PARENT
REMARK Flexibility Score: inf
ROOT
ATOM      1  C   UNL     1      53.386 -35.065  26.582  1.00  0.00     0.000 C 
ENDROOT
BRANCH   1   2
ATOM      2  C   UNL     1      52.949 -36.523  26.359  1.00  0.00     0.000 C 
BRANCH   2   3
ATOM      3  C   UNL     1      51.425 -36.747  26.262  1.00  0.00     0.000 C 
BRANCH   3   4
ATOM      4  C   UNL     1      50.660 -35.727  25.398  1.00  0.00     0.000 C 
BRANCH   4   5
ATOM      5  C   UNL     1      50.700 -36.067  23.898  1.00  0.00     0.000 C 
BRANCH   5   6
ATOM      6  C   UNL     1      51.121 -34.873  23.022  1.00  0.00     0.000 C 
BRANCH   6   7
ATOM      7  C   UNL     1      50.329 -33.573  23.261  1.00  0.00     0.000 C 
BRANCH   7   8
ATOM      8  C   UNL     1      51.207 -32.312  23.174  1.00  0.00     0.000 C 
BRANCH   8   9
ATOM      9  C   UNL     1      51.945 -32.015  24.489  1.00  0.00     0.000 C 
BRANCH   9  10
ATOM     10  C   UNL     1      53.304 -31.331  24.262  1.00  0.00     0.006 C 
BRANCH  10  11
ATOM     11  C   UNL     1      53.280 -29.849  24.661  1.00  0.00     0.053 C 
BRANCH  11  12
ATOM     12  C   UNL     1      54.556 -29.432  25.326  1.00  0.00     0.041 C 
ATOM     13  O   UNL     1      54.948 -30.018  26.368  1.00  0.00    -0.550 OA
ATOM     14  O   UNL     1      55.327 -28.416  24.774  1.00  0.00    -0.550 OA
ENDBRANCH  11  12
ENDBRANCH  10  11
ENDBRANCH   9  10
ENDBRANCH   8   9
ENDBRANCH   7   8
ENDBRANCH   6   7
ENDBRANCH   5   6
ENDBRANCH   4   5
ENDBRANCH   3   4
ENDBRANCH   2   3
ENDBRANCH   1   2
BRANCH   1  15
ATOM     15  C   UNL     1      54.434 -34.596  25.559  1.00  0.00     0.000 C 
BRANCH  15  16
ATOM     16  C   UNL     1      54.479 -35.486  24.306  1.00  0.00     0.000 C 
BRANCH  16  17
ATOM     17  C   UNL     1      54.789 -34.700  23.024  1.00  0.00     0.000 C 
BRANCH  17  18
ATOM     18  C   UNL     1      55.332 -35.627  21.931  1.00  0.00    -0.000 C 
BRANCH  18  19
ATOM     19  C   UNL     1      56.333 -36.639  22.510  1.00  0.00    -0.000 C 
BRANCH  19  20
ATOM     20  C   UNL     1      57.793 -36.148  22.407  1.00  0.00    -0.000 C 
BRANCH  20  21
ATOM     21  C   UNL     1      58.406 -35.730  23.758  1.00  0.00    -0.000 C 
BRANCH  21  22
ATOM     22  C   UNL     1      58.472 -34.212  24.001  1.00  0.00    -0.000 C 
BRANCH  22  23
ATOM     23  C   UNL     1      57.994 -33.812  25.406  1.00  0.00    -0.000 C 
BRANCH  23  24
ATOM     24  C   UNL     1      57.377 -32.408  25.394  1.00  0.00    -0.000 C 
BRANCH  24  25
ATOM     25  C   UNL     1      56.979 -31.994  23.973  1.00  0.00    -0.003 C 
ATOM     26  C   UNL     1      57.641 -30.677  23.577  1.00  0.00     0.004 C 
ENDBRANCH  24  25
ENDBRANCH  23  24
ENDBRANCH  22  23
ENDBRANCH  21  22
ENDBRANCH  20  21
ENDBRANCH  19  20
ENDBRANCH  18  19
ENDBRANCH  17  18
ENDBRANCH  16  17
ENDBRANCH  15  16
ENDBRANCH   1  15
TORSDOF 22
ENDMDL
MODEL 6
REMARK VINA RESULT:    -2.196      2.383      6.431
REMARK INTER + INTRA:          -9.732
REMARK INTER:                  -5.497
REMARK INTRA:                  -4.236
REMARK UNBOUND:                -4.713
REMARK SMILES CCCCCCCCCCCCCCCCCCCCCCCC(=O)[O-]
REMARK SMILES IDX 13 1 14 2 15 3 16 4 17 5 18 6 19 7 20 8 21 9 22 10 23 11
REMARK SMILES IDX 24 12 25 13 26 14 12 15 11 16 10 17 9 18 8 19 7 20 6 21 5 22
REMARK SMILES IDX 4 23 3 24 2 25 1 26
REMARK H PARENT
REMARK Flexibility Score: inf
ROOT
ATOM      1  C   UNL     1      54.568 -35.254  24.210  1.00  0.00     0.000 C 
ENDROOT
BRANCH   1   2
ATOM      2  C   UNL     1      54.908 -34.831  22.770  1.00  0.00     0.000 C 
BRANCH   2   3
ATOM      3  C   UNL     1      55.714 -35.862  21.953  1.00  0.00     0.000 C 
BRANCH   3   4
ATOM      4  C   UNL     1      56.642 -36.778  22.774  1.00  0.00     0.000 C 
BRANCH   4   5
ATOM      5  C   UNL     1      58.082 -36.808  22.234  1.00  0.00     0.000 C 
BRANCH   5   6
ATOM      6  C   UNL     1      59.122 -36.334  23.266  1.00  0.00     0.000 C 
BRANCH   6   7
ATOM      7  C   UNL     1      58.928 -34.895  23.779  1.00  0.00     0.000 C 
BRANCH   7   8
ATOM      8  C   UNL     1      58.561 -34.835  25.273  1.00  0.00     0.000 C 
BRANCH   8   9
ATOM      9  C   UNL     1      57.539 -33.731  25.584  1.00  0.00     0.000 C 
BRANCH   9  10
ATOM     10  C   UNL     1      57.447 -32.679  24.465  1.00  0.00     0.006 C 
BRANCH  10  11
ATOM     11  C   UNL     1      58.327 -31.454  24.747  1.00  0.00     0.053 C 
BRANCH  11  12
ATOM     12  C   UNL     1      57.937 -30.282  23.900  1.00  0.00     0.041 C 
ATOM     13  O   UNL     1      58.641 -29.954  22.910  1.00  0.00    -0.550 OA
ATOM     14  O   UNL     1      56.776 -29.573  24.187  1.00  0.00    -0.550 OA
ENDBRANCH  11  12
ENDBRANCH  10  11
ENDBRANCH   9  10
ENDBRANCH   8   9
ENDBRANCH   7   8
ENDBRANCH   6   7
ENDBRANCH   5   6
ENDBRANCH   4   5
ENDBRANCH   3   4
ENDBRANCH   2   3
ENDBRANCH   1   2
BRANCH   1  15
ATOM     15  C   UNL     1      53.069 -35.537  24.408  1.00  0.00     0.000 C 
BRANCH  15  16
ATOM     16  C   UNL     1      52.218 -35.082  23.211  1.00  0.00     0.000 C 
BRANCH  16  17
ATOM     17  C   UNL     1      50.783 -34.703  23.607  1.00  0.00     0.000 C 
BRANCH  17  18
ATOM     18  C   UNL     1      50.250 -33.574  22.718  1.00  0.00    -0.000 C 
BRANCH  18  19
ATOM     19  C   UNL     1      50.406 -32.207  23.404  1.00  0.00    -0.000 C 
BRANCH  19  20
ATOM     20  C   UNL     1      51.735 -31.513  23.036  1.00  0.00    -0.000 C 
BRANCH  20  21
ATOM     21  C   UNL     1      52.506 -30.959  24.251  1.00  0.00    -0.000 C 
BRANCH  21  22
ATOM     22  C   UNL     1      53.888 -31.592  24.489  1.00  0.00    -0.000 C 
BRANCH  22  23
ATOM     23  C   UNL     1      54.071 -32.097  25.929  1.00  0.00    -0.000 C 
BRANCH  23  24
ATOM     24  C   UNL     1      52.782 -31.917  26.739  1.00  0.00    -0.000 C 
BRANCH  24  25
ATOM     25  C   UNL     1      52.177 -33.274  27.116  1.00  0.00    -0.003 C 
ATOM     26  C   UNL     1      50.657 -33.258  26.974  1.00  0.00     0.004 C 
ENDBRANCH  24  25
ENDBRANCH  23  24
ENDBRANCH  22  23
ENDBRANCH  21  22
ENDBRANCH  20  21
ENDBRANCH  19  20
ENDBRANCH  18  19
ENDBRANCH  17  18
ENDBRANCH  16  17
ENDBRANCH  15  16
ENDBRANCH   1  15
TORSDOF 22
ENDMDL
MODEL 7
REMARK VINA RESULT:    -2.176      2.312      6.635
REMARK INTER + INTRA:          -9.688
REMARK INTER:                  -5.380
REMARK INTRA:                  -4.308
REMARK UNBOUND:                -4.713
REMARK SMILES CCCCCCCCCCCCCCCCCCCCCCCC(=O)[O-]
REMARK SMILES IDX 13 1 14 2 15 3 16 4 17 5 18 6 19 7 20 8 21 9 22 10 23 11
REMARK SMILES IDX 24 12 25 13 26 14 12 15 11 16 10 17 9 18 8 19 7 20 6 21 5 22
REMARK SMILES IDX 4 23 3 24 2 25 1 26
REMARK H PARENT
REMARK Flexibility Score: inf
ROOT
ATOM      1  C   UNL     1      52.491 -35.630  24.301  1.00  0.00     0.000 C 
ENDROOT
BRANCH   1   2
ATOM      2  C   UNL     1      54.028 -35.573  24.231  1.00  0.00     0.000 C 
BRANCH   2   3
ATOM      3  C   UNL     1      54.603 -34.623  23.159  1.00  0.00     0.000 C 
BRANCH   3   4
ATOM      4  C   UNL     1      55.389 -35.305  22.024  1.00  0.00     0.000 C 
BRANCH   4   5
ATOM      5  C   UNL     1      56.036 -36.632  22.459  1.00  0.00     0.000 C 
BRANCH   5   6
ATOM      6  C   UNL     1      57.575 -36.575  22.473  1.00  0.00     0.000 C 
BRANCH   6   7
ATOM      7  C   UNL     1      58.201 -36.094  23.796  1.00  0.00     0.000 C 
BRANCH   7   8
ATOM      8  C   UNL     1      57.543 -36.726  25.036  1.00  0.00     0.000 C 
BRANCH   8   9
ATOM      9  C   UNL     1      57.123 -35.677  26.079  1.00  0.00     0.000 C 
BRANCH   9  10
ATOM     10  C   UNL     1      57.856 -34.337  25.895  1.00  0.00     0.006 C 
BRANCH  10  11
ATOM     11  C   UNL     1      56.883 -33.170  25.678  1.00  0.00     0.053 C 
BRANCH  11  12
ATOM     12  C   UNL     1      57.246 -32.361  24.471  1.00  0.00     0.041 C 
ATOM     13  O   UNL     1      58.403 -32.438  23.981  1.00  0.00    -0.550 OA
ATOM     14  O   UNL     1      56.295 -31.546  23.869  1.00  0.00    -0.550 OA
ENDBRANCH  11  12
ENDBRANCH  10  11
ENDBRANCH   9  10
ENDBRANCH   8   9
ENDBRANCH   7   8
ENDBRANCH   6   7
ENDBRANCH   5   6
ENDBRANCH   4   5
ENDBRANCH   3   4
ENDBRANCH   2   3
ENDBRANCH   1   2
BRANCH   1  15
ATOM     15  C   UNL     1      51.814 -34.845  23.165  1.00  0.00     0.000 C 
BRANCH  15  16
ATOM     16  C   UNL     1      50.456 -34.257  23.580  1.00  0.00     0.000 C 
BRANCH  16  17
ATOM     17  C   UNL     1      50.292 -32.786  23.172  1.00  0.00     0.000 C 
BRANCH  17  18
ATOM     18  C   UNL     1      51.650 -32.077  23.122  1.00  0.00    -0.000 C 
BRANCH  18  19
ATOM     19  C   UNL     1      51.478 -30.549  23.126  1.00  0.00    -0.000 C 
BRANCH  19  20
ATOM     20  C   UNL     1      50.319 -30.090  24.036  1.00  0.00    -0.000 C 
BRANCH  20  21
ATOM     21  C   UNL     1      50.756 -29.146  25.174  1.00  0.00    -0.000 C 
BRANCH  21  22
ATOM     22  C   UNL     1      52.241 -29.244  25.567  1.00  0.00    -0.000 C 
BRANCH  22  23
ATOM     23  C   UNL     1      52.481 -30.185  26.758  1.00  0.00    -0.000 C 
BRANCH  23  24
ATOM     24  C   UNL     1      53.726 -31.051  26.528  1.00  0.00    -0.000 C 
BRANCH  24  25
ATOM     25  C   UNL     1      53.337 -32.497  26.202  1.00  0.00    -0.003 C 
ATOM     26  C   UNL     1      51.960 -32.837  26.766  1.00  0.00     0.004 C 
ENDBRANCH  24  25
ENDBRANCH  23  24
ENDBRANCH  22  23
ENDBRANCH  21  22
ENDBRANCH  20  21
ENDBRANCH  19  20
ENDBRANCH  18  19
ENDBRANCH  17  18
ENDBRANCH  16  17
ENDBRANCH  15  16
ENDBRANCH   1  15
TORSDOF 22
ENDMDL
MODEL 8
REMARK VINA RESULT:    -2.172      1.478      2.856
REMARK INTER + INTRA:          -9.679
REMARK INTER:                  -5.105
REMARK INTRA:                  -4.574
REMARK UNBOUND:                -4.713
REMARK SMILES CCCCCCCCCCCCCCCCCCCCCCCC(=O)[O-]
REMARK SMILES IDX 13 1 14 2 15 3 16 4 17 5 18 6 19 7 20 8 21 9 22 10 23 11
REMARK SMILES IDX 24 12 25 13 26 14 12 15 11 16 10 17 9 18 8 19 7 20 6 21 5 22
REMARK SMILES IDX 4 23 3 24 2 25 1 26
REMARK H PARENT
REMARK Flexibility Score: inf
ROOT
ATOM      1  C   UNL     1      54.118 -34.450  23.471  1.00  0.00     0.000 C 
ENDROOT
BRANCH   1   2
ATOM      2  C   UNL     1      53.401 -35.641  24.133  1.00  0.00     0.000 C 
BRANCH   2   3
ATOM      3  C   UNL     1      53.437 -35.658  25.675  1.00  0.00     0.000 C 
BRANCH   3   4
ATOM      4  C   UNL     1      53.203 -34.297  26.357  1.00  0.00     0.000 C 
BRANCH   4   5
ATOM      5  C   UNL     1      51.929 -34.272  27.219  1.00  0.00     0.000 C 
BRANCH   5   6
ATOM      6  C   UNL     1      50.857 -33.306  26.681  1.00  0.00     0.000 C 
BRANCH   6   7
ATOM      7  C   UNL     1      50.149 -33.764  25.393  1.00  0.00     0.000 C 
BRANCH   7   8
ATOM      8  C   UNL     1      49.942 -32.621  24.382  1.00  0.00     0.000 C 
BRANCH   8   9
ATOM      9  C   UNL     1      50.928 -32.689  23.205  1.00  0.00     0.000 C 
BRANCH   9  10
ATOM     10  C   UNL     1      51.783 -31.417  23.078  1.00  0.00     0.006 C 
BRANCH  10  11
ATOM     11  C   UNL     1      50.925 -30.147  22.998  1.00  0.00     0.053 C 
BRANCH  11  12
ATOM     12  C   UNL     1      51.471 -29.051  23.860  1.00  0.00     0.041 C 
ATOM     13  O   UNL     1      52.368 -28.286  23.420  1.00  0.00    -0.550 OA
ATOM     14  O   UNL     1      50.966 -28.856  25.140  1.00  0.00    -0.550 OA
ENDBRANCH  11  12
ENDBRANCH  10  11
ENDBRANCH   9  10
ENDBRANCH   8   9
ENDBRANCH   7   8
ENDBRANCH   6   7
ENDBRANCH   5   6
ENDBRANCH   4   5
ENDBRANCH   3   4
ENDBRANCH   2   3
ENDBRANCH   1   2
BRANCH   1  15
ATOM     15  C   UNL     1      55.146 -34.888  22.415  1.00  0.00     0.000 C 
BRANCH  15  16
ATOM     16  C   UNL     1      55.600 -36.345  22.599  1.00  0.00     0.000 C 
BRANCH  16  17
ATOM     17  C   UNL     1      57.117 -36.523  22.440  1.00  0.00     0.000 C 
BRANCH  17  18
ATOM     18  C   UNL     1      57.744 -37.063  23.730  1.00  0.00    -0.000 C 
BRANCH  18  19
ATOM     19  C   UNL     1      56.852 -36.764  24.946  1.00  0.00    -0.000 C 
BRANCH  19  20
ATOM     20  C   UNL     1      57.564 -35.883  25.995  1.00  0.00    -0.000 C 
BRANCH  20  21
ATOM     21  C   UNL     1      57.186 -34.391  25.915  1.00  0.00    -0.000 C 
BRANCH  21  22
ATOM     22  C   UNL     1      57.776 -33.634  24.711  1.00  0.00    -0.000 C 
BRANCH  22  23
ATOM     23  C   UNL     1      57.021 -32.332  24.399  1.00  0.00    -0.000 C 
BRANCH  23  24
ATOM     24  C   UNL     1      55.942 -32.059  25.454  1.00  0.00    -0.000 C 
BRANCH  24  25
ATOM     25  C   UNL     1      54.985 -30.956  24.989  1.00  0.00    -0.003 C 
ATOM     26  C   UNL     1      53.906 -30.687  26.035  1.00  0.00     0.004 C 
ENDBRANCH  24  25
ENDBRANCH  23  24
ENDBRANCH  22  23
ENDBRANCH  21  22
ENDBRANCH  20  21
ENDBRANCH  19  20
ENDBRANCH  18  19
ENDBRANCH  17  18
ENDBRANCH  16  17
ENDBRANCH  15  16
ENDBRANCH   1  15
TORSDOF 22
ENDMDL
MODEL 9
REMARK VINA RESULT:    -2.128      1.737      3.594
REMARK INTER + INTRA:          -9.577
REMARK INTER:                  -5.438
REMARK INTRA:                  -4.140
REMARK UNBOUND:                -4.713
REMARK SMILES CCCCCCCCCCCCCCCCCCCCCCCC(=O)[O-]
REMARK SMILES IDX 13 1 14 2 15 3 16 4 17 5 18 6 19 7 20 8 21 9 22 10 23 11
REMARK SMILES IDX 24 12 25 13 26 14 12 15 11 16 10 17 9 18 8 19 7 20 6 21 5 22
REMARK SMILES IDX 4 23 3 24 2 25 1 26
REMARK H PARENT
REMARK Flexibility Score: inf
ROOT
ATOM      1  C   UNL     1      57.854 -32.467  24.266  1.00  0.00     0.000 C 
ENDROOT
BRANCH   1   2
ATOM      2  C   UNL     1      56.487 -32.509  24.970  1.00  0.00     0.000 C 
BRANCH   2   3
ATOM      3  C   UNL     1      55.359 -31.724  24.268  1.00  0.00     0.000 C 
BRANCH   3   4
ATOM      4  C   UNL     1      53.973 -31.818  24.935  1.00  0.00     0.000 C 
BRANCH   4   5
ATOM      5  C   UNL     1      52.820 -31.823  23.916  1.00  0.00     0.000 C 
BRANCH   5   6
ATOM      6  C   UNL     1      51.487 -32.302  24.519  1.00  0.00     0.000 C 
BRANCH   6   7
ATOM      7  C   UNL     1      50.269 -31.412  24.207  1.00  0.00     0.000 C 
BRANCH   7   8
ATOM      8  C   UNL     1      50.254 -30.904  22.754  1.00  0.00     0.000 C 
BRANCH   8   9
ATOM      9  C   UNL     1      50.181 -29.372  22.666  1.00  0.00     0.000 C 
BRANCH   9  10
ATOM     10  C   UNL     1      49.876 -28.717  24.023  1.00  0.00     0.006 C 
BRANCH  10  11
ATOM     11  C   UNL     1      50.907 -27.641  24.393  1.00  0.00     0.053 C 
BRANCH  11  12
ATOM     12  C   UNL     1      52.215 -28.244  24.806  1.00  0.00     0.041 C 
ATOM     13  O   UNL     1      52.324 -28.816  25.922  1.00  0.00    -0.550 OA
ATOM     14  O   UNL     1      53.304 -28.201  23.943  1.00  0.00    -0.550 OA
ENDBRANCH  11  12
ENDBRANCH  10  11
ENDBRANCH   9  10
ENDBRANCH   8   9
ENDBRANCH   7   8
ENDBRANCH   6   7
ENDBRANCH   5   6
ENDBRANCH   4   5
ENDBRANCH   3   4
ENDBRANCH   2   3
ENDBRANCH   1   2
BRANCH   1  15
ATOM     15  C   UNL     1      58.628 -33.790  24.390  1.00  0.00     0.000 C 
BRANCH  15  16
ATOM     16  C   UNL     1      57.801 -34.898  25.062  1.00  0.00     0.000 C 
BRANCH  16  17
ATOM     17  C   UNL     1      58.208 -36.307  24.607  1.00  0.00     0.000 C 
BRANCH  17  18
ATOM     18  C   UNL     1      57.089 -36.962  23.789  1.00  0.00    -0.000 C 
BRANCH  18  19
ATOM     19  C   UNL     1      56.942 -36.289  22.414  1.00  0.00    -0.000 C 
BRANCH  19  20
ATOM     20  C   UNL     1      55.465 -36.063  22.025  1.00  0.00    -0.000 C 
BRANCH  20  21
ATOM     21  C   UNL     1      54.739 -35.032  22.911  1.00  0.00    -0.000 C 
BRANCH  21  22
ATOM     22  C   UNL     1      53.261 -35.350  23.202  1.00  0.00    -0.000 C 
BRANCH  22  23
ATOM     23  C   UNL     1      53.004 -35.685  24.679  1.00  0.00    -0.000 C 
BRANCH  23  24
ATOM     24  C   UNL     1      54.276 -35.487  25.514  1.00  0.00    -0.000 C 
BRANCH  24  25
ATOM     25  C   UNL     1      53.938 -35.323  27.000  1.00  0.00    -0.003 C 
ATOM     26  C   UNL     1      52.644 -34.536  27.187  1.00  0.00     0.004 C 
ENDBRANCH  24  25
ENDBRANCH  23  24
ENDBRANCH  22  23
ENDBRANCH  21  22
ENDBRANCH  20  21
ENDBRANCH  19  20
ENDBRANCH  18  19
ENDBRANCH  17  18
ENDBRANCH  16  17
ENDBRANCH  15  16
ENDBRANCH   1  15
TORSDOF 22
ENDMDL
