MODEL 1
REMARK VINA RESULT:    23.822      0.000      0.000
REMARK INTER + INTRA:          38.799
REMARK INTER:                  36.355
REMARK INTRA:                   2.444
REMARK UNBOUND:                 2.444
REMARK SMILES CC1=CCC[C@H](C)C(=O)C[C@@H](C(C)C)C(=O)C1
REMARK SMILES IDX 8 1 9 2 6 3 7 4 5 5 4 6 3 7 2 8 1 9 10 11 11 12 15 13 16 14
REMARK SMILES IDX 17 15 12 17 13 18 14 19
REMARK H PARENT
REMARK Flexibility Score: 70.00
ROOT
ATOM      1  C   UNL     1       1.814  75.511  19.476  1.00  0.00     0.136 C 
ATOM      2  O   UNL     1       1.660  75.694  20.674  1.00  0.00    -0.299 OA
ENDROOT
BRANCH   1   3
ATOM      3  C   UNL     1       2.909  76.244  18.730  1.00  0.00     0.053 C 
ATOM      4  C   UNL     1       3.067  77.649  19.323  1.00  0.00     0.016 C 
BRANCH   3   5
ATOM      5  C   UNL     1       4.263  75.496  18.760  1.00  0.00     0.015 C 
BRANCH   5   6
ATOM      6  C   UNL     1       4.395  74.494  19.920  1.00  0.00     0.028 C 
BRANCH   6   7
ATOM      7  C   UNL     1       4.665  73.097  19.414  1.00  0.00    -0.028 C 
ATOM      8  C   UNL     1       4.416  72.654  18.160  1.00  0.00    -0.070 CG0
ATOM      9  C   UNL     1       4.728  71.214  17.843  1.00  0.00     0.039 C 
ATOM     10  G   UNL     1       3.848  73.541  17.070  1.00  0.00     0.000 G0
ENDBRANCH   6   7
ENDBRANCH   5   6
ENDBRANCH   3   5
ENDBRANCH   1   3
BRANCH   1  11
ATOM     11  C   UNL     1       0.847  74.613  18.740  1.00  0.00     0.087 C 
BRANCH  11  12
ATOM     12  C   UNL     1       1.520  73.318  18.219  1.00  0.00     0.066 C 
BRANCH  12  13
ATOM     13  C   UNL     1       2.369  73.643  17.000  1.00  0.00     0.140 C 
ATOM     14  O   UNL     1       1.822  73.944  15.948  1.00  0.00    -0.299 OA
BRANCH  13  15
ATOM     15  C   UNL     1       3.872  73.530  17.034  1.00  0.00     0.106 CG0
ATOM     16  G   UNL     1       4.359  72.635  18.157  1.00  0.00     0.000 G0
ENDBRANCH  13  15
ENDBRANCH  12  13
BRANCH  12  17
ATOM     17  C   UNL     1       0.475  72.209  17.875  1.00  0.00    -0.006 C 
ATOM     18  C   UNL     1      -0.763  72.271  18.788  1.00  0.00     0.008 C 
ATOM     19  C   UNL     1       1.097  70.804  17.978  1.00  0.00     0.008 C 
ENDBRANCH  12  17
ENDBRANCH  11  12
ENDBRANCH   1  11
TORSDOF 1
ENDMDL
MODEL 2
REMARK VINA RESULT:    24.173      1.820      3.047
REMARK INTER + INTRA:          39.336
REMARK INTER:                  37.912
REMARK INTRA:                   1.424
REMARK UNBOUND:                 2.444
REMARK SMILES CC1=CCC[C@H](C)C(=O)C[C@@H](C(C)C)C(=O)C1
REMARK SMILES IDX 8 1 9 2 6 3 7 4 5 5 4 6 3 7 2 8 1 9 10 11 11 12 15 13 16 14
REMARK SMILES IDX 17 15 12 17 13 18 14 19
REMARK H PARENT
REMARK Flexibility Score: 70.00
ROOT
ATOM      1  C   UNL     1       3.194  77.073  19.156  1.00  0.00     0.136 C 
ATOM      2  O   UNL     1       3.564  78.238  19.141  1.00  0.00    -0.299 OA
ENDROOT
BRANCH   1   3
ATOM      3  C   UNL     1       4.003  76.011  18.441  1.00  0.00     0.053 C 
ATOM      4  C   UNL     1       5.283  76.644  17.884  1.00  0.00     0.016 C 
BRANCH   3   5
ATOM      5  C   UNL     1       4.353  74.807  19.348  1.00  0.00     0.015 C 
BRANCH   5   6
ATOM      6  C   UNL     1       4.087  73.439  18.696  1.00  0.00     0.028 C 
BRANCH   6   7
ATOM      7  C   UNL     1       3.563  73.591  17.288  1.00  0.00    -0.028 C 
ATOM      8  C   UNL     1       2.258  73.595  16.931  1.00  0.00    -0.070 CG0
ATOM      9  C   UNL     1       1.925  73.733  15.467  1.00  0.00     0.039 C 
ATOM     10  G   UNL     1       1.129  73.474  17.935  1.00  0.00     0.000 G0
ENDBRANCH   6   7
ENDBRANCH   5   6
ENDBRANCH   3   5
ENDBRANCH   1   3
BRANCH   1  11
ATOM     11  C   UNL     1       1.883  76.726  19.822  1.00  0.00     0.087 C 
BRANCH  11  12
ATOM     12  C   UNL     1       1.630  75.199  19.875  1.00  0.00     0.066 C 
BRANCH  12  13
ATOM     13  C   UNL     1       0.851  74.771  18.641  1.00  0.00     0.140 C 
ATOM     14  O   UNL     1      -0.074  75.466  18.243  1.00  0.00    -0.299 OA
BRANCH  13  15
ATOM     15  C   UNL     1       1.141  73.470  17.937  1.00  0.00     0.106 CG0
ATOM     16  G   UNL     1       2.268  73.597  16.931  1.00  0.00     0.000 G0
ENDBRANCH  13  15
ENDBRANCH  12  13
BRANCH  12  17
ATOM     17  C   UNL     1       0.874  74.771  21.172  1.00  0.00    -0.006 C 
ATOM     18  C   UNL     1       1.786  74.791  22.413  1.00  0.00     0.008 C 
ATOM     19  C   UNL     1       0.265  73.364  21.027  1.00  0.00     0.008 C 
ENDBRANCH  12  17
ENDBRANCH  11  12
ENDBRANCH   1  11
TORSDOF 1
ENDMDL
MODEL 3
REMARK VINA RESULT:    24.459      2.105      4.738
REMARK INTER + INTRA:          39.772
REMARK INTER:                  34.464
REMARK INTRA:                   5.308
REMARK UNBOUND:                 2.444
REMARK SMILES CC1=CCC[C@H](C)C(=O)C[C@@H](C(C)C)C(=O)C1
REMARK SMILES IDX 8 1 9 2 6 3 7 4 5 5 4 6 3 7 2 8 1 9 10 11 11 12 15 13 16 14
REMARK SMILES IDX 17 15 12 17 13 18 14 19
REMARK H PARENT
REMARK Flexibility Score: 70.00
ROOT
ATOM      1  C   UNL     1       2.158  73.352  17.516  1.00  0.00     0.136 C 
ATOM      2  O   UNL     1       2.406  72.163  17.382  1.00  0.00    -0.299 OA
ENDROOT
BRANCH   1   3
ATOM      3  C   UNL     1       0.737  73.804  17.785  1.00  0.00     0.053 C 
ATOM      4  C   UNL     1      -0.015  72.688  18.519  1.00  0.00     0.016 C 
BRANCH   3   5
ATOM      5  C   UNL     1       0.667  75.120  18.596  1.00  0.00     0.015 C 
BRANCH   5   6
ATOM      6  C   UNL     1       1.853  75.324  19.555  1.00  0.00     0.028 C 
BRANCH   6   7
ATOM      7  C   UNL     1       1.952  76.760  20.011  1.00  0.00    -0.028 C 
ATOM      8  C   UNL     1       2.768  77.698  19.477  1.00  0.00    -0.070 CG0
ATOM      9  C   UNL     1       2.749  79.079  20.083  1.00  0.00     0.039 C 
ATOM     10  G   UNL     1       3.684  77.423  18.302  1.00  0.00     0.000 G0
ENDBRANCH   6   7
ENDBRANCH   5   6
ENDBRANCH   3   5
ENDBRANCH   1   3
BRANCH   1  11
ATOM     11  C   UNL     1       3.265  74.361  17.326  1.00  0.00     0.087 C 
BRANCH  11  12
ATOM     12  C   UNL     1       3.890  74.816  18.669  1.00  0.00     0.066 C 
BRANCH  12  13
ATOM     13  C   UNL     1       4.536  76.181  18.491  1.00  0.00     0.140 C 
ATOM     14  O   UNL     1       5.752  76.285  18.561  1.00  0.00    -0.299 OA
BRANCH  13  15
ATOM     15  C   UNL     1       3.707  77.427  18.305  1.00  0.00     0.106 CG0
ATOM     16  G   UNL     1       2.785  77.688  19.479  1.00  0.00     0.000 G0
ENDBRANCH  13  15
ENDBRANCH  12  13
BRANCH  12  17
ATOM     17  C   UNL     1       4.933  73.787  19.212  1.00  0.00    -0.006 C 
ATOM     18  C   UNL     1       4.626  72.349  18.754  1.00  0.00     0.008 C 
ATOM     19  C   UNL     1       4.997  73.815  20.751  1.00  0.00     0.008 C 
ENDBRANCH  12  17
ENDBRANCH  11  12
ENDBRANCH   1  11
TORSDOF 1
ENDMDL
MODEL 4
REMARK VINA RESULT:    24.760      1.947      4.790
REMARK INTER + INTRA:          40.231
REMARK INTER:                  38.435
REMARK INTRA:                   1.796
REMARK UNBOUND:                 2.444
REMARK SMILES CC1=CCC[C@H](C)C(=O)C[C@@H](C(C)C)C(=O)C1
REMARK SMILES IDX 8 1 9 2 6 3 7 4 5 5 4 6 3 7 2 8 1 9 10 11 11 12 15 13 16 14
REMARK SMILES IDX 17 15 12 17 13 18 14 19
REMARK H PARENT
REMARK Flexibility Score: 70.00
ROOT
ATOM      1  C   UNL     1       4.520  74.151  19.107  1.00  0.00     0.136 C 
ATOM      2  O   UNL     1       4.869  74.187  20.278  1.00  0.00    -0.299 OA
ENDROOT
BRANCH   1   3
ATOM      3  C   UNL     1       4.777  72.911  18.277  1.00  0.00     0.053 C 
ATOM      4  C   UNL     1       4.605  71.670  19.161  1.00  0.00     0.016 C 
BRANCH   3   5
ATOM      5  C   UNL     1       3.859  72.815  17.036  1.00  0.00     0.015 C 
BRANCH   5   6
ATOM      6  C   UNL     1       2.726  73.857  17.018  1.00  0.00     0.028 C 
BRANCH   6   7
ATOM      7  C   UNL     1       1.436  73.278  17.546  1.00  0.00    -0.028 C 
ATOM      8  C   UNL     1       0.551  73.925  18.339  1.00  0.00    -0.070 CG0
ATOM      9  C   UNL     1      -0.676  73.174  18.791  1.00  0.00     0.039 C 
ATOM     10  G   UNL     1       0.737  75.363  18.781  1.00  0.00     0.000 G0
ENDBRANCH   6   7
ENDBRANCH   5   6
ENDBRANCH   3   5
ENDBRANCH   1   3
BRANCH   1  11
ATOM     11  C   UNL     1       3.910  75.384  18.483  1.00  0.00     0.087 C 
BRANCH  11  12
ATOM     12  C   UNL     1       3.123  76.240  19.506  1.00  0.00     0.066 C 
BRANCH  12  13
ATOM     13  C   UNL     1       1.799  75.563  19.821  1.00  0.00     0.140 C 
ATOM     14  O   UNL     1       1.611  75.096  20.936  1.00  0.00    -0.299 OA
BRANCH  13  15
ATOM     15  C   UNL     1       0.734  75.385  18.768  1.00  0.00     0.106 CG0
ATOM     16  G   UNL     1       0.556  73.934  18.366  1.00  0.00     0.000 G0
ENDBRANCH  13  15
ENDBRANCH  12  13
BRANCH  12  17
ATOM     17  C   UNL     1       2.882  77.696  18.996  1.00  0.00    -0.006 C 
ATOM     18  C   UNL     1       4.008  78.181  18.064  1.00  0.00     0.008 C 
ATOM     19  C   UNL     1       2.749  78.685  20.169  1.00  0.00     0.008 C 
ENDBRANCH  12  17
ENDBRANCH  11  12
ENDBRANCH   1  11
TORSDOF 1
ENDMDL
MODEL 5
REMARK VINA RESULT:    24.983      1.505      3.907
REMARK INTER + INTRA:          40.573
REMARK INTER:                  38.019
REMARK INTRA:                   2.553
REMARK UNBOUND:                 2.444
REMARK SMILES CC1=CCC[C@H](C)C(=O)C[C@@H](C(C)C)C(=O)C1
REMARK SMILES IDX 8 1 9 2 6 3 7 4 5 5 4 6 3 7 2 8 1 9 10 11 11 12 15 13 16 14
REMARK SMILES IDX 17 15 12 17 13 18 14 19
REMARK H PARENT
REMARK Flexibility Score: 70.00
ROOT
ATOM      1  C   UNL     1       1.162  75.036  18.870  1.00  0.00     0.136 C 
ATOM      2  O   UNL     1       0.164  75.738  18.946  1.00  0.00    -0.299 OA
ENDROOT
BRANCH   1   3
ATOM      3  C   UNL     1       1.147  73.786  18.015  1.00  0.00     0.053 C 
ATOM      4  C   UNL     1      -0.306  73.411  17.700  1.00  0.00     0.016 C 
BRANCH   3   5
ATOM      5  C   UNL     1       1.955  73.942  16.705  1.00  0.00     0.015 C 
BRANCH   5   6
ATOM      6  C   UNL     1       3.478  74.009  16.918  1.00  0.00     0.028 C 
BRANCH   6   7
ATOM      7  C   UNL     1       4.045  72.656  17.275  1.00  0.00    -0.028 C 
ATOM      8  C   UNL     1       4.534  72.305  18.487  1.00  0.00    -0.070 CG0
ATOM      9  C   UNL     1       5.085  70.911  18.650  1.00  0.00     0.039 C 
ATOM     10  G   UNL     1       4.546  73.245  19.676  1.00  0.00     0.000 G0
ENDBRANCH   6   7
ENDBRANCH   5   6
ENDBRANCH   3   5
ENDBRANCH   1   3
BRANCH   1  11
ATOM     11  C   UNL     1       2.372  75.387  19.703  1.00  0.00     0.087 C 
BRANCH  11  12
ATOM     12  C   UNL     1       3.655  75.545  18.849  1.00  0.00     0.066 C 
BRANCH  12  13
ATOM     13  C   UNL     1       4.763  74.683  19.434  1.00  0.00     0.140 C 
ATOM     14  O   UNL     1       5.873  75.167  19.608  1.00  0.00    -0.299 OA
BRANCH  13  15
ATOM     15  C   UNL     1       4.549  73.221  19.736  1.00  0.00     0.106 CG0
ATOM     16  G   UNL     1       4.540  72.368  18.484  1.00  0.00     0.000 G0
ENDBRANCH  13  15
ENDBRANCH  12  13
BRANCH  12  17
ATOM     17  C   UNL     1       4.117  77.033  18.750  1.00  0.00    -0.006 C 
ATOM     18  C   UNL     1       2.962  78.021  18.997  1.00  0.00     0.008 C 
ATOM     19  C   UNL     1       4.742  77.335  17.375  1.00  0.00     0.008 C 
ENDBRANCH  12  17
ENDBRANCH  11  12
ENDBRANCH   1  11
TORSDOF 1
ENDMDL
MODEL 6
REMARK VINA RESULT:    25.159      2.150      3.815
REMARK INTER + INTRA:          40.840
REMARK INTER:                  39.754
REMARK INTRA:                   1.086
REMARK UNBOUND:                 2.444
REMARK SMILES CC1=CCC[C@H](C)C(=O)C[C@@H](C(C)C)C(=O)C1
REMARK SMILES IDX 8 1 9 2 6 3 7 4 5 5 4 6 3 7 2 8 1 9 10 11 11 12 15 13 16 14
REMARK SMILES IDX 17 15 12 17 13 18 14 19
REMARK H PARENT
REMARK Flexibility Score: 70.00
ROOT
ATOM      1  C   UNL     1       4.623  74.222  19.250  1.00  0.00     0.136 C 
ATOM      2  O   UNL     1       4.674  73.610  20.306  1.00  0.00    -0.299 OA
ENDROOT
BRANCH   1   3
ATOM      3  C   UNL     1       4.943  75.703  19.215  1.00  0.00     0.053 C 
ATOM      4  C   UNL     1       6.389  75.893  18.741  1.00  0.00     0.016 C 
BRANCH   3   5
ATOM      5  C   UNL     1       3.975  76.508  18.316  1.00  0.00     0.015 C 
BRANCH   5   6
ATOM      6  C   UNL     1       2.871  77.244  19.094  1.00  0.00     0.028 C 
BRANCH   6   7
ATOM      7  C   UNL     1       2.287  76.373  20.181  1.00  0.00    -0.028 C 
ATOM      8  C   UNL     1       1.383  75.384  19.994  1.00  0.00    -0.070 CG0
ATOM      9  C   UNL     1       0.893  74.635  21.207  1.00  0.00     0.039 C 
ATOM     10  G   UNL     1       0.853  74.998  18.627  1.00  0.00     0.000 G0
ENDBRANCH   6   7
ENDBRANCH   5   6
ENDBRANCH   3   5
ENDBRANCH   1   3
BRANCH   1  11
ATOM     11  C   UNL     1       4.159  73.504  18.005  1.00  0.00     0.087 C 
BRANCH  11  12
ATOM     12  C   UNL     1       2.996  74.241  17.294  1.00  0.00     0.066 C 
BRANCH  12  13
ATOM     13  C   UNL     1       1.684  73.904  17.986  1.00  0.00     0.140 C 
ATOM     14  O   UNL     1       1.267  72.754  17.958  1.00  0.00    -0.299 OA
BRANCH  13  15
ATOM     15  C   UNL     1       0.844  74.968  18.646  1.00  0.00     0.106 CG0
ATOM     16  G   UNL     1       1.403  75.395  19.988  1.00  0.00     0.000 G0
ENDBRANCH  13  15
ENDBRANCH  12  13
BRANCH  12  17
ATOM     17  C   UNL     1       2.916  73.889  15.775  1.00  0.00    -0.006 C 
ATOM     18  C   UNL     1       4.059  74.530  14.966  1.00  0.00     0.008 C 
ATOM     19  C   UNL     1       1.571  74.331  15.168  1.00  0.00     0.008 C 
ENDBRANCH  12  17
ENDBRANCH  11  12
ENDBRANCH   1  11
TORSDOF 1
ENDMDL
MODEL 7
REMARK VINA RESULT:    25.540      1.772      3.593
REMARK INTER + INTRA:          41.422
REMARK INTER:                  39.401
REMARK INTRA:                   2.020
REMARK UNBOUND:                 2.444
REMARK SMILES CC1=CCC[C@H](C)C(=O)C[C@@H](C(C)C)C(=O)C1
REMARK SMILES IDX 8 1 9 2 6 3 7 4 5 5 4 6 3 7 2 8 1 9 10 11 11 12 15 13 16 14
REMARK SMILES IDX 17 15 12 17 13 18 14 19
REMARK H PARENT
REMARK Flexibility Score: 70.00
ROOT
ATOM      1  C   UNL     1       4.150  76.069  18.727  1.00  0.00     0.136 C 
ATOM      2  O   UNL     1       4.974  76.242  17.842  1.00  0.00    -0.299 OA
ENDROOT
BRANCH   1   3
ATOM      3  C   UNL     1       3.576  77.257  19.471  1.00  0.00     0.053 C 
ATOM      4  C   UNL     1       3.318  78.396  18.477  1.00  0.00     0.016 C 
BRANCH   3   5
ATOM      5  C   UNL     1       2.278  76.916  20.242  1.00  0.00     0.015 C 
BRANCH   5   6
ATOM      6  C   UNL     1       1.741  75.501  19.961  1.00  0.00     0.028 C 
BRANCH   6   7
ATOM      7  C   UNL     1       0.612  75.529  18.958  1.00  0.00    -0.028 C 
ATOM      8  C   UNL     1       0.394  74.603  17.996  1.00  0.00    -0.070 CG0
ATOM      9  C   UNL     1      -0.774  74.811  17.066  1.00  0.00     0.039 C 
ATOM     10  G   UNL     1       1.263  73.373  17.822  1.00  0.00     0.000 G0
ENDBRANCH   6   7
ENDBRANCH   5   6
ENDBRANCH   3   5
ENDBRANCH   1   3
BRANCH   1  11
ATOM     11  C   UNL     1       3.779  74.659  19.122  1.00  0.00     0.087 C 
BRANCH  11  12
ATOM     12  C   UNL     1       3.884  73.665  17.939  1.00  0.00     0.066 C 
BRANCH  12  13
ATOM     13  C   UNL     1       2.581  73.670  17.154  1.00  0.00     0.140 C 
ATOM     14  O   UNL     1       2.592  73.984  15.972  1.00  0.00    -0.299 OA
BRANCH  13  15
ATOM     15  C   UNL     1       1.261  73.369  17.817  1.00  0.00     0.106 CG0
ATOM     16  G   UNL     1       0.406  74.609  17.991  1.00  0.00     0.000 G0
ENDBRANCH  13  15
ENDBRANCH  12  13
BRANCH  12  17
ATOM     17  C   UNL     1       4.226  72.217  18.414  1.00  0.00    -0.006 C 
ATOM     18  C   UNL     1       4.772  72.190  19.854  1.00  0.00     0.008 C 
ATOM     19  C   UNL     1       5.255  71.550  17.482  1.00  0.00     0.008 C 
ENDBRANCH  12  17
ENDBRANCH  11  12
ENDBRANCH   1  11
TORSDOF 1
ENDMDL
MODEL 8
REMARK VINA RESULT:    26.282      2.063      4.432
REMARK INTER + INTRA:          42.555
REMARK INTER:                  41.990
REMARK INTRA:                   0.565
REMARK UNBOUND:                 2.444
REMARK SMILES CC1=CCC[C@H](C)C(=O)C[C@@H](C(C)C)C(=O)C1
REMARK SMILES IDX 8 1 9 2 6 3 7 4 5 5 4 6 3 7 2 8 1 9 10 11 11 12 15 13 16 14
REMARK SMILES IDX 17 15 12 17 13 18 14 19
REMARK H PARENT
REMARK Flexibility Score: 70.00
ROOT
ATOM      1  C   UNL     1       2.497  73.658  17.335  1.00  0.00     0.136 C 
ATOM      2  O   UNL     1       2.657  73.762  16.128  1.00  0.00    -0.299 OA
ENDROOT
BRANCH   1   3
ATOM      3  C   UNL     1       3.635  73.179  18.212  1.00  0.00     0.053 C 
ATOM      4  C   UNL     1       4.239  71.909  17.603  1.00  0.00     0.016 C 
BRANCH   3   5
ATOM      5  C   UNL     1       4.734  74.250  18.412  1.00  0.00     0.015 C 
BRANCH   5   6
ATOM      6  C   UNL     1       4.395  75.295  19.490  1.00  0.00     0.028 C 
BRANCH   6   7
ATOM      7  C   UNL     1       4.230  76.671  18.892  1.00  0.00    -0.028 C 
ATOM      8  C   UNL     1       3.161  77.481  19.069  1.00  0.00    -0.070 CG0
ATOM      9  C   UNL     1       3.161  78.816  18.369  1.00  0.00     0.039 C 
ATOM     10  G   UNL     1       1.978  77.108  19.941  1.00  0.00     0.000 G0
ENDBRANCH   6   7
ENDBRANCH   5   6
ENDBRANCH   3   5
ENDBRANCH   1   3
BRANCH   1  11
ATOM     11  C   UNL     1       1.132  73.931  17.922  1.00  0.00     0.087 C 
BRANCH  11  12
ATOM     12  C   UNL     1       0.895  75.436  18.197  1.00  0.00     0.066 C 
BRANCH  12  13
ATOM     13  C   UNL     1       1.383  75.780  19.595  1.00  0.00     0.140 C 
ATOM     14  O   UNL     1       1.236  74.970  20.500  1.00  0.00    -0.299 OA
BRANCH  13  15
ATOM     15  C   UNL     1       1.980  77.128  19.913  1.00  0.00     0.106 CG0
ATOM     16  G   UNL     1       3.170  77.455  19.032  1.00  0.00     0.000 G0
ENDBRANCH  13  15
ENDBRANCH  12  13
BRANCH  12  17
ATOM     17  C   UNL     1      -0.606  75.836  18.031  1.00  0.00    -0.006 C 
ATOM     18  C   UNL     1      -1.214  75.290  16.726  1.00  0.00     0.008 C 
ATOM     19  C   UNL     1      -0.784  77.366  18.059  1.00  0.00     0.008 C 
ENDBRANCH  12  17
ENDBRANCH  11  12
ENDBRANCH   1  11
TORSDOF 1
ENDMDL
