MODEL 1
REMARK VINA RESULT:    -3.989      0.000      0.000
REMARK INTER + INTRA:          -5.800
REMARK INTER:                  -6.088
REMARK INTRA:                   0.288
REMARK UNBOUND:                 0.288
REMARK SMILES CC1=CCC[C@H](C)C(=O)C[C@H](C(C)C)C(=O)C1
REMARK SMILES IDX 8 1 9 2 6 3 7 4 5 5 4 6 3 7 2 8 1 9 10 11 11 12 15 13 16 14
REMARK SMILES IDX 17 15 12 17 13 18 14 19
REMARK H PARENT
REMARK Flexibility Score: 70.00
ROOT
ATOM      1  C   UNL     1       8.122 -27.137 -13.291  1.00  0.00     0.136 C 
ATOM      2  O   UNL     1       8.237 -26.129 -13.973  1.00  0.00    -0.299 OA
ENDROOT
BRANCH   1   3
ATOM      3  C   UNL     1       7.604 -28.401 -13.954  1.00  0.00     0.053 C 
ATOM      4  C   UNL     1       7.739 -28.353 -15.483  1.00  0.00     0.016 C 
BRANCH   3   5
ATOM      5  C   UNL     1       8.170 -29.684 -13.298  1.00  0.00     0.015 C 
BRANCH   5   6
ATOM      6  C   UNL     1       7.345 -30.255 -12.127  1.00  0.00     0.028 C 
BRANCH   6   7
ATOM      7  C   UNL     1       5.914 -29.798 -12.211  1.00  0.00    -0.028 C 
ATOM      8  C   UNL     1       5.373 -28.827 -11.440  1.00  0.00    -0.070 CG0
ATOM      9  C   UNL     1       3.938 -28.437 -11.695  1.00  0.00     0.039 C 
ATOM     10  G   UNL     1       6.137 -28.131 -10.323  1.00  0.00     0.000 G0
ENDBRANCH   6   7
ENDBRANCH   5   6
ENDBRANCH   3   5
ENDBRANCH   1   3
BRANCH   1  11
ATOM     11  C   UNL     1       8.526 -27.065 -11.834  1.00  0.00     0.087 C 
BRANCH  11  12
ATOM     12  C   UNL     1       7.668 -26.048 -11.040  1.00  0.00     0.066 C 
BRANCH  12  13
ATOM     13  C   UNL     1       6.342 -26.636 -10.567  1.00  0.00     0.140 C 
ATOM     14  O   UNL     1       5.428 -25.868 -10.301  1.00  0.00    -0.299 OA
BRANCH  13  15
ATOM     15  C   UNL     1       6.141 -28.112 -10.317  1.00  0.00     0.106 CG0
ATOM     16  G   UNL     1       5.367 -28.795 -11.434  1.00  0.00     0.000 G0
ENDBRANCH  13  15
ENDBRANCH  12  13
BRANCH  12  17
ATOM     17  C   UNL     1       8.479 -25.326  -9.916  1.00  0.00    -0.006 C 
ATOM     18  C   UNL     1       7.909 -23.933  -9.610  1.00  0.00     0.008 C 
ATOM     19  C   UNL     1       8.646 -26.130  -8.615  1.00  0.00     0.008 C 
ENDBRANCH  12  17
ENDBRANCH  11  12
ENDBRANCH   1  11
TORSDOF 1
ENDMDL
MODEL 2
REMARK VINA RESULT:    -3.972      2.411      3.859
REMARK INTER + INTRA:          -5.774
REMARK INTER:                  -5.993
REMARK INTRA:                   0.219
REMARK UNBOUND:                 0.288
REMARK SMILES CC1=CCC[C@H](C)C(=O)C[C@H](C(C)C)C(=O)C1
REMARK SMILES IDX 8 1 9 2 6 3 7 4 5 5 4 6 3 7 2 8 1 9 10 11 11 12 15 13 16 14
REMARK SMILES IDX 17 15 12 17 13 18 14 19
REMARK H PARENT
REMARK Flexibility Score: 70.00
ROOT
ATOM      1  C   UNL     1       6.649 -25.740 -10.355  1.00  0.00     0.136 C 
ATOM      2  O   UNL     1       5.699 -24.982 -10.226  1.00  0.00    -0.299 OA
ENDROOT
BRANCH   1   3
ATOM      3  C   UNL     1       6.373 -27.192 -10.703  1.00  0.00     0.053 C 
ATOM      4  C   UNL     1       4.948 -27.620 -10.322  1.00  0.00     0.016 C 
BRANCH   3   5
ATOM      5  C   UNL     1       6.783 -27.538 -12.155  1.00  0.00     0.015 C 
BRANCH   5   6
ATOM      6  C   UNL     1       8.202 -28.114 -12.330  1.00  0.00     0.028 C 
BRANCH   6   7
ATOM      7  C   UNL     1       8.542 -29.046 -11.198  1.00  0.00    -0.028 C 
ATOM      8  C   UNL     1       9.308 -28.712 -10.134  1.00  0.00    -0.070 CG0
ATOM      9  C   UNL     1       9.498 -29.741  -9.048  1.00  0.00     0.039 C 
ATOM     10  G   UNL     1       9.996 -27.362  -9.997  1.00  0.00     0.000 G0
ENDBRANCH   6   7
ENDBRANCH   5   6
ENDBRANCH   3   5
ENDBRANCH   1   3
BRANCH   1  11
ATOM     11  C   UNL     1       8.043 -25.176 -10.181  1.00  0.00     0.087 C 
BRANCH  11  12
ATOM     12  C   UNL     1       8.614 -25.455  -8.767  1.00  0.00     0.066 C 
BRANCH  12  13
ATOM     13  C   UNL     1       9.592 -26.625  -8.746  1.00  0.00     0.140 C 
ATOM     14  O   UNL     1      10.123 -26.920  -7.684  1.00  0.00    -0.299 OA
BRANCH  13  15
ATOM     15  C   UNL     1      10.012 -27.368  -9.993  1.00  0.00     0.106 CG0
ATOM     16  G   UNL     1       9.319 -28.715 -10.132  1.00  0.00     0.000 G0
ENDBRANCH  13  15
ENDBRANCH  12  13
BRANCH  12  17
ATOM     17  C   UNL     1       9.152 -24.164  -8.072  1.00  0.00    -0.006 C 
ATOM     18  C   UNL     1       8.562 -22.892  -8.700  1.00  0.00     0.008 C 
ATOM     19  C   UNL     1       8.982 -24.129  -6.543  1.00  0.00     0.008 C 
ENDBRANCH  12  17
ENDBRANCH  11  12
ENDBRANCH   1  11
TORSDOF 1
ENDMDL
MODEL 3
REMARK VINA RESULT:    -3.943      3.972      6.064
REMARK INTER + INTRA:          -5.730
REMARK INTER:                  -6.068
REMARK INTRA:                   0.338
REMARK UNBOUND:                 0.288
REMARK SMILES CC1=CCC[C@H](C)C(=O)C[C@H](C(C)C)C(=O)C1
REMARK SMILES IDX 8 1 9 2 6 3 7 4 5 5 4 6 3 7 2 8 1 9 10 11 11 12 15 13 16 14
REMARK SMILES IDX 17 15 12 17 13 18 14 19
REMARK H PARENT
REMARK Flexibility Score: 70.00
ROOT
ATOM      1  C   UNL     1       3.659 -25.506 -10.282  1.00  0.00     0.136 C 
ATOM      2  O   UNL     1       4.253 -24.439 -10.328  1.00  0.00    -0.299 OA
ENDROOT
BRANCH   1   3
ATOM      3  C   UNL     1       4.426 -26.774 -10.613  1.00  0.00     0.053 C 
ATOM      4  C   UNL     1       5.921 -26.652 -10.284  1.00  0.00     0.016 C 
BRANCH   3   5
ATOM      5  C   UNL     1       3.743 -28.042 -10.045  1.00  0.00     0.015 C 
BRANCH   5   6
ATOM      6  C   UNL     1       2.371 -28.391 -10.654  1.00  0.00     0.028 C 
BRANCH   6   7
ATOM      7  C   UNL     1       2.470 -28.528 -12.149  1.00  0.00    -0.028 C 
ATOM      8  C   UNL     1       1.784 -27.769 -13.035  1.00  0.00    -0.070 CG0
ATOM      9  C   UNL     1       2.048 -27.986 -14.505  1.00  0.00     0.039 C 
ATOM     10  G   UNL     1       0.754 -26.731 -12.617  1.00  0.00     0.000 G0
ENDBRANCH   6   7
ENDBRANCH   5   6
ENDBRANCH   3   5
ENDBRANCH   1   3
BRANCH   1  11
ATOM     11  C   UNL     1       2.201 -25.497  -9.875  1.00  0.00     0.087 C 
BRANCH  11  12
ATOM     12  C   UNL     1       1.313 -24.749 -10.902  1.00  0.00     0.066 C 
BRANCH  12  13
ATOM     13  C   UNL     1       1.358 -25.380 -12.291  1.00  0.00     0.140 C 
ATOM     14  O   UNL     1       1.833 -24.727 -13.210  1.00  0.00    -0.299 OA
BRANCH  13  15
ATOM     15  C   UNL     1       0.752 -26.729 -12.601  1.00  0.00     0.106 CG0
ATOM     16  G   UNL     1       1.793 -27.754 -13.023  1.00  0.00     0.000 G0
ENDBRANCH  13  15
ENDBRANCH  12  13
BRANCH  12  17
ATOM     17  C   UNL     1      -0.132 -24.489 -10.369  1.00  0.00    -0.006 C 
ATOM     18  C   UNL     1      -0.233 -24.735  -8.856  1.00  0.00     0.008 C 
ATOM     19  C   UNL     1      -0.719 -23.112 -10.724  1.00  0.00     0.008 C 
ENDBRANCH  12  17
ENDBRANCH  11  12
ENDBRANCH   1  11
TORSDOF 1
ENDMDL
MODEL 4
REMARK VINA RESULT:    -3.694      4.798      6.956
REMARK INTER + INTRA:          -5.349
REMARK INTER:                  -5.856
REMARK INTRA:                   0.506
REMARK UNBOUND:                 0.288
REMARK SMILES CC1=CCC[C@H](C)C(=O)C[C@H](C(C)C)C(=O)C1
REMARK SMILES IDX 8 1 9 2 6 3 7 4 5 5 4 6 3 7 2 8 1 9 10 11 11 12 15 13 16 14
REMARK SMILES IDX 17 15 12 17 13 18 14 19
REMARK H PARENT
REMARK Flexibility Score: 70.00
ROOT
ATOM      1  C   UNL     1       1.350 -26.590 -13.157  1.00  0.00     0.136 C 
ATOM      2  O   UNL     1       1.542 -26.792 -14.347  1.00  0.00    -0.299 OA
ENDROOT
BRANCH   1   3
ATOM      3  C   UNL     1       1.405 -27.772 -12.206  1.00  0.00     0.053 C 
ATOM      4  C   UNL     1       0.625 -28.983 -12.738  1.00  0.00     0.016 C 
BRANCH   3   5
ATOM      5  C   UNL     1       2.847 -28.088 -11.741  1.00  0.00     0.015 C 
BRANCH   5   6
ATOM      6  C   UNL     1       3.210 -27.619 -10.319  1.00  0.00     0.028 C 
BRANCH   6   7
ATOM      7  C   UNL     1       3.716 -26.201 -10.338  1.00  0.00    -0.028 C 
ATOM      8  C   UNL     1       3.020 -25.133  -9.885  1.00  0.00    -0.070 CG0
ATOM      9  C   UNL     1       3.697 -23.785  -9.912  1.00  0.00     0.039 C 
ATOM     10  G   UNL     1       1.591 -25.229  -9.373  1.00  0.00     0.000 G0
ENDBRANCH   6   7
ENDBRANCH   5   6
ENDBRANCH   3   5
ENDBRANCH   1   3
BRANCH   1  11
ATOM     11  C   UNL     1       1.093 -25.168 -12.706  1.00  0.00     0.087 C 
BRANCH  11  12
ATOM     12  C   UNL     1       0.044 -25.098 -11.566  1.00  0.00     0.066 C 
BRANCH  12  13
ATOM     13  C   UNL     1       0.608 -24.497 -10.282  1.00  0.00     0.140 C 
ATOM     14  O   UNL     1       0.325 -23.338 -10.011  1.00  0.00    -0.299 OA
BRANCH  13  15
ATOM     15  C   UNL     1       1.577 -25.232  -9.386  1.00  0.00     0.106 CG0
ATOM     16  G   UNL     1       3.016 -25.124  -9.867  1.00  0.00     0.000 G0
ENDBRANCH  13  15
ENDBRANCH  12  13
BRANCH  12  17
ATOM     17  C   UNL     1      -1.303 -24.459 -12.029  1.00  0.00    -0.006 C 
ATOM     18  C   UNL     1      -2.231 -24.165 -10.839  1.00  0.00     0.008 C 
ATOM     19  C   UNL     1      -1.161 -23.209 -12.914  1.00  0.00     0.008 C 
ENDBRANCH  12  17
ENDBRANCH  11  12
ENDBRANCH   1  11
TORSDOF 1
ENDMDL
MODEL 5
REMARK VINA RESULT:    -3.625      3.133      6.462
REMARK INTER + INTRA:          -5.245
REMARK INTER:                  -5.250
REMARK INTRA:                   0.006
REMARK UNBOUND:                 0.288
REMARK SMILES CC1=CCC[C@H](C)C(=O)C[C@H](C(C)C)C(=O)C1
REMARK SMILES IDX 8 1 9 2 6 3 7 4 5 5 4 6 3 7 2 8 1 9 10 11 11 12 15 13 16 14
REMARK SMILES IDX 17 15 12 17 13 18 14 19
REMARK H PARENT
REMARK Flexibility Score: 70.00
ROOT
ATOM      1  C   UNL     1       1.264 -26.244 -10.200  1.00  0.00     0.136 C 
ATOM      2  O   UNL     1       1.010 -26.198  -9.006  1.00  0.00    -0.299 OA
ENDROOT
BRANCH   1   3
ATOM      3  C   UNL     1       1.344 -24.938 -10.972  1.00  0.00     0.053 C 
ATOM      4  C   UNL     1       0.393 -23.871 -10.408  1.00  0.00     0.016 C 
BRANCH   3   5
ATOM      5  C   UNL     1       2.802 -24.460 -11.173  1.00  0.00     0.015 C 
BRANCH   5   6
ATOM      6  C   UNL     1       3.702 -24.518  -9.923  1.00  0.00     0.028 C 
BRANCH   6   7
ATOM      7  C   UNL     1       5.098 -24.944 -10.290  1.00  0.00    -0.028 C 
ATOM      8  C   UNL     1       5.499 -26.231 -10.412  1.00  0.00    -0.070 CG0
ATOM      9  C   UNL     1       6.918 -26.490 -10.855  1.00  0.00     0.039 C 
ATOM     10  G   UNL     1       4.595 -27.415 -10.106  1.00  0.00     0.000 G0
ENDBRANCH   6   7
ENDBRANCH   5   6
ENDBRANCH   3   5
ENDBRANCH   1   3
BRANCH   1  11
ATOM     11  C   UNL     1       1.506 -27.599 -10.830  1.00  0.00     0.087 C 
BRANCH  11  12
ATOM     12  C   UNL     1       2.642 -27.559 -11.883  1.00  0.00     0.066 C 
BRANCH  12  13
ATOM     13  C   UNL     1       3.982 -28.028 -11.323  1.00  0.00     0.140 C 
ATOM     14  O   UNL     1       4.528 -28.989 -11.847  1.00  0.00    -0.299 OA
BRANCH  13  15
ATOM     15  C   UNL     1       4.613 -27.424 -10.090  1.00  0.00     0.106 CG0
ATOM     16  G   UNL     1       5.483 -26.217 -10.409  1.00  0.00     0.000 G0
ENDBRANCH  13  15
ENDBRANCH  12  13
BRANCH  12  17
ATOM     17  C   UNL     1       2.241 -28.247 -13.226  1.00  0.00    -0.006 C 
ATOM     18  C   UNL     1       1.141 -29.300 -13.019  1.00  0.00     0.008 C 
ATOM     19  C   UNL     1       1.847 -27.283 -14.359  1.00  0.00     0.008 C 
ENDBRANCH  12  17
ENDBRANCH  11  12
ENDBRANCH   1  11
TORSDOF 1
ENDMDL
MODEL 6
REMARK VINA RESULT:    -3.590      7.931     10.291
REMARK INTER + INTRA:          -5.190
REMARK INTER:                  -5.502
REMARK INTRA:                   0.312
REMARK UNBOUND:                 0.288
REMARK SMILES CC1=CCC[C@H](C)C(=O)C[C@H](C(C)C)C(=O)C1
REMARK SMILES IDX 8 1 9 2 6 3 7 4 5 5 4 6 3 7 2 8 1 9 10 11 11 12 15 13 16 14
REMARK SMILES IDX 17 15 12 17 13 18 14 19
REMARK H PARENT
REMARK Flexibility Score: 70.00
ROOT
ATOM      1  C   UNL     1      -0.991 -24.034  -9.425  1.00  0.00     0.136 C 
ATOM      2  O   UNL     1      -0.765 -25.053  -8.790  1.00  0.00    -0.299 OA
ENDROOT
BRANCH   1   3
ATOM      3  C   UNL     1      -2.271 -23.270  -9.135  1.00  0.00     0.053 C 
ATOM      4  C   UNL     1      -1.998 -21.827  -8.688  1.00  0.00     0.016 C 
BRANCH   3   5
ATOM      5  C   UNL     1      -3.310 -23.407 -10.274  1.00  0.00     0.015 C 
BRANCH   5   6
ATOM      6  C   UNL     1      -3.803 -22.083 -10.890  1.00  0.00     0.028 C 
BRANCH   6   7
ATOM      7  C   UNL     1      -3.877 -22.188 -12.390  1.00  0.00    -0.028 C 
ATOM      8  C   UNL     1      -2.802 -22.305 -13.204  1.00  0.00    -0.070 CG0
ATOM      9  C   UNL     1      -3.050 -22.470 -14.683  1.00  0.00     0.039 C 
ATOM     10  G   UNL     1      -1.369 -22.258 -12.698  1.00  0.00     0.000 G0
ENDBRANCH   6   7
ENDBRANCH   5   6
ENDBRANCH   3   5
ENDBRANCH   1   3
BRANCH   1  11
ATOM     11  C   UNL     1       0.033 -23.585 -10.446  1.00  0.00     0.087 C 
BRANCH  11  12
ATOM     12  C   UNL     1      -0.062 -24.395 -11.764  1.00  0.00     0.066 C 
BRANCH  12  13
ATOM     13  C   UNL     1      -0.640 -23.580 -12.917  1.00  0.00     0.140 C 
ATOM     14  O   UNL     1      -0.442 -23.969 -14.060  1.00  0.00    -0.299 OA
BRANCH  13  15
ATOM     15  C   UNL     1      -1.353 -22.263 -12.716  1.00  0.00     0.106 CG0
ATOM     16  G   UNL     1      -2.795 -22.300 -13.200  1.00  0.00     0.000 G0
ENDBRANCH  13  15
ENDBRANCH  12  13
BRANCH  12  17
ATOM     17  C   UNL     1       1.269 -25.134 -12.112  1.00  0.00    -0.006 C 
ATOM     18  C   UNL     1       2.326 -24.949 -11.013  1.00  0.00     0.008 C 
ATOM     19  C   UNL     1       1.114 -26.626 -12.456  1.00  0.00     0.008 C 
ENDBRANCH  12  17
ENDBRANCH  11  12
ENDBRANCH   1  11
TORSDOF 1
ENDMDL
MODEL 7
REMARK VINA RESULT:    -3.460      1.705      4.452
REMARK INTER + INTRA:          -4.993
REMARK INTER:                  -5.074
REMARK INTRA:                   0.081
REMARK UNBOUND:                 0.288
REMARK SMILES CC1=CCC[C@H](C)C(=O)C[C@H](C(C)C)C(=O)C1
REMARK SMILES IDX 8 1 9 2 6 3 7 4 5 5 4 6 3 7 2 8 1 9 10 11 11 12 15 13 16 14
REMARK SMILES IDX 17 15 12 17 13 18 14 19
REMARK H PARENT
REMARK Flexibility Score: 70.00
ROOT
ATOM      1  C   UNL     1       6.601 -25.987 -10.279  1.00  0.00     0.136 C 
ATOM      2  O   UNL     1       5.928 -24.979 -10.432  1.00  0.00    -0.299 OA
ENDROOT
BRANCH   1   3
ATOM      3  C   UNL     1       8.114 -25.854 -10.291  1.00  0.00     0.053 C 
ATOM      4  C   UNL     1       8.675 -25.474  -8.912  1.00  0.00     0.016 C 
BRANCH   3   5
ATOM      5  C   UNL     1       8.807 -27.067 -10.956  1.00  0.00     0.015 C 
BRANCH   5   6
ATOM      6  C   UNL     1       8.830 -27.061 -12.498  1.00  0.00     0.028 C 
BRANCH   6   7
ATOM      7  C   UNL     1       8.935 -28.463 -13.035  1.00  0.00    -0.028 C 
ATOM      8  C   UNL     1       7.888 -29.191 -13.487  1.00  0.00    -0.070 CG0
ATOM      9  C   UNL     1       8.172 -30.558 -14.058  1.00  0.00     0.039 C 
ATOM     10  G   UNL     1       6.449 -28.702 -13.426  1.00  0.00     0.000 G0
ENDBRANCH   6   7
ENDBRANCH   5   6
ENDBRANCH   3   5
ENDBRANCH   1   3
BRANCH   1  11
ATOM     11  C   UNL     1       5.883 -27.301 -10.062  1.00  0.00     0.087 C 
BRANCH  11  12
ATOM     12  C   UNL     1       5.103 -27.755 -11.323  1.00  0.00     0.066 C 
BRANCH  12  13
ATOM     13  C   UNL     1       5.801 -28.886 -12.073  1.00  0.00     0.140 C 
ATOM     14  O   UNL     1       5.928 -29.965 -11.510  1.00  0.00    -0.299 OA
BRANCH  13  15
ATOM     15  C   UNL     1       6.430 -28.704 -13.435  1.00  0.00     0.106 CG0
ATOM     16  G   UNL     1       7.876 -29.172 -13.479  1.00  0.00     0.000 G0
ENDBRANCH  13  15
ENDBRANCH  12  13
BRANCH  12  17
ATOM     17  C   UNL     1       3.593 -28.024 -11.030  1.00  0.00    -0.006 C 
ATOM     18  C   UNL     1       2.856 -26.739 -10.622  1.00  0.00     0.008 C 
ATOM     19  C   UNL     1       2.829 -28.740 -12.158  1.00  0.00     0.008 C 
ENDBRANCH  12  17
ENDBRANCH  11  12
ENDBRANCH   1  11
TORSDOF 1
ENDMDL
MODEL 8
REMARK VINA RESULT:    -3.423      3.033      5.370
REMARK INTER + INTRA:          -4.936
REMARK INTER:                  -4.823
REMARK INTRA:                  -0.113
REMARK UNBOUND:                 0.288
REMARK SMILES CC1=CCC[C@H](C)C(=O)C[C@H](C(C)C)C(=O)C1
REMARK SMILES IDX 8 1 9 2 6 3 7 4 5 5 4 6 3 7 2 8 1 9 10 11 11 12 15 13 16 14
REMARK SMILES IDX 17 15 12 17 13 18 14 19
REMARK H PARENT
REMARK Flexibility Score: 70.00
ROOT
ATOM      1  C   UNL     1       2.280 -28.767 -12.880  1.00  0.00     0.136 C 
ATOM      2  O   UNL     1       1.244 -29.398 -12.729  1.00  0.00    -0.299 OA
ENDROOT
BRANCH   1   3
ATOM      3  C   UNL     1       2.267 -27.572 -13.818  1.00  0.00     0.053 C 
ATOM      4  C   UNL     1       2.310 -27.992 -15.294  1.00  0.00     0.016 C 
BRANCH   3   5
ATOM      5  C   UNL     1       1.150 -26.560 -13.468  1.00  0.00     0.015 C 
BRANCH   5   6
ATOM      6  C   UNL     1       0.837 -26.402 -11.967  1.00  0.00     0.028 C 
BRANCH   6   7
ATOM      7  C   UNL     1       1.650 -25.287 -11.367  1.00  0.00    -0.028 C 
ATOM      8  C   UNL     1       2.759 -25.467 -10.613  1.00  0.00    -0.070 CG0
ATOM      9  C   UNL     1       3.501 -24.240 -10.142  1.00  0.00     0.039 C 
ATOM     10  G   UNL     1       3.274 -26.839 -10.207  1.00  0.00     0.000 G0
ENDBRANCH   6   7
ENDBRANCH   5   6
ENDBRANCH   3   5
ENDBRANCH   1   3
BRANCH   1  11
ATOM     11  C   UNL     1       3.503 -29.203 -12.103  1.00  0.00     0.087 C 
BRANCH  11  12
ATOM     12  C   UNL     1       4.616 -28.124 -12.112  1.00  0.00     0.066 C 
BRANCH  12  13
ATOM     13  C   UNL     1       4.568 -27.218 -10.885  1.00  0.00     0.140 C 
ATOM     14  O   UNL     1       5.626 -26.851 -10.392  1.00  0.00    -0.299 OA
BRANCH  13  15
ATOM     15  C   UNL     1       3.280 -26.839 -10.193  1.00  0.00     0.106 CG0
ATOM     16  G   UNL     1       2.771 -25.469 -10.614  1.00  0.00     0.000 G0
ENDBRANCH  13  15
ENDBRANCH  12  13
BRANCH  12  17
ATOM     17  C   UNL     1       6.029 -28.721 -12.406  1.00  0.00    -0.006 C 
ATOM     18  C   UNL     1       6.220 -30.089 -11.732  1.00  0.00     0.008 C 
ATOM     19  C   UNL     1       6.402 -28.805 -13.896  1.00  0.00     0.008 C 
ENDBRANCH  12  17
ENDBRANCH  11  12
ENDBRANCH   1  11
TORSDOF 1
ENDMDL
MODEL 9
REMARK VINA RESULT:    -3.399      8.303     10.344
REMARK INTER + INTRA:          -4.900
REMARK INTER:                  -5.409
REMARK INTRA:                   0.509
REMARK UNBOUND:                 0.288
REMARK SMILES CC1=CCC[C@H](C)C(=O)C[C@H](C(C)C)C(=O)C1
REMARK SMILES IDX 8 1 9 2 6 3 7 4 5 5 4 6 3 7 2 8 1 9 10 11 11 12 15 13 16 14
REMARK SMILES IDX 17 15 12 17 13 18 14 19
REMARK H PARENT
REMARK Flexibility Score: 70.00
ROOT
ATOM      1  C   UNL     1      -1.533 -22.921 -13.324  1.00  0.00     0.136 C 
ATOM      2  O   UNL     1      -0.520 -22.330 -13.667  1.00  0.00    -0.299 OA
ENDROOT
BRANCH   1   3
ATOM      3  C   UNL     1      -2.874 -22.395 -13.804  1.00  0.00     0.053 C 
ATOM      4  C   UNL     1      -4.020 -23.375 -13.514  1.00  0.00     0.016 C 
BRANCH   3   5
ATOM      5  C   UNL     1      -3.137 -20.941 -13.343  1.00  0.00     0.015 C 
BRANCH   5   6
ATOM      6  C   UNL     1      -2.871 -20.655 -11.851  1.00  0.00     0.028 C 
BRANCH   6   7
ATOM      7  C   UNL     1      -3.599 -21.645 -10.981  1.00  0.00    -0.028 C 
ATOM      8  C   UNL     1      -3.018 -22.379 -10.004  1.00  0.00    -0.070 CG0
ATOM      9  C   UNL     1      -3.901 -23.277  -9.175  1.00  0.00     0.039 C 
ATOM     10  G   UNL     1      -1.523 -22.352  -9.723  1.00  0.00     0.000 G0
ENDBRANCH   6   7
ENDBRANCH   5   6
ENDBRANCH   3   5
ENDBRANCH   1   3
BRANCH   1  11
ATOM     11  C   UNL     1      -1.383 -24.154 -12.460  1.00  0.00     0.087 C 
BRANCH  11  12
ATOM     12  C   UNL     1      -0.269 -23.990 -11.394  1.00  0.00     0.066 C 
BRANCH  12  13
ATOM     13  C   UNL     1      -0.820 -23.644 -10.014  1.00  0.00     0.140 C 
ATOM     14  O   UNL     1      -0.766 -24.496  -9.137  1.00  0.00    -0.299 OA
BRANCH  13  15
ATOM     15  C   UNL     1      -1.518 -22.339  -9.710  1.00  0.00     0.106 CG0
ATOM     16  G   UNL     1      -3.009 -22.391 -10.005  1.00  0.00     0.000 G0
ENDBRANCH  13  15
ENDBRANCH  12  13
BRANCH  12  17
ATOM     17  C   UNL     1       0.743 -25.179 -11.395  1.00  0.00    -0.006 C 
ATOM     18  C   UNL     1       0.779 -25.893 -12.755  1.00  0.00     0.008 C 
ATOM     19  C   UNL     1       2.170 -24.819 -10.945  1.00  0.00     0.008 C 
ENDBRANCH  12  17
ENDBRANCH  11  12
ENDBRANCH   1  11
TORSDOF 1
ENDMDL
