MODEL 1
REMARK VINA RESULT:    -3.245      0.000      0.000
REMARK INTER + INTRA:          -3.455
REMARK INTER:                  -3.434
REMARK INTRA:                  -0.020
REMARK UNBOUND:                -0.020
REMARK SMILES O=C([O-])c1cccnc1
REMARK SMILES IDX 4 1 5 2 9 3 6 4 8 5 7 6 2 7 1 8 3 9
REMARK H PARENT
REMARK Flexibility Score: inf
ROOT
ATOM      1  C   UNL     1      63.783  35.270  61.091  1.00  0.00     0.016 A 
ATOM      2  C   UNL     1      62.490  35.759  60.835  1.00  0.00     0.013 A 
ATOM      3  C   UNL     1      64.042  33.911  60.847  1.00  0.00     0.120 A 
ATOM      4  C   UNL     1      61.500  34.904  60.351  1.00  0.00     0.021 A 
ATOM      5  N   UNL     1      63.059  33.098  60.374  1.00  0.00    -0.264 NA
ATOM      6  C   UNL     1      61.806  33.562  60.124  1.00  0.00     0.111 A 
ENDROOT
BRANCH   1   7
ATOM      7  C   UNL     1      64.846  36.160  61.604  1.00  0.00     0.073 C 
ATOM      8  O   UNL     1      66.028  36.059  61.180  1.00  0.00    -0.545 OA
ATOM      9  O   UNL     1      64.555  37.122  62.565  1.00  0.00    -0.545 OA
ENDBRANCH   1   7
TORSDOF 1
ENDMDL
MODEL 2
REMARK VINA RESULT:    -3.241      2.990      4.005
REMARK INTER + INTRA:          -3.451
REMARK INTER:                  -3.430
REMARK INTRA:                  -0.021
REMARK UNBOUND:                -0.020
REMARK SMILES O=C([O-])c1cccnc1
REMARK SMILES IDX 4 1 5 2 9 3 6 4 8 5 7 6 2 7 1 8 3 9
REMARK H PARENT
REMARK Flexibility Score: inf
ROOT
ATOM      1  C   UNL     1      62.813  34.826  60.768  1.00  0.00     0.016 A 
ATOM      2  C   UNL     1      64.146  34.616  61.160  1.00  0.00     0.013 A 
ATOM      3  C   UNL     1      62.270  36.114  60.912  1.00  0.00     0.120 A 
ATOM      4  C   UNL     1      64.899  35.670  61.677  1.00  0.00     0.021 A 
ATOM      5  N   UNL     1      63.025  37.125  61.419  1.00  0.00    -0.264 NA
ATOM      6  C   UNL     1      64.316  36.932  61.800  1.00  0.00     0.111 A 
ENDROOT
BRANCH   1   7
ATOM      7  C   UNL     1      61.998  33.721  60.218  1.00  0.00     0.073 C 
ATOM      8  O   UNL     1      61.121  33.946  59.342  1.00  0.00    -0.545 OA
ATOM      9  O   UNL     1      62.189  32.417  60.661  1.00  0.00    -0.545 OA
ENDBRANCH   1   7
TORSDOF 1
ENDMDL
MODEL 3
REMARK VINA RESULT:    -3.202     15.176     16.050
REMARK INTER + INTRA:          -3.409
REMARK INTER:                  -3.393
REMARK INTRA:                  -0.016
REMARK UNBOUND:                -0.020
REMARK SMILES O=C([O-])c1cccnc1
REMARK SMILES IDX 4 1 5 2 9 3 6 4 8 5 7 6 2 7 1 8 3 9
REMARK H PARENT
REMARK Flexibility Score: inf
ROOT
ATOM      1  C   UNL     1      55.764  26.644  50.203  1.00  0.00     0.016 A 
ATOM      2  C   UNL     1      54.787  25.886  49.535  1.00  0.00     0.013 A 
ATOM      3  C   UNL     1      55.459  27.971  50.547  1.00  0.00     0.120 A 
ATOM      4  C   UNL     1      53.549  26.452  49.228  1.00  0.00     0.021 A 
ATOM      5  N   UNL     1      54.244  28.499  50.237  1.00  0.00    -0.264 NA
ATOM      6  C   UNL     1      53.293  27.774  49.591  1.00  0.00     0.111 A 
ENDROOT
BRANCH   1   7
ATOM      7  C   UNL     1      57.082  26.063  50.536  1.00  0.00     0.073 C 
ATOM      8  O   UNL     1      58.041  26.139  49.722  1.00  0.00    -0.545 OA
ATOM      9  O   UNL     1      57.282  25.423  51.755  1.00  0.00    -0.545 OA
ENDBRANCH   1   7
TORSDOF 1
ENDMDL
MODEL 4
REMARK VINA RESULT:    -3.194      2.827      3.629
REMARK INTER + INTRA:          -3.401
REMARK INTER:                  -3.377
REMARK INTRA:                  -0.024
REMARK UNBOUND:                -0.020
REMARK SMILES O=C([O-])c1cccnc1
REMARK SMILES IDX 4 1 5 2 9 3 6 4 8 5 7 6 2 7 1 8 3 9
REMARK H PARENT
REMARK Flexibility Score: inf
ROOT
ATOM      1  C   UNL     1      63.145  34.643  60.883  1.00  0.00     0.016 A 
ATOM      2  C   UNL     1      62.346  35.798  60.825  1.00  0.00     0.013 A 
ATOM      3  C   UNL     1      64.450  34.759  61.389  1.00  0.00     0.120 A 
ATOM      4  C   UNL     1      62.852  37.022  61.264  1.00  0.00     0.021 A 
ATOM      5  N   UNL     1      64.919  35.964  61.811  1.00  0.00    -0.264 NA
ATOM      6  C   UNL     1      64.154  37.087  61.759  1.00  0.00     0.111 A 
ENDROOT
BRANCH   1   7
ATOM      7  C   UNL     1      62.628  33.336  60.422  1.00  0.00     0.073 C 
ATOM      8  O   UNL     1      61.409  33.192  60.140  1.00  0.00    -0.545 OA
ATOM      9  O   UNL     1      63.483  32.247  60.294  1.00  0.00    -0.545 OA
ENDBRANCH   1   7
TORSDOF 1
ENDMDL
MODEL 5
REMARK VINA RESULT:    -3.189      2.812      3.441
REMARK INTER + INTRA:          -3.395
REMARK INTER:                  -3.379
REMARK INTRA:                  -0.016
REMARK UNBOUND:                -0.020
REMARK SMILES O=C([O-])c1cccnc1
REMARK SMILES IDX 4 1 5 2 9 3 6 4 8 5 7 6 2 7 1 8 3 9
REMARK H PARENT
REMARK Flexibility Score: inf
ROOT
ATOM      1  C   UNL     1      63.538  33.569  60.575  1.00  0.00     0.016 A 
ATOM      2  C   UNL     1      62.208  33.836  60.206  1.00  0.00     0.013 A 
ATOM      3  C   UNL     1      64.287  34.602  61.163  1.00  0.00     0.120 A 
ATOM      4  C   UNL     1      61.659  35.100  60.425  1.00  0.00     0.021 A 
ATOM      5  N   UNL     1      63.728  35.826  61.366  1.00  0.00    -0.264 NA
ATOM      6  C   UNL     1      62.443  36.093  61.012  1.00  0.00     0.111 A 
ENDROOT
BRANCH   1   7
ATOM      7  C   UNL     1      64.137  32.237  60.351  1.00  0.00     0.073 C 
ATOM      8  O   UNL     1      63.977  31.312  61.191  1.00  0.00    -0.545 OA
ATOM      9  O   UNL     1      64.888  31.985  59.207  1.00  0.00    -0.545 OA
ENDBRANCH   1   7
TORSDOF 1
ENDMDL
MODEL 6
REMARK VINA RESULT:    -3.171     14.540     15.741
REMARK INTER + INTRA:          -3.376
REMARK INTER:                  -3.357
REMARK INTRA:                  -0.019
REMARK UNBOUND:                -0.020
REMARK SMILES O=C([O-])c1cccnc1
REMARK SMILES IDX 4 1 5 2 9 3 6 4 8 5 7 6 2 7 1 8 3 9
REMARK H PARENT
REMARK Flexibility Score: inf
ROOT
ATOM      1  C   UNL     1      55.064  27.930  50.306  1.00  0.00     0.016 A 
ATOM      2  C   UNL     1      53.742  28.288  49.987  1.00  0.00     0.013 A 
ATOM      3  C   UNL     1      55.489  26.623  50.016  1.00  0.00     0.120 A 
ATOM      4  C   UNL     1      52.887  27.357  49.397  1.00  0.00     0.021 A 
ATOM      5  N   UNL     1      54.636  25.734  49.440  1.00  0.00    -0.264 NA
ATOM      6  C   UNL     1      53.356  26.071  49.128  1.00  0.00     0.111 A 
ENDROOT
BRANCH   1   7
ATOM      7  C   UNL     1      55.985  28.902  50.932  1.00  0.00     0.073 C 
ATOM      8  O   UNL     1      55.645  29.533  51.968  1.00  0.00    -0.545 OA
ATOM      9  O   UNL     1      57.243  29.133  50.384  1.00  0.00    -0.545 OA
ENDBRANCH   1   7
TORSDOF 1
ENDMDL
MODEL 7
REMARK VINA RESULT:    -3.170      2.860      3.630
REMARK INTER + INTRA:          -3.375
REMARK INTER:                  -3.352
REMARK INTRA:                  -0.023
REMARK UNBOUND:                -0.020
REMARK SMILES O=C([O-])c1cccnc1
REMARK SMILES IDX 4 1 5 2 9 3 6 4 8 5 7 6 2 7 1 8 3 9
REMARK H PARENT
REMARK Flexibility Score: inf
ROOT
ATOM      1  C   UNL     1      62.330  35.424  60.594  1.00  0.00     0.016 A 
ATOM      2  C   UNL     1      62.693  36.692  61.080  1.00  0.00     0.013 A 
ATOM      3  C   UNL     1      63.248  34.369  60.732  1.00  0.00     0.120 A 
ATOM      4  C   UNL     1      63.937  36.883  61.682  1.00  0.00     0.021 A 
ATOM      5  N   UNL     1      64.455  34.581  61.322  1.00  0.00    -0.264 NA
ATOM      6  C   UNL     1      64.815  35.804  61.795  1.00  0.00     0.111 A 
ENDROOT
BRANCH   1   7
ATOM      7  C   UNL     1      61.017  35.201  59.953  1.00  0.00     0.073 C 
ATOM      8  O   UNL     1      60.783  34.135  59.323  1.00  0.00    -0.545 OA
ATOM      9  O   UNL     1      60.020  36.167  60.037  1.00  0.00    -0.545 OA
ENDBRANCH   1   7
TORSDOF 1
ENDMDL
MODEL 8
REMARK VINA RESULT:    -3.056      3.021      3.787
REMARK INTER + INTRA:          -3.255
REMARK INTER:                  -3.236
REMARK INTRA:                  -0.018
REMARK UNBOUND:                -0.020
REMARK SMILES O=C([O-])c1cccnc1
REMARK SMILES IDX 4 1 5 2 9 3 6 4 8 5 7 6 2 7 1 8 3 9
REMARK H PARENT
REMARK Flexibility Score: inf
ROOT
ATOM      1  C   UNL     1      62.267  32.778  60.571  1.00  0.00     0.016 A 
ATOM      2  C   UNL     1      61.390  31.756  60.972  1.00  0.00     0.013 A 
ATOM      3  C   UNL     1      63.646  32.510  60.566  1.00  0.00     0.120 A 
ATOM      4  C   UNL     1      61.892  30.511  61.354  1.00  0.00     0.021 A 
ATOM      5  N   UNL     1      64.110  31.288  60.943  1.00  0.00    -0.264 NA
ATOM      6  C   UNL     1      63.270  30.294  61.333  1.00  0.00     0.111 A 
ENDROOT
BRANCH   1   7
ATOM      7  C   UNL     1      61.755  34.104  60.163  1.00  0.00     0.073 C 
ATOM      8  O   UNL     1      60.909  34.207  59.235  1.00  0.00    -0.545 OA
ATOM      9  O   UNL     1      62.201  35.257  60.799  1.00  0.00    -0.545 OA
ENDBRANCH   1   7
TORSDOF 1
ENDMDL
