MODEL 1
REMARK VINA RESULT:    -2.857      0.000      0.000
REMARK INTER + INTRA:          -2.842
REMARK INTER:                  -4.027
REMARK INTRA:                   1.185
REMARK UNBOUND:                 1.185
REMARK SMILES CC1=CCCC(C)=CCC(C)(C)C=CC1
REMARK SMILES IDX 2 1 3 2 1 3 4 4 5 5 6 6 7 7 8 8 15 10 14 11 13 12 10 13
REMARK SMILES IDX 11 14 12 15 9 16
REMARK H PARENT
REMARK Flexibility Score: 60.00
ROOT
ATOM      1  C   UNL     1      51.554  34.666  28.895  1.00  0.00    -0.074 C 
ATOM      2  C   UNL     1      51.188  34.442  27.605  1.00  0.00    -0.027 C 
ATOM      3  C   UNL     1      52.868  35.372  29.127  1.00  0.00     0.039 C 
ENDROOT
BRANCH   2   4
ATOM      4  C   UNL     1      49.939  33.739  27.114  1.00  0.00     0.032 C 
BRANCH   4   5
ATOM      5  C   UNL     1      50.300  32.497  26.268  1.00  0.00     0.034 C 
BRANCH   5   6
ATOM      6  C   UNL     1      50.950  31.401  27.096  1.00  0.00    -0.077 C 
ATOM      7  C   UNL     1      52.364  30.984  26.783  1.00  0.00     0.039 C 
ATOM      8  C   UNL     1      50.320  30.797  28.132  1.00  0.00    -0.027 CG0
ATOM      9  G   UNL     1      48.904  31.107  28.573  1.00  0.00     0.000 G0
ENDBRANCH   5   6
ENDBRANCH   4   5
ENDBRANCH   2   4
BRANCH   1  10
ATOM     10  C   UNL     1      50.704  34.328  30.110  1.00  0.00     0.057 C 
BRANCH  10  11
ATOM     11  C   UNL     1      50.986  32.940  30.645  1.00  0.00    -0.026 C 
ATOM     12  C   UNL     1      50.177  31.853  30.625  1.00  0.00    -0.024 C 
BRANCH  12  13
ATOM     13  C   UNL     1      48.772  31.716  30.019  1.00  0.00    -0.014 C 
ATOM     14  C   UNL     1      48.017  33.074  30.063  1.00  0.00     0.016 C 
ATOM     15  C   UNL     1      47.977  30.724  30.904  1.00  0.00     0.016 C 
BRANCH  13  16
ATOM     16  C   UNL     1      48.882  31.108  28.586  1.00  0.00     0.038 CG0
ATOM     17  G   UNL     1      50.301  30.800  28.153  1.00  0.00     0.000 G0
ENDBRANCH  13  16
ENDBRANCH  12  13
ENDBRANCH  10  11
ENDBRANCH   1  10
TORSDOF 0
ENDMDL
MODEL 2
REMARK VINA RESULT:    -2.835      1.196      3.599
REMARK INTER + INTRA:          -2.810
REMARK INTER:                  -3.934
REMARK INTRA:                   1.124
REMARK UNBOUND:                 1.185
REMARK SMILES CC1=CCCC(C)=CCC(C)(C)C=CC1
REMARK SMILES IDX 2 1 3 2 1 3 4 4 5 5 6 6 7 7 8 8 15 10 14 11 13 12 10 13
REMARK SMILES IDX 11 14 12 15 9 16
REMARK H PARENT
REMARK Flexibility Score: 60.00
ROOT
ATOM      1  C   UNL     1      51.250  34.261  28.577  1.00  0.00    -0.074 C 
ATOM      2  C   UNL     1      51.009  34.195  29.913  1.00  0.00    -0.027 C 
ATOM      3  C   UNL     1      52.377  35.157  28.122  1.00  0.00     0.039 C 
ENDROOT
BRANCH   2   4
ATOM      4  C   UNL     1      49.930  33.394  30.613  1.00  0.00     0.032 C 
BRANCH   4   5
ATOM      5  C   UNL     1      50.321  31.902  30.706  1.00  0.00     0.034 C 
BRANCH   5   6
ATOM      6  C   UNL     1      49.197  30.980  30.260  1.00  0.00    -0.077 C 
ATOM      7  C   UNL     1      47.876  31.029  30.984  1.00  0.00     0.039 C 
ATOM      8  C   UNL     1      49.321  30.130  29.212  1.00  0.00    -0.027 CG0
ATOM      9  G   UNL     1      50.579  29.968  28.384  1.00  0.00     0.000 G0
ENDBRANCH   5   6
ENDBRANCH   4   5
ENDBRANCH   2   4
BRANCH   1  10
ATOM     10  C   UNL     1      50.521  33.443  27.522  1.00  0.00     0.057 C 
BRANCH  10  11
ATOM     11  C   UNL     1      51.467  32.625  26.668  1.00  0.00    -0.026 C 
ATOM     12  C   UNL     1      51.423  31.297  26.404  1.00  0.00    -0.024 C 
BRANCH  12  13
ATOM     13  C   UNL     1      50.383  30.264  26.862  1.00  0.00    -0.014 C 
ATOM     14  C   UNL     1      50.435  28.994  25.966  1.00  0.00     0.016 C 
ATOM     15  C   UNL     1      48.982  30.897  26.673  1.00  0.00     0.016 C 
BRANCH  13  16
ATOM     16  C   UNL     1      50.580  29.966  28.381  1.00  0.00     0.038 CG0
ATOM     17  G   UNL     1      49.326  30.141  29.213  1.00  0.00     0.000 G0
ENDBRANCH  13  16
ENDBRANCH  12  13
ENDBRANCH  10  11
ENDBRANCH   1  10
TORSDOF 0
ENDMDL
MODEL 3
REMARK VINA RESULT:    -2.785      3.027      5.413
REMARK INTER + INTRA:          -2.740
REMARK INTER:                  -3.455
REMARK INTRA:                   0.715
REMARK UNBOUND:                 1.185
REMARK SMILES CC1=CCCC(C)=CCC(C)(C)C=CC1
REMARK SMILES IDX 2 1 3 2 1 3 4 4 5 5 6 6 7 7 8 8 15 10 14 11 13 12 10 13
REMARK SMILES IDX 11 14 12 15 9 16
REMARK H PARENT
REMARK Flexibility Score: 60.00
ROOT
ATOM      1  C   UNL     1      55.221  29.158  26.872  1.00  0.00    -0.074 C 
ATOM      2  C   UNL     1      54.934  27.959  27.445  1.00  0.00    -0.027 C 
ATOM      3  C   UNL     1      56.582  29.748  27.151  1.00  0.00     0.039 C 
ENDROOT
BRANCH   2   4
ATOM      4  C   UNL     1      53.641  27.176  27.339  1.00  0.00     0.032 C 
BRANCH   4   5
ATOM      5  C   UNL     1      52.482  27.926  28.036  1.00  0.00     0.034 C 
BRANCH   5   6
ATOM      6  C   UNL     1      51.277  28.104  27.126  1.00  0.00    -0.077 C 
ATOM      7  C   UNL     1      50.613  26.886  26.538  1.00  0.00     0.039 C 
ATOM      8  C   UNL     1      50.751  29.320  26.840  1.00  0.00    -0.027 CG0
ATOM      9  G   UNL     1      51.300  30.634  27.356  1.00  0.00     0.000 G0
ENDBRANCH   5   6
ENDBRANCH   4   5
ENDBRANCH   2   4
BRANCH   1  10
ATOM     10  C   UNL     1      54.305  29.904  25.915  1.00  0.00     0.057 C 
BRANCH  10  11
ATOM     11  C   UNL     1      54.197  31.377  26.247  1.00  0.00    -0.026 C 
ATOM     12  C   UNL     1      53.077  32.130  26.368  1.00  0.00    -0.024 C 
BRANCH  12  13
ATOM     13  C   UNL     1      51.610  31.691  26.245  1.00  0.00    -0.014 C 
ATOM     14  C   UNL     1      51.304  31.183  24.808  1.00  0.00     0.016 C 
ATOM     15  C   UNL     1      50.727  32.941  26.484  1.00  0.00     0.016 C 
BRANCH  13  16
ATOM     16  C   UNL     1      51.285  30.647  27.359  1.00  0.00     0.038 CG0
ATOM     17  G   UNL     1      50.755  29.328  26.833  1.00  0.00     0.000 G0
ENDBRANCH  13  16
ENDBRANCH  12  13
ENDBRANCH  10  11
ENDBRANCH   1  10
TORSDOF 0
ENDMDL
MODEL 4
REMARK VINA RESULT:    -2.728      1.228      3.577
REMARK INTER + INTRA:          -2.660
REMARK INTER:                  -3.928
REMARK INTRA:                   1.268
REMARK UNBOUND:                 1.185
REMARK SMILES CC1=CCCC(C)=CCC(C)(C)C=CC1
REMARK SMILES IDX 2 1 3 2 1 3 4 4 5 5 6 6 7 7 8 8 15 10 14 11 13 12 10 13
REMARK SMILES IDX 11 14 12 15 9 16
REMARK H PARENT
REMARK Flexibility Score: 60.00
ROOT
ATOM      1  C   UNL     1      51.828  34.776  28.823  1.00  0.00    -0.074 C 
ATOM      2  C   UNL     1      51.659  34.375  30.111  1.00  0.00    -0.027 C 
ATOM      3  C   UNL     1      52.836  35.870  28.567  1.00  0.00     0.039 C 
ENDROOT
BRANCH   2   4
ATOM      4  C   UNL     1      50.701  33.321  30.626  1.00  0.00     0.032 C 
BRANCH   4   5
ATOM      5  C   UNL     1      49.286  33.523  30.036  1.00  0.00     0.034 C 
BRANCH   5   6
ATOM      6  C   UNL     1      48.565  32.207  29.795  1.00  0.00    -0.077 C 
ATOM      7  C   UNL     1      48.142  31.373  30.977  1.00  0.00     0.039 C 
ATOM      8  C   UNL     1      48.257  31.759  28.554  1.00  0.00    -0.027 CG0
ATOM      9  G   UNL     1      48.608  32.483  27.270  1.00  0.00     0.000 G0
ENDBRANCH   5   6
ENDBRANCH   4   5
ENDBRANCH   2   4
BRANCH   1  10
ATOM     10  C   UNL     1      51.137  34.151  27.621  1.00  0.00     0.057 C 
BRANCH  10  11
ATOM     11  C   UNL     1      51.659  32.765  27.309  1.00  0.00    -0.026 C 
ATOM     12  C   UNL     1      50.988  31.717  26.772  1.00  0.00    -0.024 C 
BRANCH  12  13
ATOM     13  C   UNL     1      49.529  31.657  26.294  1.00  0.00    -0.014 C 
ATOM     14  C   UNL     1      49.064  30.184  26.124  1.00  0.00     0.016 C 
ATOM     15  C   UNL     1      49.470  32.319  24.895  1.00  0.00     0.016 C 
BRANCH  13  16
ATOM     16  C   UNL     1      48.631  32.489  27.263  1.00  0.00     0.038 CG0
ATOM     17  G   UNL     1      48.264  31.761  28.541  1.00  0.00     0.000 G0
ENDBRANCH  13  16
ENDBRANCH  12  13
ENDBRANCH  10  11
ENDBRANCH   1  10
TORSDOF 0
ENDMDL
MODEL 5
REMARK VINA RESULT:    -2.726      1.608      3.524
REMARK INTER + INTRA:          -2.657
REMARK INTER:                  -3.240
REMARK INTRA:                   0.583
REMARK UNBOUND:                 1.185
REMARK SMILES CC1=CCCC(C)=CCC(C)(C)C=CC1
REMARK SMILES IDX 2 1 3 2 1 3 4 4 5 5 6 6 7 7 8 8 15 10 14 11 13 12 10 13
REMARK SMILES IDX 11 14 12 15 9 16
REMARK H PARENT
REMARK Flexibility Score: 60.00
ROOT
ATOM      1  C   UNL     1      52.324  31.266  26.401  1.00  0.00    -0.074 C 
ATOM      2  C   UNL     1      52.190  29.928  26.599  1.00  0.00    -0.027 C 
ATOM      3  C   UNL     1      53.713  31.788  26.125  1.00  0.00     0.039 C 
ENDROOT
BRANCH   2   4
ATOM      4  C   UNL     1      50.918  29.168  26.913  1.00  0.00     0.032 C 
BRANCH   4   5
ATOM      5  C   UNL     1      50.811  28.868  28.425  1.00  0.00     0.034 C 
BRANCH   5   6
ATOM      6  C   UNL     1      49.420  29.143  28.974  1.00  0.00    -0.077 C 
ATOM      7  C   UNL     1      48.380  28.054  28.917  1.00  0.00     0.039 C 
ATOM      8  C   UNL     1      49.080  30.323  29.545  1.00  0.00    -0.027 CG0
ATOM      9  G   UNL     1      50.012  31.510  29.682  1.00  0.00     0.000 G0
ENDBRANCH   5   6
ENDBRANCH   4   5
ENDBRANCH   2   4
BRANCH   1  10
ATOM     10  C   UNL     1      51.171  32.257  26.362  1.00  0.00     0.057 C 
BRANCH  10  11
ATOM     11  C   UNL     1      51.350  33.393  27.347  1.00  0.00    -0.026 C 
ATOM     12  C   UNL     1      50.630  33.656  28.464  1.00  0.00    -0.024 C 
BRANCH  12  13
ATOM     13  C   UNL     1      49.464  32.855  29.062  1.00  0.00    -0.014 C 
ATOM     14  C   UNL     1      48.345  32.636  28.005  1.00  0.00     0.016 C 
ATOM     15  C   UNL     1      48.851  33.705  30.204  1.00  0.00     0.016 C 
BRANCH  13  16
ATOM     16  C   UNL     1      50.008  31.530  29.681  1.00  0.00     0.038 CG0
ATOM     17  G   UNL     1      49.076  30.346  29.521  1.00  0.00     0.000 G0
ENDBRANCH  13  16
ENDBRANCH  12  13
ENDBRANCH  10  11
ENDBRANCH   1  10
TORSDOF 0
ENDMDL
MODEL 6
REMARK VINA RESULT:    -2.603      1.808      3.884
REMARK INTER + INTRA:          -2.483
REMARK INTER:                  -3.140
REMARK INTRA:                   0.657
REMARK UNBOUND:                 1.185
REMARK SMILES CC1=CCCC(C)=CCC(C)(C)C=CC1
REMARK SMILES IDX 2 1 3 2 1 3 4 4 5 5 6 6 7 7 8 8 15 10 14 11 13 12 10 13
REMARK SMILES IDX 11 14 12 15 9 16
REMARK H PARENT
REMARK Flexibility Score: 60.00
ROOT
ATOM      1  C   UNL     1      49.909  31.886  30.310  1.00  0.00    -0.074 C 
ATOM      2  C   UNL     1      49.523  33.152  30.000  1.00  0.00    -0.027 C 
ATOM      3  C   UNL     1      50.815  31.714  31.506  1.00  0.00     0.039 C 
ENDROOT
BRANCH   2   4
ATOM      4  C   UNL     1      48.644  33.587  28.845  1.00  0.00     0.032 C 
BRANCH   4   5
ATOM      5  C   UNL     1      49.488  34.225  27.717  1.00  0.00     0.034 C 
BRANCH   5   6
ATOM      6  C   UNL     1      49.169  33.637  26.352  1.00  0.00    -0.077 C 
ATOM      7  C   UNL     1      48.164  34.330  25.470  1.00  0.00     0.039 C 
ATOM      8  C   UNL     1      49.776  32.523  25.877  1.00  0.00    -0.027 CG0
ATOM      9  G   UNL     1      50.809  31.718  26.638  1.00  0.00     0.000 G0
ENDBRANCH   5   6
ENDBRANCH   4   5
ENDBRANCH   2   4
BRANCH   1  10
ATOM     10  C   UNL     1      49.436  30.633  29.591  1.00  0.00     0.057 C 
BRANCH  10  11
ATOM     11  C   UNL     1      50.584  29.751  29.148  1.00  0.00    -0.026 C 
ATOM     12  C   UNL     1      51.044  29.541  27.891  1.00  0.00    -0.024 C 
BRANCH  12  13
ATOM     13  C   UNL     1      50.558  30.170  26.576  1.00  0.00    -0.014 C 
ATOM     14  C   UNL     1      49.078  29.788  26.295  1.00  0.00     0.016 C 
ATOM     15  C   UNL     1      51.410  29.571  25.429  1.00  0.00     0.016 C 
BRANCH  13  16
ATOM     16  C   UNL     1      50.810  31.711  26.614  1.00  0.00     0.038 CG0
ATOM     17  G   UNL     1      49.767  32.524  25.875  1.00  0.00     0.000 G0
ENDBRANCH  13  16
ENDBRANCH  12  13
ENDBRANCH  10  11
ENDBRANCH   1  10
TORSDOF 0
ENDMDL
MODEL 7
REMARK VINA RESULT:    -2.532      1.556      2.276
REMARK INTER + INTRA:          -2.383
REMARK INTER:                  -3.182
REMARK INTRA:                   0.799
REMARK UNBOUND:                 1.185
REMARK SMILES CC1=CCCC(C)=CCC(C)(C)C=CC1
REMARK SMILES IDX 2 1 3 2 1 3 4 4 5 5 6 6 7 7 8 8 15 10 14 11 13 12 10 13
REMARK SMILES IDX 11 14 12 15 9 16
REMARK H PARENT
REMARK Flexibility Score: 60.00
ROOT
ATOM      1  C   UNL     1      50.486  33.618  29.384  1.00  0.00    -0.074 C 
ATOM      2  C   UNL     1      51.238  33.828  28.271  1.00  0.00    -0.027 C 
ATOM      3  C   UNL     1      50.898  34.342  30.643  1.00  0.00     0.039 C 
ENDROOT
BRANCH   2   4
ATOM      4  C   UNL     1      51.047  33.207  26.903  1.00  0.00     0.032 C 
BRANCH   4   5
ATOM      5  C   UNL     1      51.901  31.928  26.751  1.00  0.00     0.034 C 
BRANCH   5   6
ATOM      6  C   UNL     1      51.221  30.876  25.890  1.00  0.00    -0.077 C 
ATOM      7  C   UNL     1      51.203  31.052  24.393  1.00  0.00     0.039 C 
ATOM      8  C   UNL     1      50.651  29.762  26.410  1.00  0.00    -0.027 CG0
ATOM      9  G   UNL     1      50.593  29.440  27.889  1.00  0.00     0.000 G0
ENDBRANCH   5   6
ENDBRANCH   4   5
ENDBRANCH   2   4
BRANCH   1  10
ATOM     10  C   UNL     1      49.222  32.774  29.431  1.00  0.00     0.057 C 
BRANCH  10  11
ATOM     11  C   UNL     1      49.373  31.555  30.315  1.00  0.00    -0.026 C 
ATOM     12  C   UNL     1      49.334  30.249  29.956  1.00  0.00    -0.024 C 
BRANCH  12  13
ATOM     13  C   UNL     1      49.171  29.645  28.554  1.00  0.00    -0.014 C 
ATOM     14  C   UNL     1      48.218  30.514  27.687  1.00  0.00     0.016 C 
ATOM     15  C   UNL     1      48.499  28.258  28.718  1.00  0.00     0.016 C 
BRANCH  13  16
ATOM     16  C   UNL     1      50.578  29.431  27.913  1.00  0.00     0.038 CG0
ATOM     17  G   UNL     1      50.635  29.741  26.431  1.00  0.00     0.000 G0
ENDBRANCH  13  16
ENDBRANCH  12  13
ENDBRANCH  10  11
ENDBRANCH   1  10
TORSDOF 0
ENDMDL
MODEL 8
REMARK VINA RESULT:    -2.422      1.693      3.850
REMARK INTER + INTRA:          -2.228
REMARK INTER:                  -3.276
REMARK INTRA:                   1.048
REMARK UNBOUND:                 1.185
REMARK SMILES CC1=CCCC(C)=CCC(C)(C)C=CC1
REMARK SMILES IDX 2 1 3 2 1 3 4 4 5 5 6 6 7 7 8 8 15 10 14 11 13 12 10 13
REMARK SMILES IDX 11 14 12 15 9 16
REMARK H PARENT
REMARK Flexibility Score: 60.00
ROOT
ATOM      1  C   UNL     1      50.215  33.308  29.812  1.00  0.00    -0.074 C 
ATOM      2  C   UNL     1      49.582  32.292  30.457  1.00  0.00    -0.027 C 
ATOM      3  C   UNL     1      51.040  34.252  30.654  1.00  0.00     0.039 C 
ENDROOT
BRANCH   2   4
ATOM      4  C   UNL     1      48.684  31.236  29.846  1.00  0.00     0.032 C 
BRANCH   4   5
ATOM      5  C   UNL     1      49.515  30.058  29.288  1.00  0.00     0.034 C 
BRANCH   5   6
ATOM      6  C   UNL     1      48.821  29.355  28.133  1.00  0.00    -0.077 C 
ATOM      7  C   UNL     1      48.383  27.923  28.301  1.00  0.00     0.039 C 
ATOM      8  C   UNL     1      48.550  29.973  26.958  1.00  0.00    -0.027 CG0
ATOM      9  G   UNL     1      48.920  31.407  26.638  1.00  0.00     0.000 G0
ENDBRANCH   5   6
ENDBRANCH   4   5
ENDBRANCH   2   4
BRANCH   1  10
ATOM     10  C   UNL     1      50.214  33.515  28.306  1.00  0.00     0.057 C 
BRANCH  10  11
ATOM     11  C   UNL     1      51.379  32.829  27.626  1.00  0.00    -0.026 C 
ATOM     12  C   UNL     1      51.356  32.003  26.552  1.00  0.00    -0.024 C 
BRANCH  12  13
ATOM     13  C   UNL     1      50.151  31.570  25.703  1.00  0.00    -0.014 C 
ATOM     14  C   UNL     1      50.489  30.299  24.874  1.00  0.00     0.016 C 
ATOM     15  C   UNL     1      49.858  32.708  24.694  1.00  0.00     0.016 C 
BRANCH  13  16
ATOM     16  C   UNL     1      48.901  31.402  26.623  1.00  0.00     0.038 CG0
ATOM     17  G   UNL     1      48.567  29.962  26.954  1.00  0.00     0.000 G0
ENDBRANCH  13  16
ENDBRANCH  12  13
ENDBRANCH  10  11
ENDBRANCH   1  10
TORSDOF 0
ENDMDL
MODEL 9
REMARK VINA RESULT:    -2.419      1.627      3.507
REMARK INTER + INTRA:          -2.225
REMARK INTER:                  -3.378
REMARK INTRA:                   1.154
REMARK UNBOUND:                 1.185
REMARK SMILES CC1=CCCC(C)=CCC(C)(C)C=CC1
REMARK SMILES IDX 2 1 3 2 1 3 4 4 5 5 6 6 7 7 8 8 15 10 14 11 13 12 10 13
REMARK SMILES IDX 11 14 12 15 9 16
REMARK H PARENT
REMARK Flexibility Score: 60.00
ROOT
ATOM      1  C   UNL     1      50.386  29.328  27.877  1.00  0.00    -0.074 C 
ATOM      2  C   UNL     1      50.053  29.746  26.626  1.00  0.00    -0.027 C 
ATOM      3  C   UNL     1      51.077  27.991  27.997  1.00  0.00     0.039 C 
ENDROOT
BRANCH   2   4
ATOM      4  C   UNL     1      49.339  31.027  26.246  1.00  0.00     0.032 C 
BRANCH   4   5
ATOM      5  C   UNL     1      50.331  32.064  25.674  1.00  0.00     0.034 C 
BRANCH   5   6
ATOM      6  C   UNL     1      51.309  32.571  26.722  1.00  0.00    -0.077 C 
ATOM      7  C   UNL     1      52.785  32.347  26.520  1.00  0.00     0.039 C 
ATOM      8  C   UNL     1      50.911  33.248  27.826  1.00  0.00    -0.027 CG0
ATOM      9  G   UNL     1      49.467  33.556  28.168  1.00  0.00     0.000 G0
ENDBRANCH   5   6
ENDBRANCH   4   5
ENDBRANCH   2   4
BRANCH   1  10
ATOM     10  C   UNL     1      50.181  30.139  29.146  1.00  0.00     0.057 C 
BRANCH  10  11
ATOM     11  C   UNL     1      48.743  30.573  29.331  1.00  0.00    -0.026 C 
ATOM     12  C   UNL     1      48.265  31.823  29.546  1.00  0.00    -0.024 C 
BRANCH  12  13
ATOM     13  C   UNL     1      49.041  33.146  29.619  1.00  0.00    -0.014 C 
ATOM     14  C   UNL     1      50.231  33.033  30.613  1.00  0.00     0.016 C 
ATOM     15  C   UNL     1      48.079  34.221  30.182  1.00  0.00     0.016 C 
BRANCH  13  16
ATOM     16  C   UNL     1      49.467  33.579  28.181  1.00  0.00     0.038 CG0
ATOM     17  G   UNL     1      50.902  33.239  27.834  1.00  0.00     0.000 G0
ENDBRANCH  13  16
ENDBRANCH  12  13
ENDBRANCH  10  11
ENDBRANCH   1  10
TORSDOF 0
ENDMDL
