MODEL 1
REMARK VINA RESULT:     7.558      0.000      0.000
REMARK INTER + INTRA:           7.740
REMARK INTER:                   8.000
REMARK INTRA:                  -0.260
REMARK UNBOUND:                -0.260
REMARK SMILES CC1=CC[C@H]2[C@H]3[C@@H]1[C@]2(C)CC[C@H]3C(C)C
REMARK SMILES IDX 1 1 2 2 3 3 4 4 5 5 6 6 7 7 8 8 10 9 11 10 12 11 9 12 13 13
REMARK SMILES IDX 14 14 15 15
REMARK H PARENT
REMARK Flexibility Score: inf
ROOT
ATOM      1  C   UNL     1     138.322 136.492 160.779  1.00  0.00     0.039 C 
ATOM      2  C   UNL     1     137.086 136.843 161.553  1.00  0.00    -0.073 C 
ATOM      3  C   UNL     1     136.105 135.935 161.802  1.00  0.00    -0.027 C 
ATOM      4  C   UNL     1     134.875 136.376 162.605  1.00  0.00     0.031 C 
ATOM      5  C   UNL     1     135.019 137.869 163.048  1.00  0.00     0.003 C 
ATOM      6  C   UNL     1     136.450 138.049 163.614  1.00  0.00     0.004 C 
ATOM      7  C   UNL     1     136.907 138.241 162.150  1.00  0.00     0.024 C 
ATOM      8  C   UNL     1     135.483 138.765 161.867  1.00  0.00    -0.022 C 
ATOM      9  C   UNL     1     135.421 140.270 162.254  1.00  0.00     0.008 C 
ATOM     10  C   UNL     1     135.726 140.507 163.755  1.00  0.00     0.005 C 
ATOM     11  C   UNL     1     136.605 139.387 164.404  1.00  0.00    -0.005 C 
ATOM     12  C   UNL     1     134.876 138.534 160.463  1.00  0.00     0.012 C 
ENDROOT
BRANCH  11  13
ATOM     13  C   UNL     1     136.291 139.228 165.927  1.00  0.00    -0.014 C 
ATOM     14  C   UNL     1     136.727 140.475 166.721  1.00  0.00     0.007 C 
ATOM     15  C   UNL     1     136.974 137.990 166.541  1.00  0.00     0.007 C 
ENDBRANCH  11  13
TORSDOF 1
ENDMDL
