MODEL 1
REMARK VINA RESULT:    -4.990      0.000      0.000
REMARK INTER + INTRA:          -5.811
REMARK INTER:                  -5.573
REMARK INTRA:                  -0.238
REMARK UNBOUND:                -0.238
REMARK SMILES COc1cc(C)ccc1C(C)C
REMARK SMILES IDX 6 1 5 2 4 3 3 4 9 5 8 6 7 7 2 8 1 9 10 10 11 11 12 12
REMARK H PARENT
REMARK Flexibility Score: inf
ROOT
ATOM      1  C   UNL     1      -8.273  -7.532  14.413  1.00  0.00     0.044 C 
ATOM      2  C   UNL     1      -7.023  -6.853  13.937  1.00  0.00    -0.047 A 
ATOM      3  C   UNL     1      -6.628  -5.629  14.494  1.00  0.00     0.050 A 
ATOM      4  C   UNL     1      -5.476  -4.962  14.030  1.00  0.00     0.122 A 
ATOM      5  C   UNL     1      -4.717  -5.534  12.979  1.00  0.00    -0.003 A 
ATOM      6  C   UNL     1      -5.138  -6.754  12.418  1.00  0.00     0.008 A 
ATOM      7  C   UNL     1      -6.280  -7.402  12.886  1.00  0.00     0.004 A 
ENDROOT
BRANCH   4   8
ATOM      8  O   UNL     1      -5.069  -3.740  14.590  1.00  0.00    -0.496 OA
ATOM      9  C   UNL     1      -5.121  -3.422  15.977  1.00  0.00     0.278 C 
ENDBRANCH   4   8
BRANCH   5  10
ATOM     10  C   UNL     1      -3.459  -4.873  12.427  1.00  0.00     0.017 C 
ATOM     11  C   UNL     1      -3.778  -3.901  11.283  1.00  0.00     0.012 C 
ATOM     12  C   UNL     1      -2.406  -5.909  12.010  1.00  0.00     0.012 C 
ENDBRANCH   5  10
TORSDOF 2
ENDMDL
MODEL 2
REMARK VINA RESULT:    -4.905      1.593      3.777
REMARK INTER + INTRA:          -5.716
REMARK INTER:                  -5.481
REMARK INTRA:                  -0.236
REMARK UNBOUND:                -0.238
REMARK SMILES COc1cc(C)ccc1C(C)C
REMARK SMILES IDX 6 1 5 2 4 3 3 4 9 5 8 6 7 7 2 8 1 9 10 10 11 11 12 12
REMARK H PARENT
REMARK Flexibility Score: inf
ROOT
ATOM      1  C   UNL     1      -5.836  -6.635  11.361  1.00  0.00     0.044 C 
ATOM      2  C   UNL     1      -5.456  -5.829  12.567  1.00  0.00    -0.047 A 
ATOM      3  C   UNL     1      -4.345  -4.977  12.526  1.00  0.00     0.050 A 
ATOM      4  C   UNL     1      -3.956  -4.242  13.664  1.00  0.00     0.122 A 
ATOM      5  C   UNL     1      -4.693  -4.378  14.867  1.00  0.00    -0.003 A 
ATOM      6  C   UNL     1      -5.795  -5.253  14.896  1.00  0.00     0.008 A 
ATOM      7  C   UNL     1      -6.168  -5.974  13.763  1.00  0.00     0.004 A 
ENDROOT
BRANCH   4   8
ATOM      8  O   UNL     1      -2.849  -3.378  13.628  1.00  0.00    -0.496 OA
ATOM      9  C   UNL     1      -2.007  -3.179  12.496  1.00  0.00     0.278 C 
ENDBRANCH   4   8
BRANCH   5  10
ATOM     10  C   UNL     1      -4.334  -3.615  16.136  1.00  0.00     0.017 C 
ATOM     11  C   UNL     1      -4.392  -4.512  17.380  1.00  0.00     0.012 C 
ATOM     12  C   UNL     1      -5.192  -2.355  16.308  1.00  0.00     0.012 C 
ENDBRANCH   5  10
TORSDOF 2
ENDMDL
MODEL 3
REMARK VINA RESULT:    -4.722      9.749     10.823
REMARK INTER + INTRA:          -5.512
REMARK INTER:                  -5.237
REMARK INTRA:                  -0.275
REMARK UNBOUND:                -0.238
REMARK SMILES COc1cc(C)ccc1C(C)C
REMARK SMILES IDX 6 1 5 2 4 3 3 4 9 5 8 6 7 7 2 8 1 9 10 10 11 11 12 12
REMARK H PARENT
REMARK Flexibility Score: inf
ROOT
ATOM      1  C   UNL     1      -4.084  -9.185   4.966  1.00  0.00     0.044 C 
ATOM      2  C   UNL     1      -3.713  -7.955   4.192  1.00  0.00    -0.047 A 
ATOM      3  C   UNL     1      -4.709  -7.149   3.626  1.00  0.00     0.050 A 
ATOM      4  C   UNL     1      -4.373  -6.011   2.865  1.00  0.00     0.122 A 
ATOM      5  C   UNL     1      -3.009  -5.688   2.663  1.00  0.00    -0.003 A 
ATOM      6  C   UNL     1      -2.020  -6.519   3.222  1.00  0.00     0.008 A 
ATOM      7  C   UNL     1      -2.367  -7.642   3.971  1.00  0.00     0.004 A 
ENDROOT
BRANCH   4   8
ATOM      8  O   UNL     1      -5.367  -5.192   2.304  1.00  0.00    -0.496 OA
ATOM      9  C   UNL     1      -6.252  -4.359   3.046  1.00  0.00     0.278 C 
ENDBRANCH   4   8
BRANCH   5  10
ATOM     10  C   UNL     1      -2.568  -4.473   1.854  1.00  0.00     0.017 C 
ATOM     11  C   UNL     1      -1.244  -4.723   1.120  1.00  0.00     0.012 C 
ATOM     12  C   UNL     1      -2.504  -3.205   2.717  1.00  0.00     0.012 C 
ENDBRANCH   5  10
TORSDOF 2
ENDMDL
MODEL 4
REMARK VINA RESULT:    -4.619     14.753     16.984
REMARK INTER + INTRA:          -5.397
REMARK INTER:                  -5.121
REMARK INTRA:                  -0.277
REMARK UNBOUND:                -0.238
REMARK SMILES COc1cc(C)ccc1C(C)C
REMARK SMILES IDX 6 1 5 2 4 3 3 4 9 5 8 6 7 7 2 8 1 9 10 10 11 11 12 12
REMARK H PARENT
REMARK Flexibility Score: inf
ROOT
ATOM      1  C   UNL     1       0.525   8.825   3.893  1.00  0.00     0.044 C 
ATOM      2  C   UNL     1       0.040   7.535   3.299  1.00  0.00    -0.047 A 
ATOM      3  C   UNL     1       0.879   6.782   2.466  1.00  0.00     0.050 A 
ATOM      4  C   UNL     1       0.423   5.588   1.872  1.00  0.00     0.122 A 
ATOM      5  C   UNL     1      -0.903   5.153   2.113  1.00  0.00    -0.003 A 
ATOM      6  C   UNL     1      -1.738   5.931   2.935  1.00  0.00     0.008 A 
ATOM      7  C   UNL     1      -1.275   7.110   3.516  1.00  0.00     0.004 A 
ENDROOT
BRANCH   4   8
ATOM      8  O   UNL     1       1.261   4.823   1.044  1.00  0.00    -0.496 OA
ATOM      9  C   UNL     1       2.384   4.070   1.494  1.00  0.00     0.278 C 
ENDBRANCH   4   8
BRANCH   5  10
ATOM     10  C   UNL     1      -1.466   3.872   1.507  1.00  0.00     0.017 C 
ATOM     11  C   UNL     1      -2.909   4.054   1.019  1.00  0.00     0.012 C 
ATOM     12  C   UNL     1      -1.340   2.682   2.468  1.00  0.00     0.012 C 
ENDBRANCH   5  10
TORSDOF 2
ENDMDL
MODEL 5
REMARK VINA RESULT:    -4.571      1.534      4.075
REMARK INTER + INTRA:          -5.344
REMARK INTER:                  -5.247
REMARK INTRA:                  -0.096
REMARK UNBOUND:                -0.238
REMARK SMILES COc1cc(C)ccc1C(C)C
REMARK SMILES IDX 6 1 5 2 4 3 3 4 9 5 8 6 7 7 2 8 1 9 10 10 11 11 12 12
REMARK H PARENT
REMARK Flexibility Score: inf
ROOT
ATOM      1  C   UNL     1      -3.839  -2.151  16.734  1.00  0.00     0.044 C 
ATOM      2  C   UNL     1      -4.230  -3.222  15.760  1.00  0.00    -0.047 A 
ATOM      3  C   UNL     1      -3.495  -3.408  14.582  1.00  0.00     0.050 A 
ATOM      4  C   UNL     1      -3.874  -4.386  13.641  1.00  0.00     0.122 A 
ATOM      5  C   UNL     1      -5.020  -5.182  13.886  1.00  0.00    -0.003 A 
ATOM      6  C   UNL     1      -5.758  -4.968  15.065  1.00  0.00     0.008 A 
ATOM      7  C   UNL     1      -5.372  -3.997  15.987  1.00  0.00     0.004 A 
ENDROOT
BRANCH   4   8
ATOM      8  O   UNL     1      -3.135  -4.585  12.462  1.00  0.00    -0.496 OA
ATOM      9  C   UNL     1      -2.331  -3.596  11.827  1.00  0.00     0.278 C 
ENDBRANCH   4   8
BRANCH   5  10
ATOM     10  C   UNL     1      -5.490  -6.259  12.917  1.00  0.00     0.017 C 
ATOM     11  C   UNL     1      -6.018  -5.660  11.606  1.00  0.00     0.012 C 
ATOM     12  C   UNL     1      -6.518  -7.199  13.561  1.00  0.00     0.012 C 
ENDBRANCH   5  10
TORSDOF 2
ENDMDL
MODEL 6
REMARK VINA RESULT:    -4.569      1.618      3.577
REMARK INTER + INTRA:          -5.341
REMARK INTER:                  -5.095
REMARK INTRA:                  -0.245
REMARK UNBOUND:                -0.238
REMARK SMILES COc1cc(C)ccc1C(C)C
REMARK SMILES IDX 6 1 5 2 4 3 3 4 9 5 8 6 7 7 2 8 1 9 10 10 11 11 12 12
REMARK H PARENT
REMARK Flexibility Score: inf
ROOT
ATOM      1  C   UNL     1      -4.187  -3.704  17.195  1.00  0.00     0.044 C 
ATOM      2  C   UNL     1      -4.629  -4.048  15.803  1.00  0.00    -0.047 A 
ATOM      3  C   UNL     1      -5.850  -4.701  15.591  1.00  0.00     0.050 A 
ATOM      4  C   UNL     1      -6.260  -5.063  14.292  1.00  0.00     0.122 A 
ATOM      5  C   UNL     1      -5.418  -4.771  13.190  1.00  0.00    -0.003 A 
ATOM      6  C   UNL     1      -4.186  -4.133  13.423  1.00  0.00     0.008 A 
ATOM      7  C   UNL     1      -3.793  -3.782  14.713  1.00  0.00     0.004 A 
ENDROOT
BRANCH   4   8
ATOM      8  O   UNL     1      -7.487  -5.709  14.071  1.00  0.00    -0.496 OA
ATOM      9  C   UNL     1      -7.728  -7.097  14.283  1.00  0.00     0.278 C 
ENDBRANCH   4   8
BRANCH   5  10
ATOM     10  C   UNL     1      -5.794  -5.130  11.758  1.00  0.00     0.017 C 
ATOM     11  C   UNL     1      -5.457  -6.590  11.425  1.00  0.00     0.012 C 
ATOM     12  C   UNL     1      -5.170  -4.162  10.744  1.00  0.00     0.012 C 
ENDBRANCH   5  10
TORSDOF 2
ENDMDL
MODEL 7
REMARK VINA RESULT:    -4.456     12.612     14.893
REMARK INTER + INTRA:          -5.214
REMARK INTER:                  -4.948
REMARK INTRA:                  -0.267
REMARK UNBOUND:                -0.238
REMARK SMILES COc1cc(C)ccc1C(C)C
REMARK SMILES IDX 6 1 5 2 4 3 3 4 9 5 8 6 7 7 2 8 1 9 10 10 11 11 12 12
REMARK H PARENT
REMARK Flexibility Score: inf
ROOT
ATOM      1  C   UNL     1       0.854   9.327  17.376  1.00  0.00     0.044 C 
ATOM      2  C   UNL     1       0.921   8.041  18.144  1.00  0.00    -0.047 A 
ATOM      3  C   UNL     1      -0.122   7.678  19.006  1.00  0.00     0.050 A 
ATOM      4  C   UNL     1      -0.055   6.490  19.762  1.00  0.00     0.122 A 
ATOM      5  C   UNL     1       1.089   5.661  19.655  1.00  0.00    -0.003 A 
ATOM      6  C   UNL     1       2.136   6.050  18.800  1.00  0.00     0.008 A 
ATOM      7  C   UNL     1       2.056   7.228  18.059  1.00  0.00     0.004 A 
ENDROOT
BRANCH   4   8
ATOM      8  O   UNL     1      -1.102   6.115  20.620  1.00  0.00    -0.496 OA
ATOM      9  C   UNL     1      -2.433   5.827  20.204  1.00  0.00     0.278 C 
ENDBRANCH   4   8
BRANCH   5  10
ATOM     10  C   UNL     1       1.233   4.362  20.439  1.00  0.00     0.017 C 
ATOM     11  C   UNL     1       2.695   4.066  20.795  1.00  0.00     0.012 C 
ATOM     12  C   UNL     1       0.579   3.180  19.710  1.00  0.00     0.012 C 
ENDBRANCH   5  10
TORSDOF 2
ENDMDL
MODEL 8
REMARK VINA RESULT:    -4.380     10.361     11.426
REMARK INTER + INTRA:          -5.130
REMARK INTER:                  -4.862
REMARK INTRA:                  -0.268
REMARK UNBOUND:                -0.238
REMARK SMILES COc1cc(C)ccc1C(C)C
REMARK SMILES IDX 6 1 5 2 4 3 3 4 9 5 8 6 7 7 2 8 1 9 10 10 11 11 12 12
REMARK H PARENT
REMARK Flexibility Score: inf
ROOT
ATOM      1  C   UNL     1      -1.438  -7.834   3.626  1.00  0.00     0.044 C 
ATOM      2  C   UNL     1      -2.597  -6.950   3.270  1.00  0.00    -0.047 A 
ATOM      3  C   UNL     1      -2.410  -5.844   2.431  1.00  0.00     0.050 A 
ATOM      4  C   UNL     1      -3.482  -4.985   2.118  1.00  0.00     0.122 A 
ATOM      5  C   UNL     1      -4.762  -5.239   2.671  1.00  0.00    -0.003 A 
ATOM      6  C   UNL     1      -4.928  -6.343   3.527  1.00  0.00     0.008 A 
ATOM      7  C   UNL     1      -3.858  -7.184   3.828  1.00  0.00     0.004 A 
ENDROOT
BRANCH   4   8
ATOM      8  O   UNL     1      -3.305  -3.879   1.269  1.00  0.00    -0.496 OA
ATOM      9  C   UNL     1      -2.579  -2.701   1.607  1.00  0.00     0.278 C 
ENDBRANCH   4   8
BRANCH   5  10
ATOM     10  C   UNL     1      -5.969  -4.356   2.377  1.00  0.00     0.017 C 
ATOM     11  C   UNL     1      -6.018  -3.128   3.296  1.00  0.00     0.012 C 
ATOM     12  C   UNL     1      -7.282  -5.149   2.425  1.00  0.00     0.012 C 
ENDBRANCH   5  10
TORSDOF 2
ENDMDL
MODEL 9
REMARK VINA RESULT:    -4.378     14.622     16.741
REMARK INTER + INTRA:          -5.128
REMARK INTER:                  -4.863
REMARK INTRA:                  -0.265
REMARK UNBOUND:                -0.238
REMARK SMILES COc1cc(C)ccc1C(C)C
REMARK SMILES IDX 6 1 5 2 4 3 3 4 9 5 8 6 7 7 2 8 1 9 10 10 11 11 12 12
REMARK H PARENT
REMARK Flexibility Score: inf
ROOT
ATOM      1  C   UNL     1       3.645   4.501   0.875  1.00  0.00     0.044 C 
ATOM      2  C   UNL     1       2.238   4.627   1.381  1.00  0.00    -0.047 A 
ATOM      3  C   UNL     1       1.501   3.482   1.711  1.00  0.00     0.050 A 
ATOM      4  C   UNL     1       0.166   3.585   2.152  1.00  0.00     0.122 A 
ATOM      5  C   UNL     1      -0.438   4.862   2.250  1.00  0.00    -0.003 A 
ATOM      6  C   UNL     1       0.310   6.000   1.895  1.00  0.00     0.008 A 
ATOM      7  C   UNL     1       1.629   5.884   1.460  1.00  0.00     0.004 A 
ENDROOT
BRANCH   4   8
ATOM      8  O   UNL     1      -0.576   2.442   2.494  1.00  0.00    -0.496 OA
ATOM      9  C   UNL     1      -1.201   1.566   1.562  1.00  0.00     0.278 C 
ENDBRANCH   4   8
BRANCH   5  10
ATOM     10  C   UNL     1      -1.876   5.052   2.720  1.00  0.00     0.017 C 
ATOM     11  C   UNL     1      -2.880   4.897   1.570  1.00  0.00     0.012 C 
ATOM     12  C   UNL     1      -2.064   6.385   3.458  1.00  0.00     0.012 C 
ENDBRANCH   5  10
TORSDOF 2
ENDMDL
