MODEL 1
REMARK VINA RESULT:    -3.513      0.000      0.000
REMARK INTER + INTRA:          -5.847
REMARK INTER:                  -5.362
REMARK INTRA:                  -0.485
REMARK UNBOUND:                -0.485
REMARK SMILES O=C([O-])CCCCCCCCC(=O)[O-]
REMARK SMILES IDX 7 1 6 2 5 3 4 4 2 5 1 6 3 7 8 8 9 9 10 10 11 11 12 12 13 13
REMARK SMILES IDX 14 14
REMARK H PARENT
REMARK Flexibility Score: inf
ROOT
ATOM      1  C   UNL     1      27.458  21.173  16.525  1.00  0.00     0.000 C 
ENDROOT
BRANCH   1   2
ATOM      2  C   UNL     1      26.161  20.411  16.839  1.00  0.00     0.000 C 
BRANCH   2   3
ATOM      3  C   UNL     1      25.451  19.984  15.549  1.00  0.00     0.006 C 
BRANCH   3   4
ATOM      4  C   UNL     1      23.931  19.980  15.733  1.00  0.00     0.053 C 
BRANCH   4   5
ATOM      5  C   UNL     1      23.242  19.925  14.407  1.00  0.00     0.041 C 
ATOM      6  O   UNL     1      23.916  19.877  13.344  1.00  0.00    -0.550 OA
ATOM      7  O   UNL     1      21.855  19.875  14.345  1.00  0.00    -0.550 OA
ENDBRANCH   4   5
ENDBRANCH   3   4
ENDBRANCH   2   3
ENDBRANCH   1   2
BRANCH   1   8
ATOM      8  C   UNL     1      28.687  20.253  16.472  1.00  0.00     0.000 C 
BRANCH   8   9
ATOM      9  C   UNL     1      29.228  20.066  15.047  1.00  0.00     0.000 C 
BRANCH   9  10
ATOM     10  C   UNL     1      28.616  21.095  14.088  1.00  0.00     0.006 C 
BRANCH  10  11
ATOM     11  C   UNL     1      29.699  21.989  13.475  1.00  0.00     0.053 C 
BRANCH  11  12
ATOM     12  C   UNL     1      29.223  22.578  12.186  1.00  0.00     0.041 C 
ATOM     13  O   UNL     1      28.270  22.045  11.559  1.00  0.00    -0.550 OA
ATOM     14  O   UNL     1      29.864  23.688  11.649  1.00  0.00    -0.550 OA
ENDBRANCH  11  12
ENDBRANCH  10  11
ENDBRANCH   9  10
ENDBRANCH   8   9
ENDBRANCH   1   8
TORSDOF 9
ENDMDL
MODEL 2
REMARK VINA RESULT:    -3.308      1.142      5.993
REMARK INTER + INTRA:          -5.534
REMARK INTER:                  -5.134
REMARK INTRA:                  -0.400
REMARK UNBOUND:                -0.485
REMARK SMILES O=C([O-])CCCCCCCCC(=O)[O-]
REMARK SMILES IDX 7 1 6 2 5 3 4 4 2 5 1 6 3 7 8 8 9 9 10 10 11 11 12 12 13 13
REMARK SMILES IDX 14 14
REMARK H PARENT
REMARK Flexibility Score: inf
ROOT
ATOM      1  C   UNL     1      27.754  20.798  14.832  1.00  0.00     0.000 C 
ENDROOT
BRANCH   1   2
ATOM      2  C   UNL     1      28.731  21.848  14.282  1.00  0.00     0.000 C 
BRANCH   2   3
ATOM      3  C   UNL     1      29.668  21.230  13.236  1.00  0.00     0.006 C 
BRANCH   3   4
ATOM      4  C   UNL     1      28.879  20.699  12.037  1.00  0.00     0.053 C 
BRANCH   4   5
ATOM      5  C   UNL     1      29.202  21.488  10.807  1.00  0.00     0.041 C 
ATOM      6  O   UNL     1      29.837  22.571  10.897  1.00  0.00    -0.550 OA
ATOM      7  O   UNL     1      28.846  21.001   9.555  1.00  0.00    -0.550 OA
ENDBRANCH   4   5
ENDBRANCH   3   4
ENDBRANCH   2   3
ENDBRANCH   1   2
BRANCH   1   8
ATOM      8  C   UNL     1      27.396  21.037  16.307  1.00  0.00     0.000 C 
BRANCH   8   9
ATOM      9  C   UNL     1      26.172  20.229  16.760  1.00  0.00     0.000 C 
BRANCH   9  10
ATOM     10  C   UNL     1      25.260  19.901  15.571  1.00  0.00     0.006 C 
BRANCH  10  11
ATOM     11  C   UNL     1      23.902  20.596  15.710  1.00  0.00     0.053 C 
BRANCH  11  12
ATOM     12  C   UNL     1      22.944  20.083  14.683  1.00  0.00     0.041 C 
ATOM     13  O   UNL     1      23.331  19.876  13.503  1.00  0.00    -0.550 OA
ATOM     14  O   UNL     1      21.610  19.879  15.016  1.00  0.00    -0.550 OA
ENDBRANCH  11  12
ENDBRANCH  10  11
ENDBRANCH   9  10
ENDBRANCH   8   9
ENDBRANCH   1   8
TORSDOF 9
ENDMDL
MODEL 3
REMARK VINA RESULT:    -2.931      1.303      5.637
REMARK INTER + INTRA:          -4.959
REMARK INTER:                  -4.512
REMARK INTRA:                  -0.446
REMARK UNBOUND:                -0.485
REMARK SMILES O=C([O-])CCCCCCCCC(=O)[O-]
REMARK SMILES IDX 7 1 6 2 5 3 4 4 2 5 1 6 3 7 8 8 9 9 10 10 11 11 12 12 13 13
REMARK SMILES IDX 14 14
REMARK H PARENT
REMARK Flexibility Score: inf
ROOT
ATOM      1  C   UNL     1      26.608  21.309  16.682  1.00  0.00     0.000 C 
ENDROOT
BRANCH   1   2
ATOM      2  C   UNL     1      28.034  20.910  16.269  1.00  0.00     0.000 C 
BRANCH   2   3
ATOM      3  C   UNL     1      28.056  20.354  14.841  1.00  0.00     0.006 C 
BRANCH   3   4
ATOM      4  C   UNL     1      28.720  21.340  13.877  1.00  0.00     0.053 C 
BRANCH   4   5
ATOM      5  C   UNL     1      27.992  21.367  12.570  1.00  0.00     0.041 C 
ATOM      6  O   UNL     1      28.365  22.145  11.653  1.00  0.00    -0.550 OA
ATOM      7  O   UNL     1      26.932  20.497  12.348  1.00  0.00    -0.550 OA
ENDBRANCH   4   5
ENDBRANCH   3   4
ENDBRANCH   2   3
ENDBRANCH   1   2
BRANCH   1   8
ATOM      8  C   UNL     1      25.562  20.253  16.293  1.00  0.00     0.000 C 
BRANCH   8   9
ATOM      9  C   UNL     1      24.155  20.844  16.129  1.00  0.00     0.000 C 
BRANCH   9  10
ATOM     10  C   UNL     1      23.265  19.919  15.290  1.00  0.00     0.006 C 
BRANCH  10  11
ATOM     11  C   UNL     1      23.226  20.370  13.827  1.00  0.00     0.053 C 
BRANCH  11  12
ATOM     12  C   UNL     1      21.846  20.226  13.270  1.00  0.00     0.041 C 
ATOM     13  O   UNL     1      20.895  19.876  14.017  1.00  0.00    -0.550 OA
ATOM     14  O   UNL     1      21.616  20.433  11.915  1.00  0.00    -0.550 OA
ENDBRANCH  11  12
ENDBRANCH  10  11
ENDBRANCH   9  10
ENDBRANCH   8   9
ENDBRANCH   1   8
TORSDOF 9
ENDMDL
MODEL 4
REMARK VINA RESULT:    -2.610     12.050     16.317
REMARK INTER + INTRA:          -4.468
REMARK INTER:                  -3.861
REMARK INTRA:                  -0.607
REMARK UNBOUND:                -0.485
REMARK SMILES O=C([O-])CCCCCCCCC(=O)[O-]
REMARK SMILES IDX 7 1 6 2 5 3 4 4 2 5 1 6 3 7 8 8 9 9 10 10 11 11 12 12 13 13
REMARK SMILES IDX 14 14
REMARK H PARENT
REMARK Flexibility Score: inf
ROOT
ATOM      1  C   UNL     1      11.149  22.001  18.252  1.00  0.00     0.000 C 
ENDROOT
BRANCH   1   2
ATOM      2  C   UNL     1      11.669  20.688  17.647  1.00  0.00     0.000 C 
BRANCH   2   3
ATOM      3  C   UNL     1      13.178  20.541  17.873  1.00  0.00     0.006 C 
BRANCH   3   4
ATOM      4  C   UNL     1      13.879  20.049  16.604  1.00  0.00     0.053 C 
BRANCH   4   5
ATOM      5  C   UNL     1      15.283  20.562  16.547  1.00  0.00     0.041 C 
ATOM      6  O   UNL     1      15.540  21.640  15.949  1.00  0.00    -0.550 OA
ATOM      7  O   UNL     1      16.300  19.876  17.199  1.00  0.00    -0.550 OA
ENDBRANCH   4   5
ENDBRANCH   3   4
ENDBRANCH   2   3
ENDBRANCH   1   2
BRANCH   1   8
ATOM      8  C   UNL     1      10.224  21.772  19.458  1.00  0.00     0.000 C 
BRANCH   8   9
ATOM      9  C   UNL     1       9.997  20.283  19.757  1.00  0.00     0.000 C 
BRANCH   9  10
ATOM     10  C   UNL     1      10.441  19.936  21.183  1.00  0.00     0.006 C 
BRANCH  10  11
ATOM     11  C   UNL     1      11.832  20.502  21.481  1.00  0.00     0.053 C 
BRANCH  11  12
ATOM     12  C   UNL     1      11.832  21.234  22.784  1.00  0.00     0.041 C 
ATOM     13  O   UNL     1      11.385  20.679  23.823  1.00  0.00    -0.550 OA
ATOM     14  O   UNL     1      12.282  22.548  22.845  1.00  0.00    -0.550 OA
ENDBRANCH  11  12
ENDBRANCH  10  11
ENDBRANCH   9  10
ENDBRANCH   8   9
ENDBRANCH   1   8
TORSDOF 9
ENDMDL
MODEL 5
REMARK VINA RESULT:    -2.561      1.447      2.253
REMARK INTER + INTRA:          -4.393
REMARK INTER:                  -3.974
REMARK INTRA:                  -0.419
REMARK UNBOUND:                -0.485
REMARK SMILES O=C([O-])CCCCCCCCC(=O)[O-]
REMARK SMILES IDX 7 1 6 2 5 3 4 4 2 5 1 6 3 7 8 8 9 9 10 10 11 11 12 12 13 13
REMARK SMILES IDX 14 14
REMARK H PARENT
REMARK Flexibility Score: inf
ROOT
ATOM      1  C   UNL     1      25.092  20.934  16.132  1.00  0.00     0.000 C 
ENDROOT
BRANCH   1   2
ATOM      2  C   UNL     1      23.862  20.037  15.921  1.00  0.00     0.000 C 
BRANCH   2   3
ATOM      3  C   UNL     1      23.544  19.884  14.429  1.00  0.00     0.006 C 
BRANCH   3   4
ATOM      4  C   UNL     1      22.032  19.875  14.187  1.00  0.00     0.053 C 
BRANCH   4   5
ATOM      5  C   UNL     1      21.704  20.543  12.890  1.00  0.00     0.041 C 
ATOM      6  O   UNL     1      21.102  19.908  11.984  1.00  0.00    -0.550 OA
ATOM      7  O   UNL     1      22.020  21.883  12.699  1.00  0.00    -0.550 OA
ENDBRANCH   4   5
ENDBRANCH   3   4
ENDBRANCH   2   3
ENDBRANCH   1   2
BRANCH   1   8
ATOM      8  C   UNL     1      26.416  20.181  15.927  1.00  0.00     0.000 C 
BRANCH   8   9
ATOM      9  C   UNL     1      27.637  21.112  15.950  1.00  0.00     0.000 C 
BRANCH   9  10
ATOM     10  C   UNL     1      28.673  20.686  14.903  1.00  0.00     0.006 C 
BRANCH  10  11
ATOM     11  C   UNL     1      28.051  20.630  13.504  1.00  0.00     0.053 C 
BRANCH  11  12
ATOM     12  C   UNL     1      28.564  21.751  12.658  1.00  0.00     0.041 C 
ATOM     13  O   UNL     1      28.990  22.807  13.195  1.00  0.00    -0.550 OA
ATOM     14  O   UNL     1      28.528  21.650  11.272  1.00  0.00    -0.550 OA
ENDBRANCH  11  12
ENDBRANCH  10  11
ENDBRANCH   9  10
ENDBRANCH   8   9
ENDBRANCH   1   8
TORSDOF 9
ENDMDL
MODEL 6
REMARK VINA RESULT:    -2.435     12.351     15.854
REMARK INTER + INTRA:          -4.201
REMARK INTER:                  -3.825
REMARK INTRA:                  -0.376
REMARK UNBOUND:                -0.485
REMARK SMILES O=C([O-])CCCCCCCCC(=O)[O-]
REMARK SMILES IDX 7 1 6 2 5 3 4 4 2 5 1 6 3 7 8 8 9 9 10 10 11 11 12 12 13 13
REMARK SMILES IDX 14 14
REMARK H PARENT
REMARK Flexibility Score: inf
ROOT
ATOM      1  C   UNL     1      10.041  21.949  18.954  1.00  0.00     0.000 C 
ENDROOT
BRANCH   1   2
ATOM      2  C   UNL     1      10.729  22.874  19.970  1.00  0.00     0.000 C 
BRANCH   2   3
ATOM      3  C   UNL     1       9.994  22.854  21.316  1.00  0.00     0.006 C 
BRANCH   3   4
ATOM      4  C   UNL     1       9.976  21.444  21.912  1.00  0.00     0.053 C 
BRANCH   4   5
ATOM      5  C   UNL     1      11.044  21.300  22.950  1.00  0.00     0.041 C 
ATOM      6  O   UNL     1      12.079  22.016  22.897  1.00  0.00    -0.550 OA
ATOM      7  O   UNL     1      10.875  20.410  24.003  1.00  0.00    -0.550 OA
ENDBRANCH   4   5
ENDBRANCH   3   4
ENDBRANCH   2   3
ENDBRANCH   1   2
BRANCH   1   8
ATOM      8  C   UNL     1      10.936  20.780  18.516  1.00  0.00     0.000 C 
BRANCH   8   9
ATOM      9  C   UNL     1      12.401  21.195  18.321  1.00  0.00     0.000 C 
BRANCH   9  10
ATOM     10  C   UNL     1      12.842  20.989  16.867  1.00  0.00     0.006 C 
BRANCH  10  11
ATOM     11  C   UNL     1      13.888  19.875  16.761  1.00  0.00     0.053 C 
BRANCH  11  12
ATOM     12  C   UNL     1      15.254  20.454  16.576  1.00  0.00     0.041 C 
ATOM     13  O   UNL     1      16.259  19.879  17.071  1.00  0.00    -0.550 OA
ATOM     14  O   UNL     1      15.414  21.656  15.897  1.00  0.00    -0.550 OA
ENDBRANCH  11  12
ENDBRANCH  10  11
ENDBRANCH   9  10
ENDBRANCH   8   9
ENDBRANCH   1   8
TORSDOF 9
ENDMDL
MODEL 7
REMARK VINA RESULT:    -2.366     13.266     16.422
REMARK INTER + INTRA:          -4.096
REMARK INTER:                  -3.708
REMARK INTRA:                  -0.388
REMARK UNBOUND:                -0.485
REMARK SMILES O=C([O-])CCCCCCCCC(=O)[O-]
REMARK SMILES IDX 7 1 6 2 5 3 4 4 2 5 1 6 3 7 8 8 9 9 10 10 11 11 12 12 13 13
REMARK SMILES IDX 14 14
REMARK H PARENT
REMARK Flexibility Score: inf
ROOT
ATOM      1  C   UNL     1      10.199  21.957  17.612  1.00  0.00     0.000 C 
ENDROOT
BRANCH   1   2
ATOM      2  C   UNL     1       9.909  22.690  18.931  1.00  0.00     0.000 C 
BRANCH   2   3
ATOM      3  C   UNL     1      10.382  21.863  20.132  1.00  0.00     0.006 C 
BRANCH   3   4
ATOM      4  C   UNL     1       9.969  22.523  21.451  1.00  0.00     0.053 C 
BRANCH   4   5
ATOM      5  C   UNL     1      10.768  21.969  22.587  1.00  0.00     0.041 C 
ATOM      6  O   UNL     1      11.994  22.237  22.690  1.00  0.00    -0.550 OA
ATOM      7  O   UNL     1      10.148  21.196  23.561  1.00  0.00    -0.550 OA
ENDBRANCH   4   5
ENDBRANCH   3   4
ENDBRANCH   2   3
ENDBRANCH   1   2
BRANCH   1   8
ATOM      8  C   UNL     1      10.138  22.889  16.391  1.00  0.00     0.000 C 
BRANCH   8   9
ATOM      9  C   UNL     1      10.693  22.236  15.118  1.00  0.00     0.000 C 
BRANCH   9  10
ATOM     10  C   UNL     1      12.225  22.289  15.096  1.00  0.00     0.006 C 
BRANCH  10  11
ATOM     11  C   UNL     1      12.829  20.910  15.377  1.00  0.00     0.053 C 
BRANCH  11  12
ATOM     12  C   UNL     1      13.833  20.993  16.482  1.00  0.00     0.041 C 
ATOM     13  O   UNL     1      15.024  21.318  16.233  1.00  0.00    -0.550 OA
ATOM     14  O   UNL     1      13.467  20.666  17.782  1.00  0.00    -0.550 OA
ENDBRANCH  11  12
ENDBRANCH  10  11
ENDBRANCH   9  10
ENDBRANCH   8   9
ENDBRANCH   1   8
TORSDOF 9
ENDMDL
MODEL 8
REMARK VINA RESULT:    -2.329      2.664      3.924
REMARK INTER + INTRA:          -4.039
REMARK INTER:                  -4.116
REMARK INTRA:                   0.077
REMARK UNBOUND:                -0.485
REMARK SMILES O=C([O-])CCCCCCCCC(=O)[O-]
REMARK SMILES IDX 7 1 6 2 5 3 4 4 2 5 1 6 3 7 8 8 9 9 10 10 11 11 12 12 13 13
REMARK SMILES IDX 14 14
REMARK H PARENT
REMARK Flexibility Score: inf
ROOT
ATOM      1  C   UNL     1      24.289  20.337  15.256  1.00  0.00     0.000 C 
ENDROOT
BRANCH   1   2
ATOM      2  C   UNL     1      25.264  19.898  16.360  1.00  0.00     0.000 C 
BRANCH   2   3
ATOM      3  C   UNL     1      26.330  20.972  16.609  1.00  0.00     0.006 C 
BRANCH   3   4
ATOM      4  C   UNL     1      27.689  20.338  16.917  1.00  0.00     0.053 C 
BRANCH   4   5
ATOM      5  C   UNL     1      28.674  20.661  15.838  1.00  0.00     0.041 C 
ATOM      6  O   UNL     1      28.495  21.662  15.095  1.00  0.00    -0.550 OA
ATOM      7  O   UNL     1      29.816  19.884  15.684  1.00  0.00    -0.550 OA
ENDBRANCH   4   5
ENDBRANCH   3   4
ENDBRANCH   2   3
ENDBRANCH   1   2
BRANCH   1   8
ATOM      8  C   UNL     1      24.736  19.885  13.857  1.00  0.00     0.000 C 
BRANCH   8   9
ATOM      9  C   UNL     1      26.263  19.875  13.696  1.00  0.00     0.000 C 
BRANCH   9  10
ATOM     10  C   UNL     1      26.671  20.371  12.304  1.00  0.00     0.006 C 
BRANCH  10  11
ATOM     11  C   UNL     1      28.149  20.077  12.026  1.00  0.00     0.053 C 
BRANCH  11  12
ATOM     12  C   UNL     1      28.727  21.112  11.115  1.00  0.00     0.041 C 
ATOM     13  O   UNL     1      28.594  21.004   9.868  1.00  0.00    -0.550 OA
ATOM     14  O   UNL     1      29.455  22.173  11.640  1.00  0.00    -0.550 OA
ENDBRANCH  11  12
ENDBRANCH  10  11
ENDBRANCH   9  10
ENDBRANCH   8   9
ENDBRANCH   1   8
TORSDOF 9
ENDMDL
MODEL 9
REMARK VINA RESULT:    -2.308     14.713     16.605
REMARK INTER + INTRA:          -4.008
REMARK INTER:                  -3.418
REMARK INTRA:                  -0.590
REMARK UNBOUND:                -0.485
REMARK SMILES O=C([O-])CCCCCCCCC(=O)[O-]
REMARK SMILES IDX 7 1 6 2 5 3 4 4 2 5 1 6 3 7 8 8 9 9 10 10 11 11 12 12 13 13
REMARK SMILES IDX 14 14
REMARK H PARENT
REMARK Flexibility Score: inf
ROOT
ATOM      1  C   UNL     1      13.320  20.277  18.019  1.00  0.00     0.000 C 
ENDROOT
BRANCH   1   2
ATOM      2  C   UNL     1      13.663  21.097  16.766  1.00  0.00     0.000 C 
BRANCH   2   3
ATOM      3  C   UNL     1      12.580  20.937  15.693  1.00  0.00     0.006 C 
BRANCH   3   4
ATOM      4  C   UNL     1      12.192  22.293  15.097  1.00  0.00     0.053 C 
BRANCH   4   5
ATOM      5  C   UNL     1      10.719  22.521  15.226  1.00  0.00     0.041 C 
ATOM      6  O   UNL     1       9.944  22.200  14.286  1.00  0.00    -0.550 OA
ATOM      7  O   UNL     1      10.197  23.041  16.403  1.00  0.00    -0.550 OA
ENDBRANCH   4   5
ENDBRANCH   3   4
ENDBRANCH   2   3
ENDBRANCH   1   2
BRANCH   1   8
ATOM      8  C   UNL     1      11.813  20.261  18.322  1.00  0.00     0.000 C 
BRANCH   8   9
ATOM      9  C   UNL     1      11.374  21.434  19.209  1.00  0.00     0.000 C 
BRANCH   9  10
ATOM     10  C   UNL     1      10.724  20.931  20.504  1.00  0.00     0.006 C 
BRANCH  10  11
ATOM     11  C   UNL     1      11.764  20.297  21.432  1.00  0.00     0.053 C 
BRANCH  11  12
ATOM     12  C   UNL     1      11.808  21.019  22.741  1.00  0.00     0.041 C 
ATOM     13  O   UNL     1      11.903  22.274  22.769  1.00  0.00    -0.550 OA
ATOM     14  O   UNL     1      11.794  20.303  23.932  1.00  0.00    -0.550 OA
ENDBRANCH  11  12
ENDBRANCH  10  11
ENDBRANCH   9  10
ENDBRANCH   8   9
ENDBRANCH   1   8
TORSDOF 9
ENDMDL
