MODEL 1
REMARK VINA RESULT:    35.051      0.000      0.000
REMARK INTER + INTRA:          55.499
REMARK INTER:                  55.542
REMARK INTRA:                  -0.043
REMARK UNBOUND:                -0.043
REMARK SMILES C[C@H]1O[C@H](O[C@H]2[C@H](Oc3cc(O)c4c(c3)O[C@@H](c3ccc(O)cc3)CC4=O)O[C@@H](CO)[C@@H](O)[C@@H]2O)[C@H](O)[C@H](O)[C@@H]1O
REMARK SMILES IDX 6 1 34 2 32 3 29 4 28 5 7 6 5 7 4 8 1 9 2 10 40 11 3 12
REMARK SMILES IDX 38 13 36 14 41 15 39 17 37 19 35 21 8 23 9 24 10 25 15 26
REMARK SMILES IDX 11 27 14 28 13 29 16 30 26 31 17 32 27 33 25 34 12 35 18 37
REMARK SMILES IDX 19 38 24 39 20 40 23 41 21 42 22 43 33 45 30 47 31 48
REMARK H PARENT 41 16 39 18 37 20 35 22 12 36 22 44 33 46 31 49
REMARK Flexibility Score: inf
ROOT
ATOM      1  C   UNL     1      23.729  37.487  27.583  1.00  0.00     0.221 C 
ATOM      2  C   UNL     1      23.450  38.901  27.807  1.00  0.00     0.181 C 
ATOM      3  C   UNL     1      24.003  39.024  29.446  1.00  0.00     0.177 C 
ATOM      4  C   UNL     1      24.570  37.610  30.164  1.00  0.00     0.179 C 
ATOM      5  O   UNL     1      23.604  36.572  30.070  1.00  0.00    -0.332 OA
ATOM      6  C   UNL     1      22.852  36.839  28.896  1.00  0.00     0.339 C 
ENDROOT
BRANCH   1   7
ATOM      7  O   UNL     1      25.325  37.624  27.556  1.00  0.00    -0.337 OA
BRANCH   7   8
ATOM      8  C   UNL     1      26.247  37.984  26.340  1.00  0.00     0.282 C 
ATOM      9  C   UNL     1      26.769  35.145  23.816  1.00  0.00     0.041 C 
ATOM     10  C   UNL     1      26.274  36.553  24.296  1.00  0.00     0.150 C 
ATOM     11  C   UNL     1      26.469  37.608  23.206  1.00  0.00     0.174 C 
ATOM     12  O   UNL     1      26.924  36.915  25.570  1.00  0.00    -0.344 OA
ATOM     13  C   UNL     1      25.780  38.931  23.760  1.00  0.00     0.179 C 
ATOM     14  C   UNL     1      25.963  39.202  25.325  1.00  0.00     0.202 C 
BRANCH  11  15
ATOM     15  O   UNL     1      25.830  37.245  22.056  1.00  0.00    -0.388 OA
ATOM     16  H   UNL     1      25.959  37.996  21.367  1.00  0.00     0.211 HD
ENDBRANCH  11  15
BRANCH  13  17
ATOM     17  O   UNL     1      24.406  38.904  23.337  1.00  0.00    -0.387 OA
ATOM     18  H   UNL     1      23.912  38.906  24.212  1.00  0.00     0.211 HD
ENDBRANCH  13  17
BRANCH  14  19
ATOM     19  O   UNL     1      24.825  39.885  25.701  1.00  0.00    -0.385 OA
ATOM     20  H   UNL     1      24.820  40.784  25.258  1.00  0.00     0.211 HD
ENDBRANCH  14  19
ENDBRANCH   7   8
ENDBRANCH   1   7
BRANCH   2  21
ATOM     21  O   UNL     1      22.131  39.208  27.520  1.00  0.00    -0.387 OA
ATOM     22  H   UNL     1      22.046  39.403  26.546  1.00  0.00     0.211 HD
ENDBRANCH   2  21
BRANCH   6  23
ATOM     23  O   UNL     1      21.605  37.671  29.407  1.00  0.00    -0.462 OA
BRANCH  23  24
ATOM     24  C   UNL     1      20.229  37.292  28.970  1.00  0.00     0.130 A 
ATOM     25  C   UNL     1      19.295  36.270  29.627  1.00  0.00     0.093 A 
ATOM     26  C   UNL     1      19.557  38.291  28.161  1.00  0.00     0.094 A 
ATOM     27  C   UNL     1      18.120  36.750  30.053  1.00  0.00     0.133 A 
ATOM     28  C   UNL     1      18.192  38.621  28.491  1.00  0.00     0.138 A 
ATOM     29  C   UNL     1      17.495  37.853  29.393  1.00  0.00     0.102 A 
ATOM     30  O   UNL     1      17.610  39.797  28.021  1.00  0.00    -0.484 OA
ATOM     31  C   UNL     1      16.191  38.278  29.903  1.00  0.00     0.174 C 
ATOM     32  C   UNL     1      16.255  40.125  28.210  1.00  0.00     0.211 C 
ATOM     33  O   UNL     1      15.522  37.566  30.738  1.00  0.00    -0.294 OA
ATOM     34  C   UNL     1      15.812  39.716  29.626  1.00  0.00     0.131 C 
BRANCH  27  35
ATOM     35  O   UNL     1      17.504  36.137  31.123  1.00  0.00    -0.507 OA
ATOM     36  H   UNL     1      17.209  36.757  31.877  1.00  0.00     0.293 HD
ENDBRANCH  27  35
BRANCH  32  37
ATOM     37  C   UNL     1      15.423  39.489  27.062  1.00  0.00    -0.007 A 
ATOM     38  C   UNL     1      14.409  38.586  27.292  1.00  0.00     0.011 A 
ATOM     39  C   UNL     1      15.709  39.882  25.793  1.00  0.00     0.011 A 
ATOM     40  C   UNL     1      13.850  37.839  26.213  1.00  0.00     0.046 A 
ATOM     41  C   UNL     1      15.195  39.189  24.692  1.00  0.00     0.046 A 
ATOM     42  C   UNL     1      14.287  38.169  24.872  1.00  0.00     0.115 A 
BRANCH  42  43
ATOM     43  O   UNL     1      13.888  37.341  23.819  1.00  0.00    -0.508 OA
ATOM     44  H   UNL     1      14.203  37.510  22.864  1.00  0.00     0.293 HD
ENDBRANCH  42  43
ENDBRANCH  32  37
ENDBRANCH  23  24
ENDBRANCH   6  23
BRANCH   3  45
ATOM     45  O   UNL     1      24.785  40.121  29.638  1.00  0.00    -0.387 OA
ATOM     46  H   UNL     1      24.227  40.899  29.853  1.00  0.00     0.211 HD
ENDBRANCH   3  45
BRANCH   4  47
ATOM     47  C   UNL     1      25.884  36.572  30.221  1.00  0.00     0.191 C 
BRANCH  47  48
ATOM     48  O   UNL     1      27.024  36.452  29.225  1.00  0.00    -0.394 OA
ATOM     49  H   UNL     1      26.575  36.424  28.275  1.00  0.00     0.210 HD
ENDBRANCH  47  48
ENDBRANCH   4  47
TORSDOF 14
ENDMDL
MODEL 2
REMARK VINA RESULT:    37.846      1.468      2.006
REMARK INTER + INTRA:          59.928
REMARK INTER:                  59.139
REMARK INTRA:                   0.788
REMARK UNBOUND:                -0.043
REMARK SMILES C[C@H]1O[C@H](O[C@H]2[C@H](Oc3cc(O)c4c(c3)O[C@@H](c3ccc(O)cc3)CC4=O)O[C@@H](CO)[C@@H](O)[C@@H]2O)[C@H](O)[C@H](O)[C@@H]1O
REMARK SMILES IDX 6 1 34 2 32 3 29 4 28 5 7 6 5 7 4 8 1 9 2 10 40 11 3 12
REMARK SMILES IDX 38 13 36 14 41 15 39 17 37 19 35 21 8 23 9 24 10 25 15 26
REMARK SMILES IDX 11 27 14 28 13 29 16 30 26 31 17 32 27 33 25 34 12 35 18 37
REMARK SMILES IDX 19 38 24 39 20 40 23 41 21 42 22 43 33 45 30 47 31 48
REMARK H PARENT 41 16 39 18 37 20 35 22 12 36 22 44 33 46 31 49
REMARK Flexibility Score: inf
ROOT
ATOM      1  C   UNL     1      22.807  37.497  27.298  1.00  0.00     0.221 C 
ATOM      2  C   UNL     1      22.775  38.955  27.350  1.00  0.00     0.181 C 
ATOM      3  C   UNL     1      23.057  39.165  29.048  1.00  0.00     0.177 C 
ATOM      4  C   UNL     1      23.210  37.765  29.971  1.00  0.00     0.179 C 
ATOM      5  O   UNL     1      22.091  36.910  29.783  1.00  0.00    -0.332 OA
ATOM      6  C   UNL     1      21.613  37.170  28.472  1.00  0.00     0.339 C 
ENDROOT
BRANCH   1   7
ATOM      7  O   UNL     1      24.381  37.347  27.557  1.00  0.00    -0.337 OA
BRANCH   7   8
ATOM      8  C   UNL     1      25.565  37.872  26.674  1.00  0.00     0.282 C 
ATOM      9  C   UNL     1      26.901  35.358  24.105  1.00  0.00     0.041 C 
ATOM     10  C   UNL     1      26.212  36.685  24.577  1.00  0.00     0.150 C 
ATOM     11  C   UNL     1      26.620  37.862  23.691  1.00  0.00     0.174 C 
ATOM     12  O   UNL     1      26.483  36.920  26.008  1.00  0.00    -0.344 OA
ATOM     13  C   UNL     1      25.730  39.091  24.172  1.00  0.00     0.179 C 
ATOM     14  C   UNL     1      25.482  39.188  25.749  1.00  0.00     0.202 C 
BRANCH  11  15
ATOM     15  O   UNL     1      26.326  37.613  22.381  1.00  0.00    -0.388 OA
ATOM     16  H   UNL     1      26.426  38.491  21.857  1.00  0.00     0.211 HD
ENDBRANCH  11  15
BRANCH  13  17
ATOM     17  O   UNL     1      24.519  39.069  23.398  1.00  0.00    -0.387 OA
ATOM     18  H   UNL     1      23.949  38.420  23.912  1.00  0.00     0.211 HD
ENDBRANCH  13  17
BRANCH  14  19
ATOM     19  O   UNL     1      24.245  39.786  25.876  1.00  0.00    -0.385 OA
ATOM     20  H   UNL     1      24.336  40.612  26.437  1.00  0.00     0.211 HD
ENDBRANCH  14  19
ENDBRANCH   7   8
ENDBRANCH   1   7
BRANCH   2  21
ATOM     21  O   UNL     1      21.608  39.455  26.798  1.00  0.00    -0.387 OA
ATOM     22  H   UNL     1      21.167  38.737  26.263  1.00  0.00     0.211 HD
ENDBRANCH   2  21
BRANCH   6  23
ATOM     23  O   UNL     1      20.484  38.262  28.672  1.00  0.00    -0.462 OA
BRANCH  23  24
ATOM     24  C   UNL     1      19.064  37.838  28.850  1.00  0.00     0.130 A 
ATOM     25  C   UNL     1      18.212  37.958  30.119  1.00  0.00     0.093 A 
ATOM     26  C   UNL     1      18.303  37.747  27.619  1.00  0.00     0.094 A 
ATOM     27  C   UNL     1      17.099  38.692  30.001  1.00  0.00     0.133 A 
ATOM     28  C   UNL     1      16.989  38.342  27.591  1.00  0.00     0.138 A 
ATOM     29  C   UNL     1      16.403  38.777  28.756  1.00  0.00     0.102 A 
ATOM     30  O   UNL     1      16.359  38.620  26.379  1.00  0.00    -0.484 OA
ATOM     31  C   UNL     1      15.172  39.567  28.737  1.00  0.00     0.174 C 
ATOM     32  C   UNL     1      15.038  39.094  26.279  1.00  0.00     0.211 C 
ATOM     33  O   UNL     1      14.606  39.970  29.818  1.00  0.00    -0.294 OA
ATOM     34  C   UNL     1      14.768  40.124  27.390  1.00  0.00     0.131 C 
BRANCH  27  35
ATOM     35  O   UNL     1      16.615  39.341  31.116  1.00  0.00    -0.507 OA
ATOM     36  H   UNL     1      15.991  38.795  31.710  1.00  0.00     0.293 HD
ENDBRANCH  27  35
BRANCH  32  37
ATOM     37  C   UNL     1      14.071  37.878  26.274  1.00  0.00    -0.007 A 
ATOM     38  C   UNL     1      13.784  37.162  25.133  1.00  0.00     0.011 A 
ATOM     39  C   UNL     1      13.524  37.512  27.462  1.00  0.00     0.011 A 
ATOM     40  C   UNL     1      12.705  36.228  25.120  1.00  0.00     0.046 A 
ATOM     41  C   UNL     1      12.461  36.603  27.517  1.00  0.00     0.046 A 
ATOM     42  C   UNL     1      12.030  35.967  26.375  1.00  0.00     0.115 A 
BRANCH  42  43
ATOM     43  O   UNL     1      10.866  35.193  26.355  1.00  0.00    -0.508 OA
ATOM     44  H   UNL     1      10.032  35.478  26.868  1.00  0.00     0.293 HD
ENDBRANCH  42  43
ENDBRANCH  32  37
ENDBRANCH  23  24
ENDBRANCH   6  23
BRANCH   3  45
ATOM     45  O   UNL     1      23.994  40.121  29.293  1.00  0.00    -0.387 OA
ATOM     46  H   UNL     1      24.418  39.962  30.164  1.00  0.00     0.211 HD
ENDBRANCH   3  45
BRANCH   4  47
ATOM     47  C   UNL     1      24.269  36.525  30.357  1.00  0.00     0.191 C 
BRANCH  47  48
ATOM     48  O   UNL     1      25.747  36.420  30.022  1.00  0.00    -0.394 OA
ATOM     49  H   UNL     1      25.932  35.400  29.849  1.00  0.00     0.210 HD
ENDBRANCH  47  48
ENDBRANCH   4  47
TORSDOF 14
ENDMDL
