MODEL 1
REMARK VINA RESULT:    -3.604      0.000      0.000
REMARK INTER + INTRA:          -4.187
REMARK INTER:                  -4.131
REMARK INTRA:                  -0.057
REMARK UNBOUND:                -0.057
REMARK SMILES COc1cc(C=O)ccc1O
REMARK SMILES IDX 3 1 10 2 9 3 8 4 5 5 4 6 2 7 1 8 11 9 6 11 7 12
REMARK H PARENT 11 10
REMARK Flexibility Score: inf
ROOT
ATOM      1  C   UNL     1      39.283  19.760  79.933  1.00  0.00     0.161 A 
ATOM      2  C   UNL     1      38.394  18.672  80.012  1.00  0.00     0.157 A 
ATOM      3  C   UNL     1      37.246  18.763  80.804  1.00  0.00     0.051 A 
ATOM      4  C   UNL     1      36.970  19.929  81.520  1.00  0.00     0.015 A 
ATOM      5  C   UNL     1      37.845  21.024  81.452  1.00  0.00     0.018 A 
ATOM      6  C   UNL     1      38.999  20.935  80.658  1.00  0.00     0.062 A 
ENDROOT
BRANCH   1   7
ATOM      7  O   UNL     1      40.429  19.641  79.130  1.00  0.00    -0.493 OA
ATOM      8  C   UNL     1      41.728  20.088  79.504  1.00  0.00     0.278 C 
ENDBRANCH   1   7
BRANCH   2   9
ATOM      9  O   UNL     1      38.638  17.491  79.312  1.00  0.00    -0.504 OA
ATOM     10  H   UNL     1      38.508  16.577  79.731  1.00  0.00     0.293 HD
ENDBRANCH   2   9
BRANCH   5  11
ATOM     11  C   UNL     1      37.570  22.265  82.201  1.00  0.00     0.260 C 
ATOM     12  O   UNL     1      37.795  22.342  83.438  1.00  0.00    -0.298 OA
ENDBRANCH   5  11
TORSDOF 3
ENDMDL
MODEL 2
REMARK VINA RESULT:    -3.426     14.185     16.473
REMARK INTER + INTRA:          -3.983
REMARK INTER:                  -3.924
REMARK INTRA:                  -0.059
REMARK UNBOUND:                -0.057
REMARK SMILES COc1cc(C=O)ccc1O
REMARK SMILES IDX 3 1 10 2 9 3 8 4 5 5 4 6 2 7 1 8 11 9 6 11 7 12
REMARK H PARENT 11 10
REMARK Flexibility Score: inf
ROOT
ATOM      1  C   UNL     1      45.066  30.922  91.528  1.00  0.00     0.161 A 
ATOM      2  C   UNL     1      44.452  31.477  92.666  1.00  0.00     0.157 A 
ATOM      3  C   UNL     1      43.563  30.710  93.425  1.00  0.00     0.051 A 
ATOM      4  C   UNL     1      43.278  29.393  93.065  1.00  0.00     0.015 A 
ATOM      5  C   UNL     1      43.880  28.823  91.932  1.00  0.00     0.018 A 
ATOM      6  C   UNL     1      44.773  29.590  91.168  1.00  0.00     0.062 A 
ENDROOT
BRANCH   1   7
ATOM      7  O   UNL     1      45.954  31.715  90.784  1.00  0.00    -0.493 OA
ATOM      8  C   UNL     1      47.178  31.251  90.225  1.00  0.00     0.278 C 
ENDBRANCH   1   7
BRANCH   2   9
ATOM      9  O   UNL     1      44.713  32.790  93.057  1.00  0.00    -0.504 OA
ATOM     10  H   UNL     1      44.125  33.284  93.718  1.00  0.00     0.293 HD
ENDBRANCH   2   9
BRANCH   5  11
ATOM     11  C   UNL     1      43.591  27.432  91.536  1.00  0.00     0.260 C 
ATOM     12  O   UNL     1      42.428  26.957  91.629  1.00  0.00    -0.298 OA
ENDBRANCH   5  11
TORSDOF 3
ENDMDL
MODEL 3
REMARK VINA RESULT:    -3.395     18.920     20.445
REMARK INTER + INTRA:          -3.948
REMARK INTER:                  -3.892
REMARK INTRA:                  -0.056
REMARK UNBOUND:                -0.057
REMARK SMILES COc1cc(C=O)ccc1O
REMARK SMILES IDX 3 1 10 2 9 3 8 4 5 5 4 6 2 7 1 8 11 9 6 11 7 12
REMARK H PARENT 11 10
REMARK Flexibility Score: inf
ROOT
ATOM      1  C   UNL     1      52.461  34.389  86.031  1.00  0.00     0.161 A 
ATOM      2  C   UNL     1      52.823  34.907  87.289  1.00  0.00     0.157 A 
ATOM      3  C   UNL     1      51.834  35.302  88.193  1.00  0.00     0.051 A 
ATOM      4  C   UNL     1      50.484  35.188  87.862  1.00  0.00     0.015 A 
ATOM      5  C   UNL     1      50.103  34.674  86.612  1.00  0.00     0.018 A 
ATOM      6  C   UNL     1      51.094  34.276  85.701  1.00  0.00     0.062 A 
ENDROOT
BRANCH   1   7
ATOM      7  O   UNL     1      53.475  34.000  85.141  1.00  0.00    -0.493 OA
ATOM      8  C   UNL     1      53.418  34.165  83.728  1.00  0.00     0.278 C 
ENDBRANCH   1   7
BRANCH   2   9
ATOM      9  O   UNL     1      54.163  35.036  87.655  1.00  0.00    -0.504 OA
ATOM     10  H   UNL     1      54.477  35.739  88.313  1.00  0.00     0.293 HD
ENDBRANCH   2   9
BRANCH   5  11
ATOM     11  C   UNL     1      48.681  34.545  86.243  1.00  0.00     0.260 C 
ATOM     12  O   UNL     1      48.307  34.648  85.045  1.00  0.00    -0.298 OA
ENDBRANCH   5  11
TORSDOF 3
ENDMDL
MODEL 4
REMARK VINA RESULT:    -3.387      2.091      4.275
REMARK INTER + INTRA:          -3.939
REMARK INTER:                  -3.865
REMARK INTRA:                  -0.074
REMARK UNBOUND:                -0.057
REMARK SMILES COc1cc(C=O)ccc1O
REMARK SMILES IDX 3 1 10 2 9 3 8 4 5 5 4 6 2 7 1 8 11 9 6 11 7 12
REMARK H PARENT 11 10
REMARK Flexibility Score: inf
ROOT
ATOM      1  C   UNL     1      38.876  19.908  80.198  1.00  0.00     0.161 A 
ATOM      2  C   UNL     1      38.332  21.145  79.804  1.00  0.00     0.157 A 
ATOM      3  C   UNL     1      39.145  22.102  79.190  1.00  0.00     0.051 A 
ATOM      4  C   UNL     1      40.497  21.842  78.962  1.00  0.00     0.015 A 
ATOM      5  C   UNL     1      41.057  20.614  79.349  1.00  0.00     0.018 A 
ATOM      6  C   UNL     1      40.243  19.652  79.966  1.00  0.00     0.062 A 
ENDROOT
BRANCH   1   7
ATOM      7  O   UNL     1      38.036  18.965  80.814  1.00  0.00    -0.493 OA
ATOM      8  C   UNL     1      37.522  17.802  80.174  1.00  0.00     0.278 C 
ENDBRANCH   1   7
BRANCH   2   9
ATOM      9  O   UNL     1      36.986  21.440  80.015  1.00  0.00    -0.504 OA
ATOM     10  H   UNL     1      36.685  22.162  80.658  1.00  0.00     0.293 HD
ENDBRANCH   2   9
BRANCH   5  11
ATOM     11  C   UNL     1      42.483  20.322  79.116  1.00  0.00     0.260 C 
ATOM     12  O   UNL     1      43.386  21.017  79.653  1.00  0.00    -0.298 OA
ENDBRANCH   5  11
TORSDOF 3
ENDMDL
MODEL 5
REMARK VINA RESULT:    -3.347     18.074     19.460
REMARK INTER + INTRA:          -3.893
REMARK INTER:                  -3.841
REMARK INTRA:                  -0.052
REMARK UNBOUND:                -0.057
REMARK SMILES COc1cc(C=O)ccc1O
REMARK SMILES IDX 3 1 10 2 9 3 8 4 5 5 4 6 2 7 1 8 11 9 6 11 7 12
REMARK H PARENT 11 10
REMARK Flexibility Score: inf
ROOT
ATOM      1  C   UNL     1      50.211  34.144  84.889  1.00  0.00     0.161 A 
ATOM      2  C   UNL     1      48.880  34.361  85.293  1.00  0.00     0.157 A 
ATOM      3  C   UNL     1      48.602  34.743  86.609  1.00  0.00     0.051 A 
ATOM      4  C   UNL     1      49.635  34.912  87.531  1.00  0.00     0.015 A 
ATOM      5  C   UNL     1      50.969  34.700  87.146  1.00  0.00     0.018 A 
ATOM      6  C   UNL     1      51.251  34.317  85.826  1.00  0.00     0.062 A 
ENDROOT
BRANCH   1   7
ATOM      7  O   UNL     1      50.462  33.761  83.562  1.00  0.00    -0.493 OA
ATOM      8  C   UNL     1      51.710  33.924  82.896  1.00  0.00     0.278 C 
ENDBRANCH   1   7
BRANCH   2   9
ATOM      9  O   UNL     1      47.822  34.201  84.400  1.00  0.00    -0.504 OA
ATOM     10  H   UNL     1      47.043  34.848  84.363  1.00  0.00     0.293 HD
ENDBRANCH   2   9
BRANCH   5  11
ATOM     11  C   UNL     1      52.074  34.875  88.106  1.00  0.00     0.260 C 
ATOM     12  O   UNL     1      52.494  36.023  88.413  1.00  0.00    -0.298 OA
ENDBRANCH   5  11
TORSDOF 3
ENDMDL
MODEL 6
REMARK VINA RESULT:    -3.338      2.045      4.095
REMARK INTER + INTRA:          -3.882
REMARK INTER:                  -3.832
REMARK INTRA:                  -0.050
REMARK UNBOUND:                -0.057
REMARK SMILES COc1cc(C=O)ccc1O
REMARK SMILES IDX 3 1 10 2 9 3 8 4 5 5 4 6 2 7 1 8 11 9 6 11 7 12
REMARK H PARENT 11 10
REMARK Flexibility Score: inf
ROOT
ATOM      1  C   UNL     1      37.754  21.098  80.350  1.00  0.00     0.161 A 
ATOM      2  C   UNL     1      37.894  19.783  80.831  1.00  0.00     0.157 A 
ATOM      3  C   UNL     1      39.016  19.026  80.481  1.00  0.00     0.051 A 
ATOM      4  C   UNL     1      40.004  19.564  79.655  1.00  0.00     0.015 A 
ATOM      5  C   UNL     1      39.881  20.874  79.166  1.00  0.00     0.018 A 
ATOM      6  C   UNL     1      38.756  21.636  79.516  1.00  0.00     0.062 A 
ENDROOT
BRANCH   1   7
ATOM      7  O   UNL     1      36.617  21.836  80.717  1.00  0.00    -0.493 OA
ATOM      8  C   UNL     1      36.335  23.159  80.275  1.00  0.00     0.278 C 
ENDBRANCH   1   7
BRANCH   2   9
ATOM      9  O   UNL     1      36.927  19.212  81.658  1.00  0.00    -0.504 OA
ATOM     10  H   UNL     1      35.940  19.241  81.434  1.00  0.00     0.293 HD
ENDBRANCH   2   9
BRANCH   5  11
ATOM     11  C   UNL     1      40.915  21.460  78.293  1.00  0.00     0.260 C 
ATOM     12  O   UNL     1      40.832  21.376  77.039  1.00  0.00    -0.298 OA
ENDBRANCH   5  11
TORSDOF 3
ENDMDL
MODEL 7
REMARK VINA RESULT:    -3.296     18.139     19.960
REMARK INTER + INTRA:          -3.835
REMARK INTER:                  -3.778
REMARK INTRA:                  -0.057
REMARK UNBOUND:                -0.057
REMARK SMILES COc1cc(C=O)ccc1O
REMARK SMILES IDX 3 1 10 2 9 3 8 4 5 5 4 6 2 7 1 8 11 9 6 11 7 12
REMARK H PARENT 11 10
REMARK Flexibility Score: inf
ROOT
ATOM      1  C   UNL     1      51.376  34.334  85.994  1.00  0.00     0.161 A 
ATOM      2  C   UNL     1      52.736  34.281  85.633  1.00  0.00     0.157 A 
ATOM      3  C   UNL     1      53.097  34.081  84.298  1.00  0.00     0.051 A 
ATOM      4  C   UNL     1      52.120  33.934  83.314  1.00  0.00     0.015 A 
ATOM      5  C   UNL     1      50.759  33.985  83.655  1.00  0.00     0.018 A 
ATOM      6  C   UNL     1      50.392  34.184  84.995  1.00  0.00     0.062 A 
ENDROOT
BRANCH   1   7
ATOM      7  O   UNL     1      51.041  34.535  87.343  1.00  0.00    -0.493 OA
ATOM      8  C   UNL     1      49.985  35.374  87.797  1.00  0.00     0.278 C 
ENDBRANCH   1   7
BRANCH   2   9
ATOM      9  O   UNL     1      53.741  34.423  86.590  1.00  0.00    -0.504 OA
ATOM     10  H   UNL     1      53.995  35.323  86.977  1.00  0.00     0.293 HD
ENDBRANCH   2   9
BRANCH   5  11
ATOM     11  C   UNL     1      49.711  33.832  82.628  1.00  0.00     0.260 C 
ATOM     12  O   UNL     1      49.533  34.712  81.744  1.00  0.00    -0.298 OA
ENDBRANCH   5  11
TORSDOF 3
ENDMDL
MODEL 8
REMARK VINA RESULT:    -3.255     18.289     19.381
REMARK INTER + INTRA:          -3.788
REMARK INTER:                  -3.725
REMARK INTRA:                  -0.063
REMARK UNBOUND:                -0.057
REMARK SMILES COc1cc(C=O)ccc1O
REMARK SMILES IDX 3 1 10 2 9 3 8 4 5 5 4 6 2 7 1 8 11 9 6 11 7 12
REMARK H PARENT 11 10
REMARK Flexibility Score: inf
ROOT
ATOM      1  C   UNL     1      50.105  34.240  85.203  1.00  0.00     0.161 A 
ATOM      2  C   UNL     1      49.152  34.595  84.231  1.00  0.00     0.157 A 
ATOM      3  C   UNL     1      49.472  34.508  82.873  1.00  0.00     0.051 A 
ATOM      4  C   UNL     1      50.733  34.068  82.469  1.00  0.00     0.015 A 
ATOM      5  C   UNL     1      51.697  33.710  83.425  1.00  0.00     0.018 A 
ATOM      6  C   UNL     1      51.379  33.797  84.789  1.00  0.00     0.062 A 
ENDROOT
BRANCH   1   7
ATOM      7  O   UNL     1      49.757  34.338  86.560  1.00  0.00    -0.493 OA
ATOM      8  C   UNL     1      50.474  35.100  87.526  1.00  0.00     0.278 C 
ENDBRANCH   1   7
BRANCH   2   9
ATOM      9  O   UNL     1      47.881  35.039  84.597  1.00  0.00    -0.504 OA
ATOM     10  H   UNL     1      47.217  34.442  85.074  1.00  0.00     0.293 HD
ENDBRANCH   2   9
BRANCH   5  11
ATOM     11  C   UNL     1      53.035  33.243  83.018  1.00  0.00     0.260 C 
ATOM     12  O   UNL     1      53.985  34.054  82.851  1.00  0.00    -0.298 OA
ENDBRANCH   5  11
TORSDOF 3
ENDMDL
MODEL 9
REMARK VINA RESULT:    -3.241     15.758     16.749
REMARK INTER + INTRA:          -3.772
REMARK INTER:                  -3.721
REMARK INTRA:                  -0.051
REMARK UNBOUND:                -0.057
REMARK SMILES COc1cc(C=O)ccc1O
REMARK SMILES IDX 3 1 10 2 9 3 8 4 5 5 4 6 2 7 1 8 11 9 6 11 7 12
REMARK H PARENT 11 10
REMARK Flexibility Score: inf
ROOT
ATOM      1  C   UNL     1      44.756  28.956  92.490  1.00  0.00     0.161 A 
ATOM      2  C   UNL     1      43.914  30.084  92.452  1.00  0.00     0.157 A 
ATOM      3  C   UNL     1      44.346  31.257  91.826  1.00  0.00     0.051 A 
ATOM      4  C   UNL     1      45.608  31.322  91.235  1.00  0.00     0.015 A 
ATOM      5  C   UNL     1      46.461  30.207  91.263  1.00  0.00     0.018 A 
ATOM      6  C   UNL     1      46.031  29.028  91.891  1.00  0.00     0.062 A 
ENDROOT
BRANCH   1   7
ATOM      7  O   UNL     1      44.297  27.791  93.126  1.00  0.00    -0.493 OA
ATOM      8  C   UNL     1      45.061  26.598  93.277  1.00  0.00     0.278 C 
ENDBRANCH   1   7
BRANCH   2   9
ATOM      9  O   UNL     1      42.647  30.056  93.033  1.00  0.00    -0.504 OA
ATOM     10  H   UNL     1      42.454  29.546  93.886  1.00  0.00     0.293 HD
ENDBRANCH   2   9
BRANCH   5  11
ATOM     11  C   UNL     1      47.798  30.256  90.644  1.00  0.00     0.260 C 
ATOM     12  O   UNL     1      48.760  30.835  91.216  1.00  0.00    -0.298 OA
ENDBRANCH   5  11
TORSDOF 3
ENDMDL
