MODEL 1
REMARK VINA RESULT:    -3.660      0.000      0.000
REMARK INTER + INTRA:          -4.310
REMARK INTER:                  -4.301
REMARK INTRA:                  -0.009
REMARK UNBOUND:                -0.009
REMARK SMILES [NH3+][C@H](CO)C(=O)[O-]
REMARK SMILES IDX 3 1 2 2 1 3 5 7 6 8 7 9 4 10
REMARK H PARENT 1 4 1 5 1 6 4 11
REMARK Flexibility Score: inf
ROOT
ATOM      1  C   UNL     1     158.795 151.124 167.287  1.00  0.00     0.227 C 
ENDROOT
BRANCH   1   2
ATOM      2  C   UNL     1     159.693 149.984 167.801  1.00  0.00     0.253 C 
BRANCH   2   3
ATOM      3  N   UNL     1     159.742 148.875 166.840  1.00  0.00    -0.348 N 
ATOM      4  H   UNL     1     158.917 148.247 166.982  1.00  0.00     0.345 HD
ATOM      5  H   UNL     1     160.620 148.320 166.958  1.00  0.00     0.345 HD
ATOM      6  H   UNL     1     159.701 149.247 165.864  1.00  0.00     0.345 HD
ENDBRANCH   2   3
BRANCH   2   7
ATOM      7  C   UNL     1     161.081 150.505 168.065  1.00  0.00     0.102 C 
ATOM      8  O   UNL     1     161.252 151.700 168.421  1.00  0.00    -0.544 OA
ATOM      9  O   UNL     1     162.184 149.674 167.905  1.00  0.00    -0.544 OA
ENDBRANCH   2   7
ENDBRANCH   1   2
BRANCH   1  10
ATOM     10  O   UNL     1     157.461 150.703 167.196  1.00  0.00    -0.390 OA
ATOM     11  H   UNL     1     157.168 150.886 166.265  1.00  0.00     0.210 HD
ENDBRANCH   1  10
TORSDOF 4
ENDMDL
MODEL 2
REMARK VINA RESULT:    -3.652     23.879     24.299
REMARK INTER + INTRA:          -4.302
REMARK INTER:                  -4.087
REMARK INTRA:                  -0.216
REMARK UNBOUND:                -0.009
REMARK SMILES [NH3+][C@H](CO)C(=O)[O-]
REMARK SMILES IDX 3 1 2 2 1 3 5 7 6 8 7 9 4 10
REMARK H PARENT 1 4 1 5 1 6 4 11
REMARK Flexibility Score: inf
ROOT
ATOM      1  C   UNL     1     159.371 166.684 150.609  1.00  0.00     0.227 C 
ENDROOT
BRANCH   1   2
ATOM      2  C   UNL     1     160.093 167.974 150.176  1.00  0.00     0.253 C 
BRANCH   2   3
ATOM      3  N   UNL     1     159.732 169.099 151.047  1.00  0.00    -0.348 N 
ATOM      4  H   UNL     1     159.918 168.848 152.045  1.00  0.00     0.345 HD
ATOM      5  H   UNL     1     158.721 169.344 150.937  1.00  0.00     0.345 HD
ATOM      6  H   UNL     1     160.314 169.934 150.809  1.00  0.00     0.345 HD
ENDBRANCH   2   3
BRANCH   2   7
ATOM      7  C   UNL     1     161.582 167.759 150.193  1.00  0.00     0.102 C 
ATOM      8  O   UNL     1     162.365 168.737 150.071  1.00  0.00    -0.544 OA
ATOM      9  O   UNL     1     162.104 166.477 150.327  1.00  0.00    -0.544 OA
ENDBRANCH   2   7
ENDBRANCH   1   2
BRANCH   1  10
ATOM     10  O   UNL     1     159.805 166.274 151.877  1.00  0.00    -0.390 OA
ATOM     11  H   UNL     1     160.520 166.906 152.151  1.00  0.00     0.210 HD
ENDBRANCH   1  10
TORSDOF 4
ENDMDL
MODEL 3
REMARK VINA RESULT:    -3.651     17.015     17.717
REMARK INTER + INTRA:          -4.301
REMARK INTER:                  -4.093
REMARK INTRA:                  -0.208
REMARK UNBOUND:                -0.009
REMARK SMILES [NH3+][C@H](CO)C(=O)[O-]
REMARK SMILES IDX 3 1 2 2 1 3 5 7 6 8 7 9 4 10
REMARK H PARENT 1 4 1 5 1 6 4 11
REMARK Flexibility Score: inf
ROOT
ATOM      1  C   UNL     1     158.650 166.722 167.398  1.00  0.00     0.227 C 
ENDROOT
BRANCH   1   2
ATOM      2  C   UNL     1     157.928 168.024 167.790  1.00  0.00     0.253 C 
BRANCH   2   3
ATOM      3  N   UNL     1     158.297 169.125 166.891  1.00  0.00    -0.348 N 
ATOM      4  H   UNL     1     157.449 169.692 166.659  1.00  0.00     0.345 HD
ATOM      5  H   UNL     1     158.716 168.756 166.005  1.00  0.00     0.345 HD
ATOM      6  H   UNL     1     158.988 169.752 167.361  1.00  0.00     0.345 HD
ENDBRANCH   2   3
BRANCH   2   7
ATOM      7  C   UNL     1     156.438 167.811 167.768  1.00  0.00     0.102 C 
ATOM      8  O   UNL     1     155.657 168.783 167.941  1.00  0.00    -0.544 OA
ATOM      9  O   UNL     1     155.915 166.538 167.573  1.00  0.00    -0.544 OA
ENDBRANCH   2   7
ENDBRANCH   1   2
BRANCH   1  10
ATOM     10  O   UNL     1     158.251 166.296 166.124  1.00  0.00    -0.390 OA
ATOM     11  H   UNL     1     159.076 166.026 165.642  1.00  0.00     0.210 HD
ENDBRANCH   1  10
TORSDOF 4
ENDMDL
MODEL 4
REMARK VINA RESULT:    -3.598      1.924      1.974
REMARK INTER + INTRA:          -4.238
REMARK INTER:                  -4.001
REMARK INTRA:                  -0.237
REMARK UNBOUND:                -0.009
REMARK SMILES [NH3+][C@H](CO)C(=O)[O-]
REMARK SMILES IDX 3 1 2 2 1 3 5 7 6 8 7 9 4 10
REMARK H PARENT 1 4 1 5 1 6 4 11
REMARK Flexibility Score: inf
ROOT
ATOM      1  C   UNL     1     159.050 150.116 166.866  1.00  0.00     0.227 C 
ENDROOT
BRANCH   1   2
ATOM      2  C   UNL     1     160.070 151.269 166.859  1.00  0.00     0.253 C 
BRANCH   2   3
ATOM      3  N   UNL     1     159.398 152.570 166.970  1.00  0.00    -0.348 N 
ATOM      4  H   UNL     1     158.820 152.597 167.841  1.00  0.00     0.345 HD
ATOM      5  H   UNL     1     158.780 152.740 166.143  1.00  0.00     0.345 HD
ATOM      6  H   UNL     1     160.109 153.334 167.028  1.00  0.00     0.345 HD
ENDBRANCH   2   3
BRANCH   2   7
ATOM      7  C   UNL     1     161.051 151.092 167.987  1.00  0.00     0.102 C 
ATOM      8  O   UNL     1     160.966 151.809 169.019  1.00  0.00    -0.544 OA
ATOM      9  O   UNL     1     162.067 150.148 167.892  1.00  0.00    -0.544 OA
ENDBRANCH   2   7
ENDBRANCH   1   2
BRANCH   1  10
ATOM     10  O   UNL     1     159.702 148.876 166.814  1.00  0.00    -0.390 OA
ATOM     11  H   UNL     1     159.310 148.381 166.047  1.00  0.00     0.210 HD
ENDBRANCH   1  10
TORSDOF 4
ENDMDL
MODEL 5
REMARK VINA RESULT:    -3.565     16.900     17.670
REMARK INTER + INTRA:          -4.200
REMARK INTER:                  -4.194
REMARK INTRA:                  -0.006
REMARK UNBOUND:                -0.009
REMARK SMILES [NH3+][C@H](CO)C(=O)[O-]
REMARK SMILES IDX 3 1 2 2 1 3 5 7 6 8 7 9 4 10
REMARK H PARENT 1 4 1 5 1 6 4 11
REMARK Flexibility Score: inf
ROOT
ATOM      1  C   UNL     1     159.389 151.009 150.604  1.00  0.00     0.227 C 
ENDROOT
BRANCH   1   2
ATOM      2  C   UNL     1     158.341 149.975 150.156  1.00  0.00     0.253 C 
BRANCH   2   3
ATOM      3  N   UNL     1     158.234 148.877 151.124  1.00  0.00    -0.348 N 
ATOM      4  H   UNL     1     158.248 147.959 150.622  1.00  0.00     0.345 HD
ATOM      5  H   UNL     1     157.347 148.952 151.674  1.00  0.00     0.345 HD
ATOM      6  H   UNL     1     159.047 148.900 151.780  1.00  0.00     0.345 HD
ENDBRANCH   2   3
BRANCH   2   7
ATOM      7  C   UNL     1     157.004 150.644 149.977  1.00  0.00     0.102 C 
ATOM      8  O   UNL     1     155.953 150.075 150.372  1.00  0.00    -0.544 OA
ATOM      9  O   UNL     1     156.919 151.888 149.362  1.00  0.00    -0.544 OA
ENDBRANCH   2   7
ENDBRANCH   1   2
BRANCH   1  10
ATOM     10  O   UNL     1     160.523 150.373 151.127  1.00  0.00    -0.390 OA
ATOM     11  H   UNL     1     160.837 150.930 151.887  1.00  0.00     0.210 HD
ENDBRANCH   1  10
TORSDOF 4
ENDMDL
MODEL 6
REMARK VINA RESULT:    -3.538     16.638     17.259
REMARK INTER + INTRA:          -4.167
REMARK INTER:                  -3.763
REMARK INTRA:                  -0.405
REMARK UNBOUND:                -0.009
REMARK SMILES [NH3+][C@H](CO)C(=O)[O-]
REMARK SMILES IDX 3 1 2 2 1 3 5 7 6 8 7 9 4 10
REMARK H PARENT 1 4 1 5 1 6 4 11
REMARK Flexibility Score: inf
ROOT
ATOM      1  C   UNL     1     158.337 168.091 167.124  1.00  0.00     0.227 C 
ENDROOT
BRANCH   1   2
ATOM      2  C   UNL     1     157.132 167.945 168.071  1.00  0.00     0.253 C 
BRANCH   2   3
ATOM      3  N   UNL     1     155.995 168.750 167.609  1.00  0.00    -0.348 N 
ATOM      4  H   UNL     1     155.187 168.125 167.382  1.00  0.00     0.345 HD
ATOM      5  H   UNL     1     156.252 169.301 166.758  1.00  0.00     0.345 HD
ATOM      6  H   UNL     1     155.694 169.408 168.364  1.00  0.00     0.345 HD
ENDBRANCH   2   3
BRANCH   2   7
ATOM      7  C   UNL     1     156.736 166.497 168.178  1.00  0.00     0.102 C 
ATOM      8  O   UNL     1     157.222 165.772 169.086  1.00  0.00    -0.544 OA
ATOM      9  O   UNL     1     155.843 165.945 167.266  1.00  0.00    -0.544 OA
ENDBRANCH   2   7
ENDBRANCH   1   2
BRANCH   1  10
ATOM     10  O   UNL     1     158.631 166.870 166.502  1.00  0.00    -0.390 OA
ATOM     11  H   UNL     1     159.450 167.017 165.960  1.00  0.00     0.210 HD
ENDBRANCH   1  10
TORSDOF 4
ENDMDL
MODEL 7
REMARK VINA RESULT:    -3.535     23.900     24.257
REMARK INTER + INTRA:          -4.164
REMARK INTER:                  -3.767
REMARK INTRA:                  -0.397
REMARK UNBOUND:                -0.009
REMARK SMILES [NH3+][C@H](CO)C(=O)[O-]
REMARK SMILES IDX 3 1 2 2 1 3 5 7 6 8 7 9 4 10
REMARK H PARENT 1 4 1 5 1 6 4 11
REMARK Flexibility Score: inf
ROOT
ATOM      1  C   UNL     1     159.630 168.136 150.804  1.00  0.00     0.227 C 
ENDROOT
BRANCH   1   2
ATOM      2  C   UNL     1     160.865 167.969 149.901  1.00  0.00     0.253 C 
BRANCH   2   3
ATOM      3  N   UNL     1     161.990 168.777 150.388  1.00  0.00    -0.348 N 
ATOM      4  H   UNL     1     162.469 169.239 149.581  1.00  0.00     0.345 HD
ATOM      5  H   UNL     1     162.680 168.181 150.901  1.00  0.00     0.345 HD
ATOM      6  H   UNL     1     161.640 169.525 151.028  1.00  0.00     0.345 HD
ENDBRANCH   2   3
BRANCH   2   7
ATOM      7  C   UNL     1     161.258 166.517 149.832  1.00  0.00     0.102 C 
ATOM      8  O   UNL     1     160.758 165.766 148.954  1.00  0.00    -0.544 OA
ATOM      9  O   UNL     1     162.163 165.992 150.748  1.00  0.00    -0.544 OA
ENDBRANCH   2   7
ENDBRANCH   1   2
BRANCH   1  10
ATOM     10  O   UNL     1     159.380 166.961 151.527  1.00  0.00    -0.390 OA
ATOM     11  H   UNL     1     159.374 167.215 152.487  1.00  0.00     0.210 HD
ENDBRANCH   1  10
TORSDOF 4
ENDMDL
MODEL 8
REMARK VINA RESULT:    -3.517     16.833     17.534
REMARK INTER + INTRA:          -4.143
REMARK INTER:                  -3.899
REMARK INTRA:                  -0.243
REMARK UNBOUND:                -0.009
REMARK SMILES [NH3+][C@H](CO)C(=O)[O-]
REMARK SMILES IDX 3 1 2 2 1 3 5 7 6 8 7 9 4 10
REMARK H PARENT 1 4 1 5 1 6 4 11
REMARK Flexibility Score: inf
ROOT
ATOM      1  C   UNL     1     159.059 150.018 151.073  1.00  0.00     0.227 C 
ENDROOT
BRANCH   1   2
ATOM      2  C   UNL     1     158.203 151.296 151.125  1.00  0.00     0.253 C 
BRANCH   2   3
ATOM      3  N   UNL     1     158.988 152.475 150.738  1.00  0.00    -0.348 N 
ATOM      4  H   UNL     1     159.702 152.205 150.021  1.00  0.00     0.345 HD
ATOM      5  H   UNL     1     159.474 152.886 151.568  1.00  0.00     0.345 HD
ATOM      6  H   UNL     1     158.362 153.197 150.315  1.00  0.00     0.345 HD
ENDBRANCH   2   3
BRANCH   2   7
ATOM      7  C   UNL     1     157.007 151.149 150.224  1.00  0.00     0.102 C 
ATOM      8  O   UNL     1     157.122 150.583 149.105  1.00  0.00    -0.544 OA
ATOM      9  O   UNL     1     155.769 151.650 150.613  1.00  0.00    -0.544 OA
ENDBRANCH   2   7
ENDBRANCH   1   2
BRANCH   1  10
ATOM     10  O   UNL     1     158.250 148.875 151.128  1.00  0.00    -0.390 OA
ATOM     11  H   UNL     1     157.335 149.162 150.870  1.00  0.00     0.210 HD
ENDBRANCH   1  10
TORSDOF 4
ENDMDL
MODEL 9
REMARK VINA RESULT:    -3.478      1.766      2.788
REMARK INTER + INTRA:          -4.097
REMARK INTER:                  -3.690
REMARK INTRA:                  -0.407
REMARK UNBOUND:                -0.009
REMARK SMILES [NH3+][C@H](CO)C(=O)[O-]
REMARK SMILES IDX 3 1 2 2 1 3 5 7 6 8 7 9 4 10
REMARK H PARENT 1 4 1 5 1 6 4 11
REMARK Flexibility Score: inf
ROOT
ATOM      1  C   UNL     1     160.036 149.626 167.907  1.00  0.00     0.227 C 
ENDROOT
BRANCH   1   2
ATOM      2  C   UNL     1     159.338 150.476 166.829  1.00  0.00     0.253 C 
BRANCH   2   3
ATOM      3  N   UNL     1     157.877 150.377 166.943  1.00  0.00    -0.348 N 
ATOM      4  H   UNL     1     157.550 150.911 167.781  1.00  0.00     0.345 HD
ATOM      5  H   UNL     1     157.578 149.379 167.034  1.00  0.00     0.345 HD
ATOM      6  H   UNL     1     157.425 150.793 166.097  1.00  0.00     0.345 HD
ENDBRANCH   2   3
BRANCH   2   7
ATOM      7  C   UNL     1     159.773 151.912 166.946  1.00  0.00     0.102 C 
ATOM      8  O   UNL     1     160.714 152.348 166.232  1.00  0.00    -0.544 OA
ATOM      9  O   UNL     1     159.151 152.762 167.853  1.00  0.00    -0.544 OA
ENDBRANCH   2   7
ENDBRANCH   1   2
BRANCH   1  10
ATOM     10  O   UNL     1     160.878 150.420 168.697  1.00  0.00    -0.390 OA
ATOM     11  H   UNL     1     161.712 149.900 168.836  1.00  0.00     0.210 HD
ENDBRANCH   1  10
TORSDOF 4
ENDMDL
