MODEL 1
REMARK VINA RESULT:     6.696      0.000      0.000
REMARK INTER + INTRA:          10.537
REMARK INTER:                   8.262
REMARK INTRA:                   2.275
REMARK UNBOUND:                 2.275
REMARK SMILES C=C1CC[C@@H]2[C@@H]([C@H]3[C@H](C)CC[C@H]13)C2(C)C
REMARK SMILES IDX 3 1 2 2 1 3 12 4 9 5 8 6 10 7 7 8 11 9 4 11 5 12 6 13 13 14
REMARK SMILES IDX 14 16 15 17
REMARK H PARENT
REMARK Flexibility Score: 80.00
ROOT
ATOM      1  C   UNL     1       6.574   4.876  12.513  1.00  0.00     0.031 C 
ENDROOT
BRANCH   1   2
ATOM      2  C   UNL     1       5.303   5.689  12.246  1.00  0.00    -0.074 C 
ATOM      3  C   UNL     1       4.120   5.129  12.559  1.00  0.00     0.008 C 
BRANCH   2   4
ATOM      4  C   UNL     1       5.280   7.075  11.577  1.00  0.00     0.018 C 
ATOM      5  C   UNL     1       5.439  10.802  12.181  1.00  0.00     0.008 C 
ATOM      6  C   UNL     1       5.461   9.451  11.460  1.00  0.00    -0.010 C 
ATOM      7  C   UNL     1       4.076   9.072  10.901  1.00  0.00     0.004 C 
ATOM      8  C   UNL     1       5.830   8.275  12.370  1.00  0.00     0.003 CG0
ATOM      9  C   UNL     1       3.906   7.564  11.131  1.00  0.00     0.008 C 
ATOM     10  G   UNL     1       7.340   8.055  12.577  1.00  0.00     0.000 G0
ENDBRANCH   2   4
ENDBRANCH   1   2
BRANCH   1  11
ATOM     11  C   UNL     1       7.871   5.714  12.621  1.00  0.00     0.009 C 
BRANCH  11  12
ATOM     12  C   UNL     1       7.571   6.912  13.518  1.00  0.00    -0.001 C 
ATOM     13  C   UNL     1       7.376   8.138  12.579  1.00  0.00     0.002 CG0
ATOM     14  C   UNL     1       8.313   8.197  13.785  1.00  0.00    -0.029 C 
ATOM     15  G   UNL     1       5.851   8.175  12.374  1.00  0.00     0.000 G0
ATOM     16  C   UNL     1       9.819   8.169  13.504  1.00  0.00     0.011 C 
ATOM     17  C   UNL     1       7.837   9.011  14.991  1.00  0.00     0.011 C 
ENDBRANCH  11  12
ENDBRANCH   1  11
TORSDOF 0
ENDMDL
MODEL 2
REMARK VINA RESULT:     8.456      1.101      3.779
REMARK INTER + INTRA:          12.708
REMARK INTER:                  10.424
REMARK INTRA:                   2.284
REMARK UNBOUND:                 2.275
REMARK SMILES C=C1CC[C@@H]2[C@@H]([C@H]3[C@H](C)CC[C@H]13)C2(C)C
REMARK SMILES IDX 3 1 2 2 1 3 12 4 9 5 8 6 10 7 7 8 11 9 4 11 5 12 6 13 13 14
REMARK SMILES IDX 14 16 15 17
REMARK H PARENT
REMARK Flexibility Score: 80.00
ROOT
ATOM      1  C   UNL     1       6.123   4.875  12.533  1.00  0.00     0.031 C 
ENDROOT
BRANCH   1   2
ATOM      2  C   UNL     1       7.482   5.586  12.544  1.00  0.00    -0.074 C 
ATOM      3  C   UNL     1       8.475   5.053  11.810  1.00  0.00     0.008 C 
BRANCH   2   4
ATOM      4  C   UNL     1       7.809   6.826  13.395  1.00  0.00     0.018 C 
ATOM      5  C   UNL     1       7.795  10.604  13.487  1.00  0.00     0.008 C 
ATOM      6  C   UNL     1       7.867   9.145  13.949  1.00  0.00    -0.010 C 
ATOM      7  C   UNL     1       9.318   8.627  14.004  1.00  0.00     0.004 C 
ATOM      8  C   UNL     1       7.158   8.166  13.009  1.00  0.00     0.003 CG0
ATOM      9  C   UNL     1       9.289   7.181  13.490  1.00  0.00     0.008 C 
ATOM     10  G   UNL     1       5.639   8.035  13.224  1.00  0.00     0.000 G0
ENDBRANCH   2   4
ENDBRANCH   1   2
BRANCH   1  11
ATOM     11  C   UNL     1       4.922   5.765  12.934  1.00  0.00     0.009 C 
BRANCH  11  12
ATOM     12  C   UNL     1       5.064   7.092  12.193  1.00  0.00    -0.001 C 
ATOM     13  C   UNL     1       5.606   8.126  13.223  1.00  0.00     0.002 CG0
ATOM     14  C   UNL     1       4.385   8.429  12.354  1.00  0.00    -0.029 C 
ATOM     15  G   UNL     1       7.128   8.074  12.993  1.00  0.00     0.000 G0
ATOM     16  C   UNL     1       3.016   8.403  13.040  1.00  0.00     0.011 C 
ATOM     17  C   UNL     1       4.581   9.426  11.210  1.00  0.00     0.011 C 
ENDBRANCH  11  12
ENDBRANCH   1  11
TORSDOF 0
ENDMDL
