MODEL 1
REMARK VINA RESULT:    -4.021      0.000      0.000
REMARK INTER + INTRA:          -4.658
REMARK INTER:                  -4.609
REMARK INTRA:                  -0.049
REMARK UNBOUND:                -0.049
REMARK SMILES CC(C)[C@H]([NH3+])C(=O)[O-]
REMARK SMILES IDX 4 1 5 2 6 6 7 7 8 8 2 9 1 10 3 11
REMARK H PARENT 5 3 5 4 5 5
REMARK Flexibility Score: inf
ROOT
ATOM      1  C   UNL     1       6.310 -11.992 -28.806  1.00  0.00     0.230 C 
ENDROOT
BRANCH   1   2
ATOM      2  N   UNL     1       5.098 -11.166 -28.905  1.00  0.00    -0.350 N 
ATOM      3  H   UNL     1       5.367 -10.157 -28.968  1.00  0.00     0.345 HD
ATOM      4  H   UNL     1       4.509 -11.290 -28.049  1.00  0.00     0.345 HD
ATOM      5  H   UNL     1       4.533 -11.413 -29.748  1.00  0.00     0.345 HD
ENDBRANCH   1   2
BRANCH   1   6
ATOM      6  C   UNL     1       6.312 -12.783 -27.519  1.00  0.00     0.099 C 
ATOM      7  O   UNL     1       5.949 -12.237 -26.445  1.00  0.00    -0.544 OA
ATOM      8  O   UNL     1       6.687 -14.122 -27.512  1.00  0.00    -0.544 OA
ENDBRANCH   1   6
BRANCH   1   9
ATOM      9  C   UNL     1       7.604 -11.142 -28.990  1.00  0.00     0.047 C 
ATOM     10  C   UNL     1       8.872 -11.986 -29.201  1.00  0.00     0.014 C 
ATOM     11  C   UNL     1       7.449 -10.130 -30.136  1.00  0.00     0.014 C 
ENDBRANCH   1   9
TORSDOF 3
ENDMDL
MODEL 2
REMARK VINA RESULT:    -3.999      0.886      1.422
REMARK INTER + INTRA:          -4.633
REMARK INTER:                  -4.566
REMARK INTRA:                  -0.067
REMARK UNBOUND:                -0.049
REMARK SMILES CC(C)[C@H]([NH3+])C(=O)[O-]
REMARK SMILES IDX 4 1 5 2 6 6 7 7 8 8 2 9 1 10 3 11
REMARK H PARENT 5 3 5 4 5 5
REMARK Flexibility Score: inf
ROOT
ATOM      1  C   UNL     1       6.179 -11.330 -29.165  1.00  0.00     0.230 C 
ENDROOT
BRANCH   1   2
ATOM      2  N   UNL     1       4.850 -10.702 -29.181  1.00  0.00    -0.350 N 
ATOM      3  H   UNL     1       4.955  -9.666 -29.284  1.00  0.00     0.345 HD
ATOM      4  H   UNL     1       4.354 -10.889 -28.279  1.00  0.00     0.345 HD
ATOM      5  H   UNL     1       4.268 -11.057 -29.973  1.00  0.00     0.345 HD
ENDBRANCH   1   2
BRANCH   1   6
ATOM      6  C   UNL     1       6.239 -12.421 -28.122  1.00  0.00     0.099 C 
ATOM      7  O   UNL     1       6.555 -13.593 -28.456  1.00  0.00    -0.544 OA
ATOM      8  O   UNL     1       5.974 -12.139 -26.787  1.00  0.00    -0.544 OA
ENDBRANCH   1   6
BRANCH   1   9
ATOM      9  C   UNL     1       7.313 -10.275 -28.996  1.00  0.00     0.047 C 
ATOM     10  C   UNL     1       8.724 -10.841 -29.235  1.00  0.00     0.014 C 
ATOM     11  C   UNL     1       7.078  -9.052 -29.897  1.00  0.00     0.014 C 
ENDBRANCH   1   9
TORSDOF 3
ENDMDL
MODEL 3
REMARK VINA RESULT:    -3.961      2.652      3.273
REMARK INTER + INTRA:          -4.588
REMARK INTER:                  -4.514
REMARK INTRA:                  -0.074
REMARK UNBOUND:                -0.049
REMARK SMILES CC(C)[C@H]([NH3+])C(=O)[O-]
REMARK SMILES IDX 4 1 5 2 6 6 7 7 8 8 2 9 1 10 3 11
REMARK H PARENT 5 3 5 4 5 5
REMARK Flexibility Score: inf
ROOT
ATOM      1  C   UNL     1       6.231 -11.081 -29.338  1.00  0.00     0.230 C 
ENDROOT
BRANCH   1   2
ATOM      2  N   UNL     1       4.806 -10.746 -29.200  1.00  0.00    -0.350 N 
ATOM      3  H   UNL     1       4.237 -11.387 -29.800  1.00  0.00     0.345 HD
ATOM      4  H   UNL     1       4.635  -9.765 -29.521  1.00  0.00     0.345 HD
ATOM      5  H   UNL     1       4.484 -10.843 -28.210  1.00  0.00     0.345 HD
ENDBRANCH   1   2
BRANCH   1   6
ATOM      6  C   UNL     1       6.633 -11.103 -30.794  1.00  0.00     0.099 C 
ATOM      7  O   UNL     1       7.394 -10.210 -31.251  1.00  0.00    -0.544 OA
ATOM      8  O   UNL     1       6.192 -12.119 -31.635  1.00  0.00    -0.544 OA
ENDBRANCH   1   6
BRANCH   1   9
ATOM      9  C   UNL     1       6.587 -12.404 -28.597  1.00  0.00     0.047 C 
ATOM     10  C   UNL     1       8.074 -12.784 -28.692  1.00  0.00     0.014 C 
ATOM     11  C   UNL     1       6.151 -12.354 -27.124  1.00  0.00     0.014 C 
ENDBRANCH   1   9
TORSDOF 3
ENDMDL
MODEL 4
REMARK VINA RESULT:    -3.922      2.292      3.214
REMARK INTER + INTRA:          -4.543
REMARK INTER:                  -4.486
REMARK INTRA:                  -0.057
REMARK UNBOUND:                -0.049
REMARK SMILES CC(C)[C@H]([NH3+])C(=O)[O-]
REMARK SMILES IDX 4 1 5 2 6 6 7 7 8 8 2 9 1 10 3 11
REMARK H PARENT 5 3 5 4 5 5
REMARK Flexibility Score: inf
ROOT
ATOM      1  C   UNL     1       6.508 -11.495 -28.266  1.00  0.00     0.230 C 
ENDROOT
BRANCH   1   2
ATOM      2  N   UNL     1       5.137 -11.296 -28.755  1.00  0.00    -0.350 N 
ATOM      3  H   UNL     1       4.915 -12.019 -29.478  1.00  0.00     0.345 HD
ATOM      4  H   UNL     1       5.049 -10.354 -29.203  1.00  0.00     0.345 HD
ATOM      5  H   UNL     1       4.438 -11.374 -27.982  1.00  0.00     0.345 HD
ENDBRANCH   1   2
BRANCH   1   6
ATOM      6  C   UNL     1       7.457 -10.524 -28.929  1.00  0.00     0.099 C 
ATOM      7  O   UNL     1       8.668 -10.832 -29.080  1.00  0.00    -0.544 OA
ATOM      8  O   UNL     1       7.000  -9.299 -29.402  1.00  0.00    -0.544 OA
ENDBRANCH   1   6
BRANCH   1   9
ATOM      9  C   UNL     1       6.964 -12.978 -28.416  1.00  0.00     0.047 C 
ATOM     10  C   UNL     1       6.897 -13.780 -27.106  1.00  0.00     0.014 C 
ATOM     11  C   UNL     1       6.168 -13.698 -29.515  1.00  0.00     0.014 C 
ENDBRANCH   1   9
TORSDOF 3
ENDMDL
MODEL 5
REMARK VINA RESULT:    -3.844     14.889     15.794
REMARK INTER + INTRA:          -4.454
REMARK INTER:                  -4.542
REMARK INTRA:                   0.088
REMARK UNBOUND:                -0.049
REMARK SMILES CC(C)[C@H]([NH3+])C(=O)[O-]
REMARK SMILES IDX 4 1 5 2 6 6 7 7 8 8 2 9 1 10 3 11
REMARK H PARENT 5 3 5 4 5 5
REMARK Flexibility Score: inf
ROOT
ATOM      1  C   UNL     1       0.836 -13.989 -14.796  1.00  0.00     0.230 C 
ENDROOT
BRANCH   1   2
ATOM      2  N   UNL     1       0.961 -12.624 -14.266  1.00  0.00    -0.350 N 
ATOM      3  H   UNL     1       0.473 -11.955 -14.906  1.00  0.00     0.345 HD
ATOM      4  H   UNL     1       1.969 -12.348 -14.217  1.00  0.00     0.345 HD
ATOM      5  H   UNL     1       0.537 -12.541 -13.314  1.00  0.00     0.345 HD
ENDBRANCH   1   2
BRANCH   1   6
ATOM      6  C   UNL     1      -0.434 -14.134 -15.600  1.00  0.00     0.099 C 
ATOM      7  O   UNL     1      -1.492 -13.572 -15.213  1.00  0.00    -0.544 OA
ATOM      8  O   UNL     1      -0.443 -14.864 -16.784  1.00  0.00    -0.544 OA
ENDBRANCH   1   6
BRANCH   1   9
ATOM      9  C   UNL     1       0.958 -15.058 -13.669  1.00  0.00     0.047 C 
ATOM     10  C   UNL     1      -0.192 -15.014 -12.648  1.00  0.00     0.014 C 
ATOM     11  C   UNL     1       1.088 -16.474 -14.253  1.00  0.00     0.014 C 
ENDBRANCH   1   9
TORSDOF 3
ENDMDL
MODEL 6
REMARK VINA RESULT:    -3.835     15.840     16.614
REMARK INTER + INTRA:          -4.444
REMARK INTER:                  -4.526
REMARK INTRA:                   0.082
REMARK UNBOUND:                -0.049
REMARK SMILES CC(C)[C@H]([NH3+])C(=O)[O-]
REMARK SMILES IDX 4 1 5 2 6 6 7 7 8 8 2 9 1 10 3 11
REMARK H PARENT 5 3 5 4 5 5
REMARK Flexibility Score: inf
ROOT
ATOM      1  C   UNL     1       0.368 -13.637 -13.508  1.00  0.00     0.230 C 
ENDROOT
BRANCH   1   2
ATOM      2  N   UNL     1       1.064 -12.710 -14.412  1.00  0.00    -0.350 N 
ATOM      3  H   UNL     1       2.021 -13.078 -14.622  1.00  0.00     0.345 HD
ATOM      4  H   UNL     1       1.170 -11.774 -13.955  1.00  0.00     0.345 HD
ATOM      5  H   UNL     1       0.548 -12.593 -15.314  1.00  0.00     0.345 HD
ENDBRANCH   1   2
BRANCH   1   6
ATOM      6  C   UNL     1       0.645 -15.069 -13.900  1.00  0.00     0.099 C 
ATOM      7  O   UNL     1       0.786 -15.374 -15.113  1.00  0.00    -0.544 OA
ATOM      8  O   UNL     1       0.772 -16.056 -12.929  1.00  0.00    -0.544 OA
ENDBRANCH   1   6
BRANCH   1   9
ATOM      9  C   UNL     1      -1.155 -13.322 -13.420  1.00  0.00     0.047 C 
ATOM     10  C   UNL     1      -1.885 -13.422 -14.771  1.00  0.00     0.014 C 
ATOM     11  C   UNL     1      -1.851 -14.214 -12.380  1.00  0.00     0.014 C 
ENDBRANCH   1   9
TORSDOF 3
ENDMDL
MODEL 7
REMARK VINA RESULT:    -3.774     14.797     15.895
REMARK INTER + INTRA:          -4.374
REMARK INTER:                  -4.328
REMARK INTRA:                  -0.047
REMARK UNBOUND:                -0.049
REMARK SMILES CC(C)[C@H]([NH3+])C(=O)[O-]
REMARK SMILES IDX 4 1 5 2 6 6 7 7 8 8 2 9 1 10 3 11
REMARK H PARENT 5 3 5 4 5 5
REMARK Flexibility Score: inf
ROOT
ATOM      1  C   UNL     1      -0.320 -13.387 -14.821  1.00  0.00     0.230 C 
ENDROOT
BRANCH   1   2
ATOM      2  N   UNL     1       0.915 -12.762 -14.325  1.00  0.00    -0.350 N 
ATOM      3  H   UNL     1       0.673 -11.976 -13.678  1.00  0.00     0.345 HD
ATOM      4  H   UNL     1       1.462 -12.365 -15.125  1.00  0.00     0.345 HD
ATOM      5  H   UNL     1       1.511 -13.447 -13.808  1.00  0.00     0.345 HD
ENDBRANCH   1   2
BRANCH   1   6
ATOM      6  C   UNL     1      -1.336 -13.512 -13.710  1.00  0.00     0.099 C 
ATOM      7  O   UNL     1      -0.973 -13.400 -12.510  1.00  0.00    -0.544 OA
ATOM      8  O   UNL     1      -2.679 -13.723 -14.001  1.00  0.00    -0.544 OA
ENDBRANCH   1   6
BRANCH   1   9
ATOM      9  C   UNL     1      -0.034 -14.746 -15.528  1.00  0.00     0.047 C 
ATOM     10  C   UNL     1       0.195 -14.617 -17.044  1.00  0.00     0.014 C 
ATOM     11  C   UNL     1       1.152 -15.476 -14.878  1.00  0.00     0.014 C 
ENDBRANCH   1   9
TORSDOF 3
ENDMDL
MODEL 8
REMARK VINA RESULT:    -3.672      1.605      2.125
REMARK INTER + INTRA:          -4.257
REMARK INTER:                  -4.203
REMARK INTRA:                  -0.054
REMARK UNBOUND:                -0.049
REMARK SMILES CC(C)[C@H]([NH3+])C(=O)[O-]
REMARK SMILES IDX 4 1 5 2 6 6 7 7 8 8 2 9 1 10 3 11
REMARK H PARENT 5 3 5 4 5 5
REMARK Flexibility Score: inf
ROOT
ATOM      1  C   UNL     1       6.477 -12.949 -29.743  1.00  0.00     0.230 C 
ENDROOT
BRANCH   1   2
ATOM      2  N   UNL     1       5.178 -12.265 -29.825  1.00  0.00    -0.350 N 
ATOM      3  H   UNL     1       5.101 -11.771 -30.744  1.00  0.00     0.345 HD
ATOM      4  H   UNL     1       5.101 -11.549 -29.066  1.00  0.00     0.345 HD
ATOM      5  H   UNL     1       4.384 -12.939 -29.743  1.00  0.00     0.345 HD
ENDBRANCH   1   2
BRANCH   1   6
ATOM      6  C   UNL     1       6.297 -14.380 -29.294  1.00  0.00     0.099 C 
ATOM      7  O   UNL     1       5.819 -15.232 -30.087  1.00  0.00    -0.544 OA
ATOM      8  O   UNL     1       6.680 -14.774 -28.017  1.00  0.00    -0.544 OA
ENDBRANCH   1   6
BRANCH   1   9
ATOM      9  C   UNL     1       7.487 -12.163 -28.855  1.00  0.00     0.047 C 
ATOM     10  C   UNL     1       8.944 -12.268 -29.336  1.00  0.00     0.014 C 
ATOM     11  C   UNL     1       7.083 -10.686 -28.722  1.00  0.00     0.014 C 
ENDBRANCH   1   9
TORSDOF 3
ENDMDL
MODEL 9
REMARK VINA RESULT:    -3.651      2.015      2.426
REMARK INTER + INTRA:          -4.233
REMARK INTER:                  -4.199
REMARK INTRA:                  -0.034
REMARK UNBOUND:                -0.049
REMARK SMILES CC(C)[C@H]([NH3+])C(=O)[O-]
REMARK SMILES IDX 4 1 5 2 6 6 7 7 8 8 2 9 1 10 3 11
REMARK H PARENT 5 3 5 4 5 5
REMARK Flexibility Score: inf
ROOT
ATOM      1  C   UNL     1       5.811 -10.875 -30.222  1.00  0.00     0.230 C 
ENDROOT
BRANCH   1   2
ATOM      2  N   UNL     1       4.822 -10.688 -29.151  1.00  0.00    -0.350 N 
ATOM      3  H   UNL     1       5.285 -10.816 -28.221  1.00  0.00     0.345 HD
ATOM      4  H   UNL     1       4.063 -11.404 -29.235  1.00  0.00     0.345 HD
ATOM      5  H   UNL     1       4.397  -9.734 -29.183  1.00  0.00     0.345 HD
ENDBRANCH   1   2
BRANCH   1   6
ATOM      6  C   UNL     1       6.146 -12.339 -30.388  1.00  0.00     0.099 C 
ATOM      7  O   UNL     1       5.886 -13.152 -29.463  1.00  0.00    -0.544 OA
ATOM      8  O   UNL     1       6.716 -12.805 -31.567  1.00  0.00    -0.544 OA
ENDBRANCH   1   6
BRANCH   1   9
ATOM      9  C   UNL     1       7.076  -9.992 -29.999  1.00  0.00     0.047 C 
ATOM     10  C   UNL     1       8.187 -10.695 -29.201  1.00  0.00     0.014 C 
ATOM     11  C   UNL     1       7.635  -9.471 -31.332  1.00  0.00     0.014 C 
ENDBRANCH   1   9
TORSDOF 3
ENDMDL
