MODEL 1
REMARK VINA RESULT:    -3.909      0.000      0.000
REMARK INTER + INTRA:          -5.912
REMARK INTER:                  -5.280
REMARK INTRA:                  -0.632
REMARK UNBOUND:                -0.632
REMARK SMILES CCCCCCCC(=O)[O-]
REMARK SMILES IDX 5 1 6 2 7 3 8 4 9 5 10 6 4 7 3 8 2 9 1 10
REMARK H PARENT
REMARK Flexibility Score: inf
ROOT
ATOM      1  C   UNL     1      20.801  18.000  47.907  1.00  0.00     0.000 C 
ENDROOT
BRANCH   1   2
ATOM      2  C   UNL     1      21.140  19.083  46.867  1.00  0.00     0.006 C 
BRANCH   2   3
ATOM      3  C   UNL     1      20.237  20.316  46.999  1.00  0.00     0.053 C 
BRANCH   3   4
ATOM      4  C   UNL     1      19.356  20.490  45.800  1.00  0.00     0.041 C 
ATOM      5  O   UNL     1      19.550  19.798  44.766  1.00  0.00    -0.550 OA
ATOM      6  O   UNL     1      18.299  21.392  45.836  1.00  0.00    -0.550 OA
ENDBRANCH   3   4
ENDBRANCH   2   3
ENDBRANCH   1   2
BRANCH   1   7
ATOM      7  C   UNL     1      20.503  16.635  47.267  1.00  0.00     0.000 C 
BRANCH   7   8
ATOM      8  C   UNL     1      19.145  16.605  46.546  1.00  0.00    -0.000 C 
BRANCH   8   9
ATOM      9  C   UNL     1      18.003  17.152  47.418  1.00  0.00    -0.003 C 
ATOM     10  C   UNL     1      16.900  17.822  46.599  1.00  0.00     0.004 C 
ENDBRANCH   8   9
ENDBRANCH   7   8
ENDBRANCH   1   7
TORSDOF 6
ENDMDL
MODEL 2
REMARK VINA RESULT:    -3.851      2.671      3.697
REMARK INTER + INTRA:          -5.835
REMARK INTER:                  -5.409
REMARK INTRA:                  -0.426
REMARK UNBOUND:                -0.632
REMARK SMILES CCCCCCCC(=O)[O-]
REMARK SMILES IDX 5 1 6 2 7 3 8 4 9 5 10 6 4 7 3 8 2 9 1 10
REMARK H PARENT
REMARK Flexibility Score: inf
ROOT
ATOM      1  C   UNL     1      20.806  19.164  46.724  1.00  0.00     0.000 C 
ENDROOT
BRANCH   1   2
ATOM      2  C   UNL     1      20.121  20.481  47.133  1.00  0.00     0.006 C 
BRANCH   2   3
ATOM      3  C   UNL     1      19.166  20.293  48.319  1.00  0.00     0.053 C 
BRANCH   3   4
ATOM      4  C   UNL     1      19.795  20.716  49.610  1.00  0.00     0.041 C 
ATOM      5  O   UNL     1      20.669  19.993  50.157  1.00  0.00    -0.550 OA
ATOM      6  O   UNL     1      19.442  21.928  50.194  1.00  0.00    -0.550 OA
ENDBRANCH   3   4
ENDBRANCH   2   3
ENDBRANCH   1   2
BRANCH   1   7
ATOM      7  C   UNL     1      19.893  17.941  46.901  1.00  0.00     0.000 C 
BRANCH   7   8
ATOM      8  C   UNL     1      20.666  16.686  47.340  1.00  0.00    -0.000 C 
BRANCH   8   9
ATOM      9  C   UNL     1      21.693  16.982  48.444  1.00  0.00    -0.003 C 
ATOM     10  C   UNL     1      22.914  16.065  48.380  1.00  0.00     0.004 C 
ENDBRANCH   8   9
ENDBRANCH   7   8
ENDBRANCH   1   7
TORSDOF 6
ENDMDL
MODEL 3
REMARK VINA RESULT:    -3.814      3.393      4.811
REMARK INTER + INTRA:          -5.784
REMARK INTER:                  -5.349
REMARK INTRA:                  -0.435
REMARK UNBOUND:                -0.632
REMARK SMILES CCCCCCCC(=O)[O-]
REMARK SMILES IDX 5 1 6 2 7 3 8 4 9 5 10 6 4 7 3 8 2 9 1 10
REMARK H PARENT
REMARK Flexibility Score: inf
ROOT
ATOM      1  C   UNL     1      19.845  17.853  46.971  1.00  0.00     0.000 C 
ENDROOT
BRANCH   1   2
ATOM      2  C   UNL     1      20.602  16.557  47.313  1.00  0.00     0.006 C 
BRANCH   2   3
ATOM      3  C   UNL     1      21.856  16.824  48.156  1.00  0.00     0.053 C 
BRANCH   3   4
ATOM      4  C   UNL     1      21.643  16.468  49.596  1.00  0.00     0.041 C 
ATOM      5  O   UNL     1      21.140  17.307  50.387  1.00  0.00    -0.550 OA
ATOM      6  O   UNL     1      21.969  15.197  50.055  1.00  0.00    -0.550 OA
ENDBRANCH   3   4
ENDBRANCH   2   3
ENDBRANCH   1   2
BRANCH   1   7
ATOM      7  C   UNL     1      20.771  19.078  46.899  1.00  0.00     0.000 C 
BRANCH   7   8
ATOM      8  C   UNL     1      19.998  20.406  46.969  1.00  0.00    -0.000 C 
BRANCH   8   9
ATOM      9  C   UNL     1      19.149  20.528  48.245  1.00  0.00    -0.003 C 
ATOM     10  C   UNL     1      19.996  20.620  49.514  1.00  0.00     0.004 C 
ENDBRANCH   8   9
ENDBRANCH   7   8
ENDBRANCH   1   7
TORSDOF 6
ENDMDL
MODEL 4
REMARK VINA RESULT:    -3.814      1.035      1.836
REMARK INTER + INTRA:          -5.784
REMARK INTER:                  -5.230
REMARK INTRA:                  -0.553
REMARK UNBOUND:                -0.632
REMARK SMILES CCCCCCCC(=O)[O-]
REMARK SMILES IDX 5 1 6 2 7 3 8 4 9 5 10 6 4 7 3 8 2 9 1 10
REMARK H PARENT
REMARK Flexibility Score: inf
ROOT
ATOM      1  C   UNL     1      21.035  19.082  46.851  1.00  0.00     0.000 C 
ENDROOT
BRANCH   1   2
ATOM      2  C   UNL     1      19.972  20.165  46.590  1.00  0.00     0.006 C 
BRANCH   2   3
ATOM      3  C   UNL     1      19.420  20.102  45.160  1.00  0.00     0.053 C 
BRANCH   3   4
ATOM      4  C   UNL     1      17.955  20.413  45.116  1.00  0.00     0.041 C 
ATOM      5  O   UNL     1      17.547  21.576  45.374  1.00  0.00    -0.550 OA
ATOM      6  O   UNL     1      17.044  19.427  44.758  1.00  0.00    -0.550 OA
ENDBRANCH   3   4
ENDBRANCH   2   3
ENDBRANCH   1   2
BRANCH   1   7
ATOM      7  C   UNL     1      20.548  17.996  47.823  1.00  0.00     0.000 C 
BRANCH   7   8
ATOM      8  C   UNL     1      20.343  16.636  47.133  1.00  0.00    -0.000 C 
BRANCH   8   9
ATOM      9  C   UNL     1      18.954  16.505  46.489  1.00  0.00    -0.003 C 
ATOM     10  C   UNL     1      17.843  17.109  47.347  1.00  0.00     0.004 C 
ENDBRANCH   8   9
ENDBRANCH   7   8
ENDBRANCH   1   7
TORSDOF 6
ENDMDL
MODEL 5
REMARK VINA RESULT:    -3.801      1.587      2.537
REMARK INTER + INTRA:          -5.767
REMARK INTER:                  -5.259
REMARK INTRA:                  -0.508
REMARK UNBOUND:                -0.632
REMARK SMILES CCCCCCCC(=O)[O-]
REMARK SMILES IDX 5 1 6 2 7 3 8 4 9 5 10 6 4 7 3 8 2 9 1 10
REMARK H PARENT
REMARK Flexibility Score: inf
ROOT
ATOM      1  C   UNL     1      20.266  20.190  47.427  1.00  0.00     0.000 C 
ENDROOT
BRANCH   1   2
ATOM      2  C   UNL     1      19.174  20.547  46.402  1.00  0.00     0.006 C 
BRANCH   2   3
ATOM      3  C   UNL     1      19.450  19.930  45.024  1.00  0.00     0.053 C 
BRANCH   3   4
ATOM      4  C   UNL     1      18.240  19.243  44.471  1.00  0.00     0.041 C 
ATOM      5  O   UNL     1      18.185  18.945  43.249  1.00  0.00    -0.550 OA
ATOM      6  O   UNL     1      17.187  18.901  45.311  1.00  0.00    -0.550 OA
ENDBRANCH   3   4
ENDBRANCH   2   3
ENDBRANCH   1   2
BRANCH   1   7
ATOM      7  C   UNL     1      21.136  19.006  46.978  1.00  0.00     0.000 C 
BRANCH   7   8
ATOM      8  C   UNL     1      21.192  17.883  48.028  1.00  0.00    -0.000 C 
BRANCH   8   9
ATOM      9  C   UNL     1      20.831  16.509  47.441  1.00  0.00    -0.003 C 
ATOM     10  C   UNL     1      19.487  16.509  46.714  1.00  0.00     0.004 C 
ENDBRANCH   8   9
ENDBRANCH   7   8
ENDBRANCH   1   7
TORSDOF 6
ENDMDL
MODEL 6
REMARK VINA RESULT:    -3.763      1.048      1.408
REMARK INTER + INTRA:          -5.715
REMARK INTER:                  -5.155
REMARK INTRA:                  -0.560
REMARK UNBOUND:                -0.632
REMARK SMILES CCCCCCCC(=O)[O-]
REMARK SMILES IDX 5 1 6 2 7 3 8 4 9 5 10 6 4 7 3 8 2 9 1 10
REMARK H PARENT
REMARK Flexibility Score: inf
ROOT
ATOM      1  C   UNL     1      21.256  18.380  47.249  1.00  0.00     0.000 C 
ENDROOT
BRANCH   1   2
ATOM      2  C   UNL     1      20.536  19.740  47.242  1.00  0.00     0.006 C 
BRANCH   2   3
ATOM      3  C   UNL     1      19.822  20.010  45.911  1.00  0.00     0.053 C 
BRANCH   3   4
ATOM      4  C   UNL     1      18.486  20.655  46.117  1.00  0.00     0.041 C 
ATOM      5  O   UNL     1      17.991  20.729  47.272  1.00  0.00    -0.550 OA
ATOM      6  O   UNL     1      17.804  21.205  45.039  1.00  0.00    -0.550 OA
ENDBRANCH   3   4
ENDBRANCH   2   3
ENDBRANCH   1   2
BRANCH   1   7
ATOM      7  C   UNL     1      20.421  17.271  47.910  1.00  0.00     0.000 C 
BRANCH   7   8
ATOM      8  C   UNL     1      19.946  16.210  46.902  1.00  0.00    -0.000 C 
BRANCH   8   9
ATOM      9  C   UNL     1      18.602  16.574  46.252  1.00  0.00    -0.003 C 
ATOM     10  C   UNL     1      17.565  17.058  47.265  1.00  0.00     0.004 C 
ENDBRANCH   8   9
ENDBRANCH   7   8
ENDBRANCH   1   7
TORSDOF 6
ENDMDL
MODEL 7
REMARK VINA RESULT:    -3.762      1.808      2.980
REMARK INTER + INTRA:          -5.714
REMARK INTER:                  -5.470
REMARK INTRA:                  -0.243
REMARK UNBOUND:                -0.632
REMARK SMILES CCCCCCCC(=O)[O-]
REMARK SMILES IDX 5 1 6 2 7 3 8 4 9 5 10 6 4 7 3 8 2 9 1 10
REMARK H PARENT
REMARK Flexibility Score: inf
ROOT
ATOM      1  C   UNL     1      21.040  19.064  46.899  1.00  0.00     0.000 C 
ENDROOT
BRANCH   1   2
ATOM      2  C   UNL     1      19.651  19.016  46.237  1.00  0.00     0.006 C 
BRANCH   2   3
ATOM      3  C   UNL     1      19.369  20.264  45.391  1.00  0.00     0.053 C 
BRANCH   3   4
ATOM      4  C   UNL     1      18.464  21.223  46.099  1.00  0.00     0.041 C 
ATOM      5  O   UNL     1      17.965  22.199  45.479  1.00  0.00    -0.550 OA
ATOM      6  O   UNL     1      18.142  21.021  47.436  1.00  0.00    -0.550 OA
ENDBRANCH   3   4
ENDBRANCH   2   3
ENDBRANCH   1   2
BRANCH   1   7
ATOM      7  C   UNL     1      21.208  18.006  48.001  1.00  0.00     0.000 C 
BRANCH   7   8
ATOM      8  C   UNL     1      20.735  16.611  47.557  1.00  0.00    -0.000 C 
BRANCH   8   9
ATOM      9  C   UNL     1      21.690  15.494  48.006  1.00  0.00    -0.003 C 
ATOM     10  C   UNL     1      23.049  16.024  48.463  1.00  0.00     0.004 C 
ENDBRANCH   8   9
ENDBRANCH   7   8
ENDBRANCH   1   7
TORSDOF 6
ENDMDL
MODEL 8
REMARK VINA RESULT:    -3.726      2.203      3.684
REMARK INTER + INTRA:          -5.666
REMARK INTER:                  -5.141
REMARK INTRA:                  -0.525
REMARK UNBOUND:                -0.632
REMARK SMILES CCCCCCCC(=O)[O-]
REMARK SMILES IDX 5 1 6 2 7 3 8 4 9 5 10 6 4 7 3 8 2 9 1 10
REMARK H PARENT
REMARK Flexibility Score: inf
ROOT
ATOM      1  C   UNL     1      20.398  16.665  47.229  1.00  0.00     0.000 C 
ENDROOT
BRANCH   1   2
ATOM      2  C   UNL     1      19.026  16.455  46.563  1.00  0.00     0.006 C 
BRANCH   2   3
ATOM      3  C   UNL     1      17.886  17.080  47.377  1.00  0.00     0.053 C 
BRANCH   3   4
ATOM      4  C   UNL     1      16.594  17.072  46.620  1.00  0.00     0.041 C 
ATOM      5  O   UNL     1      15.770  16.134  46.783  1.00  0.00    -0.550 OA
ATOM      6  O   UNL     1      16.283  18.119  45.759  1.00  0.00    -0.550 OA
ENDBRANCH   3   4
ENDBRANCH   2   3
ENDBRANCH   1   2
BRANCH   1   7
ATOM      7  C   UNL     1      20.551  18.067  47.842  1.00  0.00     0.000 C 
BRANCH   7   8
ATOM      8  C   UNL     1      21.076  19.099  46.829  1.00  0.00    -0.000 C 
BRANCH   8   9
ATOM      9  C   UNL     1      20.003  20.118  46.416  1.00  0.00    -0.003 C 
ATOM     10  C   UNL     1      19.431  19.846  45.025  1.00  0.00     0.004 C 
ENDBRANCH   8   9
ENDBRANCH   7   8
ENDBRANCH   1   7
TORSDOF 6
ENDMDL
MODEL 9
REMARK VINA RESULT:    -3.664      2.061      3.208
REMARK INTER + INTRA:          -5.581
REMARK INTER:                  -5.150
REMARK INTRA:                  -0.431
REMARK UNBOUND:                -0.632
REMARK SMILES CCCCCCCC(=O)[O-]
REMARK SMILES IDX 5 1 6 2 7 3 8 4 9 5 10 6 4 7 3 8 2 9 1 10
REMARK H PARENT
REMARK Flexibility Score: inf
ROOT
ATOM      1  C   UNL     1      18.864  20.433  47.498  1.00  0.00     0.000 C 
ENDROOT
BRANCH   1   2
ATOM      2  C   UNL     1      19.359  20.977  46.145  1.00  0.00     0.006 C 
BRANCH   2   3
ATOM      3  C   UNL     1      19.506  19.869  45.094  1.00  0.00     0.053 C 
BRANCH   3   4
ATOM      4  C   UNL     1      18.309  18.969  45.065  1.00  0.00     0.041 C 
ATOM      5  O   UNL     1      18.411  17.769  45.432  1.00  0.00    -0.550 OA
ATOM      6  O   UNL     1      17.074  19.464  44.664  1.00  0.00    -0.550 OA
ENDBRANCH   3   4
ENDBRANCH   2   3
ENDBRANCH   1   2
BRANCH   1   7
ATOM      7  C   UNL     1      20.014  20.119  48.467  1.00  0.00     0.000 C 
BRANCH   7   8
ATOM      8  C   UNL     1      20.281  18.609  48.597  1.00  0.00    -0.000 C 
BRANCH   8   9
ATOM      9  C   UNL     1      21.426  18.133  47.689  1.00  0.00    -0.003 C 
ATOM     10  C   UNL     1      21.958  16.755  48.078  1.00  0.00     0.004 C 
ENDBRANCH   8   9
ENDBRANCH   7   8
ENDBRANCH   1   7
TORSDOF 6
ENDMDL
