MODEL 1
REMARK VINA RESULT:    -6.357      0.000      0.000
REMARK INTER + INTRA:         -10.029
REMARK INTER:                  -9.331
REMARK INTRA:                  -0.698
REMARK UNBOUND:                -0.698
REMARK SMILES O=C([O-])CCCCCCCC(=O)[O-]
REMARK SMILES IDX 7 1 6 2 5 3 4 4 2 5 1 6 3 7 8 8 9 9 10 10 11 11 12 12 13 13
REMARK H PARENT
REMARK Flexibility Score: inf
ROOT
ATOM      1  C   UNL     1      26.605  -2.334  20.432  1.00  0.00     0.000 C 
ENDROOT
BRANCH   1   2
ATOM      2  C   UNL     1      27.151  -1.232  19.515  1.00  0.00     0.000 C 
BRANCH   2   3
ATOM      3  C   UNL     1      28.683  -1.297  19.430  1.00  0.00     0.006 C 
BRANCH   3   4
ATOM      4  C   UNL     1      29.244  -2.598  20.019  1.00  0.00     0.053 C 
BRANCH   4   5
ATOM      5  C   UNL     1      30.085  -3.341  19.027  1.00  0.00     0.041 C 
ATOM      6  O   UNL     1      29.543  -4.079  18.163  1.00  0.00    -0.550 OA
ATOM      7  O   UNL     1      31.467  -3.191  19.035  1.00  0.00    -0.550 OA
ENDBRANCH   4   5
ENDBRANCH   3   4
ENDBRANCH   2   3
ENDBRANCH   1   2
BRANCH   1   8
ATOM      8  C   UNL     1      25.473  -3.109  19.747  1.00  0.00     0.000 C 
BRANCH   8   9
ATOM      9  C   UNL     1      26.023  -4.302  18.955  1.00  0.00     0.006 C 
BRANCH   9  10
ATOM     10  C   UNL     1      26.758  -5.280  19.876  1.00  0.00     0.053 C 
BRANCH  10  11
ATOM     11  C   UNL     1      25.985  -6.553  20.011  1.00  0.00     0.041 C 
ATOM     12  O   UNL     1      24.771  -6.524  20.345  1.00  0.00    -0.550 OA
ATOM     13  O   UNL     1      26.589  -7.770  19.720  1.00  0.00    -0.550 OA
ENDBRANCH  10  11
ENDBRANCH   9  10
ENDBRANCH   8   9
ENDBRANCH   1   8
TORSDOF 8
ENDMDL
MODEL 2
REMARK VINA RESULT:    -6.292      0.855      5.106
REMARK INTER + INTRA:          -9.933
REMARK INTER:                  -9.476
REMARK INTRA:                  -0.457
REMARK UNBOUND:                -0.698
REMARK SMILES O=C([O-])CCCCCCCC(=O)[O-]
REMARK SMILES IDX 7 1 6 2 5 3 4 4 2 5 1 6 3 7 8 8 9 9 10 10 11 11 12 12 13 13
REMARK H PARENT
REMARK Flexibility Score: inf
ROOT
ATOM      1  C   UNL     1      25.528  -3.012  19.745  1.00  0.00     0.000 C 
ENDROOT
BRANCH   1   2
ATOM      2  C   UNL     1      25.864  -4.284  18.957  1.00  0.00     0.000 C 
BRANCH   2   3
ATOM      3  C   UNL     1      25.401  -5.538  19.712  1.00  0.00     0.006 C 
BRANCH   3   4
ATOM      4  C   UNL     1      26.554  -6.514  19.983  1.00  0.00     0.053 C 
BRANCH   4   5
ATOM      5  C   UNL     1      26.059  -7.906  20.226  1.00  0.00     0.041 C 
ATOM      6  O   UNL     1      26.775  -8.896  19.920  1.00  0.00    -0.550 OA
ATOM      7  O   UNL     1      24.821  -8.111  20.823  1.00  0.00    -0.550 OA
ENDBRANCH   4   5
ENDBRANCH   3   4
ENDBRANCH   2   3
ENDBRANCH   1   2
BRANCH   1   8
ATOM      8  C   UNL     1      26.795  -2.374  20.326  1.00  0.00     0.000 C 
BRANCH   8   9
ATOM      9  C   UNL     1      27.817  -2.075  19.223  1.00  0.00     0.006 C 
BRANCH   9  10
ATOM     10  C   UNL     1      29.249  -2.198  19.752  1.00  0.00     0.053 C 
BRANCH  10  11
ATOM     11  C   UNL     1      29.991  -3.264  19.011  1.00  0.00     0.041 C 
ATOM     12  O   UNL     1      31.250  -3.296  19.039  1.00  0.00    -0.550 OA
ATOM     13  O   UNL     1      29.292  -4.253  18.330  1.00  0.00    -0.550 OA
ENDBRANCH  10  11
ENDBRANCH   9  10
ENDBRANCH   8   9
ENDBRANCH   1   8
TORSDOF 8
ENDMDL
MODEL 3
REMARK VINA RESULT:    -6.287      0.478      4.704
REMARK INTER + INTRA:          -9.926
REMARK INTER:                  -9.297
REMARK INTRA:                  -0.629
REMARK UNBOUND:                -0.698
REMARK SMILES O=C([O-])CCCCCCCC(=O)[O-]
REMARK SMILES IDX 7 1 6 2 5 3 4 4 2 5 1 6 3 7 8 8 9 9 10 10 11 11 12 12 13 13
REMARK H PARENT
REMARK Flexibility Score: inf
ROOT
ATOM      1  C   UNL     1      26.613  -2.257  20.436  1.00  0.00     0.000 C 
ENDROOT
BRANCH   1   2
ATOM      2  C   UNL     1      25.250  -2.609  19.827  1.00  0.00     0.000 C 
BRANCH   2   3
ATOM      3  C   UNL     1      25.293  -3.981  19.138  1.00  0.00     0.006 C 
BRANCH   3   4
ATOM      4  C   UNL     1      26.336  -4.915  19.767  1.00  0.00     0.053 C 
BRANCH   4   5
ATOM      5  C   UNL     1      25.874  -6.340  19.776  1.00  0.00     0.041 C 
ATOM      6  O   UNL     1      26.657  -7.258  20.138  1.00  0.00    -0.550 OA
ATOM      7  O   UNL     1      24.569  -6.650  19.416  1.00  0.00    -0.550 OA
ENDBRANCH   4   5
ENDBRANCH   3   4
ENDBRANCH   2   3
ENDBRANCH   1   2
BRANCH   1   8
ATOM      8  C   UNL     1      27.225  -1.032  19.745  1.00  0.00     0.000 C 
BRANCH   8   9
ATOM      9  C   UNL     1      28.630  -1.344  19.217  1.00  0.00     0.006 C 
BRANCH   9  10
ATOM     10  C   UNL     1      29.250  -2.525  19.968  1.00  0.00     0.053 C 
BRANCH  10  11
ATOM     11  C   UNL     1      30.039  -3.385  19.032  1.00  0.00     0.041 C 
ATOM     12  O   UNL     1      29.448  -4.148  18.224  1.00  0.00    -0.550 OA
ATOM     13  O   UNL     1      31.426  -3.307  19.017  1.00  0.00    -0.550 OA
ENDBRANCH  10  11
ENDBRANCH   9  10
ENDBRANCH   8   9
ENDBRANCH   1   8
TORSDOF 8
ENDMDL
MODEL 4
REMARK VINA RESULT:    -6.182      1.514      2.432
REMARK INTER + INTRA:          -9.771
REMARK INTER:                  -9.389
REMARK INTRA:                  -0.382
REMARK UNBOUND:                -0.698
REMARK SMILES O=C([O-])CCCCCCCC(=O)[O-]
REMARK SMILES IDX 7 1 6 2 5 3 4 4 2 5 1 6 3 7 8 8 9 9 10 10 11 11 12 12 13 13
REMARK H PARENT
REMARK Flexibility Score: inf
ROOT
ATOM      1  C   UNL     1      26.052  -4.724  19.756  1.00  0.00     0.000 C 
ENDROOT
BRANCH   1   2
ATOM      2  C   UNL     1      26.784  -3.652  18.938  1.00  0.00     0.000 C 
BRANCH   2   3
ATOM      3  C   UNL     1      27.148  -2.445  19.814  1.00  0.00     0.006 C 
BRANCH   3   4
ATOM      4  C   UNL     1      28.449  -1.769  19.361  1.00  0.00     0.053 C 
BRANCH   4   5
ATOM      5  C   UNL     1      29.582  -2.746  19.273  1.00  0.00     0.041 C 
ATOM      6  O   UNL     1      29.944  -3.390  20.293  1.00  0.00    -0.550 OA
ATOM      7  O   UNL     1      30.214  -2.971  18.057  1.00  0.00    -0.550 OA
ENDBRANCH   4   5
ENDBRANCH   3   4
ENDBRANCH   2   3
ENDBRANCH   1   2
BRANCH   1   8
ATOM      8  C   UNL     1      26.902  -5.994  19.885  1.00  0.00     0.000 C 
BRANCH   8   9
ATOM      9  C   UNL     1      26.134  -7.223  19.384  1.00  0.00     0.006 C 
BRANCH   9  10
ATOM     10  C   UNL     1      25.749  -8.141  20.547  1.00  0.00     0.053 C 
BRANCH  10  11
ATOM     11  C   UNL     1      24.284  -8.039  20.832  1.00  0.00     0.041 C 
ATOM     12  O   UNL     1      23.590  -7.152  20.268  1.00  0.00    -0.550 OA
ATOM     13  O   UNL     1      23.674  -8.953  21.682  1.00  0.00    -0.550 OA
ENDBRANCH  10  11
ENDBRANCH   9  10
ENDBRANCH   8   9
ENDBRANCH   1   8
TORSDOF 8
ENDMDL
MODEL 5
REMARK VINA RESULT:    -6.171      3.464      5.306
REMARK INTER + INTRA:          -9.755
REMARK INTER:                  -9.323
REMARK INTRA:                  -0.433
REMARK UNBOUND:                -0.698
REMARK SMILES O=C([O-])CCCCCCCC(=O)[O-]
REMARK SMILES IDX 7 1 6 2 5 3 4 4 2 5 1 6 3 7 8 8 9 9 10 10 11 11 12 12 13 13
REMARK H PARENT
REMARK Flexibility Score: inf
ROOT
ATOM      1  C   UNL     1      25.387  -3.315  19.361  1.00  0.00     0.000 C 
ENDROOT
BRANCH   1   2
ATOM      2  C   UNL     1      25.961  -2.273  20.329  1.00  0.00     0.000 C 
BRANCH   2   3
ATOM      3  C   UNL     1      25.840  -0.857  19.748  1.00  0.00     0.006 C 
BRANCH   3   4
ATOM      4  C   UNL     1      24.397  -0.336  19.781  1.00  0.00     0.053 C 
BRANCH   4   5
ATOM      5  C   UNL     1      24.278   1.014  19.142  1.00  0.00     0.041 C 
ATOM      6  O   UNL     1      23.147   1.464  18.818  1.00  0.00    -0.550 OA
ATOM      7  O   UNL     1      25.412   1.789  18.936  1.00  0.00    -0.550 OA
ENDBRANCH   4   5
ENDBRANCH   3   4
ENDBRANCH   2   3
ENDBRANCH   1   2
BRANCH   1   8
ATOM      8  C   UNL     1      26.384  -4.457  19.128  1.00  0.00     0.000 C 
BRANCH   8   9
ATOM      9  C   UNL     1      27.724  -4.167  19.816  1.00  0.00     0.006 C 
BRANCH   9  10
ATOM     10  C   UNL     1      28.845  -4.003  18.786  1.00  0.00     0.053 C 
BRANCH  10  11
ATOM     11  C   UNL     1      29.928  -3.126  19.328  1.00  0.00     0.041 C 
ATOM     12  O   UNL     1      31.126  -3.315  18.987  1.00  0.00    -0.550 OA
ATOM     13  O   UNL     1      29.612  -2.067  20.170  1.00  0.00    -0.550 OA
ENDBRANCH  10  11
ENDBRANCH   9  10
ENDBRANCH   8   9
ENDBRANCH   1   8
TORSDOF 8
ENDMDL
MODEL 6
REMARK VINA RESULT:    -6.129      2.006      6.416
REMARK INTER + INTRA:          -9.693
REMARK INTER:                  -9.354
REMARK INTRA:                  -0.340
REMARK UNBOUND:                -0.698
REMARK SMILES O=C([O-])CCCCCCCC(=O)[O-]
REMARK SMILES IDX 7 1 6 2 5 3 4 4 2 5 1 6 3 7 8 8 9 9 10 10 11 11 12 12 13 13
REMARK H PARENT
REMARK Flexibility Score: inf
ROOT
ATOM      1  C   UNL     1      27.358  -6.157  18.945  1.00  0.00     0.000 C 
ENDROOT
BRANCH   1   2
ATOM      2  C   UNL     1      26.801  -7.499  19.438  1.00  0.00     0.000 C 
BRANCH   2   3
ATOM      3  C   UNL     1      25.467  -7.303  20.172  1.00  0.00     0.006 C 
BRANCH   3   4
ATOM      4  C   UNL     1      25.048  -8.552  20.960  1.00  0.00     0.053 C 
BRANCH   4   5
ATOM      5  C   UNL     1      23.651  -8.435  21.488  1.00  0.00     0.041 C 
ATOM      6  O   UNL     1      22.687  -8.264  20.696  1.00  0.00    -0.550 OA
ATOM      7  O   UNL     1      23.410  -8.548  22.851  1.00  0.00    -0.550 OA
ENDBRANCH   4   5
ENDBRANCH   3   4
ENDBRANCH   2   3
ENDBRANCH   1   2
BRANCH   1   8
ATOM      8  C   UNL     1      26.651  -4.982  19.630  1.00  0.00     0.000 C 
BRANCH   8   9
ATOM      9  C   UNL     1      27.462  -3.689  19.482  1.00  0.00     0.006 C 
BRANCH   9  10
ATOM     10  C   UNL     1      28.771  -3.946  18.729  1.00  0.00     0.053 C 
BRANCH  10  11
ATOM     11  C   UNL     1      29.882  -3.136  19.319  1.00  0.00     0.041 C 
ATOM     12  O   UNL     1      29.628  -2.223  20.148  1.00  0.00    -0.550 OA
ATOM     13  O   UNL     1      31.201  -3.422  18.992  1.00  0.00    -0.550 OA
ENDBRANCH  10  11
ENDBRANCH   9  10
ENDBRANCH   8   9
ENDBRANCH   1   8
TORSDOF 8
ENDMDL
MODEL 7
REMARK VINA RESULT:    -6.120      3.536      4.938
REMARK INTER + INTRA:          -9.681
REMARK INTER:                  -9.377
REMARK INTRA:                  -0.305
REMARK UNBOUND:                -0.698
REMARK SMILES O=C([O-])CCCCCCCC(=O)[O-]
REMARK SMILES IDX 7 1 6 2 5 3 4 4 2 5 1 6 3 7 8 8 9 9 10 10 11 11 12 12 13 13
REMARK H PARENT
REMARK Flexibility Score: inf
ROOT
ATOM      1  C   UNL     1      25.189  -3.526  19.400  1.00  0.00     0.000 C 
ENDROOT
BRANCH   1   2
ATOM      2  C   UNL     1      26.314  -4.567  19.337  1.00  0.00     0.000 C 
BRANCH   2   3
ATOM      3  C   UNL     1      27.619  -4.002  19.916  1.00  0.00     0.006 C 
BRANCH   3   4
ATOM      4  C   UNL     1      28.717  -3.868  18.852  1.00  0.00     0.053 C 
BRANCH   4   5
ATOM      5  C   UNL     1      29.879  -3.063  19.349  1.00  0.00     0.041 C 
ATOM      6  O   UNL     1      29.691  -2.104  20.144  1.00  0.00    -0.550 OA
ATOM      7  O   UNL     1      31.171  -3.395  18.963  1.00  0.00    -0.550 OA
ENDBRANCH   4   5
ENDBRANCH   3   4
ENDBRANCH   2   3
ENDBRANCH   1   2
BRANCH   1   8
ATOM      8  C   UNL     1      25.718  -2.173  19.889  1.00  0.00     0.000 C 
BRANCH   8   9
ATOM      9  C   UNL     1      24.620  -1.103  19.843  1.00  0.00     0.006 C 
BRANCH   9  10
ATOM     10  C   UNL     1      25.224   0.302  19.781  1.00  0.00     0.053 C 
BRANCH  10  11
ATOM     11  C   UNL     1      24.310   1.233  19.049  1.00  0.00     0.041 C 
ATOM     12  O   UNL     1      23.062   1.077  19.115  1.00  0.00    -0.550 OA
ATOM     13  O   UNL     1      24.832   2.303  18.334  1.00  0.00    -0.550 OA
ENDBRANCH  10  11
ENDBRANCH   9  10
ENDBRANCH   8   9
ENDBRANCH   1   8
TORSDOF 8
ENDMDL
MODEL 8
REMARK VINA RESULT:    -5.939      2.748      3.717
REMARK INTER + INTRA:          -9.415
REMARK INTER:                  -8.826
REMARK INTRA:                  -0.589
REMARK UNBOUND:                -0.698
REMARK SMILES O=C([O-])CCCCCCCC(=O)[O-]
REMARK SMILES IDX 7 1 6 2 5 3 4 4 2 5 1 6 3 7 8 8 9 9 10 10 11 11 12 12 13 13
REMARK H PARENT
REMARK Flexibility Score: inf
ROOT
ATOM      1  C   UNL     1      29.260  -3.356  19.744  1.00  0.00     0.000 C 
ENDROOT
BRANCH   1   2
ATOM      2  C   UNL     1      28.823  -1.926  19.404  1.00  0.00     0.000 C 
BRANCH   2   3
ATOM      3  C   UNL     1      27.855  -1.380  20.463  1.00  0.00     0.006 C 
BRANCH   3   4
ATOM      4  C   UNL     1      26.442  -1.166  19.904  1.00  0.00     0.053 C 
BRANCH   4   5
ATOM      5  C   UNL     1      26.089   0.288  19.827  1.00  0.00     0.041 C 
ATOM      6  O   UNL     1      26.997   1.159  19.771  1.00  0.00    -0.550 OA
ATOM      7  O   UNL     1      24.756   0.680  19.784  1.00  0.00    -0.550 OA
ENDBRANCH   4   5
ENDBRANCH   3   4
ENDBRANCH   2   3
ENDBRANCH   1   2
BRANCH   1   8
ATOM      8  C   UNL     1      28.922  -4.322  18.601  1.00  0.00     0.000 C 
BRANCH   8   9
ATOM      9  C   UNL     1      27.406  -4.519  18.478  1.00  0.00     0.006 C 
BRANCH   9  10
ATOM     10  C   UNL     1      26.841  -5.223  19.716  1.00  0.00     0.053 C 
BRANCH  10  11
ATOM     11  C   UNL     1      26.132  -6.480  19.325  1.00  0.00     0.041 C 
ATOM     12  O   UNL     1      26.760  -7.408  18.749  1.00  0.00    -0.550 OA
ATOM     13  O   UNL     1      24.790  -6.651  19.642  1.00  0.00    -0.550 OA
ENDBRANCH  10  11
ENDBRANCH   9  10
ENDBRANCH   8   9
ENDBRANCH   1   8
TORSDOF 8
ENDMDL
MODEL 9
REMARK VINA RESULT:    -5.926      2.817      5.559
REMARK INTER + INTRA:          -9.396
REMARK INTER:                  -8.910
REMARK INTRA:                  -0.486
REMARK UNBOUND:                -0.698
REMARK SMILES O=C([O-])CCCCCCCC(=O)[O-]
REMARK SMILES IDX 7 1 6 2 5 3 4 4 2 5 1 6 3 7 8 8 9 9 10 10 11 11 12 12 13 13
REMARK H PARENT
REMARK Flexibility Score: inf
ROOT
ATOM      1  C   UNL     1      28.451  -3.373  19.730  1.00  0.00     0.000 C 
ENDROOT
BRANCH   1   2
ATOM      2  C   UNL     1      28.696  -4.398  18.616  1.00  0.00     0.000 C 
BRANCH   2   3
ATOM      3  C   UNL     1      27.492  -5.337  18.458  1.00  0.00     0.006 C 
BRANCH   3   4
ATOM      4  C   UNL     1      26.635  -5.404  19.729  1.00  0.00     0.053 C 
BRANCH   4   5
ATOM      5  C   UNL     1      25.184  -5.177  19.435  1.00  0.00     0.041 C 
ATOM      6  O   UNL     1      24.772  -4.027  19.125  1.00  0.00    -0.550 OA
ATOM      7  O   UNL     1      24.292  -6.241  19.469  1.00  0.00    -0.550 OA
ENDBRANCH   4   5
ENDBRANCH   3   4
ENDBRANCH   2   3
ENDBRANCH   1   2
BRANCH   1   8
ATOM      8  C   UNL     1      29.273  -2.099  19.497  1.00  0.00     0.000 C 
BRANCH   8   9
ATOM      9  C   UNL     1      28.567  -0.873  20.087  1.00  0.00     0.006 C 
BRANCH   9  10
ATOM     10  C   UNL     1      27.045  -1.024  20.007  1.00  0.00     0.053 C 
BRANCH  10  11
ATOM     11  C   UNL     1      26.395   0.312  19.828  1.00  0.00     0.041 C 
ATOM     12  O   UNL     1      27.100   1.337  19.627  1.00  0.00    -0.550 OA
ATOM     13  O   UNL     1      25.010   0.419  19.831  1.00  0.00    -0.550 OA
ENDBRANCH  10  11
ENDBRANCH   9  10
ENDBRANCH   8   9
ENDBRANCH   1   8
TORSDOF 8
ENDMDL
