MODEL 1
REMARK VINA RESULT:    -3.864      0.000      0.000
REMARK INTER + INTRA:          -5.771
REMARK INTER:                  -5.445
REMARK INTRA:                  -0.326
REMARK UNBOUND:                -0.326
REMARK SMILES CC1=CCC(=C(C)C)CCC(C)=CCC1
REMARK SMILES IDX 5 1 6 2 7 3 8 4 9 5 10 6 11 7 12 8 13 9 4 11 3 12 2 13 1 14
REMARK SMILES IDX 15 15 14 16
REMARK H PARENT
REMARK Flexibility Score: 60.00
ROOT
ATOM      1  C   UNL     1     166.203 162.470 200.658  1.00  0.00    -0.067 C 
ATOM      2  C   UNL     1     166.112 162.789 201.992  1.00  0.00    -0.077 C 
ATOM      3  C   UNL     1     167.236 162.503 202.966  1.00  0.00     0.039 C 
ATOM      4  C   UNL     1     164.841 163.374 202.577  1.00  0.00     0.039 C 
ENDROOT
BRANCH   1   5
ATOM      5  C   UNL     1     167.481 161.866 200.066  1.00  0.00     0.035 C 
BRANCH   5   6
ATOM      6  C   UNL     1     168.464 162.889 199.456  1.00  0.00     0.035 C 
BRANCH   6   7
ATOM      7  C   UNL     1     168.072 164.339 199.684  1.00  0.00    -0.077 C 
ATOM      8  C   UNL     1     168.659 165.065 200.867  1.00  0.00     0.039 C 
ATOM      9  C   UNL     1     167.310 165.052 198.823  1.00  0.00    -0.028 CG0
ATOM     10  G   UNL     1     166.869 164.600 197.451  1.00  0.00     0.000 G0
ENDBRANCH   6   7
ENDBRANCH   5   6
ENDBRANCH   1   5
BRANCH   1  11
ATOM     11  C   UNL     1     164.931 162.432 199.808  1.00  0.00     0.058 C 
BRANCH  11  12
ATOM     12  C   UNL     1     165.114 161.901 198.411  1.00  0.00    -0.024 C 
ATOM     13  C   UNL     1     165.233 162.674 197.310  1.00  0.00    -0.077 C 
ATOM     14  C   UNL     1     165.246 161.994 195.964  1.00  0.00     0.039 C 
BRANCH  13  15
ATOM     15  C   UNL     1     165.382 164.184 197.365  1.00  0.00     0.034 C 
BRANCH  15  16
ATOM     16  C   UNL     1     166.861 164.612 197.429  1.00  0.00     0.032 CG0
ATOM     17  G   UNL     1     167.313 165.047 198.803  1.00  0.00     0.000 G0
ENDBRANCH  15  16
ENDBRANCH  13  15
ENDBRANCH  11  12
ENDBRANCH   1  11
TORSDOF 0
ENDMDL
MODEL 2
REMARK VINA RESULT:    -3.771      4.576      6.282
REMARK INTER + INTRA:          -5.641
REMARK INTER:                  -5.368
REMARK INTRA:                  -0.273
REMARK UNBOUND:                -0.326
REMARK SMILES CC1=CCC(=C(C)C)CCC(C)=CCC1
REMARK SMILES IDX 5 1 6 2 7 3 8 4 9 5 10 6 11 7 12 8 13 9 4 11 3 12 2 13 1 14
REMARK SMILES IDX 15 15 14 16
REMARK H PARENT
REMARK Flexibility Score: 60.00
ROOT
ATOM      1  C   UNL     1     163.459 166.981 198.601  1.00  0.00    -0.067 C 
ATOM      2  C   UNL     1     163.157 165.648 198.751  1.00  0.00    -0.077 C 
ATOM      3  C   UNL     1     163.643 164.598 197.775  1.00  0.00     0.039 C 
ATOM      4  C   UNL     1     162.247 165.169 199.865  1.00  0.00     0.039 C 
ENDROOT
BRANCH   1   5
ATOM      5  C   UNL     1     164.368 167.472 197.467  1.00  0.00     0.035 C 
BRANCH   5   6
ATOM      6  C   UNL     1     165.863 167.588 197.835  1.00  0.00     0.035 C 
BRANCH   6   7
ATOM      7  C   UNL     1     166.462 168.959 197.578  1.00  0.00    -0.077 C 
ATOM      8  C   UNL     1     166.717 169.377 196.153  1.00  0.00     0.039 C 
ATOM      9  C   UNL     1     166.680 169.875 198.551  1.00  0.00    -0.028 CG0
ATOM     10  G   UNL     1     166.227 169.763 199.987  1.00  0.00     0.000 G0
ENDBRANCH   6   7
ENDBRANCH   5   6
ENDBRANCH   1   5
BRANCH   1  11
ATOM     11  C   UNL     1     162.653 168.025 199.376  1.00  0.00     0.058 C 
BRANCH  11  12
ATOM     12  C   UNL     1     163.099 168.248 200.797  1.00  0.00    -0.024 C 
ATOM     13  C   UNL     1     164.078 169.103 201.165  1.00  0.00    -0.077 C 
ATOM     14  C   UNL     1     164.522 169.095 202.606  1.00  0.00     0.039 C 
BRANCH  13  15
ATOM     15  C   UNL     1     164.729 170.084 200.207  1.00  0.00     0.034 C 
BRANCH  15  16
ATOM     16  C   UNL     1     166.226 169.776 199.999  1.00  0.00     0.032 CG0
ATOM     17  G   UNL     1     166.682 169.896 198.564  1.00  0.00     0.000 G0
ENDBRANCH  15  16
ENDBRANCH  13  15
ENDBRANCH  11  12
ENDBRANCH   1  11
TORSDOF 0
ENDMDL
MODEL 3
REMARK VINA RESULT:    -3.756      5.323      6.749
REMARK INTER + INTRA:          -5.619
REMARK INTER:                  -5.375
REMARK INTRA:                  -0.244
REMARK UNBOUND:                -0.326
REMARK SMILES CC1=CCC(=C(C)C)CCC(C)=CCC1
REMARK SMILES IDX 5 1 6 2 7 3 8 4 9 5 10 6 11 7 12 8 13 9 4 11 3 12 2 13 1 14
REMARK SMILES IDX 15 15 14 16
REMARK H PARENT
REMARK Flexibility Score: 60.00
ROOT
ATOM      1  C   UNL     1     168.032 168.559 200.162  1.00  0.00    -0.067 C 
ATOM      2  C   UNL     1     168.823 167.718 199.416  1.00  0.00    -0.077 C 
ATOM      3  C   UNL     1     169.820 166.773 200.054  1.00  0.00     0.039 C 
ATOM      4  C   UNL     1     168.795 167.750 197.900  1.00  0.00     0.039 C 
ENDROOT
BRANCH   1   5
ATOM      5  C   UNL     1     168.068 168.538 201.695  1.00  0.00     0.035 C 
BRANCH   5   6
ATOM      6  C   UNL     1     166.813 167.940 202.368  1.00  0.00     0.035 C 
BRANCH   6   7
ATOM      7  C   UNL     1     166.053 168.919 203.246  1.00  0.00    -0.077 C 
ATOM      8  C   UNL     1     166.738 169.468 204.470  1.00  0.00     0.039 C 
ATOM      9  C   UNL     1     164.832 169.412 202.934  1.00  0.00    -0.028 CG0
ATOM     10  G   UNL     1     164.107 169.214 201.623  1.00  0.00     0.000 G0
ENDBRANCH   6   7
ENDBRANCH   5   6
ENDBRANCH   1   5
BRANCH   1  11
ATOM     11  C   UNL     1     167.331 169.733 199.477  1.00  0.00     0.058 C 
BRANCH  11  12
ATOM     12  C   UNL     1     166.079 169.375 198.721  1.00  0.00    -0.024 C 
ATOM     13  C   UNL     1     164.827 169.507 199.210  1.00  0.00    -0.077 C 
ATOM     14  C   UNL     1     163.684 168.953 198.397  1.00  0.00     0.039 C 
BRANCH  13  15
ATOM     15  C   UNL     1     164.515 170.207 200.521  1.00  0.00     0.034 C 
BRANCH  15  16
ATOM     16  C   UNL     1     164.112 169.208 201.624  1.00  0.00     0.032 CG0
ATOM     17  G   UNL     1     164.838 169.415 202.932  1.00  0.00     0.000 G0
ENDBRANCH  15  16
ENDBRANCH  13  15
ENDBRANCH  11  12
ENDBRANCH   1  11
TORSDOF 0
ENDMDL
MODEL 4
REMARK VINA RESULT:    -3.728      2.097      4.620
REMARK INTER + INTRA:          -5.579
REMARK INTER:                  -5.285
REMARK INTRA:                  -0.294
REMARK UNBOUND:                -0.326
REMARK SMILES CC1=CCC(=C(C)C)CCC(C)=CCC1
REMARK SMILES IDX 5 1 6 2 7 3 8 4 9 5 10 6 11 7 12 8 13 9 4 11 3 12 2 13 1 14
REMARK SMILES IDX 15 15 14 16
REMARK H PARENT
REMARK Flexibility Score: 60.00
ROOT
ATOM      1  C   UNL     1     164.809 162.725 199.579  1.00  0.00    -0.067 C 
ATOM      2  C   UNL     1     164.230 162.856 198.339  1.00  0.00    -0.077 C 
ATOM      3  C   UNL     1     162.815 163.364 198.160  1.00  0.00     0.039 C 
ATOM      4  C   UNL     1     164.957 162.419 197.081  1.00  0.00     0.039 C 
ENDROOT
BRANCH   1   5
ATOM      5  C   UNL     1     164.073 163.153 200.854  1.00  0.00     0.035 C 
BRANCH   5   6
ATOM      6  C   UNL     1     164.681 164.375 201.577  1.00  0.00     0.035 C 
BRANCH   6   7
ATOM      7  C   UNL     1     165.183 164.080 202.980  1.00  0.00    -0.077 C 
ATOM      8  C   UNL     1     164.196 163.598 204.011  1.00  0.00     0.039 C 
ATOM      9  C   UNL     1     166.490 164.120 203.330  1.00  0.00    -0.028 CG0
ATOM     10  G   UNL     1     167.654 164.296 202.382  1.00  0.00     0.000 G0
ENDBRANCH   6   7
ENDBRANCH   5   6
ENDBRANCH   1   5
BRANCH   1  11
ATOM     11  C   UNL     1     166.071 161.872 199.731  1.00  0.00     0.058 C 
BRANCH  11  12
ATOM     12  C   UNL     1     167.354 162.557 199.340  1.00  0.00    -0.024 C 
ATOM     13  C   UNL     1     168.220 163.113 200.215  1.00  0.00    -0.077 C 
ATOM     14  C   UNL     1     169.378 163.904 199.661  1.00  0.00     0.039 C 
BRANCH  13  15
ATOM     15  C   UNL     1     168.099 162.956 201.720  1.00  0.00     0.034 C 
BRANCH  15  16
ATOM     16  C   UNL     1     167.671 164.272 202.401  1.00  0.00     0.032 CG0
ATOM     17  G   UNL     1     166.485 164.125 203.325  1.00  0.00     0.000 G0
ENDBRANCH  15  16
ENDBRANCH  13  15
ENDBRANCH  11  12
ENDBRANCH   1  11
TORSDOF 0
ENDMDL
MODEL 5
REMARK VINA RESULT:    -3.725      4.279      5.969
REMARK INTER + INTRA:          -5.575
REMARK INTER:                  -5.389
REMARK INTRA:                  -0.187
REMARK UNBOUND:                -0.326
REMARK SMILES CC1=CCC(=C(C)C)CCC(C)=CCC1
REMARK SMILES IDX 5 1 6 2 7 3 8 4 9 5 10 6 11 7 12 8 13 9 4 11 3 12 2 13 1 14
REMARK SMILES IDX 15 15 14 16
REMARK H PARENT
REMARK Flexibility Score: 60.00
ROOT
ATOM      1  C   UNL     1     164.123 168.322 200.877  1.00  0.00    -0.067 C 
ATOM      2  C   UNL     1     163.013 167.972 200.145  1.00  0.00    -0.077 C 
ATOM      3  C   UNL     1     162.514 166.545 200.072  1.00  0.00     0.039 C 
ATOM      4  C   UNL     1     162.272 168.993 199.304  1.00  0.00     0.039 C 
ENDROOT
BRANCH   1   5
ATOM      5  C   UNL     1     164.883 167.289 201.718  1.00  0.00     0.035 C 
BRANCH   5   6
ATOM      6  C   UNL     1     165.980 166.511 200.959  1.00  0.00     0.035 C 
BRANCH   6   7
ATOM      7  C   UNL     1     167.325 166.486 201.665  1.00  0.00    -0.077 C 
ATOM      8  C   UNL     1     167.548 165.467 202.751  1.00  0.00     0.039 C 
ATOM      9  C   UNL     1     168.376 167.256 201.298  1.00  0.00    -0.028 CG0
ATOM     10  G   UNL     1     168.448 168.123 200.064  1.00  0.00     0.000 G0
ENDBRANCH   6   7
ENDBRANCH   5   6
ENDBRANCH   1   5
BRANCH   1  11
ATOM     11  C   UNL     1     164.793 169.673 200.623  1.00  0.00     0.058 C 
BRANCH  11  12
ATOM     12  C   UNL     1     165.487 169.800 199.292  1.00  0.00    -0.024 C 
ATOM     13  C   UNL     1     166.827 169.804 199.126  1.00  0.00    -0.077 C 
ATOM     14  C   UNL     1     167.371 170.103 197.752  1.00  0.00     0.039 C 
BRANCH  13  15
ATOM     15  C   UNL     1     167.805 169.496 200.246  1.00  0.00     0.034 C 
BRANCH  15  16
ATOM     16  C   UNL     1     168.463 168.113 200.067  1.00  0.00     0.032 CG0
ATOM     17  G   UNL     1     168.384 167.235 201.294  1.00  0.00     0.000 G0
ENDBRANCH  15  16
ENDBRANCH  13  15
ENDBRANCH  11  12
ENDBRANCH   1  11
TORSDOF 0
ENDMDL
MODEL 6
REMARK VINA RESULT:    -3.659      2.063      4.151
REMARK INTER + INTRA:          -5.483
REMARK INTER:                  -5.187
REMARK INTRA:                  -0.296
REMARK UNBOUND:                -0.326
REMARK SMILES CC1=CCC(=C(C)C)CCC(C)=CCC1
REMARK SMILES IDX 5 1 6 2 7 3 8 4 9 5 10 6 11 7 12 8 13 9 4 11 3 12 2 13 1 14
REMARK SMILES IDX 15 15 14 16
REMARK H PARENT
REMARK Flexibility Score: 60.00
ROOT
ATOM      1  C   UNL     1     164.209 163.317 199.554  1.00  0.00    -0.067 C 
ATOM      2  C   UNL     1     163.317 164.126 198.889  1.00  0.00    -0.077 C 
ATOM      3  C   UNL     1     162.215 164.872 199.610  1.00  0.00     0.039 C 
ATOM      4  C   UNL     1     163.343 164.249 197.378  1.00  0.00     0.039 C 
ENDROOT
BRANCH   1   5
ATOM      5  C   UNL     1     164.178 163.179 201.080  1.00  0.00     0.035 C 
BRANCH   5   6
ATOM      6  C   UNL     1     165.309 163.922 201.825  1.00  0.00     0.035 C 
BRANCH   6   7
ATOM      7  C   UNL     1     166.125 163.039 202.753  1.00  0.00    -0.077 C 
ATOM      8  C   UNL     1     165.442 162.430 203.950  1.00  0.00     0.039 C 
ATOM      9  C   UNL     1     167.407 162.679 202.509  1.00  0.00    -0.028 CG0
ATOM     10  G   UNL     1     168.171 162.943 201.232  1.00  0.00     0.000 G0
ENDBRANCH   6   7
ENDBRANCH   5   6
ENDBRANCH   1   5
BRANCH   1  11
ATOM     11  C   UNL     1     165.045 162.312 198.760  1.00  0.00     0.058 C 
BRANCH  11  12
ATOM     12  C   UNL     1     166.317 162.865 198.172  1.00  0.00    -0.024 C 
ATOM     13  C   UNL     1     167.524 162.811 198.776  1.00  0.00    -0.077 C 
ATOM     14  C   UNL     1     168.671 163.552 198.137  1.00  0.00     0.039 C 
BRANCH  13  15
ATOM     15  C   UNL     1     167.785 162.021 200.047  1.00  0.00     0.034 C 
BRANCH  15  16
ATOM     16  C   UNL     1     168.171 162.940 201.223  1.00  0.00     0.032 CG0
ATOM     17  G   UNL     1     167.402 162.663 202.494  1.00  0.00     0.000 G0
ENDBRANCH  15  16
ENDBRANCH  13  15
ENDBRANCH  11  12
ENDBRANCH   1  11
TORSDOF 0
ENDMDL
MODEL 7
REMARK VINA RESULT:    -3.620      2.959      4.594
REMARK INTER + INTRA:          -5.428
REMARK INTER:                  -5.297
REMARK INTRA:                  -0.131
REMARK UNBOUND:                -0.326
REMARK SMILES CC1=CCC(=C(C)C)CCC(C)=CCC1
REMARK SMILES IDX 5 1 6 2 7 3 8 4 9 5 10 6 11 7 12 8 13 9 4 11 3 12 2 13 1 14
REMARK SMILES IDX 15 15 14 16
REMARK H PARENT
REMARK Flexibility Score: 60.00
ROOT
ATOM      1  C   UNL     1     163.181 164.081 199.263  1.00  0.00    -0.067 C 
ATOM      2  C   UNL     1     163.938 163.003 199.657  1.00  0.00    -0.077 C 
ATOM      3  C   UNL     1     164.241 161.848 198.725  1.00  0.00     0.039 C 
ATOM      4  C   UNL     1     164.444 162.876 201.080  1.00  0.00     0.039 C 
ENDROOT
BRANCH   1   5
ATOM      5  C   UNL     1     162.656 164.206 197.828  1.00  0.00     0.035 C 
BRANCH   5   6
ATOM      6  C   UNL     1     163.399 165.237 196.950  1.00  0.00     0.035 C 
BRANCH   6   7
ATOM      7  C   UNL     1     164.912 165.107 196.986  1.00  0.00    -0.077 C 
ATOM      8  C   UNL     1     165.561 164.023 196.166  1.00  0.00     0.039 C 
ATOM      9  C   UNL     1     165.722 165.981 197.629  1.00  0.00    -0.028 CG0
ATOM     10  G   UNL     1     165.292 167.285 198.259  1.00  0.00     0.000 G0
ENDBRANCH   6   7
ENDBRANCH   5   6
ENDBRANCH   1   5
BRANCH   1  11
ATOM     11  C   UNL     1     162.599 165.016 200.324  1.00  0.00     0.058 C 
BRANCH  11  12
ATOM     12  C   UNL     1     162.250 166.397 199.835  1.00  0.00    -0.024 C 
ATOM     13  C   UNL     1     163.150 167.379 199.611  1.00  0.00    -0.077 C 
ATOM     14  C   UNL     1     162.632 168.755 199.280  1.00  0.00     0.039 C 
BRANCH  13  15
ATOM     15  C   UNL     1     164.652 167.156 199.651  1.00  0.00     0.034 C 
BRANCH  15  16
ATOM     16  C   UNL     1     165.289 167.294 198.254  1.00  0.00     0.032 CG0
ATOM     17  G   UNL     1     165.732 165.981 197.652  1.00  0.00     0.000 G0
ENDBRANCH  15  16
ENDBRANCH  13  15
ENDBRANCH  11  12
ENDBRANCH   1  11
TORSDOF 0
ENDMDL
MODEL 8
REMARK VINA RESULT:    -3.580      2.091      4.817
REMARK INTER + INTRA:          -5.372
REMARK INTER:                  -5.043
REMARK INTRA:                  -0.328
REMARK UNBOUND:                -0.326
REMARK SMILES CC1=CCC(=C(C)C)CCC(C)=CCC1
REMARK SMILES IDX 5 1 6 2 7 3 8 4 9 5 10 6 11 7 12 8 13 9 4 11 3 12 2 13 1 14
REMARK SMILES IDX 15 15 14 16
REMARK H PARENT
REMARK Flexibility Score: 60.00
ROOT
ATOM      1  C   UNL     1     167.761 163.070 200.528  1.00  0.00    -0.067 C 
ATOM      2  C   UNL     1     168.596 163.648 199.601  1.00  0.00    -0.077 C 
ATOM      3  C   UNL     1     168.624 163.203 198.154  1.00  0.00     0.039 C 
ATOM      4  C   UNL     1     169.596 164.715 200.001  1.00  0.00     0.039 C 
ENDROOT
BRANCH   1   5
ATOM      5  C   UNL     1     166.758 161.980 200.130  1.00  0.00     0.035 C 
BRANCH   5   6
ATOM      6  C   UNL     1     165.294 162.456 200.010  1.00  0.00     0.035 C 
BRANCH   6   7
ATOM      7  C   UNL     1     165.124 163.964 200.062  1.00  0.00    -0.077 C 
ATOM      8  C   UNL     1     165.205 164.741 198.774  1.00  0.00     0.039 C 
ATOM      9  C   UNL     1     164.794 164.642 201.187  1.00  0.00    -0.028 CG0
ATOM     10  G   UNL     1     164.387 164.023 202.503  1.00  0.00     0.000 G0
ENDBRANCH   6   7
ENDBRANCH   5   6
ENDBRANCH   1   5
BRANCH   1  11
ATOM     11  C   UNL     1     168.031 163.287 202.018  1.00  0.00     0.058 C 
BRANCH  11  12
ATOM     12  C   UNL     1     167.288 162.357 202.942  1.00  0.00    -0.024 C 
ATOM     13  C   UNL     1     166.225 162.716 203.694  1.00  0.00    -0.077 C 
ATOM     14  C   UNL     1     165.692 161.718 204.690  1.00  0.00     0.039 C 
BRANCH  13  15
ATOM     15  C   UNL     1     165.529 164.059 203.563  1.00  0.00     0.034 C 
BRANCH  15  16
ATOM     16  C   UNL     1     164.402 164.021 202.511  1.00  0.00     0.032 CG0
ATOM     17  G   UNL     1     164.779 164.648 201.189  1.00  0.00     0.000 G0
ENDBRANCH  15  16
ENDBRANCH  13  15
ENDBRANCH  11  12
ENDBRANCH   1  11
TORSDOF 0
ENDMDL
MODEL 9
REMARK VINA RESULT:    -3.549      3.346      4.374
REMARK INTER + INTRA:          -5.328
REMARK INTER:                  -5.075
REMARK INTRA:                  -0.253
REMARK UNBOUND:                -0.326
REMARK SMILES CC1=CCC(=C(C)C)CCC(C)=CCC1
REMARK SMILES IDX 5 1 6 2 7 3 8 4 9 5 10 6 11 7 12 8 13 9 4 11 3 12 2 13 1 14
REMARK SMILES IDX 15 15 14 16
REMARK H PARENT
REMARK Flexibility Score: 60.00
ROOT
ATOM      1  C   UNL     1     164.056 167.200 200.625  1.00  0.00    -0.067 C 
ATOM      2  C   UNL     1     163.658 168.416 200.119  1.00  0.00    -0.077 C 
ATOM      3  C   UNL     1     164.576 169.620 200.103  1.00  0.00     0.039 C 
ATOM      4  C   UNL     1     162.243 168.635 199.622  1.00  0.00     0.039 C 
ENDROOT
BRANCH   1   5
ATOM      5  C   UNL     1     165.482 166.978 201.141  1.00  0.00     0.035 C 
BRANCH   5   6
ATOM      6  C   UNL     1     166.443 166.309 200.133  1.00  0.00     0.035 C 
BRANCH   6   7
ATOM      7  C   UNL     1     167.031 164.994 200.614  1.00  0.00    -0.077 C 
ATOM      8  C   UNL     1     168.051 165.026 201.723  1.00  0.00     0.039 C 
ATOM      9  C   UNL     1     166.612 163.783 200.179  1.00  0.00    -0.028 CG0
ATOM     10  G   UNL     1     165.414 163.528 199.296  1.00  0.00     0.000 G0
ENDBRANCH   6   7
ENDBRANCH   5   6
ENDBRANCH   1   5
BRANCH   1  11
ATOM     11  C   UNL     1     163.000 166.145 200.959  1.00  0.00     0.058 C 
BRANCH  11  12
ATOM     12  C   UNL     1     162.464 165.382 199.776  1.00  0.00    -0.024 C 
ATOM     13  C   UNL     1     162.988 164.227 199.313  1.00  0.00    -0.077 C 
ATOM     14  C   UNL     1     162.442 163.668 198.022  1.00  0.00     0.039 C 
BRANCH  13  15
ATOM     15  C   UNL     1     164.074 163.454 200.040  1.00  0.00     0.034 C 
BRANCH  15  16
ATOM     16  C   UNL     1     165.420 163.516 199.291  1.00  0.00     0.032 CG0
ATOM     17  G   UNL     1     166.608 163.774 200.189  1.00  0.00     0.000 G0
ENDBRANCH  15  16
ENDBRANCH  13  15
ENDBRANCH  11  12
ENDBRANCH   1  11
TORSDOF 0
ENDMDL
