MODEL 1
REMARK VINA RESULT:    -4.779      0.000      0.000
REMARK INTER + INTRA:          -8.955
REMARK INTER:                  -8.411
REMARK INTRA:                  -0.544
REMARK UNBOUND:                -0.544
REMARK SMILES CCCCCCCCCCCCCCC(=O)[O-]
REMARK SMILES IDX 9 1 10 2 11 3 12 4 13 5 14 6 15 7 16 8 17 9 8 10 7 11 6 12
REMARK SMILES IDX 5 13 4 14 3 15 2 16 1 17
REMARK H PARENT
REMARK Flexibility Score: inf
ROOT
ATOM      1  C   UNL     1       6.799 -35.466 -22.083  1.00  0.00     0.000 C 
ENDROOT
BRANCH   1   2
ATOM      2  C   UNL     1       5.837 -36.596 -22.507  1.00  0.00     0.000 C 
BRANCH   2   3
ATOM      3  C   UNL     1       4.662 -36.756 -21.525  1.00  0.00     0.000 C 
BRANCH   3   4
ATOM      4  C   UNL     1       3.297 -36.532 -22.193  1.00  0.00     0.000 C 
BRANCH   4   5
ATOM      5  C   UNL     1       3.070 -37.454 -23.401  1.00  0.00     0.006 C 
BRANCH   5   6
ATOM      6  C   UNL     1       2.064 -36.839 -24.378  1.00  0.00     0.053 C 
BRANCH   6   7
ATOM      7  C   UNL     1       2.674 -36.690 -25.735  1.00  0.00     0.041 C 
ATOM      8  O   UNL     1       3.876 -37.013 -25.929  1.00  0.00    -0.550 OA
ATOM      9  O   UNL     1       1.931 -36.145 -26.775  1.00  0.00    -0.550 OA
ENDBRANCH   6   7
ENDBRANCH   5   6
ENDBRANCH   4   5
ENDBRANCH   3   4
ENDBRANCH   2   3
ENDBRANCH   1   2
BRANCH   1  10
ATOM     10  C   UNL     1       6.566 -34.967 -20.646  1.00  0.00     0.000 C 
BRANCH  10  11
ATOM     11  C   UNL     1       7.400 -33.721 -20.305  1.00  0.00    -0.000 C 
BRANCH  11  12
ATOM     12  C   UNL     1       6.540 -32.567 -19.765  1.00  0.00    -0.000 C 
BRANCH  12  13
ATOM     13  C   UNL     1       7.207 -31.832 -18.589  1.00  0.00    -0.000 C 
BRANCH  13  14
ATOM     14  C   UNL     1       6.405 -30.589 -18.150  1.00  0.00    -0.000 C 
BRANCH  14  15
ATOM     15  C   UNL     1       7.145 -29.708 -17.128  1.00  0.00    -0.000 C 
BRANCH  15  16
ATOM     16  C   UNL     1       7.023 -28.208 -17.433  1.00  0.00    -0.003 C 
ATOM     17  C   UNL     1       8.353 -27.635 -17.912  1.00  0.00     0.004 C 
ENDBRANCH  15  16
ENDBRANCH  14  15
ENDBRANCH  13  14
ENDBRANCH  12  13
ENDBRANCH  11  12
ENDBRANCH  10  11
ENDBRANCH   1  10
TORSDOF 13
ENDMDL
MODEL 2
REMARK VINA RESULT:    -4.678      5.587     10.092
REMARK INTER + INTRA:          -8.777
REMARK INTER:                  -8.240
REMARK INTRA:                  -0.537
REMARK UNBOUND:                -0.544
REMARK SMILES CCCCCCCCCCCCCCC(=O)[O-]
REMARK SMILES IDX 9 1 10 2 11 3 12 4 13 5 14 6 15 7 16 8 17 9 8 10 7 11 6 12
REMARK SMILES IDX 5 13 4 14 3 15 2 16 1 17
REMARK H PARENT
REMARK Flexibility Score: inf
ROOT
ATOM      1  C   UNL     1      -1.142 -37.786 -21.757  1.00  0.00     0.000 C 
ENDROOT
BRANCH   1   2
ATOM      2  C   UNL     1       0.058 -36.820 -21.849  1.00  0.00     0.000 C 
BRANCH   2   3
ATOM      3  C   UNL     1       1.234 -37.430 -22.633  1.00  0.00     0.000 C 
BRANCH   3   4
ATOM      4  C   UNL     1       2.261 -36.376 -23.075  1.00  0.00     0.000 C 
BRANCH   4   5
ATOM      5  C   UNL     1       3.601 -36.506 -22.335  1.00  0.00     0.006 C 
BRANCH   5   6
ATOM      6  C   UNL     1       4.777 -36.240 -23.280  1.00  0.00     0.053 C 
BRANCH   6   7
ATOM      7  C   UNL     1       6.003 -35.881 -22.503  1.00  0.00     0.041 C 
ATOM      8  O   UNL     1       6.066 -34.785 -21.886  1.00  0.00    -0.550 OA
ATOM      9  O   UNL     1       7.099 -36.735 -22.501  1.00  0.00    -0.550 OA
ENDBRANCH   6   7
ENDBRANCH   5   6
ENDBRANCH   4   5
ENDBRANCH   3   4
ENDBRANCH   2   3
ENDBRANCH   1   2
BRANCH   1  10
ATOM     10  C   UNL     1      -0.732 -39.263 -21.621  1.00  0.00     0.000 C 
BRANCH  10  11
ATOM     11  C   UNL     1      -1.552 -40.013 -20.557  1.00  0.00    -0.000 C 
BRANCH  11  12
ATOM     12  C   UNL     1      -0.744 -41.123 -19.866  1.00  0.00    -0.000 C 
BRANCH  12  13
ATOM     13  C   UNL     1      -1.470 -41.708 -18.642  1.00  0.00    -0.000 C 
BRANCH  13  14
ATOM     14  C   UNL     1      -0.551 -42.622 -17.804  1.00  0.00    -0.000 C 
BRANCH  14  15
ATOM     15  C   UNL     1       0.941 -42.480 -18.152  1.00  0.00    -0.000 C 
BRANCH  15  16
ATOM     16  C   UNL     1       1.771 -43.701 -17.731  1.00  0.00    -0.003 C 
ATOM     17  C   UNL     1       1.135 -44.996 -18.228  1.00  0.00     0.004 C 
ENDBRANCH  15  16
ENDBRANCH  14  15
ENDBRANCH  13  14
ENDBRANCH  12  13
ENDBRANCH  11  12
ENDBRANCH  10  11
ENDBRANCH   1  10
TORSDOF 13
ENDMDL
MODEL 3
REMARK VINA RESULT:    -4.621      6.256     10.709
REMARK INTER + INTRA:          -8.677
REMARK INTER:                  -8.091
REMARK INTRA:                  -0.586
REMARK UNBOUND:                -0.544
REMARK SMILES CCCCCCCCCCCCCCC(=O)[O-]
REMARK SMILES IDX 9 1 10 2 11 3 12 4 13 5 14 6 15 7 16 8 17 9 8 10 7 11 6 12
REMARK SMILES IDX 5 13 4 14 3 15 2 16 1 17
REMARK H PARENT
REMARK Flexibility Score: inf
ROOT
ATOM      1  C   UNL     1      -0.764 -39.219 -21.570  1.00  0.00     0.000 C 
ENDROOT
BRANCH   1   2
ATOM      2  C   UNL     1      -0.822 -37.685 -21.401  1.00  0.00     0.000 C 
BRANCH   2   3
ATOM      3  C   UNL     1       0.425 -36.992 -21.979  1.00  0.00     0.000 C 
BRANCH   3   4
ATOM      4  C   UNL     1       0.752 -37.455 -23.407  1.00  0.00     0.000 C 
BRANCH   4   5
ATOM      5  C   UNL     1       2.243 -37.315 -23.749  1.00  0.00     0.006 C 
BRANCH   5   6
ATOM      6  C   UNL     1       3.027 -36.750 -22.562  1.00  0.00     0.053 C 
BRANCH   6   7
ATOM      7  C   UNL     1       4.335 -36.185 -23.018  1.00  0.00     0.041 C 
ATOM      8  O   UNL     1       5.036 -35.495 -22.232  1.00  0.00    -0.550 OA
ATOM      9  O   UNL     1       4.756 -36.377 -24.328  1.00  0.00    -0.550 OA
ENDBRANCH   6   7
ENDBRANCH   5   6
ENDBRANCH   4   5
ENDBRANCH   3   4
ENDBRANCH   2   3
ENDBRANCH   1   2
BRANCH   1  10
ATOM     10  C   UNL     1      -1.613 -39.982 -20.538  1.00  0.00     0.000 C 
BRANCH  10  11
ATOM     11  C   UNL     1      -0.855 -41.156 -19.895  1.00  0.00    -0.000 C 
BRANCH  11  12
ATOM     12  C   UNL     1      -1.355 -41.473 -18.476  1.00  0.00    -0.000 C 
BRANCH  12  13
ATOM     13  C   UNL     1      -1.558 -42.981 -18.244  1.00  0.00    -0.000 C 
BRANCH  13  14
ATOM     14  C   UNL     1      -0.469 -43.581 -17.331  1.00  0.00    -0.000 C 
BRANCH  14  15
ATOM     15  C   UNL     1       0.863 -43.847 -18.054  1.00  0.00    -0.000 C 
BRANCH  15  16
ATOM     16  C   UNL     1       1.224 -45.338 -18.110  1.00  0.00    -0.003 C 
ATOM     17  C   UNL     1       0.112 -46.196 -17.513  1.00  0.00     0.004 C 
ENDBRANCH  15  16
ENDBRANCH  14  15
ENDBRANCH  13  14
ENDBRANCH  12  13
ENDBRANCH  11  12
ENDBRANCH  10  11
ENDBRANCH   1  10
TORSDOF 13
ENDMDL
MODEL 4
REMARK VINA RESULT:    -4.568      3.790      5.037
REMARK INTER + INTRA:          -8.584
REMARK INTER:                  -8.156
REMARK INTRA:                  -0.428
REMARK UNBOUND:                -0.544
REMARK SMILES CCCCCCCCCCCCCCC(=O)[O-]
REMARK SMILES IDX 9 1 10 2 11 3 12 4 13 5 14 6 15 7 16 8 17 9 8 10 7 11 6 12
REMARK SMILES IDX 5 13 4 14 3 15 2 16 1 17
REMARK H PARENT
REMARK Flexibility Score: inf
ROOT
ATOM      1  C   UNL     1       5.579 -36.062 -21.827  1.00  0.00     0.000 C 
ENDROOT
BRANCH   1   2
ATOM      2  C   UNL     1       6.047 -35.589 -23.220  1.00  0.00     0.000 C 
BRANCH   2   3
ATOM      3  C   UNL     1       7.378 -36.241 -23.637  1.00  0.00     0.000 C 
BRANCH   3   4
ATOM      4  C   UNL     1       7.818 -35.836 -25.052  1.00  0.00     0.000 C 
BRANCH   4   5
ATOM      5  C   UNL     1       9.229 -36.333 -25.399  1.00  0.00     0.006 C 
BRANCH   5   6
ATOM      6  C   UNL     1      10.160 -35.160 -25.720  1.00  0.00     0.053 C 
BRANCH   6   7
ATOM      7  C   UNL     1      11.587 -35.608 -25.722  1.00  0.00     0.041 C 
ATOM      8  O   UNL     1      12.434 -35.025 -26.448  1.00  0.00    -0.550 OA
ATOM      9  O   UNL     1      11.972 -36.704 -24.959  1.00  0.00    -0.550 OA
ENDBRANCH   6   7
ENDBRANCH   5   6
ENDBRANCH   4   5
ENDBRANCH   3   4
ENDBRANCH   2   3
ENDBRANCH   1   2
BRANCH   1  10
ATOM     10  C   UNL     1       6.324 -35.381 -20.665  1.00  0.00     0.000 C 
BRANCH  10  11
ATOM     11  C   UNL     1       6.815 -33.967 -21.020  1.00  0.00    -0.000 C 
BRANCH  11  12
ATOM     12  C   UNL     1       7.344 -33.203 -19.795  1.00  0.00    -0.000 C 
BRANCH  12  13
ATOM     13  C   UNL     1       6.374 -32.109 -19.316  1.00  0.00    -0.000 C 
BRANCH  13  14
ATOM     14  C   UNL     1       6.646 -31.691 -17.856  1.00  0.00    -0.000 C 
BRANCH  14  15
ATOM     15  C   UNL     1       6.163 -30.268 -17.523  1.00  0.00    -0.000 C 
BRANCH  15  16
ATOM     16  C   UNL     1       7.227 -29.197 -17.798  1.00  0.00    -0.003 C 
ATOM     17  C   UNL     1       7.826 -28.670 -16.497  1.00  0.00     0.004 C 
ENDBRANCH  15  16
ENDBRANCH  14  15
ENDBRANCH  13  14
ENDBRANCH  12  13
ENDBRANCH  11  12
ENDBRANCH  10  11
ENDBRANCH   1  10
TORSDOF 13
ENDMDL
MODEL 5
REMARK VINA RESULT:    -4.443      7.841     10.371
REMARK INTER + INTRA:          -8.363
REMARK INTER:                  -7.915
REMARK INTRA:                  -0.449
REMARK UNBOUND:                -0.544
REMARK SMILES CCCCCCCCCCCCCCC(=O)[O-]
REMARK SMILES IDX 9 1 10 2 11 3 12 4 13 5 14 6 15 7 16 8 17 9 8 10 7 11 6 12
REMARK SMILES IDX 5 13 4 14 3 15 2 16 1 17
REMARK H PARENT
REMARK Flexibility Score: inf
ROOT
ATOM      1  C   UNL     1      -1.571 -39.912 -20.565  1.00  0.00     0.000 C 
ENDROOT
BRANCH   1   2
ATOM      2  C   UNL     1      -0.859 -41.125 -19.929  1.00  0.00     0.000 C 
BRANCH   2   3
ATOM      3  C   UNL     1      -1.486 -41.524 -18.581  1.00  0.00     0.000 C 
BRANCH   3   4
ATOM      4  C   UNL     1      -1.030 -42.911 -18.103  1.00  0.00     0.000 C 
BRANCH   4   5
ATOM      5  C   UNL     1       0.469 -42.959 -17.769  1.00  0.00     0.006 C 
BRANCH   5   6
ATOM      6  C   UNL     1       1.096 -44.271 -18.251  1.00  0.00     0.053 C 
BRANCH   6   7
ATOM      7  C   UNL     1       1.275 -45.218 -17.107  1.00  0.00     0.041 C 
ATOM      8  O   UNL     1       1.707 -46.383 -17.310  1.00  0.00    -0.550 OA
ATOM      9  O   UNL     1       0.916 -44.831 -15.821  1.00  0.00    -0.550 OA
ENDBRANCH   6   7
ENDBRANCH   5   6
ENDBRANCH   4   5
ENDBRANCH   3   4
ENDBRANCH   2   3
ENDBRANCH   1   2
BRANCH   1  10
ATOM     10  C   UNL     1      -0.759 -39.244 -21.689  1.00  0.00     0.000 C 
BRANCH  10  11
ATOM     11  C   UNL     1      -0.824 -37.708 -21.638  1.00  0.00    -0.000 C 
BRANCH  11  12
ATOM     12  C   UNL     1       0.451 -37.085 -21.046  1.00  0.00    -0.000 C 
BRANCH  12  13
ATOM     13  C   UNL     1       1.345 -36.437 -22.117  1.00  0.00    -0.000 C 
BRANCH  13  14
ATOM     14  C   UNL     1       1.511 -37.338 -23.359  1.00  0.00    -0.000 C 
BRANCH  14  15
ATOM     15  C   UNL     1       2.957 -37.405 -23.882  1.00  0.00    -0.000 C 
BRANCH  15  16
ATOM     16  C   UNL     1       3.040 -37.366 -25.415  1.00  0.00    -0.003 C 
ATOM     17  C   UNL     1       2.225 -36.206 -25.980  1.00  0.00     0.004 C 
ENDBRANCH  15  16
ENDBRANCH  14  15
ENDBRANCH  13  14
ENDBRANCH  12  13
ENDBRANCH  11  12
ENDBRANCH  10  11
ENDBRANCH   1  10
TORSDOF 13
ENDMDL
MODEL 6
REMARK VINA RESULT:    -4.317     11.303     14.768
REMARK INTER + INTRA:          -8.142
REMARK INTER:                  -6.867
REMARK INTRA:                  -1.275
REMARK UNBOUND:                -0.544
REMARK SMILES CCCCCCCCCCCCCCC(=O)[O-]
REMARK SMILES IDX 9 1 10 2 11 3 12 4 13 5 14 6 15 7 16 8 17 9 8 10 7 11 6 12
REMARK SMILES IDX 5 13 4 14 3 15 2 16 1 17
REMARK H PARENT
REMARK Flexibility Score: inf
ROOT
ATOM      1  C   UNL     1       6.256 -45.275 -32.126  1.00  0.00     0.000 C 
ENDROOT
BRANCH   1   2
ATOM      2  C   UNL     1       7.314 -44.858 -33.170  1.00  0.00     0.000 C 
BRANCH   2   3
ATOM      3  C   UNL     1       6.708 -44.011 -34.303  1.00  0.00     0.000 C 
BRANCH   3   4
ATOM      4  C   UNL     1       5.178 -44.132 -34.379  1.00  0.00     0.000 C 
BRANCH   4   5
ATOM      5  C   UNL     1       4.477 -42.766 -34.420  1.00  0.00     0.006 C 
BRANCH   5   6
ATOM      6  C   UNL     1       5.222 -41.741 -33.559  1.00  0.00     0.053 C 
BRANCH   6   7
ATOM      7  C   UNL     1       4.711 -41.767 -32.153  1.00  0.00     0.041 C 
ATOM      8  O   UNL     1       3.487 -41.591 -31.920  1.00  0.00    -0.550 OA
ATOM      9  O   UNL     1       5.597 -41.934 -31.095  1.00  0.00    -0.550 OA
ENDBRANCH   6   7
ENDBRANCH   5   6
ENDBRANCH   4   5
ENDBRANCH   3   4
ENDBRANCH   2   3
ENDBRANCH   1   2
BRANCH   1  10
ATOM     10  C   UNL     1       6.743 -46.374 -31.164  1.00  0.00     0.000 C 
BRANCH  10  11
ATOM     11  C   UNL     1       8.269 -46.560 -31.196  1.00  0.00    -0.000 C 
BRANCH  11  12
ATOM     12  C   UNL     1       8.892 -46.563 -29.791  1.00  0.00    -0.000 C 
BRANCH  12  13
ATOM     13  C   UNL     1       7.854 -46.822 -28.685  1.00  0.00    -0.000 C 
BRANCH  13  14
ATOM     14  C   UNL     1       7.801 -45.671 -27.658  1.00  0.00    -0.000 C 
BRANCH  14  15
ATOM     15  C   UNL     1       8.143 -44.296 -28.257  1.00  0.00    -0.000 C 
BRANCH  15  16
ATOM     16  C   UNL     1       8.774 -43.339 -27.235  1.00  0.00    -0.003 C 
ATOM     17  C   UNL     1       8.103 -41.969 -27.276  1.00  0.00     0.004 C 
ENDBRANCH  15  16
ENDBRANCH  14  15
ENDBRANCH  13  14
ENDBRANCH  12  13
ENDBRANCH  11  12
ENDBRANCH  10  11
ENDBRANCH   1  10
TORSDOF 13
ENDMDL
MODEL 7
REMARK VINA RESULT:    -4.242      7.355     10.560
REMARK INTER + INTRA:          -8.009
REMARK INTER:                  -6.966
REMARK INTRA:                  -1.043
REMARK UNBOUND:                -0.544
REMARK SMILES CCCCCCCCCCCCCCC(=O)[O-]
REMARK SMILES IDX 9 1 10 2 11 3 12 4 13 5 14 6 15 7 16 8 17 9 8 10 7 11 6 12
REMARK SMILES IDX 5 13 4 14 3 15 2 16 1 17
REMARK H PARENT
REMARK Flexibility Score: inf
ROOT
ATOM      1  C   UNL     1       7.507 -36.611 -29.918  1.00  0.00     0.000 C 
ENDROOT
BRANCH   1   2
ATOM      2  C   UNL     1       8.928 -36.007 -29.942  1.00  0.00     0.000 C 
BRANCH   2   3
ATOM      3  C   UNL     1       9.830 -36.604 -28.846  1.00  0.00     0.000 C 
BRANCH   3   4
ATOM      4  C   UNL     1       9.081 -36.833 -27.525  1.00  0.00     0.000 C 
BRANCH   4   5
ATOM      5  C   UNL     1      10.013 -36.807 -26.303  1.00  0.00     0.006 C 
BRANCH   5   6
ATOM      6  C   UNL     1      11.065 -35.703 -26.440  1.00  0.00     0.053 C 
BRANCH   6   7
ATOM      7  C   UNL     1      12.109 -35.839 -25.377  1.00  0.00     0.041 C 
ATOM      8  O   UNL     1      12.270 -36.937 -24.783  1.00  0.00    -0.550 OA
ATOM      9  O   UNL     1      12.869 -34.737 -25.006  1.00  0.00    -0.550 OA
ENDBRANCH   6   7
ENDBRANCH   5   6
ENDBRANCH   4   5
ENDBRANCH   3   4
ENDBRANCH   2   3
ENDBRANCH   1   2
BRANCH   1  10
ATOM     10  C   UNL     1       7.379 -37.912 -30.730  1.00  0.00     0.000 C 
BRANCH  10  11
ATOM     11  C   UNL     1       7.040 -39.130 -29.853  1.00  0.00    -0.000 C 
BRANCH  11  12
ATOM     12  C   UNL     1       6.053 -38.786 -28.726  1.00  0.00    -0.000 C 
BRANCH  12  13
ATOM     13  C   UNL     1       4.772 -39.637 -28.782  1.00  0.00    -0.000 C 
BRANCH  13  14
ATOM     14  C   UNL     1       3.688 -39.120 -27.813  1.00  0.00    -0.000 C 
BRANCH  14  15
ATOM     15  C   UNL     1       3.912 -37.667 -27.358  1.00  0.00    -0.000 C 
BRANCH  15  16
ATOM     16  C   UNL     1       3.216 -37.344 -26.028  1.00  0.00    -0.003 C 
ATOM     17  C   UNL     1       4.165 -36.627 -25.071  1.00  0.00     0.004 C 
ENDBRANCH  15  16
ENDBRANCH  14  15
ENDBRANCH  13  14
ENDBRANCH  12  13
ENDBRANCH  11  12
ENDBRANCH  10  11
ENDBRANCH   1  10
TORSDOF 13
ENDMDL
MODEL 8
REMARK VINA RESULT:    -4.175     13.020     15.460
REMARK INTER + INTRA:          -7.891
REMARK INTER:                  -5.974
REMARK INTRA:                  -1.917
REMARK UNBOUND:                -0.544
REMARK SMILES CCCCCCCCCCCCCCC(=O)[O-]
REMARK SMILES IDX 9 1 10 2 11 3 12 4 13 5 14 6 15 7 16 8 17 9 8 10 7 11 6 12
REMARK SMILES IDX 5 13 4 14 3 15 2 16 1 17
REMARK H PARENT
REMARK Flexibility Score: inf
ROOT
ATOM      1  C   UNL     1       9.038 -45.772 -32.057  1.00  0.00     0.000 C 
ENDROOT
BRANCH   1   2
ATOM      2  C   UNL     1       9.297 -46.015 -33.559  1.00  0.00     0.000 C 
BRANCH   2   3
ATOM      3  C   UNL     1       9.301 -44.705 -34.366  1.00  0.00     0.000 C 
BRANCH   3   4
ATOM      4  C   UNL     1       8.983 -43.476 -33.501  1.00  0.00     0.000 C 
BRANCH   4   5
ATOM      5  C   UNL     1       7.745 -42.710 -33.992  1.00  0.00     0.006 C 
BRANCH   5   6
ATOM      6  C   UNL     1       6.844 -43.611 -34.842  1.00  0.00     0.053 C 
BRANCH   6   7
ATOM      7  C   UNL     1       5.639 -44.033 -34.062  1.00  0.00     0.041 C 
ATOM      8  O   UNL     1       5.738 -44.917 -33.171  1.00  0.00    -0.550 OA
ATOM      9  O   UNL     1       4.396 -43.488 -34.356  1.00  0.00    -0.550 OA
ENDBRANCH   6   7
ENDBRANCH   5   6
ENDBRANCH   4   5
ENDBRANCH   3   4
ENDBRANCH   2   3
ENDBRANCH   1   2
BRANCH   1  10
ATOM     10  C   UNL     1       8.244 -46.903 -31.379  1.00  0.00     0.000 C 
BRANCH  10  11
ATOM     11  C   UNL     1       7.304 -46.391 -30.274  1.00  0.00    -0.000 C 
BRANCH  11  12
ATOM     12  C   UNL     1       7.645 -46.975 -28.894  1.00  0.00    -0.000 C 
BRANCH  12  13
ATOM     13  C   UNL     1       7.677 -45.904 -27.790  1.00  0.00    -0.000 C 
BRANCH  13  14
ATOM     14  C   UNL     1       8.808 -44.877 -28.008  1.00  0.00    -0.000 C 
BRANCH  14  15
ATOM     15  C   UNL     1       8.305 -43.433 -28.178  1.00  0.00    -0.000 C 
BRANCH  15  16
ATOM     16  C   UNL     1       8.501 -42.895 -29.602  1.00  0.00    -0.003 C 
ATOM     17  C   UNL     1       7.163 -42.737 -30.319  1.00  0.00     0.004 C 
ENDBRANCH  15  16
ENDBRANCH  14  15
ENDBRANCH  13  14
ENDBRANCH  12  13
ENDBRANCH  11  12
ENDBRANCH  10  11
ENDBRANCH   1  10
TORSDOF 13
ENDMDL
MODEL 9
REMARK VINA RESULT:    -4.143     10.956     14.427
REMARK INTER + INTRA:          -7.836
REMARK INTER:                  -5.732
REMARK INTRA:                  -2.103
REMARK UNBOUND:                -0.544
REMARK SMILES CCCCCCCCCCCCCCC(=O)[O-]
REMARK SMILES IDX 9 1 10 2 11 3 12 4 13 5 14 6 15 7 16 8 17 9 8 10 7 11 6 12
REMARK SMILES IDX 5 13 4 14 3 15 2 16 1 17
REMARK H PARENT
REMARK Flexibility Score: inf
ROOT
ATOM      1  C   UNL     1      -0.406 -28.609 -32.384  1.00  0.00     0.000 C 
ENDROOT
BRANCH   1   2
ATOM      2  C   UNL     1       0.070 -29.166 -33.743  1.00  0.00     0.000 C 
BRANCH   2   3
ATOM      3  C   UNL     1       0.665 -30.580 -33.612  1.00  0.00     0.000 C 
BRANCH   3   4
ATOM      4  C   UNL     1       0.878 -31.000 -32.150  1.00  0.00     0.000 C 
BRANCH   4   5
ATOM      5  C   UNL     1       1.819 -32.206 -32.011  1.00  0.00     0.006 C 
BRANCH   5   6
ATOM      6  C   UNL     1       3.277 -31.792 -32.228  1.00  0.00     0.053 C 
BRANCH   6   7
ATOM      7  C   UNL     1       4.131 -32.262 -31.093  1.00  0.00     0.041 C 
ATOM      8  O   UNL     1       3.676 -32.272 -29.919  1.00  0.00    -0.550 OA
ATOM      9  O   UNL     1       5.447 -32.641 -31.324  1.00  0.00    -0.550 OA
ENDBRANCH   6   7
ENDBRANCH   5   6
ENDBRANCH   4   5
ENDBRANCH   3   4
ENDBRANCH   2   3
ENDBRANCH   1   2
BRANCH   1  10
ATOM     10  C   UNL     1      -1.744 -27.852 -32.466  1.00  0.00     0.000 C 
BRANCH  10  11
ATOM     11  C   UNL     1      -2.455 -28.045 -33.816  1.00  0.00    -0.000 C 
BRANCH  11  12
ATOM     12  C   UNL     1      -3.615 -29.051 -33.733  1.00  0.00    -0.000 C 
BRANCH  12  13
ATOM     13  C   UNL     1      -3.303 -30.375 -34.453  1.00  0.00    -0.000 C 
BRANCH  13  14
ATOM     14  C   UNL     1      -3.109 -31.543 -33.463  1.00  0.00    -0.000 C 
BRANCH  14  15
ATOM     15  C   UNL     1      -3.460 -31.182 -32.009  1.00  0.00    -0.000 C 
BRANCH  15  16
ATOM     16  C   UNL     1      -2.397 -31.648 -31.004  1.00  0.00    -0.003 C 
ATOM     17  C   UNL     1      -2.215 -30.627 -29.884  1.00  0.00     0.004 C 
ENDBRANCH  15  16
ENDBRANCH  14  15
ENDBRANCH  13  14
ENDBRANCH  12  13
ENDBRANCH  11  12
ENDBRANCH  10  11
ENDBRANCH   1  10
TORSDOF 13
ENDMDL
