MODEL 1
REMARK VINA RESULT:    -4.025      0.000      0.000
REMARK INTER + INTRA:         -12.811
REMARK INTER:                 -10.612
REMARK INTRA:                  -2.198
REMARK UNBOUND:                -2.198
REMARK SMILES CCCCCCCCCCCCCCCCCCCCCCCCCCCCCC(=O)[O-]
REMARK SMILES IDX 16 1 17 2 18 3 19 4 20 5 21 6 22 7 23 8 24 9 25 10 26 11
REMARK SMILES IDX 27 12 28 13 29 14 30 15 31 16 32 17 15 18 14 19 13 20 12 21
REMARK SMILES IDX 11 22 10 23 9 24 8 25 7 26 6 27 5 28 4 29 3 30 2 31 1 32
REMARK H PARENT
REMARK Flexibility Score: inf
ROOT
ATOM      1  C   UNL     1      23.568  -8.935  36.162  1.00  0.00     0.000 C 
ENDROOT
BRANCH   1   2
ATOM      2  C   UNL     1      24.190  -8.979  34.752  1.00  0.00     0.000 C 
BRANCH   2   3
ATOM      3  C   UNL     1      24.731 -10.355  34.314  1.00  0.00     0.000 C 
BRANCH   3   4
ATOM      4  C   UNL     1      23.887 -11.076  33.240  1.00  0.00     0.000 C 
BRANCH   4   5
ATOM      5  C   UNL     1      22.926 -10.152  32.464  1.00  0.00     0.000 C 
BRANCH   5   6
ATOM      6  C   UNL     1      23.362  -9.880  31.009  1.00  0.00     0.000 C 
BRANCH   6   7
ATOM      7  C   UNL     1      24.131  -8.554  30.868  1.00  0.00     0.000 C 
BRANCH   7   8
ATOM      8  C   UNL     1      25.495  -8.725  30.175  1.00  0.00     0.000 C 
BRANCH   8   9
ATOM      9  C   UNL     1      26.155 -10.104  30.377  1.00  0.00     0.000 C 
BRANCH   9  10
ATOM     10  C   UNL     1      27.487 -10.082  31.153  1.00  0.00     0.000 C 
BRANCH  10  11
ATOM     11  C   UNL     1      28.556 -11.062  30.640  1.00  0.00     0.000 C 
BRANCH  11  12
ATOM     12  C   UNL     1      29.967 -10.452  30.633  1.00  0.00     0.000 C 
BRANCH  12  13
ATOM     13  C   UNL     1      30.040  -9.114  31.387  1.00  0.00     0.006 C 
BRANCH  13  14
ATOM     14  C   UNL     1      31.071  -9.134  32.529  1.00  0.00     0.053 C 
BRANCH  14  15
ATOM     15  C   UNL     1      31.228  -7.786  33.171  1.00  0.00     0.041 C 
ATOM     16  O   UNL     1      32.078  -7.631  34.089  1.00  0.00    -0.550 OA
ATOM     17  O   UNL     1      30.400  -6.726  32.821  1.00  0.00    -0.550 OA
ENDBRANCH  14  15
ENDBRANCH  13  14
ENDBRANCH  12  13
ENDBRANCH  11  12
ENDBRANCH  10  11
ENDBRANCH   9  10
ENDBRANCH   8   9
ENDBRANCH   7   8
ENDBRANCH   6   7
ENDBRANCH   5   6
ENDBRANCH   4   5
ENDBRANCH   3   4
ENDBRANCH   2   3
ENDBRANCH   1   2
BRANCH   1  18
ATOM     18  C   UNL     1      23.754  -7.584  36.868  1.00  0.00     0.000 C 
BRANCH  18  19
ATOM     19  C   UNL     1      25.231  -7.367  37.240  1.00  0.00     0.000 C 
BRANCH  19  20
ATOM     20  C   UNL     1      25.404  -6.351  38.389  1.00  0.00     0.000 C 
BRANCH  20  21
ATOM     21  C   UNL     1      24.374  -5.208  38.362  1.00  0.00     0.000 C 
BRANCH  21  22
ATOM     22  C   UNL     1      24.964  -3.869  38.832  1.00  0.00     0.000 C 
BRANCH  22  23
ATOM     23  C   UNL     1      24.091  -2.659  38.457  1.00  0.00     0.000 C 
BRANCH  23  24
ATOM     24  C   UNL     1      22.890  -2.392  39.388  1.00  0.00    -0.000 C 
BRANCH  24  25
ATOM     25  C   UNL     1      22.695  -0.922  39.795  1.00  0.00    -0.000 C 
BRANCH  25  26
ATOM     26  C   UNL     1      22.140  -0.762  41.222  1.00  0.00    -0.000 C 
BRANCH  26  27
ATOM     27  C   UNL     1      20.944  -1.697  41.486  1.00  0.00    -0.000 C 
BRANCH  27  28
ATOM     28  C   UNL     1      21.225  -2.747  42.575  1.00  0.00    -0.000 C 
BRANCH  28  29
ATOM     29  C   UNL     1      22.706  -2.767  42.995  1.00  0.00    -0.000 C 
BRANCH  29  30
ATOM     30  C   UNL     1      22.915  -3.463  44.349  1.00  0.00    -0.000 C 
BRANCH  30  31
ATOM     31  C   UNL     1      22.942  -2.466  45.516  1.00  0.00    -0.003 C 
ATOM     32  C   UNL     1      21.617  -2.463  46.270  1.00  0.00     0.004 C 
ENDBRANCH  30  31
ENDBRANCH  29  30
ENDBRANCH  28  29
ENDBRANCH  27  28
ENDBRANCH  26  27
ENDBRANCH  25  26
ENDBRANCH  24  25
ENDBRANCH  23  24
ENDBRANCH  22  23
ENDBRANCH  21  22
ENDBRANCH  20  21
ENDBRANCH  19  20
ENDBRANCH  18  19
ENDBRANCH   1  18
TORSDOF 28
ENDMDL
MODEL 2
REMARK VINA RESULT:    -3.979      4.236     12.968
REMARK INTER + INTRA:         -12.692
REMARK INTER:                 -10.836
REMARK INTRA:                  -1.855
REMARK UNBOUND:                -2.198
REMARK SMILES CCCCCCCCCCCCCCCCCCCCCCCCCCCCCC(=O)[O-]
REMARK SMILES IDX 16 1 17 2 18 3 19 4 20 5 21 6 22 7 23 8 24 9 25 10 26 11
REMARK SMILES IDX 27 12 28 13 29 14 30 15 31 16 32 17 15 18 14 19 13 20 12 21
REMARK SMILES IDX 11 22 10 23 9 24 8 25 7 26 6 27 5 28 4 29 3 30 2 31 1 32
REMARK H PARENT
REMARK Flexibility Score: inf
ROOT
ATOM      1  C   UNL     1      23.282  -8.705  35.831  1.00  0.00     0.000 C 
ENDROOT
BRANCH   1   2
ATOM      2  C   UNL     1      23.626  -7.637  36.888  1.00  0.00     0.000 C 
BRANCH   2   3
ATOM      3  C   UNL     1      25.130  -7.460  37.179  1.00  0.00     0.000 C 
BRANCH   3   4
ATOM      4  C   UNL     1      25.462  -6.484  38.329  1.00  0.00     0.000 C 
BRANCH   4   5
ATOM      5  C   UNL     1      24.543  -5.247  38.395  1.00  0.00     0.000 C 
BRANCH   5   6
ATOM      6  C   UNL     1      25.276  -3.946  38.779  1.00  0.00     0.000 C 
BRANCH   6   7
ATOM      7  C   UNL     1      24.443  -2.691  38.462  1.00  0.00     0.000 C 
BRANCH   7   8
ATOM      8  C   UNL     1      23.055  -2.710  39.126  1.00  0.00     0.000 C 
BRANCH   8   9
ATOM      9  C   UNL     1      22.911  -1.788  40.353  1.00  0.00     0.000 C 
BRANCH   9  10
ATOM     10  C   UNL     1      22.132  -0.482  40.100  1.00  0.00     0.000 C 
BRANCH  10  11
ATOM     11  C   UNL     1      21.686   0.266  41.368  1.00  0.00     0.000 C 
BRANCH  11  12
ATOM     12  C   UNL     1      20.413  -0.328  41.993  1.00  0.00     0.000 C 
BRANCH  12  13
ATOM     13  C   UNL     1      20.565  -0.607  43.497  1.00  0.00     0.006 C 
BRANCH  13  14
ATOM     14  C   UNL     1      21.275  -1.941  43.783  1.00  0.00     0.053 C 
BRANCH  14  15
ATOM     15  C   UNL     1      21.537  -2.139  45.248  1.00  0.00     0.041 C 
ATOM     16  O   UNL     1      20.621  -1.905  46.080  1.00  0.00    -0.550 OA
ATOM     17  O   UNL     1      22.798  -2.505  45.705  1.00  0.00    -0.550 OA
ENDBRANCH  14  15
ENDBRANCH  13  14
ENDBRANCH  12  13
ENDBRANCH  11  12
ENDBRANCH  10  11
ENDBRANCH   9  10
ENDBRANCH   8   9
ENDBRANCH   7   8
ENDBRANCH   6   7
ENDBRANCH   5   6
ENDBRANCH   4   5
ENDBRANCH   3   4
ENDBRANCH   2   3
ENDBRANCH   1   2
BRANCH   1  18
ATOM     18  C   UNL     1      24.074 -10.009  36.002  1.00  0.00     0.000 C 
BRANCH  18  19
ATOM     19  C   UNL     1      24.507 -10.563  34.634  1.00  0.00     0.000 C 
BRANCH  19  20
ATOM     20  C   UNL     1      24.706  -9.450  33.584  1.00  0.00     0.000 C 
BRANCH  20  21
ATOM     21  C   UNL     1      24.632  -9.954  32.131  1.00  0.00     0.000 C 
BRANCH  21  22
ATOM     22  C   UNL     1      24.443  -8.813  31.119  1.00  0.00     0.000 C 
BRANCH  22  23
ATOM     23  C   UNL     1      24.361  -9.304  29.664  1.00  0.00     0.000 C 
BRANCH  23  24
ATOM     24  C   UNL     1      25.613  -9.039  28.801  1.00  0.00    -0.000 C 
BRANCH  24  25
ATOM     25  C   UNL     1      26.447 -10.287  28.464  1.00  0.00    -0.000 C 
BRANCH  25  26
ATOM     26  C   UNL     1      27.892 -10.203  28.987  1.00  0.00    -0.000 C 
BRANCH  26  27
ATOM     27  C   UNL     1      27.952  -9.697  30.441  1.00  0.00    -0.000 C 
BRANCH  27  28
ATOM     28  C   UNL     1      28.982 -10.448  31.303  1.00  0.00    -0.000 C 
BRANCH  28  29
ATOM     29  C   UNL     1      30.430 -10.084  30.926  1.00  0.00    -0.000 C 
BRANCH  29  30
ATOM     30  C   UNL     1      31.093  -9.182  31.979  1.00  0.00    -0.000 C 
BRANCH  30  31
ATOM     31  C   UNL     1      30.355  -7.847  32.147  1.00  0.00    -0.003 C 
ATOM     32  C   UNL     1      31.201  -6.843  32.923  1.00  0.00     0.004 C 
ENDBRANCH  30  31
ENDBRANCH  29  30
ENDBRANCH  28  29
ENDBRANCH  27  28
ENDBRANCH  26  27
ENDBRANCH  25  26
ENDBRANCH  24  25
ENDBRANCH  23  24
ENDBRANCH  22  23
ENDBRANCH  21  22
ENDBRANCH  20  21
ENDBRANCH  19  20
ENDBRANCH  18  19
ENDBRANCH   1  18
TORSDOF 28
ENDMDL
MODEL 3
REMARK VINA RESULT:    -3.973      1.097      2.225
REMARK INTER + INTRA:         -12.675
REMARK INTER:                 -10.232
REMARK INTRA:                  -2.443
REMARK UNBOUND:                -2.198
REMARK SMILES CCCCCCCCCCCCCCCCCCCCCCCCCCCCCC(=O)[O-]
REMARK SMILES IDX 16 1 17 2 18 3 19 4 20 5 21 6 22 7 23 8 24 9 25 10 26 11
REMARK SMILES IDX 27 12 28 13 29 14 30 15 31 16 32 17 15 18 14 19 13 20 12 21
REMARK SMILES IDX 11 22 10 23 9 24 8 25 7 26 6 27 5 28 4 29 3 30 2 31 1 32
REMARK H PARENT
REMARK Flexibility Score: inf
ROOT
ATOM      1  C   UNL     1      23.258 -11.242  35.360  1.00  0.00     0.000 C 
ENDROOT
BRANCH   1   2
ATOM      2  C   UNL     1      24.652 -11.056  34.729  1.00  0.00     0.000 C 
BRANCH   2   3
ATOM      3  C   UNL     1      24.734 -11.347  33.217  1.00  0.00     0.000 C 
BRANCH   3   4
ATOM      4  C   UNL     1      23.826 -10.466  32.332  1.00  0.00     0.000 C 
BRANCH   4   5
ATOM      5  C   UNL     1      24.408  -9.073  32.016  1.00  0.00     0.000 C 
BRANCH   5   6
ATOM      6  C   UNL     1      23.732  -8.371  30.821  1.00  0.00     0.000 C 
BRANCH   6   7
ATOM      7  C   UNL     1      24.681  -8.216  29.619  1.00  0.00     0.000 C 
BRANCH   7   8
ATOM      8  C   UNL     1      25.086  -9.566  28.999  1.00  0.00     0.000 C 
BRANCH   8   9
ATOM      9  C   UNL     1      26.606  -9.792  28.877  1.00  0.00     0.000 C 
BRANCH   9  10
ATOM     10  C   UNL     1      27.417  -9.471  30.148  1.00  0.00     0.000 C 
BRANCH  10  11
ATOM     11  C   UNL     1      27.976 -10.696  30.891  1.00  0.00     0.000 C 
BRANCH  11  12
ATOM     12  C   UNL     1      29.483 -10.585  31.174  1.00  0.00     0.000 C 
BRANCH  12  13
ATOM     13  C   UNL     1      29.904  -9.167  31.597  1.00  0.00     0.006 C 
BRANCH  13  14
ATOM     14  C   UNL     1      31.287  -9.137  32.270  1.00  0.00     0.053 C 
BRANCH  14  15
ATOM     15  C   UNL     1      31.465  -7.929  33.142  1.00  0.00     0.041 C 
ATOM     16  O   UNL     1      32.234  -7.989  34.138  1.00  0.00    -0.550 OA
ATOM     17  O   UNL     1      30.738  -6.767  32.910  1.00  0.00    -0.550 OA
ENDBRANCH  14  15
ENDBRANCH  13  14
ENDBRANCH  12  13
ENDBRANCH  11  12
ENDBRANCH  10  11
ENDBRANCH   9  10
ENDBRANCH   8   9
ENDBRANCH   7   8
ENDBRANCH   6   7
ENDBRANCH   5   6
ENDBRANCH   4   5
ENDBRANCH   3   4
ENDBRANCH   2   3
ENDBRANCH   1   2
BRANCH   1  18
ATOM     18  C   UNL     1      22.690  -9.954  35.973  1.00  0.00     0.000 C 
BRANCH  18  19
ATOM     19  C   UNL     1      23.585  -8.751  35.632  1.00  0.00     0.000 C 
BRANCH  19  20
ATOM     20  C   UNL     1      23.748  -7.782  36.822  1.00  0.00     0.000 C 
BRANCH  20  21
ATOM     21  C   UNL     1      25.209  -7.379  37.094  1.00  0.00     0.000 C 
BRANCH  21  22
ATOM     22  C   UNL     1      25.348  -6.436  38.299  1.00  0.00     0.000 C 
BRANCH  22  23
ATOM     23  C   UNL     1      24.338  -5.275  38.276  1.00  0.00     0.000 C 
BRANCH  23  24
ATOM     24  C   UNL     1      24.841  -3.945  38.876  1.00  0.00    -0.000 C 
BRANCH  24  25
ATOM     25  C   UNL     1      23.958  -2.721  38.579  1.00  0.00    -0.000 C 
BRANCH  25  26
ATOM     26  C   UNL     1      23.219  -2.198  39.824  1.00  0.00    -0.000 C 
BRANCH  26  27
ATOM     27  C   UNL     1      21.691  -2.177  39.622  1.00  0.00    -0.000 C 
BRANCH  27  28
ATOM     28  C   UNL     1      21.041  -0.850  40.053  1.00  0.00    -0.000 C 
BRANCH  28  29
ATOM     29  C   UNL     1      21.959  -0.025  40.972  1.00  0.00    -0.000 C 
BRANCH  29  30
ATOM     30  C   UNL     1      21.346   0.186  42.365  1.00  0.00    -0.000 C 
BRANCH  30  31
ATOM     31  C   UNL     1      20.732  -1.102  42.931  1.00  0.00    -0.003 C 
ATOM     32  C   UNL     1      21.810  -2.040  43.463  1.00  0.00     0.004 C 
ENDBRANCH  30  31
ENDBRANCH  29  30
ENDBRANCH  28  29
ENDBRANCH  27  28
ENDBRANCH  26  27
ENDBRANCH  25  26
ENDBRANCH  24  25
ENDBRANCH  23  24
ENDBRANCH  22  23
ENDBRANCH  21  22
ENDBRANCH  20  21
ENDBRANCH  19  20
ENDBRANCH  18  19
ENDBRANCH   1  18
TORSDOF 28
ENDMDL
MODEL 4
REMARK VINA RESULT:    -3.818      3.568     12.578
REMARK INTER + INTRA:         -12.265
REMARK INTER:                 -10.090
REMARK INTRA:                  -2.175
REMARK UNBOUND:                -2.198
REMARK SMILES CCCCCCCCCCCCCCCCCCCCCCCCCCCCCC(=O)[O-]
REMARK SMILES IDX 16 1 17 2 18 3 19 4 20 5 21 6 22 7 23 8 24 9 25 10 26 11
REMARK SMILES IDX 27 12 28 13 29 14 30 15 31 16 32 17 15 18 14 19 13 20 12 21
REMARK SMILES IDX 11 22 10 23 9 24 8 25 7 26 6 27 5 28 4 29 3 30 2 31 1 32
REMARK H PARENT
REMARK Flexibility Score: inf
ROOT
ATOM      1  C   UNL     1      23.395  -8.744  35.763  1.00  0.00     0.000 C 
ENDROOT
BRANCH   1   2
ATOM      2  C   UNL     1      23.658  -7.649  36.816  1.00  0.00     0.000 C 
BRANCH   2   3
ATOM      3  C   UNL     1      25.134  -7.467  37.221  1.00  0.00     0.000 C 
BRANCH   3   4
ATOM      4  C   UNL     1      25.381  -6.433  38.342  1.00  0.00     0.000 C 
BRANCH   4   5
ATOM      5  C   UNL     1      24.393  -5.248  38.339  1.00  0.00     0.000 C 
BRANCH   5   6
ATOM      6  C   UNL     1      25.036  -3.900  38.727  1.00  0.00     0.000 C 
BRANCH   6   7
ATOM      7  C   UNL     1      24.028  -2.737  38.679  1.00  0.00     0.000 C 
BRANCH   7   8
ATOM      8  C   UNL     1      23.101  -2.697  39.907  1.00  0.00     0.000 C 
BRANCH   8   9
ATOM      9  C   UNL     1      23.823  -2.798  41.265  1.00  0.00     0.000 C 
BRANCH   9  10
ATOM     10  C   UNL     1      22.953  -3.313  42.429  1.00  0.00     0.000 C 
BRANCH  10  11
ATOM     11  C   UNL     1      21.511  -2.780  42.450  1.00  0.00     0.000 C 
BRANCH  11  12
ATOM     12  C   UNL     1      21.319  -1.618  43.438  1.00  0.00     0.000 C 
BRANCH  12  13
ATOM     13  C   UNL     1      20.455  -0.484  42.862  1.00  0.00     0.006 C 
BRANCH  13  14
ATOM     14  C   UNL     1      20.632  -0.319  41.343  1.00  0.00     0.053 C 
BRANCH  14  15
ATOM     15  C   UNL     1      21.833   0.514  41.002  1.00  0.00     0.041 C 
ATOM     16  O   UNL     1      22.331   1.274  41.876  1.00  0.00    -0.550 OA
ATOM     17  O   UNL     1      22.360   0.517  39.716  1.00  0.00    -0.550 OA
ENDBRANCH  14  15
ENDBRANCH  13  14
ENDBRANCH  12  13
ENDBRANCH  11  12
ENDBRANCH  10  11
ENDBRANCH   9  10
ENDBRANCH   8   9
ENDBRANCH   7   8
ENDBRANCH   6   7
ENDBRANCH   5   6
ENDBRANCH   4   5
ENDBRANCH   3   4
ENDBRANCH   2   3
ENDBRANCH   1   2
BRANCH   1  18
ATOM     18  C   UNL     1      23.532 -10.168  36.319  1.00  0.00     0.000 C 
BRANCH  18  19
ATOM     19  C   UNL     1      24.117 -11.111  35.254  1.00  0.00     0.000 C 
BRANCH  19  20
ATOM     20  C   UNL     1      23.723 -10.697  33.820  1.00  0.00     0.000 C 
BRANCH  20  21
ATOM     21  C   UNL     1      24.925 -10.322  32.935  1.00  0.00     0.000 C 
BRANCH  21  22
ATOM     22  C   UNL     1      24.764  -8.945  32.273  1.00  0.00     0.000 C 
BRANCH  22  23
ATOM     23  C   UNL     1      24.318  -9.030  30.803  1.00  0.00     0.000 C 
BRANCH  23  24
ATOM     24  C   UNL     1      25.409  -8.716  29.758  1.00  0.00    -0.000 C 
BRANCH  24  25
ATOM     25  C   UNL     1      26.177  -9.941  29.231  1.00  0.00    -0.000 C 
BRANCH  25  26
ATOM     26  C   UNL     1      27.693  -9.853  29.482  1.00  0.00    -0.000 C 
BRANCH  26  27
ATOM     27  C   UNL     1      28.052 -10.121  30.957  1.00  0.00    -0.000 C 
BRANCH  27  28
ATOM     28  C   UNL     1      29.230 -11.096  31.126  1.00  0.00    -0.000 C 
BRANCH  28  29
ATOM     29  C   UNL     1      30.592 -10.385  31.019  1.00  0.00    -0.000 C 
BRANCH  29  30
ATOM     30  C   UNL     1      30.598  -9.032  31.746  1.00  0.00    -0.000 C 
BRANCH  30  31
ATOM     31  C   UNL     1      31.896  -8.801  32.532  1.00  0.00    -0.003 C 
ATOM     32  C   UNL     1      31.616  -8.154  33.884  1.00  0.00     0.004 C 
ENDBRANCH  30  31
ENDBRANCH  29  30
ENDBRANCH  28  29
ENDBRANCH  27  28
ENDBRANCH  26  27
ENDBRANCH  25  26
ENDBRANCH  24  25
ENDBRANCH  23  24
ENDBRANCH  22  23
ENDBRANCH  21  22
ENDBRANCH  20  21
ENDBRANCH  19  20
ENDBRANCH  18  19
ENDBRANCH   1  18
TORSDOF 28
ENDMDL
MODEL 5
REMARK VINA RESULT:    -3.709      1.554      3.660
REMARK INTER + INTRA:         -11.978
REMARK INTER:                  -9.466
REMARK INTRA:                  -2.512
REMARK UNBOUND:                -2.198
REMARK SMILES CCCCCCCCCCCCCCCCCCCCCCCCCCCCCC(=O)[O-]
REMARK SMILES IDX 16 1 17 2 18 3 19 4 20 5 21 6 22 7 23 8 24 9 25 10 26 11
REMARK SMILES IDX 27 12 28 13 29 14 30 15 31 16 32 17 15 18 14 19 13 20 12 21
REMARK SMILES IDX 11 22 10 23 9 24 8 25 7 26 6 27 5 28 4 29 3 30 2 31 1 32
REMARK H PARENT
REMARK Flexibility Score: inf
ROOT
ATOM      1  C   UNL     1      23.739 -11.192  32.570  1.00  0.00     0.000 C 
ENDROOT
BRANCH   1   2
ATOM      2  C   UNL     1      23.369 -10.235  31.420  1.00  0.00     0.000 C 
BRANCH   2   3
ATOM      3  C   UNL     1      24.334  -9.051  31.213  1.00  0.00     0.000 C 
BRANCH   3   4
ATOM      4  C   UNL     1      24.651  -8.716  29.739  1.00  0.00     0.000 C 
BRANCH   4   5
ATOM      5  C   UNL     1      26.063  -9.138  29.283  1.00  0.00     0.000 C 
BRANCH   5   6
ATOM      6  C   UNL     1      26.121 -10.546  28.655  1.00  0.00     0.000 C 
BRANCH   6   7
ATOM      7  C   UNL     1      26.922 -11.537  29.518  1.00  0.00     0.000 C 
BRANCH   7   8
ATOM      8  C   UNL     1      27.628 -10.861  30.707  1.00  0.00     0.000 C 
BRANCH   8   9
ATOM      9  C   UNL     1      28.808 -11.659  31.297  1.00  0.00     0.000 C 
BRANCH   9  10
ATOM     10  C   UNL     1      30.053 -10.820  31.646  1.00  0.00     0.000 C 
BRANCH  10  11
ATOM     11  C   UNL     1      29.981  -9.342  31.226  1.00  0.00     0.000 C 
BRANCH  11  12
ATOM     12  C   UNL     1      31.358  -8.754  30.878  1.00  0.00     0.000 C 
BRANCH  12  13
ATOM     13  C   UNL     1      31.524  -7.303  31.360  1.00  0.00     0.006 C 
BRANCH  13  14
ATOM     14  C   UNL     1      30.892  -7.063  32.742  1.00  0.00     0.053 C 
BRANCH  14  15
ATOM     15  C   UNL     1      31.726  -7.634  33.851  1.00  0.00     0.041 C 
ATOM     16  O   UNL     1      31.510  -8.810  34.249  1.00  0.00    -0.550 OA
ATOM     17  O   UNL     1      32.684  -6.860  34.497  1.00  0.00    -0.550 OA
ENDBRANCH  14  15
ENDBRANCH  13  14
ENDBRANCH  12  13
ENDBRANCH  11  12
ENDBRANCH  10  11
ENDBRANCH   9  10
ENDBRANCH   8   9
ENDBRANCH   7   8
ENDBRANCH   6   7
ENDBRANCH   5   6
ENDBRANCH   4   5
ENDBRANCH   3   4
ENDBRANCH   2   3
ENDBRANCH   1   2
BRANCH   1  18
ATOM     18  C   UNL     1      25.006 -10.772  33.328  1.00  0.00     0.000 C 
BRANCH  18  19
ATOM     19  C   UNL     1      24.663 -10.349  34.766  1.00  0.00     0.000 C 
BRANCH  19  20
ATOM     20  C   UNL     1      24.074  -8.923  34.836  1.00  0.00     0.000 C 
BRANCH  20  21
ATOM     21  C   UNL     1      23.773  -8.451  36.270  1.00  0.00     0.000 C 
BRANCH  21  22
ATOM     22  C   UNL     1      24.853  -7.507  36.820  1.00  0.00     0.000 C 
BRANCH  22  23
ATOM     23  C   UNL     1      24.301  -6.476  37.821  1.00  0.00     0.000 C 
BRANCH  23  24
ATOM     24  C   UNL     1      25.360  -5.746  38.674  1.00  0.00    -0.000 C 
BRANCH  24  25
ATOM     25  C   UNL     1      25.217  -4.215  38.719  1.00  0.00    -0.000 C 
BRANCH  25  26
ATOM     26  C   UNL     1      23.804  -3.732  38.343  1.00  0.00    -0.000 C 
BRANCH  26  27
ATOM     27  C   UNL     1      23.284  -2.654  39.313  1.00  0.00    -0.000 C 
BRANCH  27  28
ATOM     28  C   UNL     1      23.942  -2.721  40.703  1.00  0.00    -0.000 C 
BRANCH  28  29
ATOM     29  C   UNL     1      22.919  -2.537  41.839  1.00  0.00    -0.000 C 
BRANCH  29  30
ATOM     30  C   UNL     1      21.600  -1.930  41.338  1.00  0.00    -0.000 C 
BRANCH  30  31
ATOM     31  C   UNL     1      21.382  -0.503  41.860  1.00  0.00    -0.003 C 
ATOM     32  C   UNL     1      22.215   0.505  41.076  1.00  0.00     0.004 C 
ENDBRANCH  30  31
ENDBRANCH  29  30
ENDBRANCH  28  29
ENDBRANCH  27  28
ENDBRANCH  26  27
ENDBRANCH  25  26
ENDBRANCH  24  25
ENDBRANCH  23  24
ENDBRANCH  22  23
ENDBRANCH  21  22
ENDBRANCH  20  21
ENDBRANCH  19  20
ENDBRANCH  18  19
ENDBRANCH   1  18
TORSDOF 28
ENDMDL
MODEL 6
REMARK VINA RESULT:    -3.667      1.838      3.030
REMARK INTER + INTRA:         -11.867
REMARK INTER:                  -9.216
REMARK INTRA:                  -2.651
REMARK UNBOUND:                -2.198
REMARK SMILES CCCCCCCCCCCCCCCCCCCCCCCCCCCCCC(=O)[O-]
REMARK SMILES IDX 16 1 17 2 18 3 19 4 20 5 21 6 22 7 23 8 24 9 25 10 26 11
REMARK SMILES IDX 27 12 28 13 29 14 30 15 31 16 32 17 15 18 14 19 13 20 12 21
REMARK SMILES IDX 11 22 10 23 9 24 8 25 7 26 6 27 5 28 4 29 3 30 2 31 1 32
REMARK H PARENT
REMARK Flexibility Score: inf
ROOT
ATOM      1  C   UNL     1      24.368  -9.728  36.044  1.00  0.00     0.000 C 
ENDROOT
BRANCH   1   2
ATOM      2  C   UNL     1      23.984 -11.109  35.475  1.00  0.00     0.000 C 
BRANCH   2   3
ATOM      3  C   UNL     1      22.846 -11.835  36.220  1.00  0.00     0.000 C 
BRANCH   3   4
ATOM      4  C   UNL     1      21.553 -12.036  35.401  1.00  0.00     0.000 C 
BRANCH   4   5
ATOM      5  C   UNL     1      21.656 -11.577  33.932  1.00  0.00     0.000 C 
BRANCH   5   6
ATOM      6  C   UNL     1      20.938 -10.241  33.645  1.00  0.00     0.000 C 
BRANCH   6   7
ATOM      7  C   UNL     1      21.230  -9.714  32.228  1.00  0.00     0.000 C 
BRANCH   7   8
ATOM      8  C   UNL     1      21.996 -10.727  31.358  1.00  0.00     0.000 C 
BRANCH   8   9
ATOM      9  C   UNL     1      23.293 -10.185  30.725  1.00  0.00     0.000 C 
BRANCH   9  10
ATOM     10  C   UNL     1      23.770  -8.827  31.277  1.00  0.00     0.000 C 
BRANCH  10  11
ATOM     11  C   UNL     1      24.750  -8.912  32.458  1.00  0.00     0.000 C 
BRANCH  11  12
ATOM     12  C   UNL     1      25.888  -9.917  32.216  1.00  0.00     0.000 C 
BRANCH  12  13
ATOM     13  C   UNL     1      26.863  -9.458  31.120  1.00  0.00     0.006 C 
BRANCH  13  14
ATOM     14  C   UNL     1      27.438 -10.631  30.309  1.00  0.00     0.053 C 
BRANCH  14  15
ATOM     15  C   UNL     1      28.934 -10.704  30.404  1.00  0.00     0.041 C 
ATOM     16  O   UNL     1      29.554  -9.862  31.108  1.00  0.00    -0.550 OA
ATOM     17  O   UNL     1      29.653 -11.639  29.668  1.00  0.00    -0.550 OA
ENDBRANCH  14  15
ENDBRANCH  13  14
ENDBRANCH  12  13
ENDBRANCH  11  12
ENDBRANCH  10  11
ENDBRANCH   9  10
ENDBRANCH   8   9
ENDBRANCH   7   8
ENDBRANCH   6   7
ENDBRANCH   5   6
ENDBRANCH   4   5
ENDBRANCH   3   4
ENDBRANCH   2   3
ENDBRANCH   1   2
BRANCH   1  18
ATOM     18  C   UNL     1      23.155  -8.850  36.380  1.00  0.00     0.000 C 
BRANCH  18  19
ATOM     19  C   UNL     1      23.606  -7.442  36.804  1.00  0.00     0.000 C 
BRANCH  19  20
ATOM     20  C   UNL     1      25.090  -7.402  37.229  1.00  0.00     0.000 C 
BRANCH  20  21
ATOM     21  C   UNL     1      25.396  -6.339  38.299  1.00  0.00     0.000 C 
BRANCH  21  22
ATOM     22  C   UNL     1      24.329  -5.234  38.356  1.00  0.00     0.000 C 
BRANCH  22  23
ATOM     23  C   UNL     1      24.909  -3.852  38.705  1.00  0.00     0.000 C 
BRANCH  23  24
ATOM     24  C   UNL     1      23.892  -2.692  38.732  1.00  0.00    -0.000 C 
BRANCH  24  25
ATOM     25  C   UNL     1      23.276  -2.398  40.111  1.00  0.00    -0.000 C 
BRANCH  25  26
ATOM     26  C   UNL     1      22.108  -1.397  40.046  1.00  0.00    -0.000 C 
BRANCH  26  27
ATOM     27  C   UNL     1      22.054  -0.490  41.291  1.00  0.00    -0.000 C 
BRANCH  27  28
ATOM     28  C   UNL     1      20.814  -0.738  42.168  1.00  0.00    -0.000 C 
BRANCH  28  29
ATOM     29  C   UNL     1      21.090  -1.755  43.290  1.00  0.00    -0.000 C 
BRANCH  29  30
ATOM     30  C   UNL     1      20.643  -1.236  44.665  1.00  0.00    -0.000 C 
BRANCH  30  31
ATOM     31  C   UNL     1      21.253  -2.045  45.818  1.00  0.00    -0.003 C 
ATOM     32  C   UNL     1      22.616  -2.611  45.434  1.00  0.00     0.004 C 
ENDBRANCH  30  31
ENDBRANCH  29  30
ENDBRANCH  28  29
ENDBRANCH  27  28
ENDBRANCH  26  27
ENDBRANCH  25  26
ENDBRANCH  24  25
ENDBRANCH  23  24
ENDBRANCH  22  23
ENDBRANCH  21  22
ENDBRANCH  20  21
ENDBRANCH  19  20
ENDBRANCH  18  19
ENDBRANCH   1  18
TORSDOF 28
ENDMDL
MODEL 7
REMARK VINA RESULT:    -3.552      5.279     14.109
REMARK INTER + INTRA:         -11.565
REMARK INTER:                 -10.028
REMARK INTRA:                  -1.537
REMARK UNBOUND:                -2.198
REMARK SMILES CCCCCCCCCCCCCCCCCCCCCCCCCCCCCC(=O)[O-]
REMARK SMILES IDX 16 1 17 2 18 3 19 4 20 5 21 6 22 7 23 8 24 9 25 10 26 11
REMARK SMILES IDX 27 12 28 13 29 14 30 15 31 16 32 17 15 18 14 19 13 20 12 21
REMARK SMILES IDX 11 22 10 23 9 24 8 25 7 26 6 27 5 28 4 29 3 30 2 31 1 32
REMARK H PARENT
REMARK Flexibility Score: inf
ROOT
ATOM      1  C   UNL     1      24.790  -7.293  37.241  1.00  0.00     0.000 C 
ENDROOT
BRANCH   1   2
ATOM      2  C   UNL     1      24.236  -6.062  37.984  1.00  0.00     0.000 C 
BRANCH   2   3
ATOM      3  C   UNL     1      25.292  -5.196  38.701  1.00  0.00     0.000 C 
BRANCH   3   4
ATOM      4  C   UNL     1      25.014  -3.677  38.679  1.00  0.00     0.000 C 
BRANCH   4   5
ATOM      5  C   UNL     1      23.517  -3.306  38.670  1.00  0.00     0.000 C 
BRANCH   5   6
ATOM      6  C   UNL     1      23.183  -2.038  39.482  1.00  0.00     0.000 C 
BRANCH   6   7
ATOM      7  C   UNL     1      23.170  -2.302  40.999  1.00  0.00     0.000 C 
BRANCH   7   8
ATOM      8  C   UNL     1      21.802  -2.014  41.644  1.00  0.00     0.000 C 
BRANCH   8   9
ATOM      9  C   UNL     1      21.868  -1.284  43.000  1.00  0.00     0.000 C 
BRANCH   9  10
ATOM     10  C   UNL     1      20.655  -1.513  43.924  1.00  0.00     0.000 C 
BRANCH  10  11
ATOM     11  C   UNL     1      19.936  -0.233  44.384  1.00  0.00     0.000 C 
BRANCH  11  12
ATOM     12  C   UNL     1      20.276   0.987  43.513  1.00  0.00     0.000 C 
BRANCH  12  13
ATOM     13  C   UNL     1      20.249   2.306  44.302  1.00  0.00     0.006 C 
BRANCH  13  14
ATOM     14  C   UNL     1      21.190   3.369  43.710  1.00  0.00     0.053 C 
BRANCH  14  15
ATOM     15  C   UNL     1      20.687   4.763  43.946  1.00  0.00     0.041 C 
ATOM     16  O   UNL     1      20.661   5.584  42.990  1.00  0.00    -0.550 OA
ATOM     17  O   UNL     1      20.318   5.185  45.218  1.00  0.00    -0.550 OA
ENDBRANCH  14  15
ENDBRANCH  13  14
ENDBRANCH  12  13
ENDBRANCH  11  12
ENDBRANCH  10  11
ENDBRANCH   9  10
ENDBRANCH   8   9
ENDBRANCH   7   8
ENDBRANCH   6   7
ENDBRANCH   5   6
ENDBRANCH   4   5
ENDBRANCH   3   4
ENDBRANCH   2   3
ENDBRANCH   1   2
BRANCH   1  18
ATOM     18  C   UNL     1      23.709  -8.097  36.505  1.00  0.00     0.000 C 
BRANCH  18  19
ATOM     19  C   UNL     1      24.343  -9.223  35.671  1.00  0.00     0.000 C 
BRANCH  19  20
ATOM     20  C   UNL     1      23.369  -9.800  34.622  1.00  0.00     0.000 C 
BRANCH  20  21
ATOM     21  C   UNL     1      23.753 -11.208  34.133  1.00  0.00     0.000 C 
BRANCH  21  22
ATOM     22  C   UNL     1      25.249 -11.332  33.806  1.00  0.00     0.000 C 
BRANCH  22  23
ATOM     23  C   UNL     1      25.537 -11.369  32.295  1.00  0.00     0.000 C 
BRANCH  23  24
ATOM     24  C   UNL     1      25.694  -9.993  31.614  1.00  0.00    -0.000 C 
BRANCH  24  25
ATOM     25  C   UNL     1      26.819  -9.909  30.569  1.00  0.00    -0.000 C 
BRANCH  25  26
ATOM     26  C   UNL     1      28.169  -9.480  31.172  1.00  0.00    -0.000 C 
BRANCH  26  27
ATOM     27  C   UNL     1      29.346 -10.284  30.586  1.00  0.00    -0.000 C 
BRANCH  27  28
ATOM     28  C   UNL     1      30.543 -10.393  31.547  1.00  0.00    -0.000 C 
BRANCH  28  29
ATOM     29  C   UNL     1      31.770  -9.616  31.036  1.00  0.00    -0.000 C 
BRANCH  29  30
ATOM     30  C   UNL     1      31.669  -8.112  31.335  1.00  0.00    -0.000 C 
BRANCH  30  31
ATOM     31  C   UNL     1      31.100  -7.834  32.732  1.00  0.00    -0.003 C 
ATOM     32  C   UNL     1      30.357  -6.504  32.771  1.00  0.00     0.004 C 
ENDBRANCH  30  31
ENDBRANCH  29  30
ENDBRANCH  28  29
ENDBRANCH  27  28
ENDBRANCH  26  27
ENDBRANCH  25  26
ENDBRANCH  24  25
ENDBRANCH  23  24
ENDBRANCH  22  23
ENDBRANCH  21  22
ENDBRANCH  20  21
ENDBRANCH  19  20
ENDBRANCH  18  19
ENDBRANCH   1  18
TORSDOF 28
ENDMDL
MODEL 8
REMARK VINA RESULT:    -3.492      1.280      2.095
REMARK INTER + INTRA:         -11.406
REMARK INTER:                  -9.691
REMARK INTRA:                  -1.716
REMARK UNBOUND:                -2.198
REMARK SMILES CCCCCCCCCCCCCCCCCCCCCCCCCCCCCC(=O)[O-]
REMARK SMILES IDX 16 1 17 2 18 3 19 4 20 5 21 6 22 7 23 8 24 9 25 10 26 11
REMARK SMILES IDX 27 12 28 13 29 14 30 15 31 16 32 17 15 18 14 19 13 20 12 21
REMARK SMILES IDX 11 22 10 23 9 24 8 25 7 26 6 27 5 28 4 29 3 30 2 31 1 32
REMARK H PARENT
REMARK Flexibility Score: inf
ROOT
ATOM      1  C   UNL     1      23.024  -9.844  36.430  1.00  0.00     0.000 C 
ENDROOT
BRANCH   1   2
ATOM      2  C   UNL     1      21.960 -10.528  35.550  1.00  0.00     0.000 C 
BRANCH   2   3
ATOM      3  C   UNL     1      20.881  -9.590  34.973  1.00  0.00     0.000 C 
BRANCH   3   4
ATOM      4  C   UNL     1      20.657  -9.712  33.449  1.00  0.00     0.000 C 
BRANCH   4   5
ATOM      5  C   UNL     1      21.919 -10.102  32.653  1.00  0.00     0.000 C 
BRANCH   5   6
ATOM      6  C   UNL     1      21.722 -10.084  31.123  1.00  0.00     0.000 C 
BRANCH   6   7
ATOM      7  C   UNL     1      23.055 -10.197  30.361  1.00  0.00     0.000 C 
BRANCH   7   8
ATOM      8  C   UNL     1      24.269 -10.338  31.296  1.00  0.00     0.000 C 
BRANCH   8   9
ATOM      9  C   UNL     1      25.345  -9.246  31.129  1.00  0.00     0.000 C 
BRANCH   9  10
ATOM     10  C   UNL     1      25.900  -9.091  29.699  1.00  0.00     0.000 C 
BRANCH  10  11
ATOM     11  C   UNL     1      27.352  -9.562  29.509  1.00  0.00     0.000 C 
BRANCH  11  12
ATOM     12  C   UNL     1      28.080  -9.797  30.843  1.00  0.00     0.000 C 
BRANCH  12  13
ATOM     13  C   UNL     1      29.529 -10.277  30.651  1.00  0.00     0.006 C 
BRANCH  13  14
ATOM     14  C   UNL     1      30.470  -9.774  31.759  1.00  0.00     0.053 C 
BRANCH  14  15
ATOM     15  C   UNL     1      30.677  -8.289  31.694  1.00  0.00     0.041 C 
ATOM     16  O   UNL     1      29.938  -7.529  32.375  1.00  0.00    -0.550 OA
ATOM     17  O   UNL     1      31.621  -7.735  30.838  1.00  0.00    -0.550 OA
ENDBRANCH  14  15
ENDBRANCH  13  14
ENDBRANCH  12  13
ENDBRANCH  11  12
ENDBRANCH  10  11
ENDBRANCH   9  10
ENDBRANCH   8   9
ENDBRANCH   7   8
ENDBRANCH   6   7
ENDBRANCH   5   6
ENDBRANCH   4   5
ENDBRANCH   3   4
ENDBRANCH   2   3
ENDBRANCH   1   2
BRANCH   1  18
ATOM     18  C   UNL     1      23.720  -8.664  35.738  1.00  0.00     0.000 C 
BRANCH  18  19
ATOM     19  C   UNL     1      23.918  -7.498  36.721  1.00  0.00     0.000 C 
BRANCH  19  20
ATOM     20  C   UNL     1      25.189  -7.664  37.582  1.00  0.00     0.000 C 
BRANCH  20  21
ATOM     21  C   UNL     1      25.602  -6.380  38.324  1.00  0.00     0.000 C 
BRANCH  21  22
ATOM     22  C   UNL     1      24.501  -5.309  38.308  1.00  0.00     0.000 C 
BRANCH  22  23
ATOM     23  C   UNL     1      25.014  -3.910  38.691  1.00  0.00     0.000 C 
BRANCH  23  24
ATOM     24  C   UNL     1      23.981  -2.769  38.579  1.00  0.00    -0.000 C 
BRANCH  24  25
ATOM     25  C   UNL     1      23.310  -2.365  39.903  1.00  0.00    -0.000 C 
BRANCH  25  26
ATOM     26  C   UNL     1      22.140  -1.384  39.709  1.00  0.00    -0.000 C 
BRANCH  26  27
ATOM     27  C   UNL     1      20.884  -1.822  40.486  1.00  0.00    -0.000 C 
BRANCH  27  28
ATOM     28  C   UNL     1      20.290  -0.703  41.360  1.00  0.00    -0.000 C 
BRANCH  28  29
ATOM     29  C   UNL     1      21.116  -0.462  42.636  1.00  0.00    -0.000 C 
BRANCH  29  30
ATOM     30  C   UNL     1      20.990  -1.622  43.636  1.00  0.00    -0.000 C 
BRANCH  30  31
ATOM     31  C   UNL     1      22.183  -2.584  43.564  1.00  0.00    -0.003 C 
ATOM     32  C   UNL     1      22.895  -2.682  44.908  1.00  0.00     0.004 C 
ENDBRANCH  30  31
ENDBRANCH  29  30
ENDBRANCH  28  29
ENDBRANCH  27  28
ENDBRANCH  26  27
ENDBRANCH  25  26
ENDBRANCH  24  25
ENDBRANCH  23  24
ENDBRANCH  22  23
ENDBRANCH  21  22
ENDBRANCH  20  21
ENDBRANCH  19  20
ENDBRANCH  18  19
ENDBRANCH   1  18
TORSDOF 28
ENDMDL
MODEL 9
REMARK VINA RESULT:    -3.347      6.933     11.132
REMARK INTER + INTRA:         -11.025
REMARK INTER:                  -7.627
REMARK INTRA:                  -3.397
REMARK UNBOUND:                -2.198
REMARK SMILES CCCCCCCCCCCCCCCCCCCCCCCCCCCCCC(=O)[O-]
REMARK SMILES IDX 16 1 17 2 18 3 19 4 20 5 21 6 22 7 23 8 24 9 25 10 26 11
REMARK SMILES IDX 27 12 28 13 29 14 30 15 31 16 32 17 15 18 14 19 13 20 12 21
REMARK SMILES IDX 11 22 10 23 9 24 8 25 7 26 6 27 5 28 4 29 3 30 2 31 1 32
REMARK H PARENT
REMARK Flexibility Score: inf
ROOT
ATOM      1  C   UNL     1      27.829 -10.840  31.205  1.00  0.00     0.000 C 
ENDROOT
BRANCH   1   2
ATOM      2  C   UNL     1      26.901  -9.758  30.619  1.00  0.00     0.000 C 
BRANCH   2   3
ATOM      3  C   UNL     1      25.401 -10.114  30.607  1.00  0.00     0.000 C 
BRANCH   3   4
ATOM      4  C   UNL     1      24.926 -10.902  29.366  1.00  0.00     0.000 C 
BRANCH   4   5
ATOM      5  C   UNL     1      24.032 -10.091  28.406  1.00  0.00     0.000 C 
BRANCH   5   6
ATOM      6  C   UNL     1      24.065  -8.569  28.657  1.00  0.00     0.000 C 
BRANCH   6   7
ATOM      7  C   UNL     1      22.659  -7.981  28.869  1.00  0.00     0.000 C 
BRANCH   7   8
ATOM      8  C   UNL     1      22.242  -7.946  30.351  1.00  0.00     0.000 C 
BRANCH   8   9
ATOM      9  C   UNL     1      20.935  -8.696  30.673  1.00  0.00     0.000 C 
BRANCH   9  10
ATOM     10  C   UNL     1      21.012 -10.230  30.537  1.00  0.00     0.000 C 
BRANCH  10  11
ATOM     11  C   UNL     1      21.084 -10.999  31.867  1.00  0.00     0.000 C 
BRANCH  11  12
ATOM     12  C   UNL     1      22.359 -11.849  31.995  1.00  0.00     0.000 C 
BRANCH  12  13
ATOM     13  C   UNL     1      23.272 -11.380  33.140  1.00  0.00     0.006 C 
BRANCH  13  14
ATOM     14  C   UNL     1      22.901  -9.981  33.658  1.00  0.00     0.053 C 
BRANCH  14  15
ATOM     15  C   UNL     1      22.548  -9.993  35.117  1.00  0.00     0.041 C 
ATOM     16  O   UNL     1      23.184 -10.744  35.903  1.00  0.00    -0.550 OA
ATOM     17  O   UNL     1      21.482  -9.244  35.601  1.00  0.00    -0.550 OA
ENDBRANCH  14  15
ENDBRANCH  13  14
ENDBRANCH  12  13
ENDBRANCH  11  12
ENDBRANCH  10  11
ENDBRANCH   9  10
ENDBRANCH   8   9
ENDBRANCH   7   8
ENDBRANCH   6   7
ENDBRANCH   5   6
ENDBRANCH   4   5
ENDBRANCH   3   4
ENDBRANCH   2   3
ENDBRANCH   1   2
BRANCH   1  18
ATOM     18  C   UNL     1      29.268 -10.759  30.677  1.00  0.00     0.000 C 
BRANCH  18  19
ATOM     19  C   UNL     1      30.260 -11.305  31.718  1.00  0.00     0.000 C 
BRANCH  19  20
ATOM     20  C   UNL     1      31.398 -12.125  31.074  1.00  0.00     0.000 C 
BRANCH  20  21
ATOM     21  C   UNL     1      31.410 -12.061  29.536  1.00  0.00     0.000 C 
BRANCH  21  22
ATOM     22  C   UNL     1      32.832 -12.076  28.955  1.00  0.00     0.000 C 
BRANCH  22  23
ATOM     23  C   UNL     1      33.888 -11.521  29.926  1.00  0.00     0.000 C 
BRANCH  23  24
ATOM     24  C   UNL     1      34.702 -10.317  29.407  1.00  0.00    -0.000 C 
BRANCH  24  25
ATOM     25  C   UNL     1      34.125  -8.937  29.763  1.00  0.00    -0.000 C 
BRANCH  25  26
ATOM     26  C   UNL     1      32.969  -9.013  30.777  1.00  0.00    -0.000 C 
BRANCH  26  27
ATOM     27  C   UNL     1      32.239  -7.664  30.923  1.00  0.00    -0.000 C 
BRANCH  27  28
ATOM     28  C   UNL     1      30.838  -7.798  31.546  1.00  0.00    -0.000 C 
BRANCH  28  29
ATOM     29  C   UNL     1      30.705  -6.997  32.854  1.00  0.00    -0.000 C 
BRANCH  29  30
ATOM     30  C   UNL     1      31.545  -7.599  33.991  1.00  0.00    -0.000 C 
BRANCH  30  31
ATOM     31  C   UNL     1      32.840  -6.813  34.237  1.00  0.00    -0.003 C 
ATOM     32  C   UNL     1      33.562  -7.314  35.482  1.00  0.00     0.004 C 
ENDBRANCH  30  31
ENDBRANCH  29  30
ENDBRANCH  28  29
ENDBRANCH  27  28
ENDBRANCH  26  27
ENDBRANCH  25  26
ENDBRANCH  24  25
ENDBRANCH  23  24
ENDBRANCH  22  23
ENDBRANCH  21  22
ENDBRANCH  20  21
ENDBRANCH  19  20
ENDBRANCH  18  19
ENDBRANCH   1  18
TORSDOF 28
ENDMDL
