MODEL 1
REMARK VINA RESULT:    -4.187      0.000      0.000
REMARK INTER + INTRA:          -4.867
REMARK INTER:                  -5.043
REMARK INTRA:                   0.177
REMARK UNBOUND:                 0.177
REMARK SMILES CC[C@@H](C)[C@H]([NH3+])C(=O)[O-]
REMARK SMILES IDX 3 1 4 2 5 3 6 4 7 8 8 9 9 10 2 11 1 12
REMARK H PARENT 6 5 6 6 6 7
REMARK Flexibility Score: inf
ROOT
ATOM      1  C   UNL     1      22.896   7.879  15.523  1.00  0.00     0.050 C 
ATOM      2  C   UNL     1      21.785   6.814  15.520  1.00  0.00     0.014 C 
ENDROOT
BRANCH   1   3
ATOM      3  C   UNL     1      24.108   7.459  14.632  1.00  0.00     0.230 C 
BRANCH   3   4
ATOM      4  N   UNL     1      23.665   6.873  13.359  1.00  0.00    -0.350 N 
ATOM      5  H   UNL     1      24.386   6.211  12.993  1.00  0.00     0.345 HD
ATOM      6  H   UNL     1      22.786   6.324  13.502  1.00  0.00     0.345 HD
ATOM      7  H   UNL     1      23.486   7.621  12.648  1.00  0.00     0.345 HD
ENDBRANCH   3   4
BRANCH   3   8
ATOM      8  C   UNL     1      24.990   6.471  15.352  1.00  0.00     0.099 C 
ATOM      9  O   UNL     1      26.217   6.709  15.504  1.00  0.00    -0.544 OA
ATOM     10  O   UNL     1      24.454   5.290  15.854  1.00  0.00    -0.544 OA
ENDBRANCH   3   8
ENDBRANCH   1   3
BRANCH   1  11
ATOM     11  C   UNL     1      22.318   9.275  15.161  1.00  0.00     0.006 C 
ATOM     12  C   UNL     1      23.042  10.453  15.821  1.00  0.00     0.004 C 
ENDBRANCH   1  11
TORSDOF 4
ENDMDL
MODEL 2
REMARK VINA RESULT:    -3.816      2.365      3.851
REMARK INTER + INTRA:          -4.420
REMARK INTER:                  -4.298
REMARK INTRA:                  -0.122
REMARK UNBOUND:                 0.177
REMARK SMILES CC[C@@H](C)[C@H]([NH3+])C(=O)[O-]
REMARK SMILES IDX 3 1 4 2 5 3 6 4 7 8 8 9 9 10 2 11 1 12
REMARK H PARENT 6 5 6 6 6 7
REMARK Flexibility Score: inf
ROOT
ATOM      1  C   UNL     1      24.543   6.353  15.799  1.00  0.00     0.050 C 
ATOM      2  C   UNL     1      25.973   6.553  15.263  1.00  0.00     0.014 C 
ENDROOT
BRANCH   1   3
ATOM      3  C   UNL     1      23.465   6.650  14.709  1.00  0.00     0.230 C 
BRANCH   3   4
ATOM      4  N   UNL     1      23.990   7.533  13.657  1.00  0.00    -0.350 N 
ATOM      5  H   UNL     1      24.443   6.969  12.902  1.00  0.00     0.345 HD
ATOM      6  H   UNL     1      23.208   8.068  13.214  1.00  0.00     0.345 HD
ATOM      7  H   UNL     1      24.685   8.209  14.051  1.00  0.00     0.345 HD
ENDBRANCH   3   4
BRANCH   3   8
ATOM      8  C   UNL     1      22.240   7.281  15.320  1.00  0.00     0.099 C 
ATOM      9  O   UNL     1      21.283   6.561  15.708  1.00  0.00    -0.544 OA
ATOM     10  O   UNL     1      22.159   8.662  15.459  1.00  0.00    -0.544 OA
ENDBRANCH   3   8
ENDBRANCH   1   3
BRANCH   1  11
ATOM     11  C   UNL     1      24.393   4.949  16.449  1.00  0.00     0.006 C 
ATOM     12  C   UNL     1      23.791   4.963  17.857  1.00  0.00     0.004 C 
ENDBRANCH   1  11
TORSDOF 4
ENDMDL
MODEL 3
REMARK VINA RESULT:    -3.738      2.256      3.372
REMARK INTER + INTRA:          -4.326
REMARK INTER:                  -4.388
REMARK INTRA:                   0.062
REMARK UNBOUND:                 0.177
REMARK SMILES CC[C@@H](C)[C@H]([NH3+])C(=O)[O-]
REMARK SMILES IDX 3 1 4 2 5 3 6 4 7 8 8 9 9 10 2 11 1 12
REMARK H PARENT 6 5 6 6 6 7
REMARK Flexibility Score: inf
ROOT
ATOM      1  C   UNL     1      24.551   5.873  15.259  1.00  0.00     0.050 C 
ATOM      2  C   UNL     1      24.115   5.333  16.634  1.00  0.00     0.014 C 
ENDROOT
BRANCH   1   3
ATOM      3  C   UNL     1      23.340   6.412  14.434  1.00  0.00     0.230 C 
BRANCH   3   4
ATOM      4  N   UNL     1      23.783   7.181  13.263  1.00  0.00    -0.350 N 
ATOM      5  H   UNL     1      24.612   7.770  13.507  1.00  0.00     0.345 HD
ATOM      6  H   UNL     1      24.081   6.532  12.498  1.00  0.00     0.345 HD
ATOM      7  H   UNL     1      23.013   7.795  12.907  1.00  0.00     0.345 HD
ENDBRANCH   3   4
BRANCH   3   8
ATOM      8  C   UNL     1      22.448   7.278  15.288  1.00  0.00     0.099 C 
ATOM      9  O   UNL     1      22.709   8.500  15.440  1.00  0.00    -0.544 OA
ATOM     10  O   UNL     1      21.332   6.732  15.912  1.00  0.00    -0.544 OA
ENDBRANCH   3   8
ENDBRANCH   1   3
BRANCH   1  11
ATOM     11  C   UNL     1      25.701   6.906  15.415  1.00  0.00     0.006 C 
ATOM     12  C   UNL     1      27.042   6.303  15.845  1.00  0.00     0.004 C 
ENDBRANCH   1  11
TORSDOF 4
ENDMDL
MODEL 4
REMARK VINA RESULT:    -3.733      2.057      2.696
REMARK INTER + INTRA:          -4.320
REMARK INTER:                  -5.111
REMARK INTRA:                   0.791
REMARK UNBOUND:                 0.177
REMARK SMILES CC[C@@H](C)[C@H]([NH3+])C(=O)[O-]
REMARK SMILES IDX 3 1 4 2 5 3 6 4 7 8 8 9 9 10 2 11 1 12
REMARK H PARENT 6 5 6 6 6 7
REMARK Flexibility Score: inf
ROOT
ATOM      1  C   UNL     1      23.704   6.272  15.013  1.00  0.00     0.050 C 
ATOM      2  C   UNL     1      24.442   7.622  14.941  1.00  0.00     0.014 C 
ENDROOT
BRANCH   1   3
ATOM      3  C   UNL     1      24.509   5.212  15.829  1.00  0.00     0.230 C 
BRANCH   3   4
ATOM      4  N   UNL     1      23.785   4.799  17.040  1.00  0.00    -0.350 N 
ATOM      5  H   UNL     1      23.361   3.853  16.906  1.00  0.00     0.345 HD
ATOM      6  H   UNL     1      24.447   4.728  17.848  1.00  0.00     0.345 HD
ATOM      7  H   UNL     1      23.033   5.488  17.277  1.00  0.00     0.345 HD
ENDBRANCH   3   4
BRANCH   3   8
ATOM      8  C   UNL     1      25.864   5.745  16.218  1.00  0.00     0.099 C 
ATOM      9  O   UNL     1      26.272   5.636  17.404  1.00  0.00    -0.544 OA
ATOM     10  O   UNL     1      26.673   6.361  15.270  1.00  0.00    -0.544 OA
ENDBRANCH   3   8
ENDBRANCH   1   3
BRANCH   1  11
ATOM     11  C   UNL     1      22.249   6.469  15.521  1.00  0.00     0.006 C 
ATOM     12  C   UNL     1      21.768   7.923  15.523  1.00  0.00     0.004 C 
ENDBRANCH   1  11
TORSDOF 4
ENDMDL
MODEL 5
REMARK VINA RESULT:    -3.225      1.696      2.254
REMARK INTER + INTRA:          -3.708
REMARK INTER:                  -3.709
REMARK INTRA:                   0.000
REMARK UNBOUND:                 0.177
REMARK SMILES CC[C@@H](C)[C@H]([NH3+])C(=O)[O-]
REMARK SMILES IDX 3 1 4 2 5 3 6 4 7 8 8 9 9 10 2 11 1 12
REMARK H PARENT 6 5 6 6 6 7
REMARK Flexibility Score: inf
ROOT
ATOM      1  C   UNL     1      23.457   6.345  15.787  1.00  0.00     0.050 C 
ATOM      2  C   UNL     1      23.943   4.885  15.744  1.00  0.00     0.014 C 
ENDROOT
BRANCH   1   3
ATOM      3  C   UNL     1      24.070   7.197  14.631  1.00  0.00     0.230 C 
BRANCH   3   4
ATOM      4  N   UNL     1      24.247   6.401  13.407  1.00  0.00    -0.350 N 
ATOM      5  H   UNL     1      23.686   5.520  13.463  1.00  0.00     0.345 HD
ATOM      6  H   UNL     1      23.899   6.936  12.578  1.00  0.00     0.345 HD
ATOM      7  H   UNL     1      25.256   6.164  13.260  1.00  0.00     0.345 HD
ENDBRANCH   3   4
BRANCH   3   8
ATOM      8  C   UNL     1      25.399   7.782  15.038  1.00  0.00     0.099 C 
ATOM      9  O   UNL     1      25.562   9.030  15.061  1.00  0.00    -0.544 OA
ATOM     10  O   UNL     1      26.453   6.946  15.391  1.00  0.00    -0.544 OA
ENDBRANCH   3   8
ENDBRANCH   1   3
BRANCH   1  11
ATOM     11  C   UNL     1      21.905   6.405  15.841  1.00  0.00     0.006 C 
ATOM     12  C   UNL     1      21.314   7.795  15.589  1.00  0.00     0.004 C 
ENDBRANCH   1  11
TORSDOF 4
ENDMDL
MODEL 6
REMARK VINA RESULT:    -3.191      0.912      2.345
REMARK INTER + INTRA:          -3.667
REMARK INTER:                  -4.260
REMARK INTRA:                   0.593
REMARK UNBOUND:                 0.177
REMARK SMILES CC[C@@H](C)[C@H]([NH3+])C(=O)[O-]
REMARK SMILES IDX 3 1 4 2 5 3 6 4 7 8 8 9 9 10 2 11 1 12
REMARK H PARENT 6 5 6 6 6 7
REMARK Flexibility Score: inf
ROOT
ATOM      1  C   UNL     1      22.473   7.419  15.078  1.00  0.00     0.050 C 
ATOM      2  C   UNL     1      22.341   8.908  15.449  1.00  0.00     0.014 C 
ENDROOT
BRANCH   1   3
ATOM      3  C   UNL     1      23.919   7.062  14.610  1.00  0.00     0.230 C 
BRANCH   3   4
ATOM      4  N   UNL     1      23.965   6.771  13.170  1.00  0.00    -0.350 N 
ATOM      5  H   UNL     1      23.112   7.146  12.696  1.00  0.00     0.345 HD
ATOM      6  H   UNL     1      24.791   7.242  12.734  1.00  0.00     0.345 HD
ATOM      7  H   UNL     1      24.033   5.740  13.001  1.00  0.00     0.345 HD
ENDBRANCH   3   4
BRANCH   3   8
ATOM      8  C   UNL     1      24.457   5.878  15.373  1.00  0.00     0.099 C 
ATOM      9  O   UNL     1      23.834   4.784  15.366  1.00  0.00    -0.544 OA
ATOM     10  O   UNL     1      25.643   5.987  16.089  1.00  0.00    -0.544 OA
ENDBRANCH   3   8
ENDBRANCH   1   3
BRANCH   1  11
ATOM     11  C   UNL     1      21.958   6.518  16.234  1.00  0.00     0.006 C 
ATOM     12  C   UNL     1      20.433   6.467  16.368  1.00  0.00     0.004 C 
ENDBRANCH   1  11
TORSDOF 4
ENDMDL
MODEL 7
REMARK VINA RESULT:    -3.151      2.562      3.058
REMARK INTER + INTRA:          -3.619
REMARK INTER:                  -3.645
REMARK INTRA:                   0.026
REMARK UNBOUND:                 0.177
REMARK SMILES CC[C@@H](C)[C@H]([NH3+])C(=O)[O-]
REMARK SMILES IDX 3 1 4 2 5 3 6 4 7 8 8 9 9 10 2 11 1 12
REMARK H PARENT 6 5 6 6 6 7
REMARK Flexibility Score: inf
ROOT
ATOM      1  C   UNL     1      22.922   7.817  15.005  1.00  0.00     0.050 C 
ATOM      2  C   UNL     1      24.399   8.189  14.779  1.00  0.00     0.014 C 
ENDROOT
BRANCH   1   3
ATOM      3  C   UNL     1      22.773   6.537  15.886  1.00  0.00     0.230 C 
BRANCH   3   4
ATOM      4  N   UNL     1      23.137   5.323  15.142  1.00  0.00    -0.350 N 
ATOM      5  H   UNL     1      24.155   5.334  14.903  1.00  0.00     0.345 HD
ATOM      6  H   UNL     1      22.968   4.475  15.732  1.00  0.00     0.345 HD
ATOM      7  H   UNL     1      22.574   5.242  14.263  1.00  0.00     0.345 HD
ENDBRANCH   3   4
BRANCH   3   8
ATOM      8  C   UNL     1      21.363   6.398  16.402  1.00  0.00     0.099 C 
ATOM      9  O   UNL     1      20.400   6.301  15.597  1.00  0.00    -0.544 OA
ATOM     10  O   UNL     1      21.117   6.376  17.770  1.00  0.00    -0.544 OA
ENDBRANCH   3   8
ENDBRANCH   1   3
BRANCH   1  11
ATOM     11  C   UNL     1      22.126   9.037  15.548  1.00  0.00     0.006 C 
ATOM     12  C   UNL     1      22.937  10.334  15.639  1.00  0.00     0.004 C 
ENDBRANCH   1  11
TORSDOF 4
ENDMDL
MODEL 8
REMARK VINA RESULT:    -3.093      1.824      1.933
REMARK INTER + INTRA:          -3.549
REMARK INTER:                  -3.553
REMARK INTRA:                   0.005
REMARK UNBOUND:                 0.177
REMARK SMILES CC[C@@H](C)[C@H]([NH3+])C(=O)[O-]
REMARK SMILES IDX 3 1 4 2 5 3 6 4 7 8 8 9 9 10 2 11 1 12
REMARK H PARENT 6 5 6 6 6 7
REMARK Flexibility Score: inf
ROOT
ATOM      1  C   UNL     1      22.132   7.086  16.012  1.00  0.00     0.050 C 
ATOM      2  C   UNL     1      20.791   6.466  16.446  1.00  0.00     0.014 C 
ENDROOT
BRANCH   1   3
ATOM      3  C   UNL     1      23.074   6.030  15.352  1.00  0.00     0.230 C 
BRANCH   3   4
ATOM      4  N   UNL     1      23.693   5.154  16.357  1.00  0.00    -0.350 N 
ATOM      5  H   UNL     1      24.729   5.290  16.369  1.00  0.00     0.345 HD
ATOM      6  H   UNL     1      23.339   5.395  17.311  1.00  0.00     0.345 HD
ATOM      7  H   UNL     1      23.476   4.149  16.158  1.00  0.00     0.345 HD
ENDBRANCH   3   4
BRANCH   3   8
ATOM      8  C   UNL     1      24.156   6.702  14.546  1.00  0.00     0.099 C 
ATOM      9  O   UNL     1      25.189   7.143  15.114  1.00  0.00    -0.544 OA
ATOM     10  O   UNL     1      24.021   6.839  13.169  1.00  0.00    -0.544 OA
ENDBRANCH   3   8
ENDBRANCH   1   3
BRANCH   1  11
ATOM     11  C   UNL     1      21.896   8.342  15.129  1.00  0.00     0.006 C 
ATOM     12  C   UNL     1      22.472   9.640  15.703  1.00  0.00     0.004 C 
ENDBRANCH   1  11
TORSDOF 4
ENDMDL
MODEL 9
REMARK VINA RESULT:    -3.013      2.188      3.517
REMARK INTER + INTRA:          -3.452
REMARK INTER:                  -3.393
REMARK INTRA:                  -0.060
REMARK UNBOUND:                 0.177
REMARK SMILES CC[C@@H](C)[C@H]([NH3+])C(=O)[O-]
REMARK SMILES IDX 3 1 4 2 5 3 6 4 7 8 8 9 9 10 2 11 1 12
REMARK H PARENT 6 5 6 6 6 7
REMARK Flexibility Score: inf
ROOT
ATOM      1  C   UNL     1      25.693   7.360  15.477  1.00  0.00     0.050 C 
ATOM      2  C   UNL     1      25.790   8.841  15.066  1.00  0.00     0.014 C 
ENDROOT
BRANCH   1   3
ATOM      3  C   UNL     1      24.623   6.592  14.637  1.00  0.00     0.230 C 
BRANCH   3   4
ATOM      4  N   UNL     1      23.902   7.493  13.727  1.00  0.00    -0.350 N 
ATOM      5  H   UNL     1      23.114   7.963  14.228  1.00  0.00     0.345 HD
ATOM      6  H   UNL     1      24.542   8.246  13.385  1.00  0.00     0.345 HD
ATOM      7  H   UNL     1      23.526   6.967  12.903  1.00  0.00     0.345 HD
ENDBRANCH   3   4
BRANCH   3   8
ATOM      8  C   UNL     1      23.632   5.895  15.533  1.00  0.00     0.099 C 
ATOM      9  O   UNL     1      24.001   4.939  16.265  1.00  0.00    -0.544 OA
ATOM     10  O   UNL     1      22.303   6.303  15.558  1.00  0.00    -0.544 OA
ENDBRANCH   3   8
ENDBRANCH   1   3
BRANCH   1  11
ATOM     11  C   UNL     1      27.095   6.691  15.453  1.00  0.00     0.006 C 
ATOM     12  C   UNL     1      28.268   7.672  15.548  1.00  0.00     0.004 C 
ENDBRANCH   1  11
TORSDOF 4
ENDMDL
