MODEL 1
REMARK VINA RESULT:    -3.687      0.000      0.000
REMARK INTER + INTRA:          -3.972
REMARK INTER:                  -3.902
REMARK INTRA:                  -0.070
REMARK UNBOUND:                -0.070
REMARK SMILES CC(=O)c1ccccc1
REMARK SMILES IDX 4 1 5 2 6 3 7 4 8 5 9 6 2 7 1 8 3 9
REMARK H PARENT
REMARK Flexibility Score: inf
ROOT
ATOM      1  C   UNL     1      32.845 170.295 155.882  1.00  0.00     0.017 A 
ATOM      2  C   UNL     1      34.162 170.500 155.423  1.00  0.00     0.012 A 
ATOM      3  C   UNL     1      35.250 169.970 156.125  1.00  0.00     0.001 A 
ATOM      4  C   UNL     1      35.040 169.232 157.291  1.00  0.00     0.000 A 
ATOM      5  C   UNL     1      33.741 169.022 157.758  1.00  0.00     0.001 A 
ATOM      6  C   UNL     1      32.650 169.548 157.061  1.00  0.00     0.012 A 
ENDROOT
BRANCH   1   7
ATOM      7  C   UNL     1      31.675 170.850 155.150  1.00  0.00     0.159 C 
ATOM      8  C   UNL     1      31.832 171.625 153.875  1.00  0.00     0.093 C 
ATOM      9  O   UNL     1      30.512 170.672 155.601  1.00  0.00    -0.295 OA
ENDBRANCH   1   7
TORSDOF 1
ENDMDL
MODEL 2
REMARK VINA RESULT:    -3.663     22.069     22.749
REMARK INTER + INTRA:          -3.947
REMARK INTER:                  -3.886
REMARK INTRA:                  -0.061
REMARK UNBOUND:                -0.070
REMARK SMILES CC(=O)c1ccccc1
REMARK SMILES IDX 4 1 5 2 6 3 7 4 8 5 9 6 2 7 1 8 3 9
REMARK H PARENT
REMARK Flexibility Score: inf
ROOT
ATOM      1  C   UNL     1      40.893 184.075 171.886  1.00  0.00     0.017 A 
ATOM      2  C   UNL     1      41.564 182.838 171.978  1.00  0.00     0.012 A 
ATOM      3  C   UNL     1      42.646 182.680 172.849  1.00  0.00     0.001 A 
ATOM      4  C   UNL     1      43.075 183.750 173.637  1.00  0.00     0.000 A 
ATOM      5  C   UNL     1      42.421 184.981 173.556  1.00  0.00     0.001 A 
ATOM      6  C   UNL     1      41.338 185.145 172.688  1.00  0.00     0.012 A 
ENDROOT
BRANCH   1   7
ATOM      7  C   UNL     1      39.740 184.264 170.965  1.00  0.00     0.159 C 
ATOM      8  C   UNL     1      38.362 184.572 171.473  1.00  0.00     0.093 C 
ATOM      9  O   UNL     1      39.910 184.166 169.720  1.00  0.00    -0.295 OA
ENDBRANCH   1   7
TORSDOF 1
ENDMDL
MODEL 3
REMARK VINA RESULT:    -3.661      1.547      2.920
REMARK INTER + INTRA:          -3.945
REMARK INTER:                  -3.878
REMARK INTRA:                  -0.067
REMARK UNBOUND:                -0.070
REMARK SMILES CC(=O)c1ccccc1
REMARK SMILES IDX 4 1 5 2 6 3 7 4 8 5 9 6 2 7 1 8 3 9
REMARK H PARENT
REMARK Flexibility Score: inf
ROOT
ATOM      1  C   UNL     1      32.937 169.735 157.693  1.00  0.00     0.017 A 
ATOM      2  C   UNL     1      33.004 170.510 156.518  1.00  0.00     0.012 A 
ATOM      3  C   UNL     1      34.145 170.478 155.710  1.00  0.00     0.001 A 
ATOM      4  C   UNL     1      35.232 169.675 156.062  1.00  0.00     0.000 A 
ATOM      5  C   UNL     1      35.180 168.903 157.223  1.00  0.00     0.001 A 
ATOM      6  C   UNL     1      34.042 168.930 158.035  1.00  0.00     0.012 A 
ENDROOT
BRANCH   1   7
ATOM      7  C   UNL     1      31.733 169.755 158.567  1.00  0.00     0.159 C 
ATOM      8  C   UNL     1      31.836 169.700 160.062  1.00  0.00     0.093 C 
ATOM      9  O   UNL     1      30.585 169.822 158.049  1.00  0.00    -0.295 OA
ENDBRANCH   1   7
TORSDOF 1
ENDMDL
MODEL 4
REMARK VINA RESULT:    -3.647     22.131     22.809
REMARK INTER + INTRA:          -3.930
REMARK INTER:                  -3.870
REMARK INTRA:                  -0.060
REMARK UNBOUND:                -0.070
REMARK SMILES CC(=O)c1ccccc1
REMARK SMILES IDX 4 1 5 2 6 3 7 4 8 5 9 6 2 7 1 8 3 9
REMARK H PARENT
REMARK Flexibility Score: inf
ROOT
ATOM      1  C   UNL     1      40.904 184.111 171.969  1.00  0.00     0.017 A 
ATOM      2  C   UNL     1      41.355 185.144 172.817  1.00  0.00     0.012 A 
ATOM      3  C   UNL     1      42.466 184.950 173.644  1.00  0.00     0.001 A 
ATOM      4  C   UNL     1      43.141 183.728 173.638  1.00  0.00     0.000 A 
ATOM      5  C   UNL     1      42.706 182.696 172.804  1.00  0.00     0.001 A 
ATOM      6  C   UNL     1      41.597 182.883 171.975  1.00  0.00     0.012 A 
ENDROOT
BRANCH   1   7
ATOM      7  C   UNL     1      39.725 184.297 171.083  1.00  0.00     0.159 C 
ATOM      8  C   UNL     1      38.352 184.547 171.632  1.00  0.00     0.093 C 
ATOM      9  O   UNL     1      39.868 184.245 169.831  1.00  0.00    -0.295 OA
ENDBRANCH   1   7
TORSDOF 1
ENDMDL
MODEL 5
REMARK VINA RESULT:    -3.635      1.535      3.087
REMARK INTER + INTRA:          -3.917
REMARK INTER:                  -3.852
REMARK INTRA:                  -0.065
REMARK UNBOUND:                -0.070
REMARK SMILES CC(=O)c1ccccc1
REMARK SMILES IDX 4 1 5 2 6 3 7 4 8 5 9 6 2 7 1 8 3 9
REMARK H PARENT
REMARK Flexibility Score: inf
ROOT
ATOM      1  C   UNL     1      32.905 169.716 157.698  1.00  0.00     0.017 A 
ATOM      2  C   UNL     1      34.017 168.920 158.043  1.00  0.00     0.012 A 
ATOM      3  C   UNL     1      35.158 168.906 157.233  1.00  0.00     0.001 A 
ATOM      4  C   UNL     1      35.205 169.680 156.073  1.00  0.00     0.000 A 
ATOM      5  C   UNL     1      34.111 170.472 155.719  1.00  0.00     0.001 A 
ATOM      6  C   UNL     1      32.969 170.492 156.523  1.00  0.00     0.012 A 
ENDROOT
BRANCH   1   7
ATOM      7  C   UNL     1      31.682 169.745 158.545  1.00  0.00     0.159 C 
ATOM      8  C   UNL     1      31.754 169.696 160.042  1.00  0.00     0.093 C 
ATOM      9  O   UNL     1      30.546 169.815 158.002  1.00  0.00    -0.295 OA
ENDBRANCH   1   7
TORSDOF 1
ENDMDL
MODEL 6
REMARK VINA RESULT:    -3.574      2.277      3.777
REMARK INTER + INTRA:          -3.853
REMARK INTER:                  -3.787
REMARK INTRA:                  -0.067
REMARK UNBOUND:                -0.070
REMARK SMILES CC(=O)c1ccccc1
REMARK SMILES IDX 4 1 5 2 6 3 7 4 8 5 9 6 2 7 1 8 3 9
REMARK H PARENT
REMARK Flexibility Score: inf
ROOT
ATOM      1  C   UNL     1      33.391 169.280 156.273  1.00  0.00     0.017 A 
ATOM      2  C   UNL     1      33.738 170.281 155.342  1.00  0.00     0.012 A 
ATOM      3  C   UNL     1      33.015 170.427 154.154  1.00  0.00     0.001 A 
ATOM      4  C   UNL     1      31.941 169.579 153.877  1.00  0.00     0.000 A 
ATOM      5  C   UNL     1      31.587 168.583 154.789  1.00  0.00     0.001 A 
ATOM      6  C   UNL     1      32.304 168.433 155.979  1.00  0.00     0.012 A 
ENDROOT
BRANCH   1   7
ATOM      7  C   UNL     1      34.147 169.109 157.543  1.00  0.00     0.159 C 
ATOM      8  C   UNL     1      33.466 168.741 158.828  1.00  0.00     0.093 C 
ATOM      9  O   UNL     1      35.397 169.272 157.554  1.00  0.00    -0.295 OA
ENDBRANCH   1   7
TORSDOF 1
ENDMDL
MODEL 7
REMARK VINA RESULT:    -3.491     22.720     23.634
REMARK INTER + INTRA:          -3.765
REMARK INTER:                  -3.706
REMARK INTRA:                  -0.059
REMARK UNBOUND:                -0.070
REMARK SMILES CC(=O)c1ccccc1
REMARK SMILES IDX 4 1 5 2 6 3 7 4 8 5 9 6 2 7 1 8 3 9
REMARK H PARENT
REMARK Flexibility Score: inf
ROOT
ATOM      1  C   UNL     1      42.398 183.636 172.663  1.00  0.00     0.017 A 
ATOM      2  C   UNL     1      42.376 184.925 173.235  1.00  0.00     0.012 A 
ATOM      3  C   UNL     1      41.271 185.762 173.057  1.00  0.00     0.001 A 
ATOM      4  C   UNL     1      40.176 185.329 172.307  1.00  0.00     0.000 A 
ATOM      5  C   UNL     1      40.184 184.056 171.734  1.00  0.00     0.001 A 
ATOM      6  C   UNL     1      41.285 183.214 171.909  1.00  0.00     0.012 A 
ENDROOT
BRANCH   1   7
ATOM      7  C   UNL     1      43.564 182.730 172.841  1.00  0.00     0.159 C 
ATOM      8  C   UNL     1      43.793 181.972 174.115  1.00  0.00     0.093 C 
ATOM      9  O   UNL     1      44.393 182.583 171.902  1.00  0.00    -0.295 OA
ENDBRANCH   1   7
TORSDOF 1
ENDMDL
MODEL 8
REMARK VINA RESULT:    -3.482      1.612      3.895
REMARK INTER + INTRA:          -3.755
REMARK INTER:                  -3.684
REMARK INTRA:                  -0.071
REMARK UNBOUND:                -0.070
REMARK SMILES CC(=O)c1ccccc1
REMARK SMILES IDX 4 1 5 2 6 3 7 4 8 5 9 6 2 7 1 8 3 9
REMARK H PARENT
REMARK Flexibility Score: inf
ROOT
ATOM      1  C   UNL     1      33.052 169.929 156.142  1.00  0.00     0.017 A 
ATOM      2  C   UNL     1      31.648 170.053 156.188  1.00  0.00     0.012 A 
ATOM      3  C   UNL     1      30.944 170.556 155.090  1.00  0.00     0.001 A 
ATOM      4  C   UNL     1      31.626 170.942 153.935  1.00  0.00     0.000 A 
ATOM      5  C   UNL     1      33.016 170.826 153.875  1.00  0.00     0.001 A 
ATOM      6  C   UNL     1      33.726 170.323 154.968  1.00  0.00     0.012 A 
ENDROOT
BRANCH   1   7
ATOM      7  C   UNL     1      33.821 169.396 157.299  1.00  0.00     0.159 C 
ATOM      8  C   UNL     1      35.254 168.973 157.171  1.00  0.00     0.093 C 
ATOM      9  O   UNL     1      33.265 169.294 158.426  1.00  0.00    -0.295 OA
ENDBRANCH   1   7
TORSDOF 1
ENDMDL
MODEL 9
REMARK VINA RESULT:    -3.394     22.016     22.528
REMARK INTER + INTRA:          -3.662
REMARK INTER:                  -3.603
REMARK INTRA:                  -0.059
REMARK UNBOUND:                -0.070
REMARK SMILES CC(=O)c1ccccc1
REMARK SMILES IDX 4 1 5 2 6 3 7 4 8 5 9 6 2 7 1 8 3 9
REMARK H PARENT
REMARK Flexibility Score: inf
ROOT
ATOM      1  C   UNL     1      39.373 184.947 171.484  1.00  0.00     0.017 A 
ATOM      2  C   UNL     1      40.517 184.177 171.191  1.00  0.00     0.012 A 
ATOM      3  C   UNL     1      41.729 184.433 171.840  1.00  0.00     0.001 A 
ATOM      4  C   UNL     1      41.818 185.457 172.784  1.00  0.00     0.000 A 
ATOM      5  C   UNL     1      40.694 186.228 173.083  1.00  0.00     0.001 A 
ATOM      6  C   UNL     1      39.479 185.977 172.440  1.00  0.00     0.012 A 
ENDROOT
BRANCH   1   7
ATOM      7  C   UNL     1      38.074 184.691 170.805  1.00  0.00     0.159 C 
ATOM      8  C   UNL     1      37.819 185.123 169.391  1.00  0.00     0.093 C 
ATOM      9  O   UNL     1      37.151 184.095 171.424  1.00  0.00    -0.295 OA
ENDBRANCH   1   7
TORSDOF 1
ENDMDL
