MODEL 1
REMARK VINA RESULT:    -3.689      0.000      0.000
REMARK INTER + INTRA:          -4.503
REMARK INTER:                  -4.444
REMARK INTRA:                  -0.059
REMARK UNBOUND:                -0.059
REMARK SMILES CC[C@@H](C)[C@@H]([NH3+])C(=O)[O-]
REMARK SMILES IDX 3 1 4 2 5 3 6 4 7 8 8 9 9 10 2 11 1 12
REMARK H PARENT 6 5 6 6 6 7
REMARK Flexibility Score: inf
ROOT
ATOM      1  C   UNL     1      56.570  -1.648  18.632  1.00  0.00     0.050 C 
ATOM      2  C   UNL     1      57.475  -2.555  19.488  1.00  0.00     0.014 C 
ENDROOT
BRANCH   1   3
ATOM      3  C   UNL     1      55.149  -1.520  19.262  1.00  0.00     0.230 C 
BRANCH   3   4
ATOM      4  N   UNL     1      54.353  -0.438  18.663  1.00  0.00    -0.350 N 
ATOM      5  H   UNL     1      54.961   0.184  18.084  1.00  0.00     0.345 HD
ATOM      6  H   UNL     1      53.933   0.148  19.421  1.00  0.00     0.345 HD
ATOM      7  H   UNL     1      53.580  -0.815  18.068  1.00  0.00     0.345 HD
ENDBRANCH   3   4
BRANCH   3   8
ATOM      8  C   UNL     1      54.409  -2.835  19.204  1.00  0.00     0.099 C 
ATOM      9  O   UNL     1      53.628  -3.182  20.129  1.00  0.00    -0.544 OA
ATOM     10  O   UNL     1      54.556  -3.657  18.093  1.00  0.00    -0.544 OA
ENDBRANCH   3   8
ENDBRANCH   1   3
BRANCH   1  11
ATOM     11  C   UNL     1      57.241  -0.274  18.370  1.00  0.00     0.006 C 
ATOM     12  C   UNL     1      58.299  -0.334  17.268  1.00  0.00     0.004 C 
ENDBRANCH   1  11
TORSDOF 4
ENDMDL
MODEL 2
REMARK VINA RESULT:    -3.635     16.400     17.092
REMARK INTER + INTRA:          -4.438
REMARK INTER:                  -4.371
REMARK INTRA:                  -0.067
REMARK UNBOUND:                -0.059
REMARK SMILES CC[C@@H](C)[C@@H]([NH3+])C(=O)[O-]
REMARK SMILES IDX 3 1 4 2 5 3 6 4 7 8 8 9 9 10 2 11 1 12
REMARK H PARENT 6 5 6 6 6 7
REMARK Flexibility Score: inf
ROOT
ATOM      1  C   UNL     1      50.454  14.428  15.576  1.00  0.00     0.050 C 
ATOM      2  C   UNL     1      50.373  15.761  14.809  1.00  0.00     0.014 C 
ENDROOT
BRANCH   1   3
ATOM      3  C   UNL     1      49.291  14.304  16.609  1.00  0.00     0.230 C 
BRANCH   3   4
ATOM      4  N   UNL     1      48.168  13.494  16.112  1.00  0.00    -0.350 N 
ATOM      5  H   UNL     1      48.516  12.735  15.482  1.00  0.00     0.345 HD
ATOM      6  H   UNL     1      47.523  14.097  15.551  1.00  0.00     0.345 HD
ATOM      7  H   UNL     1      47.625  13.069  16.898  1.00  0.00     0.345 HD
ENDBRANCH   3   4
BRANCH   3   8
ATOM      8  C   UNL     1      49.794  13.781  17.933  1.00  0.00     0.099 C 
ATOM      9  O   UNL     1      50.065  14.565  18.880  1.00  0.00    -0.544 OA
ATOM     10  O   UNL     1      49.920  12.410  18.126  1.00  0.00    -0.544 OA
ENDBRANCH   3   8
ENDBRANCH   1   3
BRANCH   1  11
ATOM     11  C   UNL     1      50.526  13.224  14.601  1.00  0.00     0.006 C 
ATOM     12  C   UNL     1      51.835  13.180  13.812  1.00  0.00     0.004 C 
ENDBRANCH   1  11
TORSDOF 4
ENDMDL
MODEL 3
REMARK VINA RESULT:    -3.622     11.573     12.324
REMARK INTER + INTRA:          -4.422
REMARK INTER:                  -4.346
REMARK INTRA:                  -0.076
REMARK UNBOUND:                -0.059
REMARK SMILES CC[C@@H](C)[C@@H]([NH3+])C(=O)[O-]
REMARK SMILES IDX 3 1 4 2 5 3 6 4 7 8 8 9 9 10 2 11 1 12
REMARK H PARENT 6 5 6 6 6 7
REMARK Flexibility Score: inf
ROOT
ATOM      1  C   UNL     1      48.897   8.261  19.503  1.00  0.00     0.050 C 
ATOM      2  C   UNL     1      47.918   9.223  20.202  1.00  0.00     0.014 C 
ENDROOT
BRANCH   1   3
ATOM      3  C   UNL     1      49.773   9.017  18.456  1.00  0.00     0.230 C 
BRANCH   3   4
ATOM      4  N   UNL     1      51.013   9.560  19.032  1.00  0.00    -0.350 N 
ATOM      5  H   UNL     1      51.835   8.987  18.734  1.00  0.00     0.345 HD
ATOM      6  H   UNL     1      50.961   9.518  20.076  1.00  0.00     0.345 HD
ATOM      7  H   UNL     1      51.164  10.555  18.747  1.00  0.00     0.345 HD
ENDBRANCH   3   4
BRANCH   3   8
ATOM      8  C   UNL     1      50.067   8.140  17.262  1.00  0.00     0.099 C 
ATOM      9  O   UNL     1      49.428   8.275  16.185  1.00  0.00    -0.544 OA
ATOM     10  O   UNL     1      51.088   7.200  17.335  1.00  0.00    -0.544 OA
ENDBRANCH   3   8
ENDBRANCH   1   3
BRANCH   1  11
ATOM     11  C   UNL     1      49.741   7.471  20.537  1.00  0.00     0.006 C 
ATOM     12  C   UNL     1      49.555   7.983  21.966  1.00  0.00     0.004 C 
ENDBRANCH   1  11
TORSDOF 4
ENDMDL
MODEL 4
REMARK VINA RESULT:    -3.614      2.724      4.117
REMARK INTER + INTRA:          -4.412
REMARK INTER:                  -4.328
REMARK INTRA:                  -0.085
REMARK UNBOUND:                -0.059
REMARK SMILES CC[C@@H](C)[C@@H]([NH3+])C(=O)[O-]
REMARK SMILES IDX 3 1 4 2 5 3 6 4 7 8 8 9 9 10 2 11 1 12
REMARK H PARENT 6 5 6 6 6 7
REMARK Flexibility Score: inf
ROOT
ATOM      1  C   UNL     1      55.454  -1.349  18.596  1.00  0.00     0.050 C 
ATOM      2  C   UNL     1      54.421  -0.376  19.194  1.00  0.00     0.014 C 
ENDROOT
BRANCH   1   3
ATOM      3  C   UNL     1      56.885  -1.053  19.143  1.00  0.00     0.230 C 
BRANCH   3   4
ATOM      4  N   UNL     1      57.282  -1.963  20.229  1.00  0.00    -0.350 N 
ATOM      5  H   UNL     1      57.812  -1.442  20.965  1.00  0.00     0.345 HD
ATOM      6  H   UNL     1      57.915  -2.704  19.849  1.00  0.00     0.345 HD
ATOM      7  H   UNL     1      56.452  -2.426  20.664  1.00  0.00     0.345 HD
ENDBRANCH   3   4
BRANCH   3   8
ATOM      8  C   UNL     1      57.904  -1.060  18.029  1.00  0.00     0.099 C 
ATOM      9  O   UNL     1      58.307  -2.141  17.525  1.00  0.00    -0.544 OA
ATOM     10  O   UNL     1      58.372   0.145  17.519  1.00  0.00    -0.544 OA
ENDBRANCH   3   8
ENDBRANCH   1   3
BRANCH   1  11
ATOM     11  C   UNL     1      55.022  -2.824  18.804  1.00  0.00     0.006 C 
ATOM     12  C   UNL     1      53.848  -2.964  19.775  1.00  0.00     0.004 C 
ENDBRANCH   1  11
TORSDOF 4
ENDMDL
MODEL 5
REMARK VINA RESULT:    -3.525      5.560      6.701
REMARK INTER + INTRA:          -4.305
REMARK INTER:                  -4.148
REMARK INTRA:                  -0.157
REMARK UNBOUND:                -0.059
REMARK SMILES CC[C@@H](C)[C@@H]([NH3+])C(=O)[O-]
REMARK SMILES IDX 3 1 4 2 5 3 6 4 7 8 8 9 9 10 2 11 1 12
REMARK H PARENT 6 5 6 6 6 7
REMARK Flexibility Score: inf
ROOT
ATOM      1  C   UNL     1      51.403   2.173  20.496  1.00  0.00     0.050 C 
ATOM      2  C   UNL     1      52.390   2.554  19.377  1.00  0.00     0.014 C 
ENDROOT
BRANCH   1   3
ATOM      3  C   UNL     1      52.142   1.483  21.684  1.00  0.00     0.230 C 
BRANCH   3   4
ATOM      4  N   UNL     1      52.223   2.335  22.880  1.00  0.00    -0.350 N 
ATOM      5  H   UNL     1      51.308   2.810  23.053  1.00  0.00     0.345 HD
ATOM      6  H   UNL     1      52.942   3.081  22.728  1.00  0.00     0.345 HD
ATOM      7  H   UNL     1      52.492   1.783  23.726  1.00  0.00     0.345 HD
ENDBRANCH   3   4
BRANCH   3   8
ATOM      8  C   UNL     1      51.515   0.148  22.010  1.00  0.00     0.099 C 
ATOM      9  O   UNL     1      50.383   0.080  22.558  1.00  0.00    -0.544 OA
ATOM     10  O   UNL     1      52.175  -1.024  21.660  1.00  0.00    -0.544 OA
ENDBRANCH   3   8
ENDBRANCH   1   3
BRANCH   1  11
ATOM     11  C   UNL     1      50.559   3.397  20.939  1.00  0.00     0.006 C 
ATOM     12  C   UNL     1      49.069   3.075  21.060  1.00  0.00     0.004 C 
ENDBRANCH   1  11
TORSDOF 4
ENDMDL
MODEL 6
REMARK VINA RESULT:    -3.478      5.739      6.476
REMARK INTER + INTRA:          -4.249
REMARK INTER:                  -4.279
REMARK INTRA:                   0.029
REMARK UNBOUND:                -0.059
REMARK SMILES CC[C@@H](C)[C@@H]([NH3+])C(=O)[O-]
REMARK SMILES IDX 3 1 4 2 5 3 6 4 7 8 8 9 9 10 2 11 1 12
REMARK H PARENT 6 5 6 6 6 7
REMARK Flexibility Score: inf
ROOT
ATOM      1  C   UNL     1      51.301   2.580  20.859  1.00  0.00     0.050 C 
ATOM      2  C   UNL     1      49.883   1.988  20.767  1.00  0.00     0.014 C 
ENDROOT
BRANCH   1   3
ATOM      3  C   UNL     1      52.128   1.882  21.984  1.00  0.00     0.230 C 
BRANCH   3   4
ATOM      4  N   UNL     1      51.975   2.533  23.294  1.00  0.00    -0.350 N 
ATOM      5  H   UNL     1      50.965   2.713  23.496  1.00  0.00     0.345 HD
ATOM      6  H   UNL     1      52.464   3.458  23.284  1.00  0.00     0.345 HD
ATOM      7  H   UNL     1      52.382   1.951  24.061  1.00  0.00     0.345 HD
ENDBRANCH   3   4
BRANCH   3   8
ATOM      8  C   UNL     1      51.798   0.411  22.066  1.00  0.00     0.099 C 
ATOM      9  O   UNL     1      52.310  -0.414  21.265  1.00  0.00    -0.544 OA
ATOM     10  O   UNL     1      50.953  -0.047  23.069  1.00  0.00    -0.544 OA
ENDBRANCH   3   8
ENDBRANCH   1   3
BRANCH   1  11
ATOM     11  C   UNL     1      52.012   2.549  19.480  1.00  0.00     0.006 C 
ATOM     12  C   UNL     1      52.071   3.926  18.816  1.00  0.00     0.004 C 
ENDBRANCH   1  11
TORSDOF 4
ENDMDL
MODEL 7
REMARK VINA RESULT:    -3.458      2.983      3.954
REMARK INTER + INTRA:          -4.224
REMARK INTER:                  -4.171
REMARK INTRA:                  -0.053
REMARK UNBOUND:                -0.059
REMARK SMILES CC[C@@H](C)[C@@H]([NH3+])C(=O)[O-]
REMARK SMILES IDX 3 1 4 2 5 3 6 4 7 8 8 9 9 10 2 11 1 12
REMARK H PARENT 6 5 6 6 6 7
REMARK Flexibility Score: inf
ROOT
ATOM      1  C   UNL     1      56.686  -1.647  18.411  1.00  0.00     0.050 C 
ATOM      2  C   UNL     1      57.328  -0.400  19.045  1.00  0.00     0.014 C 
ENDROOT
BRANCH   1   3
ATOM      3  C   UNL     1      57.677  -2.852  18.415  1.00  0.00     0.230 C 
BRANCH   3   4
ATOM      4  N   UNL     1      57.043  -4.113  18.829  1.00  0.00    -0.350 N 
ATOM      5  H   UNL     1      57.098  -4.819  18.060  1.00  0.00     0.345 HD
ATOM      6  H   UNL     1      56.030  -3.945  19.031  1.00  0.00     0.345 HD
ATOM      7  H   UNL     1      57.492  -4.503  19.689  1.00  0.00     0.345 HD
ENDBRANCH   3   4
BRANCH   3   8
ATOM      8  C   UNL     1      58.356  -3.000  17.075  1.00  0.00     0.099 C 
ATOM      9  O   UNL     1      59.186  -2.144  16.670  1.00  0.00    -0.544 OA
ATOM     10  O   UNL     1      58.096  -4.120  16.294  1.00  0.00    -0.544 OA
ENDBRANCH   3   8
ENDBRANCH   1   3
BRANCH   1  11
ATOM     11  C   UNL     1      55.327  -1.980  19.082  1.00  0.00     0.006 C 
ATOM     12  C   UNL     1      54.355  -0.800  19.067  1.00  0.00     0.004 C 
ENDBRANCH   1  11
TORSDOF 4
ENDMDL
MODEL 8
REMARK VINA RESULT:    -3.442     12.579     13.336
REMARK INTER + INTRA:          -4.206
REMARK INTER:                  -4.055
REMARK INTRA:                  -0.151
REMARK UNBOUND:                -0.059
REMARK SMILES CC[C@@H](C)[C@@H]([NH3+])C(=O)[O-]
REMARK SMILES IDX 3 1 4 2 5 3 6 4 7 8 8 9 9 10 2 11 1 12
REMARK H PARENT 6 5 6 6 6 7
REMARK Flexibility Score: inf
ROOT
ATOM      1  C   UNL     1      49.598   8.613  20.205  1.00  0.00     0.050 C 
ATOM      2  C   UNL     1      50.672   8.825  19.122  1.00  0.00     0.014 C 
ENDROOT
BRANCH   1   3
ATOM      3  C   UNL     1      48.192   9.059  19.695  1.00  0.00     0.230 C 
BRANCH   3   4
ATOM      4  N   UNL     1      47.254   7.935  19.545  1.00  0.00    -0.350 N 
ATOM      5  H   UNL     1      46.606   8.106  18.744  1.00  0.00     0.345 HD
ATOM      6  H   UNL     1      46.672   7.849  20.410  1.00  0.00     0.345 HD
ATOM      7  H   UNL     1      47.760   7.032  19.395  1.00  0.00     0.345 HD
ENDBRANCH   3   4
BRANCH   3   8
ATOM      8  C   UNL     1      47.611  10.137  20.579  1.00  0.00     0.099 C 
ATOM      9  O   UNL     1      47.101   9.855  21.695  1.00  0.00    -0.544 OA
ATOM     10  O   UNL     1      47.680  11.465  20.176  1.00  0.00    -0.544 OA
ENDBRANCH   3   8
ENDBRANCH   1   3
BRANCH   1  11
ATOM     11  C   UNL     1      49.614   7.154  20.732  1.00  0.00     0.006 C 
ATOM     12  C   UNL     1      49.573   7.078  22.259  1.00  0.00     0.004 C 
ENDBRANCH   1  11
TORSDOF 4
ENDMDL
MODEL 9
REMARK VINA RESULT:    -3.436     12.482     13.136
REMARK INTER + INTRA:          -4.198
REMARK INTER:                  -4.221
REMARK INTRA:                   0.022
REMARK UNBOUND:                -0.059
REMARK SMILES CC[C@@H](C)[C@@H]([NH3+])C(=O)[O-]
REMARK SMILES IDX 3 1 4 2 5 3 6 4 7 8 8 9 9 10 2 11 1 12
REMARK H PARENT 6 5 6 6 6 7
REMARK Flexibility Score: inf
ROOT
ATOM      1  C   UNL     1      49.256   8.030  20.285  1.00  0.00     0.050 C 
ATOM      2  C   UNL     1      49.248   8.246  21.809  1.00  0.00     0.014 C 
ENDROOT
BRANCH   1   3
ATOM      3  C   UNL     1      47.951   8.586  19.633  1.00  0.00     0.230 C 
BRANCH   3   4
ATOM      4  N   UNL     1      46.843   7.619  19.658  1.00  0.00    -0.350 N 
ATOM      5  H   UNL     1      47.134   6.743  20.147  1.00  0.00     0.345 HD
ATOM      6  H   UNL     1      46.582   7.361  18.678  1.00  0.00     0.345 HD
ATOM      7  H   UNL     1      45.999   8.015  20.132  1.00  0.00     0.345 HD
ENDBRANCH   3   4
BRANCH   3   8
ATOM      8  C   UNL     1      47.544   9.895  20.266  1.00  0.00     0.099 C 
ATOM      9  O   UNL     1      48.118  10.972  19.954  1.00  0.00    -0.544 OA
ATOM     10  O   UNL     1      46.491   9.922  21.172  1.00  0.00    -0.544 OA
ENDBRANCH   3   8
ENDBRANCH   1   3
BRANCH   1  11
ATOM     11  C   UNL     1      50.544   8.608  19.643  1.00  0.00     0.006 C 
ATOM     12  C   UNL     1      51.476   7.520  19.107  1.00  0.00     0.004 C 
ENDBRANCH   1  11
TORSDOF 4
ENDMDL
