MODEL 1
REMARK VINA RESULT:    -3.819      0.000      0.000
REMARK INTER + INTRA:          -4.772
REMARK INTER:                  -4.489
REMARK INTRA:                  -0.282
REMARK UNBOUND:                -0.282
REMARK SMILES O=c1cc(-c2ccc(O)c(O)c2)oc2cc(O)cc(O)c12
REMARK SMILES IDX 4 1 3 2 2 3 1 4 21 5 19 6 18 7 16 8 15 9 14 10 13 11 5 12
REMARK SMILES IDX 6 13 7 14 8 15 12 16 10 17 9 18 11 20 20 22 17 24
REMARK H PARENT 9 19 11 21 20 23 17 25
REMARK Flexibility Score: inf
ROOT
ATOM      1  C   UNL     1      22.956  49.388  87.710  1.00  0.00     0.138 A 
ATOM      2  C   UNL     1      23.063  48.054  88.125  1.00  0.00     0.100 A 
ATOM      3  C   UNL     1      24.177  47.301  87.746  1.00  0.00     0.197 A 
ATOM      4  O   UNL     1      24.275  46.126  88.184  1.00  0.00    -0.289 OA
ATOM      5  C   UNL     1      25.170  47.880  86.922  1.00  0.00     0.107 A 
ATOM      6  C   UNL     1      26.327  47.197  86.441  1.00  0.00     0.134 A 
ATOM      7  C   UNL     1      27.301  47.907  85.728  1.00  0.00     0.093 A 
ATOM      8  C   UNL     1      27.133  49.259  85.427  1.00  0.00     0.123 A 
ATOM      9  C   UNL     1      25.980  49.924  85.847  1.00  0.00     0.094 A 
ATOM     10  C   UNL     1      25.006  49.252  86.589  1.00  0.00     0.146 A 
ATOM     11  O   UNL     1      23.930  49.925  86.983  1.00  0.00    -0.456 OA
ENDROOT
BRANCH   1  12
ATOM     12  C   UNL     1      21.794  50.234  88.083  1.00  0.00     0.021 A 
ATOM     13  C   UNL     1      21.996  51.587  88.402  1.00  0.00     0.016 A 
ATOM     14  C   UNL     1      20.919  52.405  88.748  1.00  0.00     0.051 A 
ATOM     15  C   UNL     1      19.620  51.892  88.774  1.00  0.00     0.157 A 
ATOM     16  C   UNL     1      20.481  49.723  88.097  1.00  0.00     0.062 A 
ATOM     17  C   UNL     1      19.398  50.545  88.444  1.00  0.00     0.158 A 
BRANCH  15  18
ATOM     18  O   UNL     1      18.565  52.732  89.125  1.00  0.00    -0.504 OA
ATOM     19  H   UNL     1      17.731  52.816  88.557  1.00  0.00     0.293 HD
ENDBRANCH  15  18
BRANCH  17  20
ATOM     20  O   UNL     1      18.102  50.029  88.455  1.00  0.00    -0.504 OA
ATOM     21  H   UNL     1      17.752  49.457  87.695  1.00  0.00     0.293 HD
ENDBRANCH  17  20
ENDBRANCH   1  12
BRANCH   6  22
ATOM     22  O   UNL     1      26.553  45.828  86.612  1.00  0.00    -0.507 OA
ATOM     23  H   UNL     1      25.835  45.144  86.797  1.00  0.00     0.293 HD
ENDBRANCH   6  22
BRANCH   8  24
ATOM     24  O   UNL     1      28.116  49.928  84.703  1.00  0.00    -0.508 OA
ATOM     25  H   UNL     1      27.951  50.849  84.313  1.00  0.00     0.293 HD
ENDBRANCH   8  24
TORSDOF 5
ENDMDL
MODEL 2
REMARK VINA RESULT:    -3.778      1.451      2.023
REMARK INTER + INTRA:          -4.723
REMARK INTER:                  -4.437
REMARK INTRA:                  -0.286
REMARK UNBOUND:                -0.282
REMARK SMILES O=c1cc(-c2ccc(O)c(O)c2)oc2cc(O)cc(O)c12
REMARK SMILES IDX 4 1 3 2 2 3 1 4 21 5 19 6 18 7 16 8 15 9 14 10 13 11 5 12
REMARK SMILES IDX 6 13 7 14 8 15 12 16 10 17 9 18 11 20 20 22 17 24
REMARK H PARENT 9 19 11 21 20 23 17 25
REMARK Flexibility Score: inf
ROOT
ATOM      1  C   UNL     1      23.401  48.085  87.452  1.00  0.00     0.138 A 
ATOM      2  C   UNL     1      24.066  46.879  87.712  1.00  0.00     0.100 A 
ATOM      3  C   UNL     1      25.381  46.708  87.276  1.00  0.00     0.197 A 
ATOM      4  O   UNL     1      25.972  45.639  87.578  1.00  0.00    -0.289 OA
ATOM      5  C   UNL     1      26.021  47.739  86.549  1.00  0.00     0.107 A 
ATOM      6  C   UNL     1      27.343  47.661  86.020  1.00  0.00     0.134 A 
ATOM      7  C   UNL     1      27.914  48.789  85.417  1.00  0.00     0.093 A 
ATOM      8  C   UNL     1      27.190  49.972  85.271  1.00  0.00     0.123 A 
ATOM      9  C   UNL     1      25.876  50.042  85.737  1.00  0.00     0.094 A 
ATOM     10  C   UNL     1      25.291  48.946  86.373  1.00  0.00     0.146 A 
ATOM     11  O   UNL     1      24.043  49.058  86.815  1.00  0.00    -0.456 OA
ENDROOT
BRANCH   1  12
ATOM     12  C   UNL     1      22.003  48.320  87.892  1.00  0.00     0.021 A 
ATOM     13  C   UNL     1      21.597  49.618  88.247  1.00  0.00     0.016 A 
ATOM     14  C   UNL     1      20.286  49.866  88.656  1.00  0.00     0.051 A 
ATOM     15  C   UNL     1      19.352  48.828  88.710  1.00  0.00     0.157 A 
ATOM     16  C   UNL     1      21.055  47.278  87.934  1.00  0.00     0.062 A 
ATOM     17  C   UNL     1      19.736  47.527  88.344  1.00  0.00     0.158 A 
BRANCH  15  18
ATOM     18  O   UNL     1      18.051  49.106  89.124  1.00  0.00    -0.504 OA
ATOM     19  H   UNL     1      17.649  50.032  89.053  1.00  0.00     0.293 HD
ENDBRANCH  15  18
BRANCH  17  20
ATOM     20  O   UNL     1      18.806  46.489  88.384  1.00  0.00    -0.504 OA
ATOM     21  H   UNL     1      18.766  45.843  89.163  1.00  0.00     0.293 HD
ENDBRANCH  17  20
ENDBRANCH   1  12
BRANCH   6  22
ATOM     22  O   UNL     1      28.124  46.500  86.037  1.00  0.00    -0.507 OA
ATOM     23  H   UNL     1      28.588  46.130  86.853  1.00  0.00     0.293 HD
ENDBRANCH   6  22
BRANCH   8  24
ATOM     24  O   UNL     1      27.785  51.069  84.652  1.00  0.00    -0.508 OA
ATOM     25  H   UNL     1      27.834  51.146  83.643  1.00  0.00     0.293 HD
ENDBRANCH   8  24
TORSDOF 5
ENDMDL
MODEL 3
REMARK VINA RESULT:    -3.714      1.997      7.008
REMARK INTER + INTRA:          -4.647
REMARK INTER:                  -4.381
REMARK INTRA:                  -0.267
REMARK UNBOUND:                -0.282
REMARK SMILES O=c1cc(-c2ccc(O)c(O)c2)oc2cc(O)cc(O)c12
REMARK SMILES IDX 4 1 3 2 2 3 1 4 21 5 19 6 18 7 16 8 15 9 14 10 13 11 5 12
REMARK SMILES IDX 6 13 7 14 8 15 12 16 10 17 9 18 11 20 20 22 17 24
REMARK H PARENT 9 19 11 21 20 23 17 25
REMARK Flexibility Score: inf
ROOT
ATOM      1  C   UNL     1      23.395  47.532  87.692  1.00  0.00     0.138 A 
ATOM      2  C   UNL     1      22.135  46.920  87.729  1.00  0.00     0.100 A 
ATOM      3  C   UNL     1      21.002  47.689  88.004  1.00  0.00     0.197 A 
ATOM      4  O   UNL     1      19.879  47.124  87.970  1.00  0.00    -0.289 OA
ATOM      5  C   UNL     1      21.139  49.072  88.273  1.00  0.00     0.107 A 
ATOM      6  C   UNL     1      20.061  49.945  88.605  1.00  0.00     0.134 A 
ATOM      7  C   UNL     1      20.301  51.319  88.736  1.00  0.00     0.093 A 
ATOM      8  C   UNL     1      21.587  51.842  88.607  1.00  0.00     0.123 A 
ATOM      9  C   UNL     1      22.658  50.988  88.336  1.00  0.00     0.094 A 
ATOM     10  C   UNL     1      22.446  49.619  88.165  1.00  0.00     0.146 A 
ATOM     11  O   UNL     1      23.490  48.842  87.893  1.00  0.00    -0.456 OA
ENDROOT
BRANCH   1  12
ATOM     12  C   UNL     1      24.632  46.763  87.405  1.00  0.00     0.021 A 
ATOM     13  C   UNL     1      25.225  46.000  88.426  1.00  0.00     0.016 A 
ATOM     14  C   UNL     1      26.384  45.262  88.180  1.00  0.00     0.051 A 
ATOM     15  C   UNL     1      26.967  45.261  86.910  1.00  0.00     0.157 A 
ATOM     16  C   UNL     1      25.215  46.749  86.123  1.00  0.00     0.062 A 
ATOM     17  C   UNL     1      26.379  46.005  85.875  1.00  0.00     0.158 A 
BRANCH  15  18
ATOM     18  O   UNL     1      28.124  44.515  86.695  1.00  0.00    -0.504 OA
ATOM     19  H   UNL     1      28.777  44.306  87.440  1.00  0.00     0.293 HD
ENDBRANCH  15  18
BRANCH  17  20
ATOM     20  O   UNL     1      26.949  45.999  84.602  1.00  0.00    -0.504 OA
ATOM     21  H   UNL     1      26.505  46.467  83.820  1.00  0.00     0.293 HD
ENDBRANCH  17  20
ENDBRANCH   1  12
BRANCH   6  22
ATOM     22  O   UNL     1      18.751  49.516  88.840  1.00  0.00    -0.507 OA
ATOM     23  H   UNL     1      18.369  48.635  88.530  1.00  0.00     0.293 HD
ENDBRANCH   6  22
BRANCH   8  24
ATOM     24  O   UNL     1      21.790  53.211  88.759  1.00  0.00    -0.508 OA
ATOM     25  H   UNL     1      22.078  53.609  89.647  1.00  0.00     0.293 HD
ENDBRANCH   8  24
TORSDOF 5
ENDMDL
MODEL 4
REMARK VINA RESULT:    -3.691      1.937      7.234
REMARK INTER + INTRA:          -4.621
REMARK INTER:                  -4.346
REMARK INTRA:                  -0.275
REMARK UNBOUND:                -0.282
REMARK SMILES O=c1cc(-c2ccc(O)c(O)c2)oc2cc(O)cc(O)c12
REMARK SMILES IDX 4 1 3 2 2 3 1 4 21 5 19 6 18 7 16 8 15 9 14 10 13 11 5 12
REMARK SMILES IDX 6 13 7 14 8 15 12 16 10 17 9 18 11 20 20 22 17 24
REMARK H PARENT 9 19 11 21 20 23 17 25
REMARK Flexibility Score: inf
ROOT
ATOM      1  C   UNL     1      24.560  48.818  87.686  1.00  0.00     0.138 A 
ATOM      2  C   UNL     1      25.042  50.100  87.986  1.00  0.00     0.100 A 
ATOM      3  C   UNL     1      24.141  51.118  88.306  1.00  0.00     0.197 A 
ATOM      4  O   UNL     1      24.607  52.241  88.631  1.00  0.00    -0.289 OA
ATOM      5  C   UNL     1      22.751  50.857  88.294  1.00  0.00     0.107 A 
ATOM      6  C   UNL     1      21.740  51.827  88.564  1.00  0.00     0.134 A 
ATOM      7  C   UNL     1      20.400  51.425  88.638  1.00  0.00     0.093 A 
ATOM      8  C   UNL     1      20.029  50.104  88.393  1.00  0.00     0.123 A 
ATOM      9  C   UNL     1      21.005  49.158  88.075  1.00  0.00     0.094 A 
ATOM     10  C   UNL     1      22.353  49.520  88.028  1.00  0.00     0.146 A 
ATOM     11  O   UNL     1      23.252  48.586  87.736  1.00  0.00    -0.456 OA
ENDROOT
BRANCH   1  12
ATOM     12  C   UNL     1      25.471  47.700  87.338  1.00  0.00     0.021 A 
ATOM     13  C   UNL     1      26.407  47.250  88.285  1.00  0.00     0.016 A 
ATOM     14  C   UNL     1      27.271  46.195  87.985  1.00  0.00     0.051 A 
ATOM     15  C   UNL     1      27.211  45.562  86.741  1.00  0.00     0.157 A 
ATOM     16  C   UNL     1      25.404  47.051  86.089  1.00  0.00     0.062 A 
ATOM     17  C   UNL     1      26.271  45.989  85.788  1.00  0.00     0.158 A 
BRANCH  15  18
ATOM     18  O   UNL     1      28.087  44.513  86.470  1.00  0.00    -0.504 OA
ATOM     19  H   UNL     1      28.148  44.085  85.554  1.00  0.00     0.293 HD
ENDBRANCH  15  18
BRANCH  17  20
ATOM     20  O   UNL     1      26.197  45.354  84.549  1.00  0.00    -0.504 OA
ATOM     21  H   UNL     1      25.307  45.169  84.100  1.00  0.00     0.293 HD
ENDBRANCH  17  20
ENDBRANCH   1  12
BRANCH   6  22
ATOM     22  O   UNL     1      21.993  53.191  88.740  1.00  0.00    -0.507 OA
ATOM     23  H   UNL     1      21.982  53.880  88.003  1.00  0.00     0.293 HD
ENDBRANCH   6  22
BRANCH   8  24
ATOM     24  O   UNL     1      18.685  49.744  88.461  1.00  0.00    -0.508 OA
ATOM     25  H   UNL     1      18.395  48.848  88.837  1.00  0.00     0.293 HD
ENDBRANCH   8  24
TORSDOF 5
ENDMDL
MODEL 5
REMARK VINA RESULT:    -3.680      1.591      2.964
REMARK INTER + INTRA:          -4.608
REMARK INTER:                  -4.290
REMARK INTRA:                  -0.318
REMARK UNBOUND:                -0.282
REMARK SMILES O=c1cc(-c2ccc(O)c(O)c2)oc2cc(O)cc(O)c12
REMARK SMILES IDX 4 1 3 2 2 3 1 4 21 5 19 6 18 7 16 8 15 9 14 10 13 11 5 12
REMARK SMILES IDX 6 13 7 14 8 15 12 16 10 17 9 18 11 20 20 22 17 24
REMARK H PARENT 9 19 11 21 20 23 17 25
REMARK Flexibility Score: inf
ROOT
ATOM      1  C   UNL     1      23.178  48.894  87.340  1.00  0.00     0.138 A 
ATOM      2  C   UNL     1      23.910  50.086  87.244  1.00  0.00     0.100 A 
ATOM      3  C   UNL     1      25.232  50.050  86.796  1.00  0.00     0.197 A 
ATOM      4  O   UNL     1      25.843  51.142  86.662  1.00  0.00    -0.289 OA
ATOM      5  C   UNL     1      25.832  48.810  86.473  1.00  0.00     0.107 A 
ATOM      6  C   UNL     1      27.183  48.648  86.046  1.00  0.00     0.134 A 
ATOM      7  C   UNL     1      27.632  47.384  85.642  1.00  0.00     0.093 A 
ATOM      8  C   UNL     1      26.799  46.268  85.707  1.00  0.00     0.123 A 
ATOM      9  C   UNL     1      25.491  46.406  86.174  1.00  0.00     0.094 A 
ATOM     10  C   UNL     1      25.003  47.658  86.552  1.00  0.00     0.146 A 
ATOM     11  O   UNL     1      23.747  47.750  86.978  1.00  0.00    -0.456 OA
ENDROOT
BRANCH   1  12
ATOM     12  C   UNL     1      21.770  48.875  87.811  1.00  0.00     0.021 A 
ATOM     13  C   UNL     1      21.129  50.085  88.126  1.00  0.00     0.016 A 
ATOM     14  C   UNL     1      19.803  50.094  88.563  1.00  0.00     0.051 A 
ATOM     15  C   UNL     1      19.090  48.899  88.684  1.00  0.00     0.157 A 
ATOM     16  C   UNL     1      21.043  47.673  87.921  1.00  0.00     0.062 A 
ATOM     17  C   UNL     1      19.710  47.682  88.359  1.00  0.00     0.158 A 
BRANCH  15  18
ATOM     18  O   UNL     1      17.768  48.939  89.125  1.00  0.00    -0.504 OA
ATOM     19  H   UNL     1      17.388  48.243  89.754  1.00  0.00     0.293 HD
ENDBRANCH  15  18
BRANCH  17  20
ATOM     20  O   UNL     1      19.000  46.487  88.466  1.00  0.00    -0.504 OA
ATOM     21  H   UNL     1      19.457  45.587  88.368  1.00  0.00     0.293 HD
ENDBRANCH  17  20
ENDBRANCH   1  12
BRANCH   6  22
ATOM     22  O   UNL     1      28.125  49.681  86.024  1.00  0.00    -0.507 OA
ATOM     23  H   UNL     1      28.373  50.252  86.818  1.00  0.00     0.293 HD
ENDBRANCH   6  22
BRANCH   8  24
ATOM     24  O   UNL     1      27.285  45.024  85.310  1.00  0.00    -0.508 OA
ATOM     25  H   UNL     1      28.219  44.717  85.560  1.00  0.00     0.293 HD
ENDBRANCH   8  24
TORSDOF 5
ENDMDL
MODEL 6
REMARK VINA RESULT:    -3.527      1.830      7.318
REMARK INTER + INTRA:          -4.428
REMARK INTER:                  -4.134
REMARK INTRA:                  -0.295
REMARK UNBOUND:                -0.282
REMARK SMILES O=c1cc(-c2ccc(O)c(O)c2)oc2cc(O)cc(O)c12
REMARK SMILES IDX 4 1 3 2 2 3 1 4 21 5 19 6 18 7 16 8 15 9 14 10 13 11 5 12
REMARK SMILES IDX 6 13 7 14 8 15 12 16 10 17 9 18 11 20 20 22 17 24
REMARK H PARENT 9 19 11 21 20 23 17 25
REMARK Flexibility Score: inf
ROOT
ATOM      1  C   UNL     1      23.017  48.986  87.323  1.00  0.00     0.138 A 
ATOM      2  C   UNL     1      22.621  50.293  87.639  1.00  0.00     0.100 A 
ATOM      3  C   UNL     1      21.352  50.519  88.176  1.00  0.00     0.197 A 
ATOM      4  O   UNL     1      21.048  51.695  88.506  1.00  0.00    -0.289 OA
ATOM      5  C   UNL     1      20.465  49.434  88.367  1.00  0.00     0.107 A 
ATOM      6  C   UNL     1      19.134  49.550  88.868  1.00  0.00     0.134 A 
ATOM      7  C   UNL     1      18.390  48.391  89.125  1.00  0.00     0.093 A 
ATOM      8  C   UNL     1      18.904  47.127  88.842  1.00  0.00     0.123 A 
ATOM      9  C   UNL     1      20.185  47.004  88.302  1.00  0.00     0.094 A 
ATOM     10  C   UNL     1      20.966  48.138  88.066  1.00  0.00     0.146 A 
ATOM     11  O   UNL     1      22.185  47.978  87.564  1.00  0.00    -0.456 OA
ENDROOT
BRANCH   1  12
ATOM     12  C   UNL     1      24.353  48.689  86.750  1.00  0.00     0.021 A 
ATOM     13  C   UNL     1      24.814  47.362  86.720  1.00  0.00     0.016 A 
ATOM     14  C   UNL     1      26.064  47.055  86.179  1.00  0.00     0.051 A 
ATOM     15  C   UNL     1      26.873  48.064  85.649  1.00  0.00     0.157 A 
ATOM     16  C   UNL     1      25.166  49.702  86.203  1.00  0.00     0.062 A 
ATOM     17  C   UNL     1      26.421  49.394  85.657  1.00  0.00     0.158 A 
BRANCH  15  18
ATOM     18  O   UNL     1      28.117  47.728  85.117  1.00  0.00    -0.504 OA
ATOM     19  H   UNL     1      28.944  48.285  85.288  1.00  0.00     0.293 HD
ENDBRANCH  15  18
BRANCH  17  20
ATOM     20  O   UNL     1      27.218  50.403  85.119  1.00  0.00    -0.504 OA
ATOM     21  H   UNL     1      27.991  50.804  85.639  1.00  0.00     0.293 HD
ENDBRANCH  17  20
ENDBRANCH   1  12
BRANCH   6  22
ATOM     22  O   UNL     1      18.492  50.769  89.105  1.00  0.00    -0.507 OA
ATOM     23  H   UNL     1      17.598  50.871  89.560  1.00  0.00     0.293 HD
ENDBRANCH   6  22
BRANCH   8  24
ATOM     24  O   UNL     1      18.129  45.998  89.097  1.00  0.00    -0.508 OA
ATOM     25  H   UNL     1      17.238  45.852  88.636  1.00  0.00     0.293 HD
ENDBRANCH   8  24
TORSDOF 5
ENDMDL
MODEL 7
REMARK VINA RESULT:    -3.483      3.052      4.573
REMARK INTER + INTRA:          -4.376
REMARK INTER:                  -4.111
REMARK INTRA:                  -0.265
REMARK UNBOUND:                -0.282
REMARK SMILES O=c1cc(-c2ccc(O)c(O)c2)oc2cc(O)cc(O)c12
REMARK SMILES IDX 4 1 3 2 2 3 1 4 21 5 19 6 18 7 16 8 15 9 14 10 13 11 5 12
REMARK SMILES IDX 6 13 7 14 8 15 12 16 10 17 9 18 11 20 20 22 17 24
REMARK H PARENT 9 19 11 21 20 23 17 25
REMARK Flexibility Score: inf
ROOT
ATOM      1  C   UNL     1      24.792  49.271  87.421  1.00  0.00     0.138 A 
ATOM      2  C   UNL     1      25.067  50.302  88.331  1.00  0.00     0.100 A 
ATOM      3  C   UNL     1      25.953  51.319  87.971  1.00  0.00     0.197 A 
ATOM      4  O   UNL     1      26.133  52.263  88.784  1.00  0.00    -0.289 OA
ATOM      5  C   UNL     1      26.588  51.286  86.708  1.00  0.00     0.107 A 
ATOM      6  C   UNL     1      27.539  52.247  86.250  1.00  0.00     0.134 A 
ATOM      7  C   UNL     1      28.014  52.176  84.935  1.00  0.00     0.093 A 
ATOM      8  C   UNL     1      27.620  51.146  84.081  1.00  0.00     0.123 A 
ATOM      9  C   UNL     1      26.732  50.170  84.535  1.00  0.00     0.094 A 
ATOM     10  C   UNL     1      26.213  50.233  85.830  1.00  0.00     0.146 A 
ATOM     11  O   UNL     1      25.359  49.293  86.220  1.00  0.00    -0.456 OA
ENDROOT
BRANCH   1  12
ATOM     12  C   UNL     1      23.859  48.164  87.751  1.00  0.00     0.021 A 
ATOM     13  C   UNL     1      24.300  47.106  88.564  1.00  0.00     0.016 A 
ATOM     14  C   UNL     1      23.441  46.057  88.895  1.00  0.00     0.051 A 
ATOM     15  C   UNL     1      22.123  46.048  88.431  1.00  0.00     0.157 A 
ATOM     16  C   UNL     1      22.526  48.158  87.295  1.00  0.00     0.062 A 
ATOM     17  C   UNL     1      21.661  47.105  87.629  1.00  0.00     0.158 A 
BRANCH  15  18
ATOM     18  O   UNL     1      21.288  44.987  88.776  1.00  0.00    -0.504 OA
ATOM     19  H   UNL     1      20.313  44.959  88.507  1.00  0.00     0.293 HD
ENDBRANCH  15  18
BRANCH  17  20
ATOM     20  O   UNL     1      20.344  47.108  87.172  1.00  0.00    -0.504 OA
ATOM     21  H   UNL     1      19.588  46.727  87.730  1.00  0.00     0.293 HD
ENDBRANCH  17  20
ENDBRANCH   1  12
BRANCH   6  22
ATOM     22  O   UNL     1      28.064  53.267  87.049  1.00  0.00    -0.507 OA
ATOM     23  H   UNL     1      27.577  54.116  87.295  1.00  0.00     0.293 HD
ENDBRANCH   6  22
BRANCH   8  24
ATOM     24  O   UNL     1      28.125  51.099  82.783  1.00  0.00    -0.508 OA
ATOM     25  H   UNL     1      28.095  50.247  82.234  1.00  0.00     0.293 HD
ENDBRANCH   8  24
TORSDOF 5
ENDMDL
MODEL 8
REMARK VINA RESULT:    -3.354      2.941      5.412
REMARK INTER + INTRA:          -4.225
REMARK INTER:                  -3.939
REMARK INTRA:                  -0.286
REMARK UNBOUND:                -0.282
REMARK SMILES O=c1cc(-c2ccc(O)c(O)c2)oc2cc(O)cc(O)c12
REMARK SMILES IDX 4 1 3 2 2 3 1 4 21 5 19 6 18 7 16 8 15 9 14 10 13 11 5 12
REMARK SMILES IDX 6 13 7 14 8 15 12 16 10 17 9 18 11 20 20 22 17 24
REMARK H PARENT 9 19 11 21 20 23 17 25
REMARK Flexibility Score: inf
ROOT
ATOM      1  C   UNL     1      23.113  50.436  88.327  1.00  0.00     0.138 A 
ATOM      2  C   UNL     1      22.239  51.434  88.782  1.00  0.00     0.100 A 
ATOM      3  C   UNL     1      22.649  52.769  88.766  1.00  0.00     0.197 A 
ATOM      4  O   UNL     1      21.822  53.647  89.122  1.00  0.00    -0.289 OA
ATOM      5  C   UNL     1      23.952  53.100  88.323  1.00  0.00     0.107 A 
ATOM      6  C   UNL     1      24.492  54.420  88.302  1.00  0.00     0.134 A 
ATOM      7  C   UNL     1      25.752  54.642  87.733  1.00  0.00     0.093 A 
ATOM      8  C   UNL     1      26.516  53.585  87.240  1.00  0.00     0.123 A 
ATOM      9  C   UNL     1      26.020  52.282  87.304  1.00  0.00     0.094 A 
ATOM     10  C   UNL     1      24.752  52.032  87.835  1.00  0.00     0.146 A 
ATOM     11  O   UNL     1      24.310  50.780  87.865  1.00  0.00    -0.456 OA
ENDROOT
BRANCH   1  12
ATOM     12  C   UNL     1      22.729  49.002  88.322  1.00  0.00     0.021 A 
ATOM     13  C   UNL     1      23.714  48.021  88.527  1.00  0.00     0.016 A 
ATOM     14  C   UNL     1      23.378  46.666  88.534  1.00  0.00     0.051 A 
ATOM     15  C   UNL     1      22.053  46.265  88.348  1.00  0.00     0.157 A 
ATOM     16  C   UNL     1      21.392  48.594  88.148  1.00  0.00     0.062 A 
ATOM     17  C   UNL     1      21.053  47.233  88.157  1.00  0.00     0.158 A 
BRANCH  15  18
ATOM     18  O   UNL     1      21.747  44.905  88.359  1.00  0.00    -0.504 OA
ATOM     19  H   UNL     1      22.396  44.210  88.707  1.00  0.00     0.293 HD
ENDBRANCH  15  18
BRANCH  17  20
ATOM     20  O   UNL     1      19.727  46.839  87.983  1.00  0.00    -0.504 OA
ATOM     21  H   UNL     1      19.081  46.792  88.764  1.00  0.00     0.293 HD
ENDBRANCH  17  20
ENDBRANCH   1  12
BRANCH   6  22
ATOM     22  O   UNL     1      23.848  55.536  88.846  1.00  0.00    -0.507 OA
ATOM     23  H   UNL     1      23.152  56.090  88.368  1.00  0.00     0.293 HD
ENDBRANCH   6  22
BRANCH   8  24
ATOM     24  O   UNL     1      27.772  53.841  86.694  1.00  0.00    -0.508 OA
ATOM     25  H   UNL     1      28.446  54.429  87.171  1.00  0.00     0.293 HD
ENDBRANCH   8  24
TORSDOF 5
ENDMDL
MODEL 9
REMARK VINA RESULT:    -3.310      2.152      3.498
REMARK INTER + INTRA:          -4.173
REMARK INTER:                  -3.861
REMARK INTRA:                  -0.312
REMARK UNBOUND:                -0.282
REMARK SMILES O=c1cc(-c2ccc(O)c(O)c2)oc2cc(O)cc(O)c12
REMARK SMILES IDX 4 1 3 2 2 3 1 4 21 5 19 6 18 7 16 8 15 9 14 10 13 11 5 12
REMARK SMILES IDX 6 13 7 14 8 15 12 16 10 17 9 18 11 20 20 22 17 24
REMARK H PARENT 9 19 11 21 20 23 17 25
REMARK Flexibility Score: inf
ROOT
ATOM      1  C   UNL     1      23.257  50.758  87.944  1.00  0.00     0.138 A 
ATOM      2  C   UNL     1      23.743  51.928  88.545  1.00  0.00     0.100 A 
ATOM      3  C   UNL     1      25.022  52.388  88.226  1.00  0.00     0.197 A 
ATOM      4  O   UNL     1      25.406  53.473  88.735  1.00  0.00    -0.289 OA
ATOM      5  C   UNL     1      25.829  51.655  87.324  1.00  0.00     0.107 A 
ATOM      6  C   UNL     1      27.162  52.007  86.957  1.00  0.00     0.134 A 
ATOM      7  C   UNL     1      27.821  51.269  85.965  1.00  0.00     0.093 A 
ATOM      8  C   UNL     1      27.220  50.159  85.372  1.00  0.00     0.123 A 
ATOM      9  C   UNL     1      25.937  49.775  85.763  1.00  0.00     0.094 A 
ATOM     10  C   UNL     1      25.240  50.510  86.724  1.00  0.00     0.146 A 
ATOM     11  O   UNL     1      24.014  50.119  87.058  1.00  0.00    -0.456 OA
ENDROOT
BRANCH   1  12
ATOM     12  C   UNL     1      21.906  50.224  88.247  1.00  0.00     0.021 A 
ATOM     13  C   UNL     1      20.929  51.078  88.786  1.00  0.00     0.016 A 
ATOM     14  C   UNL     1      19.648  50.602  89.073  1.00  0.00     0.051 A 
ATOM     15  C   UNL     1      19.315  49.269  88.818  1.00  0.00     0.157 A 
ATOM     16  C   UNL     1      21.562  48.884  87.978  1.00  0.00     0.062 A 
ATOM     17  C   UNL     1      20.275  48.406  88.264  1.00  0.00     0.158 A 
BRANCH  15  18
ATOM     18  O   UNL     1      18.029  48.822  89.116  1.00  0.00    -0.504 OA
ATOM     19  H   UNL     1      17.508  48.221  88.489  1.00  0.00     0.293 HD
ENDBRANCH  15  18
BRANCH  17  20
ATOM     20  O   UNL     1      19.945  47.078  87.996  1.00  0.00    -0.504 OA
ATOM     21  H   UNL     1      19.648  46.781  87.073  1.00  0.00     0.293 HD
ENDBRANCH  17  20
ENDBRANCH   1  12
BRANCH   6  22
ATOM     22  O   UNL     1      27.887  53.046  87.548  1.00  0.00    -0.507 OA
ATOM     23  H   UNL     1      28.767  53.402  87.206  1.00  0.00     0.293 HD
ENDBRANCH   6  22
BRANCH   8  24
ATOM     24  O   UNL     1      27.913  49.441  84.400  1.00  0.00    -0.508 OA
ATOM     25  H   UNL     1      28.919  49.519  84.300  1.00  0.00     0.293 HD
ENDBRANCH   8  24
TORSDOF 5
ENDMDL
