MODEL 1
REMARK VINA RESULT:    -3.403      0.000      0.000
REMARK INTER + INTRA:          -5.644
REMARK INTER:                  -5.193
REMARK INTRA:                  -0.451
REMARK UNBOUND:                -0.451
REMARK SMILES CCCCCCCCCCC(=O)[O-]
REMARK SMILES IDX 7 1 8 2 9 3 10 4 11 5 12 6 13 7 6 8 5 9 4 10 3 11 2 12 1 13
REMARK H PARENT
REMARK Flexibility Score: inf
ROOT
ATOM      1  C   UNL     1     -22.336   2.203   9.139  1.00  0.00     0.000 C 
ENDROOT
BRANCH   1   2
ATOM      2  C   UNL     1     -22.779   1.881  10.574  1.00  0.00     0.000 C 
BRANCH   2   3
ATOM      3  C   UNL     1     -21.849   0.874  11.268  1.00  0.00     0.006 C 
BRANCH   3   4
ATOM      4  C   UNL     1     -21.846   1.026  12.795  1.00  0.00     0.053 C 
BRANCH   4   5
ATOM      5  C   UNL     1     -21.444  -0.260  13.447  1.00  0.00     0.041 C 
ATOM      6  O   UNL     1     -21.371  -0.338  14.701  1.00  0.00    -0.550 OA
ATOM      7  O   UNL     1     -21.198  -1.385  12.670  1.00  0.00    -0.550 OA
ENDBRANCH   4   5
ENDBRANCH   3   4
ENDBRANCH   2   3
ENDBRANCH   1   2
BRANCH   1   8
ATOM      8  C   UNL     1     -21.398   1.117   8.598  1.00  0.00     0.000 C 
BRANCH   8   9
ATOM      9  C   UNL     1     -21.037   1.383   7.129  1.00  0.00    -0.000 C 
BRANCH   9  10
ATOM     10  C   UNL     1     -20.830   0.089   6.326  1.00  0.00    -0.000 C 
BRANCH  10  11
ATOM     11  C   UNL     1     -21.584  -1.107   6.926  1.00  0.00    -0.000 C 
BRANCH  11  12
ATOM     12  C   UNL     1     -20.605  -2.130   7.517  1.00  0.00    -0.003 C 
ATOM     13  C   UNL     1     -20.612  -2.082   9.043  1.00  0.00     0.004 C 
ENDBRANCH  11  12
ENDBRANCH  10  11
ENDBRANCH   9  10
ENDBRANCH   8   9
ENDBRANCH   1   8
TORSDOF 9
ENDMDL
MODEL 2
REMARK VINA RESULT:    -3.352      1.221      3.105
REMARK INTER + INTRA:          -5.567
REMARK INTER:                  -5.129
REMARK INTRA:                  -0.437
REMARK UNBOUND:                -0.451
REMARK SMILES CCCCCCCCCCC(=O)[O-]
REMARK SMILES IDX 7 1 8 2 9 3 10 4 11 5 12 6 13 7 6 8 5 9 4 10 3 11 2 12 1 13
REMARK H PARENT
REMARK Flexibility Score: inf
ROOT
ATOM      1  C   UNL     1     -20.317  -2.479   9.053  1.00  0.00     0.000 C 
ENDROOT
BRANCH   1   2
ATOM      2  C   UNL     1     -19.977  -2.248  10.533  1.00  0.00     0.000 C 
BRANCH   2   3
ATOM      3  C   UNL     1     -21.014  -1.367  11.247  1.00  0.00     0.006 C 
BRANCH   3   4
ATOM      4  C   UNL     1     -21.136  -1.690  12.741  1.00  0.00     0.053 C 
BRANCH   4   5
ATOM      5  C   UNL     1     -21.426  -0.447  13.523  1.00  0.00     0.041 C 
ATOM      6  O   UNL     1     -21.212  -0.414  14.763  1.00  0.00    -0.550 OA
ATOM      7  O   UNL     1     -21.885   0.691  12.873  1.00  0.00    -0.550 OA
ENDBRANCH   4   5
ENDBRANCH   3   4
ENDBRANCH   2   3
ENDBRANCH   1   2
BRANCH   1   8
ATOM      8  C   UNL     1     -21.061  -1.273   8.466  1.00  0.00     0.000 C 
BRANCH   8   9
ATOM      9  C   UNL     1     -21.058  -1.317   6.931  1.00  0.00    -0.000 C 
BRANCH   9  10
ATOM     10  C   UNL     1     -21.234   0.072   6.297  1.00  0.00    -0.000 C 
BRANCH  10  11
ATOM     11  C   UNL     1     -20.660   1.198   7.171  1.00  0.00    -0.000 C 
BRANCH  11  12
ATOM     12  C   UNL     1     -21.784   2.065   7.754  1.00  0.00    -0.003 C 
ATOM     13  C   UNL     1     -21.902   1.870   9.263  1.00  0.00     0.004 C 
ENDBRANCH  11  12
ENDBRANCH  10  11
ENDBRANCH   9  10
ENDBRANCH   8   9
ENDBRANCH   1   8
TORSDOF 9
ENDMDL
MODEL 3
REMARK VINA RESULT:    -3.196      2.648      4.333
REMARK INTER + INTRA:          -5.329
REMARK INTER:                  -5.237
REMARK INTRA:                  -0.092
REMARK UNBOUND:                -0.451
REMARK SMILES CCCCCCCCCCC(=O)[O-]
REMARK SMILES IDX 7 1 8 2 9 3 10 4 11 5 12 6 13 7 6 8 5 9 4 10 3 11 2 12 1 13
REMARK H PARENT
REMARK Flexibility Score: inf
ROOT
ATOM      1  C   UNL     1     -20.400  -0.705   6.349  1.00  0.00     0.000 C 
ENDROOT
BRANCH   1   2
ATOM      2  C   UNL     1     -21.453   0.407   6.232  1.00  0.00     0.000 C 
BRANCH   2   3
ATOM      3  C   UNL     1     -21.261   1.517   7.278  1.00  0.00     0.006 C 
BRANCH   3   4
ATOM      4  C   UNL     1     -21.392   1.003   8.717  1.00  0.00     0.053 C 
BRANCH   4   5
ATOM      5  C   UNL     1     -22.227   1.940   9.532  1.00  0.00     0.041 C 
ATOM      6  O   UNL     1     -22.602   1.611  10.688  1.00  0.00    -0.550 OA
ATOM      7  O   UNL     1     -22.548   3.196   9.034  1.00  0.00    -0.550 OA
ENDBRANCH   4   5
ENDBRANCH   3   4
ENDBRANCH   2   3
ENDBRANCH   1   2
BRANCH   1   8
ATOM      8  C   UNL     1     -20.996  -1.959   6.999  1.00  0.00     0.000 C 
BRANCH   8   9
ATOM      9  C   UNL     1     -20.658  -2.017   8.496  1.00  0.00    -0.000 C 
BRANCH   9  10
ATOM     10  C   UNL     1     -20.154  -3.400   8.937  1.00  0.00    -0.000 C 
BRANCH  10  11
ATOM     11  C   UNL     1     -19.901  -4.343   7.751  1.00  0.00    -0.000 C 
BRANCH  11  12
ATOM     12  C   UNL     1     -20.165  -5.802   8.145  1.00  0.00    -0.003 C 
ATOM     13  C   UNL     1     -21.592  -5.984   8.656  1.00  0.00     0.004 C 
ENDBRANCH  11  12
ENDBRANCH  10  11
ENDBRANCH   9  10
ENDBRANCH   8   9
ENDBRANCH   1   8
TORSDOF 9
ENDMDL
MODEL 4
REMARK VINA RESULT:    -3.191      2.444      5.109
REMARK INTER + INTRA:          -5.321
REMARK INTER:                  -5.138
REMARK INTRA:                  -0.183
REMARK UNBOUND:                -0.451
REMARK SMILES CCCCCCCCCCC(=O)[O-]
REMARK SMILES IDX 7 1 8 2 9 3 10 4 11 5 12 6 13 7 6 8 5 9 4 10 3 11 2 12 1 13
REMARK H PARENT
REMARK Flexibility Score: inf
ROOT
ATOM      1  C   UNL     1     -20.387   0.923   6.869  1.00  0.00     0.000 C 
ENDROOT
BRANCH   1   2
ATOM      2  C   UNL     1     -21.084  -0.305   6.264  1.00  0.00     0.000 C 
BRANCH   2   3
ATOM      3  C   UNL     1     -21.048  -1.525   7.198  1.00  0.00     0.006 C 
BRANCH   3   4
ATOM      4  C   UNL     1     -21.067  -1.136   8.681  1.00  0.00     0.053 C 
BRANCH   4   5
ATOM      5  C   UNL     1     -20.343  -2.158   9.499  1.00  0.00     0.041 C 
ATOM      6  O   UNL     1     -19.901  -3.206   8.958  1.00  0.00    -0.550 OA
ATOM      7  O   UNL     1     -20.112  -1.931  10.850  1.00  0.00    -0.550 OA
ENDBRANCH   4   5
ENDBRANCH   3   4
ENDBRANCH   2   3
ENDBRANCH   1   2
BRANCH   1   8
ATOM      8  C   UNL     1     -21.403   2.025   7.194  1.00  0.00     0.000 C 
BRANCH   8   9
ATOM      9  C   UNL     1     -21.860   1.937   8.658  1.00  0.00    -0.000 C 
BRANCH   9  10
ATOM     10  C   UNL     1     -22.525   3.233   9.150  1.00  0.00    -0.000 C 
BRANCH  10  11
ATOM     11  C   UNL     1     -22.378   4.390   8.150  1.00  0.00    -0.000 C 
BRANCH  11  12
ATOM     12  C   UNL     1     -22.198   5.726   8.882  1.00  0.00    -0.003 C 
ATOM     13  C   UNL     1     -20.780   5.869   9.426  1.00  0.00     0.004 C 
ENDBRANCH  11  12
ENDBRANCH  10  11
ENDBRANCH   9  10
ENDBRANCH   8   9
ENDBRANCH   1   8
TORSDOF 9
ENDMDL
MODEL 5
REMARK VINA RESULT:    -3.128      2.524      5.176
REMARK INTER + INTRA:          -5.224
REMARK INTER:                  -4.860
REMARK INTRA:                  -0.365
REMARK UNBOUND:                -0.451
REMARK SMILES CCCCCCCCCCC(=O)[O-]
REMARK SMILES IDX 7 1 8 2 9 3 10 4 11 5 12 6 13 7 6 8 5 9 4 10 3 11 2 12 1 13
REMARK H PARENT
REMARK Flexibility Score: inf
ROOT
ATOM      1  C   UNL     1     -21.016  -1.437   7.280  1.00  0.00     0.000 C 
ENDROOT
BRANCH   1   2
ATOM      2  C   UNL     1     -20.944  -0.170   6.413  1.00  0.00     0.000 C 
BRANCH   2   3
ATOM      3  C   UNL     1     -20.616   1.088   7.232  1.00  0.00     0.006 C 
BRANCH   3   4
ATOM      4  C   UNL     1     -21.696   2.170   7.111  1.00  0.00     0.053 C 
BRANCH   4   5
ATOM      5  C   UNL     1     -22.111   2.648   8.467  1.00  0.00     0.041 C 
ATOM      6  O   UNL     1     -22.147   1.847   9.438  1.00  0.00    -0.550 OA
ATOM      7  O   UNL     1     -22.409   3.990   8.670  1.00  0.00    -0.550 OA
ENDBRANCH   4   5
ENDBRANCH   3   4
ENDBRANCH   2   3
ENDBRANCH   1   2
BRANCH   1   8
ATOM      8  C   UNL     1     -21.011  -1.081   8.772  1.00  0.00     0.000 C 
BRANCH   8   9
ATOM      9  C   UNL     1     -20.693  -2.315   9.630  1.00  0.00    -0.000 C 
BRANCH   9  10
ATOM     10  C   UNL     1     -20.116  -1.947  11.007  1.00  0.00    -0.000 C 
BRANCH  10  11
ATOM     11  C   UNL     1     -21.182  -1.952  12.114  1.00  0.00    -0.000 C 
BRANCH  11  12
ATOM     12  C   UNL     1     -21.254  -0.586  12.809  1.00  0.00    -0.003 C 
ATOM     13  C   UNL     1     -21.893  -0.705  14.190  1.00  0.00     0.004 C 
ENDBRANCH  11  12
ENDBRANCH  10  11
ENDBRANCH   9  10
ENDBRANCH   8   9
ENDBRANCH   1   8
TORSDOF 9
ENDMDL
MODEL 6
REMARK VINA RESULT:    -3.053      1.638      4.405
REMARK INTER + INTRA:          -5.110
REMARK INTER:                  -4.858
REMARK INTRA:                  -0.252
REMARK UNBOUND:                -0.451
REMARK SMILES CCCCCCCCCCC(=O)[O-]
REMARK SMILES IDX 7 1 8 2 9 3 10 4 11 5 12 6 13 7 6 8 5 9 4 10 3 11 2 12 1 13
REMARK H PARENT
REMARK Flexibility Score: inf
ROOT
ATOM      1  C   UNL     1     -20.614   1.122   7.270  1.00  0.00     0.000 C 
ENDROOT
BRANCH   1   2
ATOM      2  C   UNL     1     -20.960  -0.043   6.330  1.00  0.00     0.000 C 
BRANCH   2   3
ATOM      3  C   UNL     1     -21.036  -1.392   7.063  1.00  0.00     0.006 C 
BRANCH   3   4
ATOM      4  C   UNL     1     -21.193  -1.233   8.580  1.00  0.00     0.053 C 
BRANCH   4   5
ATOM      5  C   UNL     1     -20.380  -2.262   9.300  1.00  0.00     0.041 C 
ATOM      6  O   UNL     1     -20.056  -2.086  10.504  1.00  0.00    -0.550 OA
ATOM      7  O   UNL     1     -20.021  -3.439   8.656  1.00  0.00    -0.550 OA
ENDBRANCH   4   5
ENDBRANCH   3   4
ENDBRANCH   2   3
ENDBRANCH   1   2
BRANCH   1   8
ATOM      8  C   UNL     1     -21.740   2.163   7.290  1.00  0.00     0.000 C 
BRANCH   8   9
ATOM      9  C   UNL     1     -22.118   2.537   8.731  1.00  0.00    -0.000 C 
BRANCH   9  10
ATOM     10  C   UNL     1     -21.656   1.489   9.756  1.00  0.00    -0.000 C 
BRANCH  10  11
ATOM     11  C   UNL     1     -22.554   1.446  11.002  1.00  0.00    -0.000 C 
BRANCH  11  12
ATOM     12  C   UNL     1     -21.714   1.506  12.285  1.00  0.00    -0.003 C 
ATOM     13  C   UNL     1     -21.801   0.195  13.062  1.00  0.00     0.004 C 
ENDBRANCH  11  12
ENDBRANCH  10  11
ENDBRANCH   9  10
ENDBRANCH   8   9
ENDBRANCH   1   8
TORSDOF 9
ENDMDL
MODEL 7
REMARK VINA RESULT:    -2.973      1.324      2.164
REMARK INTER + INTRA:          -4.989
REMARK INTER:                  -4.057
REMARK INTRA:                  -0.932
REMARK UNBOUND:                -0.451
REMARK SMILES CCCCCCCCCCC(=O)[O-]
REMARK SMILES IDX 7 1 8 2 9 3 10 4 11 5 12 6 13 7 6 8 5 9 4 10 3 11 2 12 1 13
REMARK H PARENT
REMARK Flexibility Score: inf
ROOT
ATOM      1  C   UNL     1     -21.030   1.840   7.521  1.00  0.00     0.000 C 
ENDROOT
BRANCH   1   2
ATOM      2  C   UNL     1     -22.142   1.624   8.558  1.00  0.00     0.000 C 
BRANCH   2   3
ATOM      3  C   UNL     1     -21.699   1.991   9.984  1.00  0.00     0.006 C 
BRANCH   3   4
ATOM      4  C   UNL     1     -22.527   1.280  11.062  1.00  0.00     0.053 C 
BRANCH   4   5
ATOM      5  C   UNL     1     -21.805   1.301  12.373  1.00  0.00     0.041 C 
ATOM      6  O   UNL     1     -21.175   2.330  12.733  1.00  0.00    -0.550 OA
ATOM      7  O   UNL     1     -21.869   0.201  13.219  1.00  0.00    -0.550 OA
ENDBRANCH   4   5
ENDBRANCH   3   4
ENDBRANCH   2   3
ENDBRANCH   1   2
BRANCH   1   8
ATOM      8  C   UNL     1     -20.861   0.602   6.632  1.00  0.00     0.000 C 
BRANCH   8   9
ATOM      9  C   UNL     1     -21.607  -0.605   7.221  1.00  0.00    -0.000 C 
BRANCH   9  10
ATOM     10  C   UNL     1     -20.803  -1.910   7.111  1.00  0.00    -0.000 C 
BRANCH  10  11
ATOM     11  C   UNL     1     -20.484  -2.526   8.482  1.00  0.00    -0.000 C 
BRANCH  11  12
ATOM     12  C   UNL     1     -20.670  -1.493   9.601  1.00  0.00    -0.003 C 
ATOM     13  C   UNL     1     -20.716  -2.168  10.970  1.00  0.00     0.004 C 
ENDBRANCH  11  12
ENDBRANCH  10  11
ENDBRANCH   9  10
ENDBRANCH   8   9
ENDBRANCH   1   8
TORSDOF 9
ENDMDL
MODEL 8
REMARK VINA RESULT:    -2.744      2.815      5.918
REMARK INTER + INTRA:          -4.638
REMARK INTER:                  -4.004
REMARK INTRA:                  -0.634
REMARK UNBOUND:                -0.451
REMARK SMILES CCCCCCCCCCC(=O)[O-]
REMARK SMILES IDX 7 1 8 2 9 3 10 4 11 5 12 6 13 7 6 8 5 9 4 10 3 11 2 12 1 13
REMARK H PARENT
REMARK Flexibility Score: inf
ROOT
ATOM      1  C   UNL     1     -20.845  -2.233   9.934  1.00  0.00     0.000 C 
ENDROOT
BRANCH   1   2
ATOM      2  C   UNL     1     -20.850  -1.019   8.993  1.00  0.00     0.000 C 
BRANCH   2   3
ATOM      3  C   UNL     1     -20.987  -1.417   7.515  1.00  0.00     0.006 C 
BRANCH   3   4
ATOM      4  C   UNL     1     -21.587  -0.299   6.653  1.00  0.00     0.053 C 
BRANCH   4   5
ATOM      5  C   UNL     1     -20.987   1.022   7.020  1.00  0.00     0.041 C 
ATOM      6  O   UNL     1     -19.810   1.302   6.671  1.00  0.00    -0.550 OA
ATOM      7  O   UNL     1     -21.745   1.964   7.705  1.00  0.00    -0.550 OA
ENDBRANCH   4   5
ENDBRANCH   3   4
ENDBRANCH   2   3
ENDBRANCH   1   2
BRANCH   1   8
ATOM      8  C   UNL     1     -20.226  -1.873  11.290  1.00  0.00     0.000 C 
BRANCH   8   9
ATOM      9  C   UNL     1     -21.269  -1.968  12.414  1.00  0.00    -0.000 C 
BRANCH   9  10
ATOM     10  C   UNL     1     -21.105  -0.863  13.470  1.00  0.00    -0.000 C 
BRANCH  10  11
ATOM     11  C   UNL     1     -22.162   0.244  13.335  1.00  0.00    -0.000 C 
BRANCH  11  12
ATOM     12  C   UNL     1     -21.615   1.425  12.523  1.00  0.00    -0.003 C 
ATOM     13  C   UNL     1     -22.164   1.415  11.099  1.00  0.00     0.004 C 
ENDBRANCH  11  12
ENDBRANCH  10  11
ENDBRANCH   9  10
ENDBRANCH   8   9
ENDBRANCH   1   8
TORSDOF 9
ENDMDL
MODEL 9
REMARK VINA RESULT:    -2.406      3.518      5.729
REMARK INTER + INTRA:          -4.124
REMARK INTER:                  -3.765
REMARK INTRA:                  -0.359
REMARK UNBOUND:                -0.451
REMARK SMILES CCCCCCCCCCC(=O)[O-]
REMARK SMILES IDX 7 1 8 2 9 3 10 4 11 5 12 6 13 7 6 8 5 9 4 10 3 11 2 12 1 13
REMARK H PARENT
REMARK Flexibility Score: inf
ROOT
ATOM      1  C   UNL     1     -20.970  -1.582   7.251  1.00  0.00     0.000 C 
ENDROOT
BRANCH   1   2
ATOM      2  C   UNL     1     -20.691  -1.678   8.758  1.00  0.00     0.000 C 
BRANCH   2   3
ATOM      3  C   UNL     1     -20.561  -3.130   9.244  1.00  0.00     0.006 C 
BRANCH   3   4
ATOM      4  C   UNL     1     -19.744  -4.004   8.284  1.00  0.00     0.053 C 
BRANCH   4   5
ATOM      5  C   UNL     1     -20.320  -5.383   8.214  1.00  0.00     0.041 C 
ATOM      6  O   UNL     1     -21.396  -5.652   8.810  1.00  0.00    -0.550 OA
ATOM      7  O   UNL     1     -19.695  -6.360   7.448  1.00  0.00    -0.550 OA
ENDBRANCH   4   5
ENDBRANCH   3   4
ENDBRANCH   2   3
ENDBRANCH   1   2
BRANCH   1   8
ATOM      8  C   UNL     1     -21.153  -0.122   6.819  1.00  0.00     0.000 C 
BRANCH   8   9
ATOM      9  C   UNL     1     -21.334   0.795   8.038  1.00  0.00    -0.000 C 
BRANCH   9  10
ATOM     10  C   UNL     1     -21.617   2.254   7.647  1.00  0.00    -0.000 C 
BRANCH  10  11
ATOM     11  C   UNL     1     -22.147   3.089   8.822  1.00  0.00    -0.000 C 
BRANCH  11  12
ATOM     12  C   UNL     1     -22.595   4.478   8.348  1.00  0.00    -0.003 C 
ATOM     13  C   UNL     1     -21.674   5.568   8.890  1.00  0.00     0.004 C 
ENDBRANCH  11  12
ENDBRANCH  10  11
ENDBRANCH   9  10
ENDBRANCH   8   9
ENDBRANCH   1   8
TORSDOF 9
ENDMDL
