MODEL 1
REMARK VINA RESULT:    -6.108      0.000      0.000
REMARK INTER + INTRA:          -7.711
REMARK INTER:                  -7.358
REMARK INTRA:                  -0.353
REMARK UNBOUND:                -0.353
REMARK SMILES Oc1cc(O)c2cc(O)c(-c3ccc(O)c(O)c3)[o+]c2c1
REMARK SMILES IDX 10 1 19 2 20 3 21 4 2 5 3 6 4 7 6 8 7 9 8 10 11 11 12 12
REMARK SMILES IDX 13 13 14 14 18 15 16 16 15 17 17 19 9 21 1 23 5 25
REMARK H PARENT 15 18 17 20 9 22 1 24 5 26
REMARK Flexibility Score: inf
ROOT
ATOM      1  C   UNL     1     137.125 142.878 123.425  1.00  0.00     0.402 A 
ATOM      2  O   UNL     1     137.760 142.836 122.258  1.00  0.00    -0.202 OA
ATOM      3  C   UNL     1     139.036 142.486 122.133  1.00  0.00     0.368 A 
ATOM      4  C   UNL     1     139.617 142.474 120.863  1.00  0.00     0.162 A 
ATOM      5  C   UNL     1     140.959 142.113 120.704  1.00  0.00     0.128 A 
ATOM      6  C   UNL     1     141.721 141.763 121.820  1.00  0.00     0.093 A 
ATOM      7  C   UNL     1     141.163 141.768 123.104  1.00  0.00     0.136 A 
ATOM      8  C   UNL     1     139.800 142.130 123.271  1.00  0.00     0.125 A 
ATOM      9  C   UNL     1     139.153 142.150 124.517  1.00  0.00     0.078 A 
ATOM     10  C   UNL     1     137.806 142.514 124.601  1.00  0.00     0.223 A 
ENDROOT
BRANCH   1  11
ATOM     11  C   UNL     1     135.703 143.294 123.434  1.00  0.00     0.087 A 
ATOM     12  C   UNL     1     135.335 144.640 123.587  1.00  0.00     0.022 A 
ATOM     13  C   UNL     1     133.989 145.010 123.569  1.00  0.00     0.051 A 
ATOM     14  C   UNL     1     132.987 144.051 123.386  1.00  0.00     0.157 A 
ATOM     15  C   UNL     1     134.701 142.333 123.228  1.00  0.00     0.068 A 
ATOM     16  C   UNL     1     133.348 142.694 123.208  1.00  0.00     0.158 A 
BRANCH  14  17
ATOM     17  O   UNL     1     131.660 144.487 123.382  1.00  0.00    -0.504 OA
ATOM     18  H   UNL     1     131.299 145.191 122.756  1.00  0.00     0.293 HD
ENDBRANCH  14  17
BRANCH  16  19
ATOM     19  O   UNL     1     132.405 141.683 123.011  1.00  0.00    -0.504 OA
ATOM     20  H   UNL     1     131.623 141.756 122.377  1.00  0.00     0.293 HD
ENDBRANCH  16  19
ENDBRANCH   1  11
BRANCH  10  21
ATOM     21  O   UNL     1     137.150 142.486 125.832  1.00  0.00    -0.500 OA
ATOM     22  H   UNL     1     136.142 142.399 125.897  1.00  0.00     0.294 HD
ENDBRANCH  10  21
BRANCH   5  23
ATOM     23  O   UNL     1     141.545 142.099 119.440  1.00  0.00    -0.507 OA
ATOM     24  H   UNL     1     142.519 142.347 119.305  1.00  0.00     0.293 HD
ENDBRANCH   5  23
BRANCH   7  25
ATOM     25  O   UNL     1     141.993 141.408 124.169  1.00  0.00    -0.507 OA
ATOM     26  H   UNL     1     142.913 141.003 124.066  1.00  0.00     0.293 HD
ENDBRANCH   7  25
TORSDOF 6
ENDMDL
MODEL 2
REMARK VINA RESULT:    -6.022      7.781     10.493
REMARK INTER + INTRA:          -7.607
REMARK INTER:                  -7.258
REMARK INTRA:                  -0.349
REMARK UNBOUND:                -0.353
REMARK SMILES Oc1cc(O)c2cc(O)c(-c3ccc(O)c(O)c3)[o+]c2c1
REMARK SMILES IDX 10 1 19 2 20 3 21 4 2 5 3 6 4 7 6 8 7 9 8 10 11 11 12 12
REMARK SMILES IDX 13 13 14 14 18 15 16 16 15 17 17 19 9 21 1 23 5 25
REMARK H PARENT 15 18 17 20 9 22 1 24 5 26
REMARK Flexibility Score: inf
ROOT
ATOM      1  C   UNL     1     131.991 136.992 126.765  1.00  0.00     0.402 A 
ATOM      2  O   UNL     1     132.038 135.813 126.152  1.00  0.00    -0.202 OA
ATOM      3  C   UNL     1     131.473 134.713 126.640  1.00  0.00     0.368 A 
ATOM      4  C   UNL     1     131.578 133.519 125.923  1.00  0.00     0.162 A 
ATOM      5  C   UNL     1     130.996 132.347 126.415  1.00  0.00     0.128 A 
ATOM      6  C   UNL     1     130.305 132.371 127.629  1.00  0.00     0.093 A 
ATOM      7  C   UNL     1     130.186 133.555 128.366  1.00  0.00     0.136 A 
ATOM      8  C   UNL     1     130.773 134.748 127.870  1.00  0.00     0.125 A 
ATOM      9  C   UNL     1     130.692 135.983 128.534  1.00  0.00     0.078 A 
ATOM     10  C   UNL     1     131.292 137.117 127.979  1.00  0.00     0.223 A 
ENDROOT
BRANCH   1  11
ATOM     11  C   UNL     1     132.670 138.142 126.123  1.00  0.00     0.087 A 
ATOM     12  C   UNL     1     133.965 138.531 126.501  1.00  0.00     0.022 A 
ATOM     13  C   UNL     1     134.593 139.604 125.865  1.00  0.00     0.051 A 
ATOM     14  C   UNL     1     133.950 140.300 124.836  1.00  0.00     0.157 A 
ATOM     15  C   UNL     1     132.032 138.825 125.076  1.00  0.00     0.068 A 
ATOM     16  C   UNL     1     132.653 139.902 124.433  1.00  0.00     0.158 A 
BRANCH  14  17
ATOM     17  O   UNL     1     134.631 141.366 124.245  1.00  0.00    -0.504 OA
ATOM     18  H   UNL     1     134.182 142.204 123.905  1.00  0.00     0.293 HD
ENDBRANCH  14  17
BRANCH  16  19
ATOM     19  O   UNL     1     131.953 140.542 123.408  1.00  0.00    -0.504 OA
ATOM     20  H   UNL     1     131.388 140.061 122.723  1.00  0.00     0.293 HD
ENDBRANCH  16  19
ENDBRANCH   1  11
BRANCH  10  21
ATOM     21  O   UNL     1     131.170 138.354 128.613  1.00  0.00    -0.500 OA
ATOM     22  H   UNL     1     131.696 138.578 129.450  1.00  0.00     0.294 HD
ENDBRANCH  10  21
BRANCH   5  23
ATOM     23  O   UNL     1     131.097 131.152 125.707  1.00  0.00    -0.507 OA
ATOM     24  H   UNL     1     130.287 130.723 125.273  1.00  0.00     0.293 HD
ENDBRANCH   5  23
BRANCH   7  25
ATOM     25  O   UNL     1     129.482 133.494 129.572  1.00  0.00    -0.507 OA
ATOM     26  H   UNL     1     129.434 134.246 130.244  1.00  0.00     0.293 HD
ENDBRANCH   7  25
TORSDOF 6
ENDMDL
MODEL 3
REMARK VINA RESULT:    -5.995      8.540     10.559
REMARK INTER + INTRA:          -7.575
REMARK INTER:                  -7.244
REMARK INTRA:                  -0.331
REMARK UNBOUND:                -0.353
REMARK SMILES Oc1cc(O)c2cc(O)c(-c3ccc(O)c(O)c3)[o+]c2c1
REMARK SMILES IDX 10 1 19 2 20 3 21 4 2 5 3 6 4 7 6 8 7 9 8 10 11 11 12 12
REMARK SMILES IDX 13 13 14 14 18 15 16 16 15 17 17 19 9 21 1 23 5 25
REMARK H PARENT 15 18 17 20 9 22 1 24 5 26
REMARK Flexibility Score: inf
ROOT
ATOM      1  C   UNL     1     131.238 137.168 126.725  1.00  0.00     0.402 A 
ATOM      2  O   UNL     1     130.802 136.079 127.353  1.00  0.00    -0.202 OA
ATOM      3  C   UNL     1     131.111 134.844 126.972  1.00  0.00     0.368 A 
ATOM      4  C   UNL     1     130.602 133.762 127.694  1.00  0.00     0.162 A 
ATOM      5  C   UNL     1     130.908 132.452 127.313  1.00  0.00     0.128 A 
ATOM      6  C   UNL     1     131.728 132.224 126.206  1.00  0.00     0.093 A 
ATOM      7  C   UNL     1     132.251 133.291 125.465  1.00  0.00     0.136 A 
ATOM      8  C   UNL     1     131.945 134.623 125.849  1.00  0.00     0.125 A 
ATOM      9  C   UNL     1     132.434 135.753 125.174  1.00  0.00     0.078 A 
ATOM     10  C   UNL     1     132.093 137.034 125.615  1.00  0.00     0.223 A 
ENDROOT
BRANCH   1  11
ATOM     11  C   UNL     1     130.816 138.490 127.241  1.00  0.00     0.087 A 
ATOM     12  C   UNL     1     129.787 139.221 126.625  1.00  0.00     0.022 A 
ATOM     13  C   UNL     1     129.390 140.455 127.144  1.00  0.00     0.051 A 
ATOM     14  C   UNL     1     129.999 140.977 128.290  1.00  0.00     0.157 A 
ATOM     15  C   UNL     1     131.412 139.001 128.404  1.00  0.00     0.068 A 
ATOM     16  C   UNL     1     131.021 140.238 128.931  1.00  0.00     0.158 A 
BRANCH  14  17
ATOM     17  O   UNL     1     129.559 142.218 128.755  1.00  0.00    -0.504 OA
ATOM     18  H   UNL     1     130.106 142.825 129.347  1.00  0.00     0.293 HD
ENDBRANCH  14  17
BRANCH  16  19
ATOM     19  O   UNL     1     131.668 140.690 130.084  1.00  0.00    -0.504 OA
ATOM     20  H   UNL     1     131.869 140.108 130.884  1.00  0.00     0.293 HD
ENDBRANCH  16  19
ENDBRANCH   1  11
BRANCH  10  21
ATOM     21  O   UNL     1     132.619 138.157 124.976  1.00  0.00    -0.500 OA
ATOM     22  H   UNL     1     133.611 138.367 124.996  1.00  0.00     0.294 HD
ENDBRANCH  10  21
BRANCH   5  23
ATOM     23  O   UNL     1     130.404 131.368 128.029  1.00  0.00    -0.507 OA
ATOM     24  H   UNL     1     129.995 131.485 128.949  1.00  0.00     0.293 HD
ENDBRANCH   5  23
BRANCH   7  25
ATOM     25  O   UNL     1     133.059 132.978 124.369  1.00  0.00    -0.507 OA
ATOM     26  H   UNL     1     133.270 133.616 123.614  1.00  0.00     0.293 HD
ENDBRANCH   7  25
TORSDOF 6
ENDMDL
MODEL 4
REMARK VINA RESULT:    -5.962      9.184     11.868
REMARK INTER + INTRA:          -7.535
REMARK INTER:                  -7.428
REMARK INTRA:                  -0.107
REMARK UNBOUND:                -0.353
REMARK SMILES Oc1cc(O)c2cc(O)c(-c3ccc(O)c(O)c3)[o+]c2c1
REMARK SMILES IDX 10 1 19 2 20 3 21 4 2 5 3 6 4 7 6 8 7 9 8 10 11 11 12 12
REMARK SMILES IDX 13 13 14 14 18 15 16 16 15 17 17 19 9 21 1 23 5 25
REMARK H PARENT 15 18 17 20 9 22 1 24 5 26
REMARK Flexibility Score: inf
ROOT
ATOM      1  C   UNL     1     132.809 134.111 126.089  1.00  0.00     0.402 A 
ATOM      2  O   UNL     1     133.130 134.839 127.155  1.00  0.00    -0.202 OA
ATOM      3  C   UNL     1     132.714 136.089 127.337  1.00  0.00     0.368 A 
ATOM      4  C   UNL     1     133.107 136.775 128.489  1.00  0.00     0.162 A 
ATOM      5  C   UNL     1     132.687 138.091 128.704  1.00  0.00     0.128 A 
ATOM      6  C   UNL     1     131.870 138.722 127.764  1.00  0.00     0.093 A 
ATOM      7  C   UNL     1     131.462 138.057 126.602  1.00  0.00     0.136 A 
ATOM      8  C   UNL     1     131.884 136.720 126.380  1.00  0.00     0.125 A 
ATOM      9  C   UNL     1     131.514 135.971 125.251  1.00  0.00     0.078 A 
ATOM     10  C   UNL     1     131.966 134.656 125.103  1.00  0.00     0.223 A 
ENDROOT
BRANCH   1  11
ATOM     11  C   UNL     1     133.343 132.733 125.996  1.00  0.00     0.087 A 
ATOM     12  C   UNL     1     133.073 131.775 126.986  1.00  0.00     0.022 A 
ATOM     13  C   UNL     1     133.568 130.476 126.864  1.00  0.00     0.051 A 
ATOM     14  C   UNL     1     134.330 130.103 125.752  1.00  0.00     0.157 A 
ATOM     15  C   UNL     1     134.088 132.355 124.868  1.00  0.00     0.068 A 
ATOM     16  C   UNL     1     134.590 131.055 124.737  1.00  0.00     0.158 A 
BRANCH  14  17
ATOM     17  O   UNL     1     134.800 128.789 125.693  1.00  0.00    -0.504 OA
ATOM     18  H   UNL     1     135.714 128.502 126.012  1.00  0.00     0.293 HD
ENDBRANCH  14  17
BRANCH  16  19
ATOM     19  O   UNL     1     135.334 130.754 123.594  1.00  0.00    -0.504 OA
ATOM     20  H   UNL     1     135.277 129.877 123.098  1.00  0.00     0.293 HD
ENDBRANCH  16  19
ENDBRANCH   1  11
BRANCH  10  21
ATOM     21  O   UNL     1     131.558 133.895 124.007  1.00  0.00    -0.500 OA
ATOM     22  H   UNL     1     131.781 134.167 123.056  1.00  0.00     0.294 HD
ENDBRANCH  10  21
BRANCH   5  23
ATOM     23  O   UNL     1     133.074 138.781 129.850  1.00  0.00    -0.507 OA
ATOM     24  H   UNL     1     133.170 138.313 130.745  1.00  0.00     0.293 HD
ENDBRANCH   5  23
BRANCH   7  25
ATOM     25  O   UNL     1     130.648 138.759 125.709  1.00  0.00    -0.507 OA
ATOM     26  H   UNL     1     130.448 138.464 124.764  1.00  0.00     0.293 HD
ENDBRANCH   7  25
TORSDOF 6
ENDMDL
MODEL 5
REMARK VINA RESULT:    -5.944      9.188     11.507
REMARK INTER + INTRA:          -7.514
REMARK INTER:                  -7.211
REMARK INTRA:                  -0.303
REMARK UNBOUND:                -0.353
REMARK SMILES Oc1cc(O)c2cc(O)c(-c3ccc(O)c(O)c3)[o+]c2c1
REMARK SMILES IDX 10 1 19 2 20 3 21 4 2 5 3 6 4 7 6 8 7 9 8 10 11 11 12 12
REMARK SMILES IDX 13 13 14 14 18 15 16 16 15 17 17 19 9 21 1 23 5 25
REMARK H PARENT 15 18 17 20 9 22 1 24 5 26
REMARK Flexibility Score: inf
ROOT
ATOM      1  C   UNL     1     133.817 134.050 126.664  1.00  0.00     0.402 A 
ATOM      2  O   UNL     1     132.808 134.649 126.040  1.00  0.00    -0.202 OA
ATOM      3  C   UNL     1     132.515 135.937 126.194  1.00  0.00     0.368 A 
ATOM      4  C   UNL     1     131.432 136.477 125.497  1.00  0.00     0.162 A 
ATOM      5  C   UNL     1     131.101 137.828 125.644  1.00  0.00     0.128 A 
ATOM      6  C   UNL     1     131.857 138.640 126.491  1.00  0.00     0.093 A 
ATOM      7  C   UNL     1     132.947 138.124 127.201  1.00  0.00     0.136 A 
ATOM      8  C   UNL     1     133.289 136.754 127.054  1.00  0.00     0.125 A 
ATOM      9  C   UNL     1     134.372 136.153 127.715  1.00  0.00     0.078 A 
ATOM     10  C   UNL     1     134.650 134.797 127.516  1.00  0.00     0.223 A 
ENDROOT
BRANCH   1  11
ATOM     11  C   UNL     1     134.034 132.606 126.416  1.00  0.00     0.087 A 
ATOM     12  C   UNL     1     133.712 131.640 127.384  1.00  0.00     0.022 A 
ATOM     13  C   UNL     1     133.904 130.284 127.118  1.00  0.00     0.051 A 
ATOM     14  C   UNL     1     134.407 129.861 125.883  1.00  0.00     0.157 A 
ATOM     15  C   UNL     1     134.517 132.183 125.168  1.00  0.00     0.068 A 
ATOM     16  C   UNL     1     134.714 130.825 124.892  1.00  0.00     0.158 A 
BRANCH  14  17
ATOM     17  O   UNL     1     134.580 128.490 125.682  1.00  0.00    -0.504 OA
ATOM     18  H   UNL     1     134.378 127.789 126.379  1.00  0.00     0.293 HD
ENDBRANCH  14  17
BRANCH  16  19
ATOM     19  O   UNL     1     135.210 130.479 123.633  1.00  0.00    -0.504 OA
ATOM     20  H   UNL     1     135.476 131.150 122.927  1.00  0.00     0.293 HD
ENDBRANCH  16  19
ENDBRANCH   1  11
BRANCH  10  21
ATOM     21  O   UNL     1     135.756 134.212 128.134  1.00  0.00    -0.500 OA
ATOM     22  H   UNL     1     136.551 133.879 127.600  1.00  0.00     0.294 HD
ENDBRANCH  10  21
BRANCH   5  23
ATOM     23  O   UNL     1     130.022 138.373 124.951  1.00  0.00    -0.507 OA
ATOM     24  H   UNL     1     130.121 138.720 124.003  1.00  0.00     0.293 HD
ENDBRANCH   5  23
BRANCH   7  25
ATOM     25  O   UNL     1     133.650 139.001 128.030  1.00  0.00    -0.507 OA
ATOM     26  H   UNL     1     133.904 138.803 128.988  1.00  0.00     0.293 HD
ENDBRANCH   7  25
TORSDOF 6
ENDMDL
MODEL 6
REMARK VINA RESULT:    -5.912      8.105      9.542
REMARK INTER + INTRA:          -7.475
REMARK INTER:                  -7.125
REMARK INTRA:                  -0.349
REMARK UNBOUND:                -0.353
REMARK SMILES Oc1cc(O)c2cc(O)c(-c3ccc(O)c(O)c3)[o+]c2c1
REMARK SMILES IDX 10 1 19 2 20 3 21 4 2 5 3 6 4 7 6 8 7 9 8 10 11 11 12 12
REMARK SMILES IDX 13 13 14 14 18 15 16 16 15 17 17 19 9 21 1 23 5 25
REMARK H PARENT 15 18 17 20 9 22 1 24 5 26
REMARK Flexibility Score: inf
ROOT
ATOM      1  C   UNL     1     133.201 135.913 126.282  1.00  0.00     0.402 A 
ATOM      2  O   UNL     1     133.284 134.947 125.373  1.00  0.00    -0.202 OA
ATOM      3  C   UNL     1     133.715 133.720 125.648  1.00  0.00     0.368 A 
ATOM      4  C   UNL     1     133.770 132.771 124.624  1.00  0.00     0.162 A 
ATOM      5  C   UNL     1     134.222 131.475 124.886  1.00  0.00     0.128 A 
ATOM      6  C   UNL     1     134.620 131.126 126.178  1.00  0.00     0.093 A 
ATOM      7  C   UNL     1     134.575 132.057 127.222  1.00  0.00     0.136 A 
ATOM      8  C   UNL     1     134.114 133.374 126.962  1.00  0.00     0.125 A 
ATOM      9  C   UNL     1     134.023 134.369 127.949  1.00  0.00     0.078 A 
ATOM     10  C   UNL     1     133.554 135.644 127.617  1.00  0.00     0.223 A 
ENDROOT
BRANCH   1  11
ATOM     11  C   UNL     1     132.714 137.243 125.848  1.00  0.00     0.087 A 
ATOM     12  C   UNL     1     131.350 137.572 125.889  1.00  0.00     0.022 A 
ATOM     13  C   UNL     1     130.917 138.840 125.497  1.00  0.00     0.051 A 
ATOM     14  C   UNL     1     131.834 139.807 125.069  1.00  0.00     0.157 A 
ATOM     15  C   UNL     1     133.637 138.218 125.441  1.00  0.00     0.068 A 
ATOM     16  C   UNL     1     133.214 139.493 125.045  1.00  0.00     0.158 A 
BRANCH  14  17
ATOM     17  O   UNL     1     131.336 141.054 124.686  1.00  0.00    -0.504 OA
ATOM     18  H   UNL     1     131.787 141.931 124.900  1.00  0.00     0.293 HD
ENDBRANCH  14  17
BRANCH  16  19
ATOM     19  O   UNL     1     134.187 140.408 124.640  1.00  0.00    -0.504 OA
ATOM     20  H   UNL     1     134.667 140.367 123.752  1.00  0.00     0.293 HD
ENDBRANCH  16  19
ENDBRANCH   1  11
BRANCH  10  21
ATOM     21  O   UNL     1     133.416 136.618 128.607  1.00  0.00    -0.500 OA
ATOM     22  H   UNL     1     132.601 137.218 128.653  1.00  0.00     0.294 HD
ENDBRANCH  10  21
BRANCH   5  23
ATOM     23  O   UNL     1     134.279 130.524 123.870  1.00  0.00    -0.507 OA
ATOM     24  H   UNL     1     133.808 129.629 123.953  1.00  0.00     0.293 HD
ENDBRANCH   5  23
BRANCH   7  25
ATOM     25  O   UNL     1     134.994 131.630 128.485  1.00  0.00    -0.507 OA
ATOM     26  H   UNL     1     135.878 131.875 128.907  1.00  0.00     0.293 HD
ENDBRANCH   7  25
TORSDOF 6
ENDMDL
MODEL 7
REMARK VINA RESULT:    -5.907      9.657     12.417
REMARK INTER + INTRA:          -7.468
REMARK INTER:                  -7.121
REMARK INTRA:                  -0.347
REMARK UNBOUND:                -0.353
REMARK SMILES Oc1cc(O)c2cc(O)c(-c3ccc(O)c(O)c3)[o+]c2c1
REMARK SMILES IDX 10 1 19 2 20 3 21 4 2 5 3 6 4 7 6 8 7 9 8 10 11 11 12 12
REMARK SMILES IDX 13 13 14 14 18 15 16 16 15 17 17 19 9 21 1 23 5 25
REMARK H PARENT 15 18 17 20 9 22 1 24 5 26
REMARK Flexibility Score: inf
ROOT
ATOM      1  C   UNL     1     131.741 134.672 126.812  1.00  0.00     0.402 A 
ATOM      2  O   UNL     1     131.424 134.577 128.100  1.00  0.00    -0.202 OA
ATOM      3  C   UNL     1     130.874 133.492 128.638  1.00  0.00     0.368 A 
ATOM      4  C   UNL     1     130.573 133.487 130.002  1.00  0.00     0.162 A 
ATOM      5  C   UNL     1     129.992 132.361 130.592  1.00  0.00     0.128 A 
ATOM      6  C   UNL     1     129.713 131.235 129.815  1.00  0.00     0.093 A 
ATOM      7  C   UNL     1     130.004 131.215 128.446  1.00  0.00     0.136 A 
ATOM      8  C   UNL     1     130.597 132.354 127.842  1.00  0.00     0.125 A 
ATOM      9  C   UNL     1     130.936 132.419 126.481  1.00  0.00     0.078 A 
ATOM     10  C   UNL     1     131.521 133.576 125.959  1.00  0.00     0.223 A 
ENDROOT
BRANCH   1  11
ATOM     11  C   UNL     1     132.340 135.939 126.330  1.00  0.00     0.087 A 
ATOM     12  C   UNL     1     133.726 136.156 126.374  1.00  0.00     0.022 A 
ATOM     13  C   UNL     1     134.269 137.348 125.893  1.00  0.00     0.051 A 
ATOM     14  C   UNL     1     133.445 138.340 125.348  1.00  0.00     0.157 A 
ATOM     15  C   UNL     1     131.514 136.922 125.764  1.00  0.00     0.068 A 
ATOM     16  C   UNL     1     132.049 138.122 125.279  1.00  0.00     0.158 A 
BRANCH  14  17
ATOM     17  O   UNL     1     134.051 139.511 124.888  1.00  0.00    -0.504 OA
ATOM     18  H   UNL     1     133.994 139.839 123.935  1.00  0.00     0.293 HD
ENDBRANCH  14  17
BRANCH  16  19
ATOM     19  O   UNL     1     131.165 139.060 124.740  1.00  0.00    -0.504 OA
ATOM     20  H   UNL     1     130.746 138.981 123.825  1.00  0.00     0.293 HD
ENDBRANCH  16  19
ENDBRANCH   1  11
BRANCH  10  21
ATOM     21  O   UNL     1     131.904 133.621 124.617  1.00  0.00    -0.500 OA
ATOM     22  H   UNL     1     132.253 134.472 124.191  1.00  0.00     0.294 HD
ENDBRANCH  10  21
BRANCH   5  23
ATOM     23  O   UNL     1     129.689 132.349 131.952  1.00  0.00    -0.507 OA
ATOM     24  H   UNL     1     129.879 133.151 132.545  1.00  0.00     0.293 HD
ENDBRANCH   5  23
BRANCH   7  25
ATOM     25  O   UNL     1     129.691 130.051 127.738  1.00  0.00    -0.507 OA
ATOM     26  H   UNL     1     129.114 129.303 128.096  1.00  0.00     0.293 HD
ENDBRANCH   7  25
TORSDOF 6
ENDMDL
MODEL 8
REMARK VINA RESULT:    -5.810     10.342     11.808
REMARK INTER + INTRA:          -7.352
REMARK INTER:                  -7.009
REMARK INTRA:                  -0.344
REMARK UNBOUND:                -0.353
REMARK SMILES Oc1cc(O)c2cc(O)c(-c3ccc(O)c(O)c3)[o+]c2c1
REMARK SMILES IDX 10 1 19 2 20 3 21 4 2 5 3 6 4 7 6 8 7 9 8 10 11 11 12 12
REMARK SMILES IDX 13 13 14 14 18 15 16 16 15 17 17 19 9 21 1 23 5 25
REMARK H PARENT 15 18 17 20 9 22 1 24 5 26
REMARK Flexibility Score: inf
ROOT
ATOM      1  C   UNL     1     134.103 134.099 128.607  1.00  0.00     0.402 A 
ATOM      2  O   UNL     1     135.279 134.561 129.022  1.00  0.00    -0.202 OA
ATOM      3  C   UNL     1     135.405 135.557 129.894  1.00  0.00     0.368 A 
ATOM      4  C   UNL     1     136.684 135.975 130.269  1.00  0.00     0.162 A 
ATOM      5  C   UNL     1     136.845 137.022 131.181  1.00  0.00     0.128 A 
ATOM      6  C   UNL     1     135.722 137.652 131.721  1.00  0.00     0.093 A 
ATOM      7  C   UNL     1     134.430 137.252 131.362  1.00  0.00     0.136 A 
ATOM      8  C   UNL     1     134.260 136.188 130.438  1.00  0.00     0.125 A 
ATOM      9  C   UNL     1     133.004 135.711 130.030  1.00  0.00     0.078 A 
ATOM     10  C   UNL     1     132.917 134.655 129.119  1.00  0.00     0.223 A 
ENDROOT
BRANCH   1  11
ATOM     11  C   UNL     1     134.095 132.990 127.624  1.00  0.00     0.087 A 
ATOM     12  C   UNL     1     134.158 131.649 128.033  1.00  0.00     0.022 A 
ATOM     13  C   UNL     1     134.124 130.621 127.090  1.00  0.00     0.051 A 
ATOM     14  C   UNL     1     134.015 130.907 125.725  1.00  0.00     0.157 A 
ATOM     15  C   UNL     1     133.962 133.279 126.257  1.00  0.00     0.068 A 
ATOM     16  C   UNL     1     133.928 132.255 125.303  1.00  0.00     0.158 A 
BRANCH  14  17
ATOM     17  O   UNL     1     133.991 129.833 124.833  1.00  0.00    -0.504 OA
ATOM     18  H   UNL     1     134.384 128.925 125.033  1.00  0.00     0.293 HD
ENDBRANCH  14  17
BRANCH  16  19
ATOM     19  O   UNL     1     133.808 132.618 123.960  1.00  0.00    -0.504 OA
ATOM     20  H   UNL     1     133.803 133.572 123.630  1.00  0.00     0.293 HD
ENDBRANCH  16  19
ENDBRANCH   1  11
BRANCH  10  21
ATOM     21  O   UNL     1     131.670 134.148 128.752  1.00  0.00    -0.500 OA
ATOM     22  H   UNL     1     131.076 134.625 128.083  1.00  0.00     0.294 HD
ENDBRANCH  10  21
BRANCH   5  23
ATOM     23  O   UNL     1     138.117 137.444 131.560  1.00  0.00    -0.507 OA
ATOM     24  H   UNL     1     138.390 137.497 132.535  1.00  0.00     0.293 HD
ENDBRANCH   5  23
BRANCH   7  25
ATOM     25  O   UNL     1     133.359 137.936 131.944  1.00  0.00    -0.507 OA
ATOM     26  H   UNL     1     132.775 138.602 131.460  1.00  0.00     0.293 HD
ENDBRANCH   7  25
TORSDOF 6
ENDMDL
MODEL 9
REMARK VINA RESULT:    -5.657      6.513      9.670
REMARK INTER + INTRA:          -7.168
REMARK INTER:                  -6.881
REMARK INTRA:                  -0.287
REMARK UNBOUND:                -0.353
REMARK SMILES Oc1cc(O)c2cc(O)c(-c3ccc(O)c(O)c3)[o+]c2c1
REMARK SMILES IDX 10 1 19 2 20 3 21 4 2 5 3 6 4 7 6 8 7 9 8 10 11 11 12 12
REMARK SMILES IDX 13 13 14 14 18 15 16 16 15 17 17 19 9 21 1 23 5 25
REMARK H PARENT 15 18 17 20 9 22 1 24 5 26
REMARK Flexibility Score: inf
ROOT
ATOM      1  C   UNL     1     132.242 137.611 126.455  1.00  0.00     0.402 A 
ATOM      2  O   UNL     1     132.562 138.491 125.510  1.00  0.00    -0.202 OA
ATOM      3  C   UNL     1     132.017 139.700 125.423  1.00  0.00     0.368 A 
ATOM      4  C   UNL     1     132.416 140.554 124.392  1.00  0.00     0.162 A 
ATOM      5  C   UNL     1     131.856 141.829 124.275  1.00  0.00     0.128 A 
ATOM      6  C   UNL     1     130.894 142.252 125.194  1.00  0.00     0.093 A 
ATOM      7  C   UNL     1     130.476 141.416 126.236  1.00  0.00     0.136 A 
ATOM      8  C   UNL     1     131.043 140.121 126.361  1.00  0.00     0.125 A 
ATOM      9  C   UNL     1     130.695 139.220 127.380  1.00  0.00     0.078 A 
ATOM     10  C   UNL     1     131.301 137.962 127.440  1.00  0.00     0.223 A 
ENDROOT
BRANCH   1  11
ATOM     11  C   UNL     1     132.913 136.291 126.439  1.00  0.00     0.087 A 
ATOM     12  C   UNL     1     133.927 135.975 127.357  1.00  0.00     0.022 A 
ATOM     13  C   UNL     1     134.529 134.716 127.338  1.00  0.00     0.051 A 
ATOM     14  C   UNL     1     134.125 133.745 126.415  1.00  0.00     0.157 A 
ATOM     15  C   UNL     1     132.491 135.311 125.528  1.00  0.00     0.068 A 
ATOM     16  C   UNL     1     133.088 134.045 125.500  1.00  0.00     0.158 A 
BRANCH  14  17
ATOM     17  O   UNL     1     134.770 132.507 126.446  1.00  0.00    -0.504 OA
ATOM     18  H   UNL     1     134.602 131.766 125.781  1.00  0.00     0.293 HD
ENDBRANCH  14  17
BRANCH  16  19
ATOM     19  O   UNL     1     132.625 133.125 124.557  1.00  0.00    -0.504 OA
ATOM     20  H   UNL     1     132.804 133.193 123.566  1.00  0.00     0.293 HD
ENDBRANCH  16  19
ENDBRANCH   1  11
BRANCH  10  21
ATOM     21  O   UNL     1     130.993 137.086 128.482  1.00  0.00    -0.500 OA
ATOM     22  H   UNL     1     131.520 136.234 128.637  1.00  0.00     0.294 HD
ENDBRANCH  10  21
BRANCH   5  23
ATOM     23  O   UNL     1     132.250 142.686 123.250  1.00  0.00    -0.507 OA
ATOM     24  H   UNL     1     133.229 142.858 123.049  1.00  0.00     0.293 HD
ENDBRANCH   5  23
BRANCH   7  25
ATOM     25  O   UNL     1     129.506 141.913 127.111  1.00  0.00    -0.507 OA
ATOM     26  H   UNL     1     129.700 142.270 128.036  1.00  0.00     0.293 HD
ENDBRANCH   7  25
TORSDOF 6
ENDMDL
