MODEL 1
REMARK VINA RESULT:    -4.739      0.000      0.000
REMARK INTER + INTRA:          -5.110
REMARK INTER:                  -5.016
REMARK INTRA:                  -0.094
REMARK UNBOUND:                -0.094
REMARK SMILES C=C(C)[C@H]1CC=C(C)C(=O)C1
REMARK SMILES IDX 8 1 7 2 6 3 5 4 4 5 11 6 9 7 10 8 2 9 1 10 3 11
REMARK H PARENT
REMARK Flexibility Score: inf
ROOT
ATOM      1  C   UNL     1      31.131   4.755 106.722  1.00  0.00     0.048 C 
ATOM      2  C   UNL     1      31.257   6.194 106.305  1.00  0.00    -0.012 C 
ATOM      3  C   UNL     1      30.617   6.632 105.206  1.00  0.00    -0.019 C 
ATOM      4  C   UNL     1      30.725   8.058 104.734  1.00  0.00     0.036 C 
ATOM      5  C   UNL     1      30.888   9.025 105.922  1.00  0.00     0.025 C 
ATOM      6  C   UNL     1      32.090   8.605 106.790  1.00  0.00     0.089 C 
ATOM      7  C   UNL     1      31.986   7.155 107.172  1.00  0.00     0.158 C 
ATOM      8  O   UNL     1      32.556   6.754 108.222  1.00  0.00    -0.295 OA
ENDROOT
BRANCH   5   9
ATOM      9  C   UNL     1      31.008  10.471 105.458  1.00  0.00    -0.077 C 
ATOM     10  C   UNL     1      32.189  10.989 105.079  1.00  0.00     0.008 C 
ATOM     11  C   UNL     1      29.787  11.353 105.414  1.00  0.00     0.039 C 
ENDBRANCH   5   9
TORSDOF 1
ENDMDL
MODEL 2
REMARK VINA RESULT:    -4.438      2.616      5.269
REMARK INTER + INTRA:          -4.792
REMARK INTER:                  -4.697
REMARK INTRA:                  -0.094
REMARK UNBOUND:                -0.094
REMARK SMILES C=C(C)[C@H]1CC=C(C)C(=O)C1
REMARK SMILES IDX 8 1 7 2 6 3 5 4 4 5 11 6 9 7 10 8 2 9 1 10 3 11
REMARK H PARENT
REMARK Flexibility Score: inf
ROOT
ATOM      1  C   UNL     1      33.439  13.759 105.029  1.00  0.00     0.048 C 
ATOM      2  C   UNL     1      32.890  12.359 105.052  1.00  0.00    -0.012 C 
ATOM      3  C   UNL     1      33.728  11.313 105.157  1.00  0.00    -0.019 C 
ATOM      4  C   UNL     1      33.233   9.891 105.166  1.00  0.00     0.036 C 
ATOM      5  C   UNL     1      31.847   9.790 105.831  1.00  0.00     0.025 C 
ATOM      6  C   UNL     1      30.856  10.749 105.144  1.00  0.00     0.089 C 
ATOM      7  C   UNL     1      31.422  12.141 105.083  1.00  0.00     0.158 C 
ATOM      8  O   UNL     1      30.634  13.122 105.021  1.00  0.00    -0.295 OA
ENDROOT
BRANCH   5   9
ATOM      9  C   UNL     1      31.330   8.358 105.838  1.00  0.00    -0.077 C 
ATOM     10  C   UNL     1      30.611   7.868 104.813  1.00  0.00     0.008 C 
ATOM     11  C   UNL     1      31.622   7.455 107.009  1.00  0.00     0.039 C 
ENDBRANCH   5   9
TORSDOF 1
ENDMDL
MODEL 3
REMARK VINA RESULT:    -4.406      2.841      3.896
REMARK INTER + INTRA:          -4.757
REMARK INTER:                  -4.664
REMARK INTRA:                  -0.093
REMARK UNBOUND:                -0.094
REMARK SMILES C=C(C)[C@H]1CC=C(C)C(=O)C1
REMARK SMILES IDX 8 1 7 2 6 3 5 4 4 5 11 6 9 7 10 8 2 9 1 10 3 11
REMARK H PARENT
REMARK Flexibility Score: inf
ROOT
ATOM      1  C   UNL     1      31.082   6.771 107.036  1.00  0.00     0.048 C 
ATOM      2  C   UNL     1      32.131   7.848 107.040  1.00  0.00    -0.012 C 
ATOM      3  C   UNL     1      33.112   7.824 107.959  1.00  0.00    -0.019 C 
ATOM      4  C   UNL     1      34.176   8.888 108.019  1.00  0.00     0.036 C 
ATOM      5  C   UNL     1      34.502   9.427 106.613  1.00  0.00     0.025 C 
ATOM      6  C   UNL     1      33.217   9.925 105.924  1.00  0.00     0.089 C 
ATOM      7  C   UNL     1      32.153   8.863 105.957  1.00  0.00     0.158 C 
ATOM      8  O   UNL     1      31.254   8.866 105.073  1.00  0.00    -0.295 OA
ENDROOT
BRANCH   5   9
ATOM      9  C   UNL     1      35.570  10.512 106.661  1.00  0.00    -0.077 C 
ATOM     10  C   UNL     1      36.314  10.809 105.581  1.00  0.00     0.008 C 
ATOM     11  C   UNL     1      35.811  11.278 107.935  1.00  0.00     0.039 C 
ENDBRANCH   5   9
TORSDOF 1
ENDMDL
MODEL 4
REMARK VINA RESULT:    -4.398      1.389      2.273
REMARK INTER + INTRA:          -4.749
REMARK INTER:                  -4.656
REMARK INTRA:                  -0.094
REMARK UNBOUND:                -0.094
REMARK SMILES C=C(C)[C@H]1CC=C(C)C(=O)C1
REMARK SMILES IDX 8 1 7 2 6 3 5 4 4 5 11 6 9 7 10 8 2 9 1 10 3 11
REMARK H PARENT
REMARK Flexibility Score: inf
ROOT
ATOM      1  C   UNL     1      31.859   4.745 107.442  1.00  0.00     0.048 C 
ATOM      2  C   UNL     1      31.585   6.156 107.000  1.00  0.00    -0.012 C 
ATOM      3  C   UNL     1      31.976   7.186 107.769  1.00  0.00    -0.019 C 
ATOM      4  C   UNL     1      31.711   8.617 107.383  1.00  0.00     0.036 C 
ATOM      5  C   UNL     1      31.738   8.793 105.852  1.00  0.00     0.025 C 
ATOM      6  C   UNL     1      30.750   7.816 105.186  1.00  0.00     0.089 C 
ATOM      7  C   UNL     1      30.995   6.410 105.661  1.00  0.00     0.158 C 
ATOM      8  O   UNL     1      30.661   5.445 104.922  1.00  0.00    -0.295 OA
ENDROOT
BRANCH   5   9
ATOM      9  C   UNL     1      31.461  10.235 105.447  1.00  0.00    -0.077 C 
ATOM     10  C   UNL     1      30.206  10.701 105.332  1.00  0.00     0.008 C 
ATOM     11  C   UNL     1      32.607  11.173 105.166  1.00  0.00     0.039 C 
ENDBRANCH   5   9
TORSDOF 1
ENDMDL
MODEL 5
REMARK VINA RESULT:    -4.394      2.137      4.805
REMARK INTER + INTRA:          -4.745
REMARK INTER:                  -4.656
REMARK INTRA:                  -0.089
REMARK UNBOUND:                -0.094
REMARK SMILES C=C(C)[C@H]1CC=C(C)C(=O)C1
REMARK SMILES IDX 8 1 7 2 6 3 5 4 4 5 11 6 9 7 10 8 2 9 1 10 3 11
REMARK H PARENT
REMARK Flexibility Score: inf
ROOT
ATOM      1  C   UNL     1      33.090  13.408 104.744  1.00  0.00     0.048 C 
ATOM      2  C   UNL     1      32.572  12.043 105.102  1.00  0.00    -0.012 C 
ATOM      3  C   UNL     1      31.253  11.791 105.044  1.00  0.00    -0.019 C 
ATOM      4  C   UNL     1      30.679  10.447 105.410  1.00  0.00     0.036 C 
ATOM      5  C   UNL     1      31.659   9.311 105.058  1.00  0.00     0.025 C 
ATOM      6  C   UNL     1      33.026   9.563 105.722  1.00  0.00     0.089 C 
ATOM      7  C   UNL     1      33.525  10.944 105.399  1.00  0.00     0.158 C 
ATOM      8  O   UNL     1      34.765  11.169 105.419  1.00  0.00    -0.295 OA
ENDROOT
BRANCH   5   9
ATOM      9  C   UNL     1      31.095   7.947 105.432  1.00  0.00    -0.077 C 
ATOM     10  C   UNL     1      30.370   7.226 104.560  1.00  0.00     0.008 C 
ATOM     11  C   UNL     1      31.347   7.377 106.804  1.00  0.00     0.039 C 
ENDBRANCH   5   9
TORSDOF 1
ENDMDL
MODEL 6
REMARK VINA RESULT:    -4.325      2.866      4.745
REMARK INTER + INTRA:          -4.672
REMARK INTER:                  -4.574
REMARK INTRA:                  -0.098
REMARK UNBOUND:                -0.094
REMARK SMILES C=C(C)[C@H]1CC=C(C)C(=O)C1
REMARK SMILES IDX 8 1 7 2 6 3 5 4 4 5 11 6 9 7 10 8 2 9 1 10 3 11
REMARK H PARENT
REMARK Flexibility Score: inf
ROOT
ATOM      1  C   UNL     1      36.135  11.103 107.512  1.00  0.00     0.048 C 
ATOM      2  C   UNL     1      35.042  10.173 107.064  1.00  0.00    -0.012 C 
ATOM      3  C   UNL     1      34.690   9.130 107.837  1.00  0.00    -0.019 C 
ATOM      4  C   UNL     1      33.615   8.159 107.428  1.00  0.00     0.036 C 
ATOM      5  C   UNL     1      32.521   8.859 106.599  1.00  0.00     0.025 C 
ATOM      6  C   UNL     1      33.148   9.580 105.390  1.00  0.00     0.089 C 
ATOM      7  C   UNL     1      34.270  10.477 105.833  1.00  0.00     0.158 C 
ATOM      8  O   UNL     1      34.574  11.475 105.125  1.00  0.00    -0.295 OA
ENDROOT
BRANCH   5   9
ATOM      9  C   UNL     1      31.431   7.885 106.170  1.00  0.00    -0.077 C 
ATOM     10  C   UNL     1      30.694   8.101 105.067  1.00  0.00     0.008 C 
ATOM     11  C   UNL     1      31.161   6.648 106.986  1.00  0.00     0.039 C 
ENDBRANCH   5   9
TORSDOF 1
ENDMDL
MODEL 7
REMARK VINA RESULT:    -4.220      2.411      3.518
REMARK INTER + INTRA:          -4.560
REMARK INTER:                  -4.466
REMARK INTRA:                  -0.095
REMARK UNBOUND:                -0.094
REMARK SMILES C=C(C)[C@H]1CC=C(C)C(=O)C1
REMARK SMILES IDX 8 1 7 2 6 3 5 4 4 5 11 6 9 7 10 8 2 9 1 10 3 11
REMARK H PARENT
REMARK Flexibility Score: inf
ROOT
ATOM      1  C   UNL     1      31.740   6.488 107.880  1.00  0.00     0.048 C 
ATOM      2  C   UNL     1      32.475   7.725 107.444  1.00  0.00    -0.012 C 
ATOM      3  C   UNL     1      33.621   8.074 108.055  1.00  0.00    -0.019 C 
ATOM      4  C   UNL     1      34.387   9.312 107.670  1.00  0.00     0.036 C 
ATOM      5  C   UNL     1      34.236   9.613 106.166  1.00  0.00     0.025 C 
ATOM      6  C   UNL     1      32.746   9.707 105.789  1.00  0.00     0.089 C 
ATOM      7  C   UNL     1      32.001   8.489 106.263  1.00  0.00     0.158 C 
ATOM      8  O   UNL     1      30.947   8.143 105.666  1.00  0.00    -0.295 OA
ENDROOT
BRANCH   5   9
ATOM      9  C   UNL     1      34.998  10.869 105.766  1.00  0.00    -0.077 C 
ATOM     10  C   UNL     1      36.224  11.129 106.250  1.00  0.00     0.008 C 
ATOM     11  C   UNL     1      34.380  11.852 104.805  1.00  0.00     0.039 C 
ENDBRANCH   5   9
TORSDOF 1
ENDMDL
MODEL 8
REMARK VINA RESULT:    -4.142      2.481      4.812
REMARK INTER + INTRA:          -4.479
REMARK INTER:                  -4.386
REMARK INTRA:                  -0.093
REMARK UNBOUND:                -0.094
REMARK SMILES C=C(C)[C@H]1CC=C(C)C(=O)C1
REMARK SMILES IDX 8 1 7 2 6 3 5 4 4 5 11 6 9 7 10 8 2 9 1 10 3 11
REMARK H PARENT
REMARK Flexibility Score: inf
ROOT
ATOM      1  C   UNL     1      34.835  11.223 104.971  1.00  0.00     0.048 C 
ATOM      2  C   UNL     1      34.124  10.252 105.872  1.00  0.00    -0.012 C 
ATOM      3  C   UNL     1      32.908   9.790 105.533  1.00  0.00    -0.019 C 
ATOM      4  C   UNL     1      32.145   8.832 106.408  1.00  0.00     0.036 C 
ATOM      5  C   UNL     1      33.101   7.891 107.167  1.00  0.00     0.025 C 
ATOM      6  C   UNL     1      34.134   8.712 107.963  1.00  0.00     0.089 C 
ATOM      7  C   UNL     1      34.815   9.713 107.070  1.00  0.00     0.158 C 
ATOM      8  O   UNL     1      35.970  10.118 107.371  1.00  0.00    -0.295 OA
ENDROOT
BRANCH   5   9
ATOM      9  C   UNL     1      32.342   6.923 108.064  1.00  0.00    -0.077 C 
ATOM     10  C   UNL     1      31.498   7.363 109.013  1.00  0.00     0.008 C 
ATOM     11  C   UNL     1      32.528   5.437 107.898  1.00  0.00     0.039 C 
ENDBRANCH   5   9
TORSDOF 1
ENDMDL
MODEL 9
REMARK VINA RESULT:    -3.919      4.049      5.522
REMARK INTER + INTRA:          -4.242
REMARK INTER:                  -4.149
REMARK INTRA:                  -0.093
REMARK UNBOUND:                -0.094
REMARK SMILES C=C(C)[C@H]1CC=C(C)C(=O)C1
REMARK SMILES IDX 8 1 7 2 6 3 5 4 4 5 11 6 9 7 10 8 2 9 1 10 3 11
REMARK H PARENT
REMARK Flexibility Score: inf
ROOT
ATOM      1  C   UNL     1      32.478   9.314 105.642  1.00  0.00     0.048 C 
ATOM      2  C   UNL     1      33.751  10.079 105.880  1.00  0.00    -0.012 C 
ATOM      3  C   UNL     1      33.987  11.214 105.200  1.00  0.00    -0.019 C 
ATOM      4  C   UNL     1      35.253  12.009 105.386  1.00  0.00     0.036 C 
ATOM      5  C   UNL     1      35.767  11.901 106.835  1.00  0.00     0.025 C 
ATOM      6  C   UNL     1      35.943  10.422 107.229  1.00  0.00     0.089 C 
ATOM      7  C   UNL     1      34.684   9.647 106.951  1.00  0.00     0.158 C 
ATOM      8  O   UNL     1      34.446   8.603 107.615  1.00  0.00    -0.295 OA
ENDROOT
BRANCH   5   9
ATOM      9  C   UNL     1      37.053  12.692 107.035  1.00  0.00    -0.077 C 
ATOM     10  C   UNL     1      38.236  12.228 106.597  1.00  0.00     0.008 C 
ATOM     11  C   UNL     1      37.017  14.026 107.735  1.00  0.00     0.039 C 
ENDBRANCH   5   9
TORSDOF 1
ENDMDL
