MODEL 1
REMARK VINA RESULT:    -3.180      0.000      0.000
REMARK INTER + INTRA:          -3.636
REMARK INTER:                  -3.552
REMARK INTRA:                  -0.084
REMARK UNBOUND:                -0.084
REMARK SMILES CCc1ccc(O)cc1O
REMARK SMILES IDX 3 1 9 2 8 3 6 4 5 5 4 6 2 7 1 8 10 9 7 11
REMARK H PARENT 10 10 7 12
REMARK Flexibility Score: inf
ROOT
ATOM      1  C   UNL     1      17.170  95.957   8.692  1.00  0.00    -0.006 A 
ATOM      2  C   UNL     1      16.334  96.991   9.184  1.00  0.00     0.122 A 
ATOM      3  C   UNL     1      16.741  98.326   9.069  1.00  0.00     0.092 A 
ATOM      4  C   UNL     1      17.955  98.653   8.459  1.00  0.00     0.119 A 
ATOM      5  C   UNL     1      18.773  97.637   7.955  1.00  0.00     0.047 A 
ATOM      6  C   UNL     1      18.382  96.300   8.066  1.00  0.00     0.011 A 
ENDROOT
BRANCH   1   7
ATOM      7  C   UNL     1      16.782  94.500   8.776  1.00  0.00     0.036 C 
ATOM      8  C   UNL     1      18.007  93.600   8.654  1.00  0.00     0.009 C 
ENDBRANCH   1   7
BRANCH   2   9
ATOM      9  O   UNL     1      15.099  96.734   9.786  1.00  0.00    -0.508 OA
ATOM     10  H   UNL     1      14.731  97.272  10.558  1.00  0.00     0.293 HD
ENDBRANCH   2   9
BRANCH   4  11
ATOM     11  O   UNL     1      18.335  99.989   8.356  1.00  0.00    -0.508 OA
ATOM     12  H   UNL     1      18.343 100.469   7.463  1.00  0.00     0.293 HD
ENDBRANCH   4  11
TORSDOF 3
ENDMDL
MODEL 2
REMARK VINA RESULT:    -2.653      1.539      3.678
REMARK INTER + INTRA:          -3.047
REMARK INTER:                  -2.956
REMARK INTRA:                  -0.091
REMARK UNBOUND:                -0.084
REMARK SMILES CCc1ccc(O)cc1O
REMARK SMILES IDX 3 1 9 2 8 3 6 4 5 5 4 6 2 7 1 8 10 9 7 11
REMARK H PARENT 10 10 7 12
REMARK Flexibility Score: inf
ROOT
ATOM      1  C   UNL     1      17.476  97.749   8.616  1.00  0.00    -0.006 A 
ATOM      2  C   UNL     1      16.233  97.321   9.148  1.00  0.00     0.122 A 
ATOM      3  C   UNL     1      15.927  95.955   9.180  1.00  0.00     0.092 A 
ATOM      4  C   UNL     1      16.839  95.007   8.709  1.00  0.00     0.119 A 
ATOM      5  C   UNL     1      18.073  95.425   8.202  1.00  0.00     0.047 A 
ATOM      6  C   UNL     1      18.392  96.784   8.159  1.00  0.00     0.011 A 
ENDROOT
BRANCH   1   7
ATOM      7  C   UNL     1      17.869  99.207   8.565  1.00  0.00     0.036 C 
ATOM      8  C   UNL     1      19.168  99.449   9.327  1.00  0.00     0.009 C 
ENDBRANCH   1   7
BRANCH   2   9
ATOM      9  O   UNL     1      15.286  98.216   9.654  1.00  0.00    -0.508 OA
ATOM     10  H   UNL     1      14.334  98.268   9.321  1.00  0.00     0.293 HD
ENDBRANCH   2   9
BRANCH   4  11
ATOM     11  O   UNL     1      16.510  93.654   8.754  1.00  0.00    -0.508 OA
ATOM     12  H   UNL     1      15.641  93.335   9.167  1.00  0.00     0.293 HD
ENDBRANCH   4  11
TORSDOF 3
ENDMDL
MODEL 3
REMARK VINA RESULT:    -2.413      1.708      4.271
REMARK INTER + INTRA:          -2.780
REMARK INTER:                  -2.699
REMARK INTRA:                  -0.081
REMARK UNBOUND:                -0.084
REMARK SMILES CCc1ccc(O)cc1O
REMARK SMILES IDX 3 1 9 2 8 3 6 4 5 5 4 6 2 7 1 8 10 9 7 11
REMARK H PARENT 10 10 7 12
REMARK Flexibility Score: inf
ROOT
ATOM      1  C   UNL     1      17.730  97.943   8.670  1.00  0.00    -0.006 A 
ATOM      2  C   UNL     1      18.428  96.906   8.001  1.00  0.00     0.122 A 
ATOM      3  C   UNL     1      17.936  95.595   8.051  1.00  0.00     0.092 A 
ATOM      4  C   UNL     1      16.757  95.301   8.740  1.00  0.00     0.119 A 
ATOM      5  C   UNL     1      16.056  96.325   9.384  1.00  0.00     0.047 A 
ATOM      6  C   UNL     1      16.536  97.636   9.346  1.00  0.00     0.011 A 
ENDROOT
BRANCH   1   7
ATOM      7  C   UNL     1      18.202  99.378   8.642  1.00  0.00     0.036 C 
ATOM      8  C   UNL     1      19.312  99.607   9.663  1.00  0.00     0.009 C 
ENDBRANCH   1   7
BRANCH   2   9
ATOM      9  O   UNL     1      19.601  97.137   7.278  1.00  0.00    -0.508 OA
ATOM     10  H   UNL     1      19.773  96.761   6.356  1.00  0.00     0.293 HD
ENDBRANCH   2   9
BRANCH   4  11
ATOM     11  O   UNL     1      16.289  93.989   8.774  1.00  0.00    -0.508 OA
ATOM     12  H   UNL     1      16.925  93.203   8.847  1.00  0.00     0.293 HD
ENDBRANCH   4  11
TORSDOF 3
ENDMDL
MODEL 4
REMARK VINA RESULT:    -2.103      2.069      3.974
REMARK INTER + INTRA:          -2.433
REMARK INTER:                  -2.348
REMARK INTRA:                  -0.085
REMARK UNBOUND:                -0.084
REMARK SMILES CCc1ccc(O)cc1O
REMARK SMILES IDX 3 1 9 2 8 3 6 4 5 5 4 6 2 7 1 8 10 9 7 11
REMARK H PARENT 10 10 7 12
REMARK Flexibility Score: inf
ROOT
ATOM      1  C   UNL     1      17.291  97.217   8.860  1.00  0.00    -0.006 A 
ATOM      2  C   UNL     1      16.916  95.852   8.767  1.00  0.00     0.122 A 
ATOM      3  C   UNL     1      15.644  95.452   9.199  1.00  0.00     0.092 A 
ATOM      4  C   UNL     1      14.735  96.385   9.704  1.00  0.00     0.119 A 
ATOM      5  C   UNL     1      15.096  97.735   9.779  1.00  0.00     0.047 A 
ATOM      6  C   UNL     1      16.361  98.148   9.356  1.00  0.00     0.011 A 
ENDROOT
BRANCH   1   7
ATOM      7  C   UNL     1      18.642  97.712   8.401  1.00  0.00     0.036 C 
ATOM      8  C   UNL     1      18.783  99.212   8.637  1.00  0.00     0.009 C 
ENDBRANCH   1   7
BRANCH   2   9
ATOM      9  O   UNL     1      17.770  94.873   8.253  1.00  0.00    -0.508 OA
ATOM     10  H   UNL     1      18.773  94.888   8.373  1.00  0.00     0.293 HD
ENDBRANCH   2   9
BRANCH   4  11
ATOM     11  O   UNL     1      13.477  95.961  10.125  1.00  0.00    -0.508 OA
ATOM     12  H   UNL     1      13.367  95.333  10.913  1.00  0.00     0.293 HD
ENDBRANCH   4  11
TORSDOF 3
ENDMDL
MODEL 5
REMARK VINA RESULT:    -1.998      1.278      2.919
REMARK INTER + INTRA:          -2.316
REMARK INTER:                  -2.231
REMARK INTRA:                  -0.085
REMARK UNBOUND:                -0.084
REMARK SMILES CCc1ccc(O)cc1O
REMARK SMILES IDX 3 1 9 2 8 3 6 4 5 5 4 6 2 7 1 8 10 9 7 11
REMARK H PARENT 10 10 7 12
REMARK Flexibility Score: inf
ROOT
ATOM      1  C   UNL     1      17.915  95.544   8.176  1.00  0.00    -0.006 A 
ATOM      2  C   UNL     1      17.946  96.948   8.367  1.00  0.00     0.122 A 
ATOM      3  C   UNL     1      16.875  97.585   9.006  1.00  0.00     0.092 A 
ATOM      4  C   UNL     1      15.782  96.850   9.472  1.00  0.00     0.119 A 
ATOM      5  C   UNL     1      15.757  95.462   9.302  1.00  0.00     0.047 A 
ATOM      6  C   UNL     1      16.816  94.813   8.664  1.00  0.00     0.011 A 
ENDROOT
BRANCH   1   7
ATOM      7  C   UNL     1      19.045  94.798   7.506  1.00  0.00     0.036 C 
ATOM      8  C   UNL     1      18.810  93.292   7.556  1.00  0.00     0.009 C 
ENDBRANCH   1   7
BRANCH   2   9
ATOM      9  O   UNL     1      19.018  97.739   7.944  1.00  0.00    -0.508 OA
ATOM     10  H   UNL     1      19.076  98.735   8.104  1.00  0.00     0.293 HD
ENDBRANCH   2   9
BRANCH   4  11
ATOM     11  O   UNL     1      14.730  97.508  10.104  1.00  0.00    -0.508 OA
ATOM     12  H   UNL     1      14.672  98.520  10.120  1.00  0.00     0.293 HD
ENDBRANCH   4  11
TORSDOF 3
ENDMDL
MODEL 6
REMARK VINA RESULT:    -1.200      1.529      2.256
REMARK INTER + INTRA:          -1.424
REMARK INTER:                  -1.469
REMARK INTRA:                   0.044
REMARK UNBOUND:                -0.084
REMARK SMILES CCc1ccc(O)cc1O
REMARK SMILES IDX 3 1 9 2 8 3 6 4 5 5 4 6 2 7 1 8 10 9 7 11
REMARK H PARENT 10 10 7 12
REMARK Flexibility Score: inf
ROOT
ATOM      1  C   UNL     1      17.760  95.280   8.263  1.00  0.00    -0.006 A 
ATOM      2  C   UNL     1      16.461  94.991   8.754  1.00  0.00     0.122 A 
ATOM      3  C   UNL     1      15.655  96.030   9.234  1.00  0.00     0.092 A 
ATOM      4  C   UNL     1      16.108  97.352   9.218  1.00  0.00     0.119 A 
ATOM      5  C   UNL     1      17.380  97.642   8.716  1.00  0.00     0.047 A 
ATOM      6  C   UNL     1      18.198  96.616   8.238  1.00  0.00     0.011 A 
ENDROOT
BRANCH   1   7
ATOM      7  C   UNL     1      18.672  94.205   7.721  1.00  0.00     0.036 C 
ATOM      8  C   UNL     1      19.111  93.252   8.828  1.00  0.00     0.009 C 
ENDBRANCH   1   7
BRANCH   2   9
ATOM      9  O   UNL     1      15.941  93.694   8.779  1.00  0.00    -0.508 OA
ATOM     10  H   UNL     1      16.142  93.025   9.508  1.00  0.00     0.293 HD
ENDBRANCH   2   9
BRANCH   4  11
ATOM     11  O   UNL     1      15.285  98.367   9.699  1.00  0.00    -0.508 OA
ATOM     12  H   UNL     1      14.373  98.166  10.095  1.00  0.00     0.293 HD
ENDBRANCH   4  11
TORSDOF 3
ENDMDL
MODEL 7
REMARK VINA RESULT:    -0.966      1.838      2.791
REMARK INTER + INTRA:          -1.163
REMARK INTER:                  -1.078
REMARK INTRA:                  -0.085
REMARK UNBOUND:                -0.084
REMARK SMILES CCc1ccc(O)cc1O
REMARK SMILES IDX 3 1 9 2 8 3 6 4 5 5 4 6 2 7 1 8 10 9 7 11
REMARK H PARENT 10 10 7 12
REMARK Flexibility Score: inf
ROOT
ATOM      1  C   UNL     1      16.016  96.089   9.148  1.00  0.00    -0.006 A 
ATOM      2  C   UNL     1      17.138  95.405   8.616  1.00  0.00     0.122 A 
ATOM      3  C   UNL     1      18.288  96.125   8.268  1.00  0.00     0.092 A 
ATOM      4  C   UNL     1      18.349  97.508   8.455  1.00  0.00     0.119 A 
ATOM      5  C   UNL     1      17.251  98.183   8.998  1.00  0.00     0.047 A 
ATOM      6  C   UNL     1      16.096  97.480   9.346  1.00  0.00     0.011 A 
ENDROOT
BRANCH   1   7
ATOM      7  C   UNL     1      14.753  95.368   9.553  1.00  0.00     0.036 C 
ATOM      8  C   UNL     1      13.727  96.342  10.125  1.00  0.00     0.009 C 
ENDBRANCH   1   7
BRANCH   2   9
ATOM      9  O   UNL     1      17.150  94.021   8.424  1.00  0.00    -0.508 OA
ATOM     10  H   UNL     1      17.029  93.351   9.171  1.00  0.00     0.293 HD
ENDBRANCH   2   9
BRANCH   4  11
ATOM     11  O   UNL     1      19.505  98.199   8.102  1.00  0.00    -0.508 OA
ATOM     12  H   UNL     1      19.770  99.060   8.569  1.00  0.00     0.293 HD
ENDBRANCH   4  11
TORSDOF 3
ENDMDL
MODEL 8
REMARK VINA RESULT:    -0.790      1.551      2.174
REMARK INTER + INTRA:          -0.967
REMARK INTER:                  -1.393
REMARK INTRA:                   0.426
REMARK UNBOUND:                -0.084
REMARK SMILES CCc1ccc(O)cc1O
REMARK SMILES IDX 3 1 9 2 8 3 6 4 5 5 4 6 2 7 1 8 10 9 7 11
REMARK H PARENT 10 10 7 12
REMARK Flexibility Score: inf
ROOT
ATOM      1  C   UNL     1      17.012  95.873   8.661  1.00  0.00    -0.006 A 
ATOM      2  C   UNL     1      18.167  96.195   7.906  1.00  0.00     0.122 A 
ATOM      3  C   UNL     1      18.597  97.526   7.831  1.00  0.00     0.092 A 
ATOM      4  C   UNL     1      17.910  98.538   8.507  1.00  0.00     0.119 A 
ATOM      5  C   UNL     1      16.781  98.220   9.269  1.00  0.00     0.047 A 
ATOM      6  C   UNL     1      16.338  96.898   9.349  1.00  0.00     0.011 A 
ENDROOT
BRANCH   1   7
ATOM      7  C   UNL     1      16.505  94.456   8.790  1.00  0.00     0.036 C 
ATOM      8  C   UNL     1      17.652  93.488   9.061  1.00  0.00     0.009 C 
ENDBRANCH   1   7
BRANCH   2   9
ATOM      9  O   UNL     1      18.911  95.229   7.223  1.00  0.00    -0.508 OA
ATOM     10  H   UNL     1      18.562  94.305   7.007  1.00  0.00     0.293 HD
ENDBRANCH   2   9
BRANCH   4  11
ATOM     11  O   UNL     1      18.360  99.853   8.417  1.00  0.00    -0.508 OA
ATOM     12  H   UNL     1      18.057 100.562   9.076  1.00  0.00     0.293 HD
ENDBRANCH   4  11
TORSDOF 3
ENDMDL
