MODEL 1
REMARK VINA RESULT:    -3.919      0.000      0.000
REMARK INTER + INTRA:          -4.355
REMARK INTER:                  -4.263
REMARK INTRA:                  -0.092
REMARK UNBOUND:                -0.092
REMARK SMILES C=C(C)[C@@H]1CC[C@@H](C)[C@@H](O)C1
REMARK SMILES IDX 8 1 7 2 6 3 5 4 4 5 11 6 9 7 10 8 2 10 1 11 3 12
REMARK H PARENT 10 9
REMARK Flexibility Score: inf
ROOT
ATOM      1  C   UNL     1      13.101  12.175  33.635  1.00  0.00     0.010 C 
ATOM      2  C   UNL     1      13.374  12.613  35.079  1.00  0.00     0.015 C 
ATOM      3  C   UNL     1      14.506  13.659  35.126  1.00  0.00     0.006 C 
ATOM      4  C   UNL     1      14.764  14.125  36.565  1.00  0.00     0.008 C 
ATOM      5  C   UNL     1      15.089  12.930  37.482  1.00  0.00     0.017 C 
ATOM      6  C   UNL     1      13.964  11.874  37.431  1.00  0.00     0.040 C 
ATOM      7  C   UNL     1      13.695  11.404  35.992  1.00  0.00     0.117 C 
ENDROOT
BRANCH   7   8
ATOM      8  O   UNL     1      14.816  10.699  35.516  1.00  0.00    -0.393 OA
ATOM      9  H   UNL     1      15.327  10.390  36.310  1.00  0.00     0.210 HD
ENDBRANCH   7   8
BRANCH   5  10
ATOM     10  C   UNL     1      15.359  13.384  38.911  1.00  0.00    -0.077 C 
ATOM     11  C   UNL     1      14.465  14.122  39.591  1.00  0.00     0.008 C 
ATOM     12  C   UNL     1      16.650  13.008  39.593  1.00  0.00     0.039 C 
ENDBRANCH   5  10
TORSDOF 2
ENDMDL
MODEL 2
REMARK VINA RESULT:    -3.761      1.446      2.304
REMARK INTER + INTRA:          -4.183
REMARK INTER:                  -4.091
REMARK INTRA:                  -0.092
REMARK UNBOUND:                -0.092
REMARK SMILES C=C(C)[C@@H]1CC[C@@H](C)[C@@H](O)C1
REMARK SMILES IDX 8 1 7 2 6 3 5 4 4 5 11 6 9 7 10 8 2 10 1 11 3 12
REMARK H PARENT 10 9
REMARK Flexibility Score: inf
ROOT
ATOM      1  C   UNL     1      13.979  11.264  33.258  1.00  0.00     0.010 C 
ATOM      2  C   UNL     1      14.501  11.897  34.553  1.00  0.00     0.015 C 
ATOM      3  C   UNL     1      13.994  11.118  35.783  1.00  0.00     0.006 C 
ATOM      4  C   UNL     1      14.538  11.727  37.082  1.00  0.00     0.008 C 
ATOM      5  C   UNL     1      14.164  13.218  37.191  1.00  0.00     0.017 C 
ATOM      6  C   UNL     1      14.660  14.002  35.957  1.00  0.00     0.040 C 
ATOM      7  C   UNL     1      14.123  13.396  34.649  1.00  0.00     0.117 C 
ENDROOT
BRANCH   7   8
ATOM      8  O   UNL     1      12.727  13.567  34.596  1.00  0.00    -0.393 OA
ATOM      9  H   UNL     1      12.549  14.350  34.012  1.00  0.00     0.210 HD
ENDBRANCH   7   8
BRANCH   5  10
ATOM     10  C   UNL     1      14.689  13.830  38.484  1.00  0.00    -0.077 C 
ATOM     11  C   UNL     1      15.992  14.117  38.643  1.00  0.00     0.008 C 
ATOM     12  C   UNL     1      13.743  14.125  39.620  1.00  0.00     0.039 C 
ENDBRANCH   5  10
TORSDOF 2
ENDMDL
MODEL 3
REMARK VINA RESULT:    -1.798      1.820      4.374
REMARK INTER + INTRA:          -2.048
REMARK INTER:                  -1.960
REMARK INTRA:                  -0.089
REMARK UNBOUND:                -0.092
REMARK SMILES C=C(C)[C@@H]1CC[C@@H](C)[C@@H](O)C1
REMARK SMILES IDX 8 1 7 2 6 3 5 4 4 5 11 6 9 7 10 8 2 10 1 11 3 12
REMARK H PARENT 10 9
REMARK Flexibility Score: inf
ROOT
ATOM      1  C   UNL     1      16.348  13.503  39.696  1.00  0.00     0.010 C 
ATOM      2  C   UNL     1      15.774  13.098  38.332  1.00  0.00     0.015 C 
ATOM      3  C   UNL     1      16.172  14.120  37.249  1.00  0.00     0.006 C 
ATOM      4  C   UNL     1      15.628  13.706  35.875  1.00  0.00     0.008 C 
ATOM      5  C   UNL     1      14.098  13.527  35.919  1.00  0.00     0.017 C 
ATOM      6  C   UNL     1      13.693  12.511  37.009  1.00  0.00     0.040 C 
ATOM      7  C   UNL     1      14.237  12.916  38.389  1.00  0.00     0.117 C 
ENDROOT
BRANCH   7   8
ATOM      8  O   UNL     1      13.606  14.102  38.807  1.00  0.00    -0.393 OA
ATOM      9  H   UNL     1      12.680  14.084  38.450  1.00  0.00     0.210 HD
ENDBRANCH   7   8
BRANCH   5  10
ATOM     10  C   UNL     1      13.547  13.127  34.556  1.00  0.00    -0.077 C 
ATOM     11  C   UNL     1      12.850  13.995  33.802  1.00  0.00     0.008 C 
ATOM     12  C   UNL     1      13.775  11.735  34.025  1.00  0.00     0.039 C 
ENDBRANCH   5  10
TORSDOF 2
ENDMDL
MODEL 4
REMARK VINA RESULT:    -1.753      1.393      1.639
REMARK INTER + INTRA:          -1.999
REMARK INTER:                  -1.906
REMARK INTRA:                  -0.093
REMARK UNBOUND:                -0.092
REMARK SMILES C=C(C)[C@@H]1CC[C@@H](C)[C@@H](O)C1
REMARK SMILES IDX 8 1 7 2 6 3 5 4 4 5 11 6 9 7 10 8 2 10 1 11 3 12
REMARK H PARENT 10 9
REMARK Flexibility Score: inf
ROOT
ATOM      1  C   UNL     1      14.115  12.344  34.141  1.00  0.00     0.010 C 
ATOM      2  C   UNL     1      14.616  12.920  35.471  1.00  0.00     0.015 C 
ATOM      3  C   UNL     1      15.748  12.048  36.050  1.00  0.00     0.006 C 
ATOM      4  C   UNL     1      16.276  12.636  37.366  1.00  0.00     0.008 C 
ATOM      5  C   UNL     1      15.138  12.801  38.392  1.00  0.00     0.017 C 
ATOM      6  C   UNL     1      13.996  13.665  37.814  1.00  0.00     0.040 C 
ATOM      7  C   UNL     1      13.463  13.087  36.492  1.00  0.00     0.117 C 
ENDROOT
BRANCH   7   8
ATOM      8  O   UNL     1      12.834  11.853  36.745  1.00  0.00    -0.393 OA
ATOM      9  H   UNL     1      12.370  11.583  35.909  1.00  0.00     0.210 HD
ENDBRANCH   7   8
BRANCH   5  10
ATOM     10  C   UNL     1      15.654  13.372  39.706  1.00  0.00    -0.077 C 
ATOM     11  C   UNL     1      14.870  14.125  40.498  1.00  0.00     0.008 C 
ATOM     12  C   UNL     1      17.069  13.099  40.146  1.00  0.00     0.039 C 
ENDBRANCH   5  10
TORSDOF 2
ENDMDL
MODEL 5
REMARK VINA RESULT:    -1.660      1.261      4.422
REMARK INTER + INTRA:          -1.898
REMARK INTER:                  -1.804
REMARK INTRA:                  -0.094
REMARK UNBOUND:                -0.092
REMARK SMILES C=C(C)[C@@H]1CC[C@@H](C)[C@@H](O)C1
REMARK SMILES IDX 8 1 7 2 6 3 5 4 4 5 11 6 9 7 10 8 2 10 1 11 3 12
REMARK H PARENT 10 9
REMARK Flexibility Score: inf
ROOT
ATOM      1  C   UNL     1      15.946  12.627  38.879  1.00  0.00     0.010 C 
ATOM      2  C   UNL     1      15.557  12.712  37.398  1.00  0.00     0.015 C 
ATOM      3  C   UNL     1      14.790  14.018  37.111  1.00  0.00     0.006 C 
ATOM      4  C   UNL     1      14.424  14.125  35.624  1.00  0.00     0.008 C 
ATOM      5  C   UNL     1      13.605  12.901  35.168  1.00  0.00     0.017 C 
ATOM      6  C   UNL     1      14.364  11.590  35.463  1.00  0.00     0.040 C 
ATOM      7  C   UNL     1      14.738  11.475  36.950  1.00  0.00     0.117 C 
ENDROOT
BRANCH   7   8
ATOM      8  O   UNL     1      13.565  11.345  37.717  1.00  0.00    -0.393 OA
ATOM      9  H   UNL     1      13.111  12.228  37.711  1.00  0.00     0.210 HD
ENDBRANCH   7   8
BRANCH   5  10
ATOM     10  C   UNL     1      13.226  13.004  33.697  1.00  0.00    -0.077 C 
ATOM     11  C   UNL     1      13.749  12.171  32.780  1.00  0.00     0.008 C 
ATOM     12  C   UNL     1      12.247  14.054  33.239  1.00  0.00     0.039 C 
ENDBRANCH   5  10
TORSDOF 2
ENDMDL
MODEL 6
REMARK VINA RESULT:    -1.564      2.080      3.471
REMARK INTER + INTRA:          -1.794
REMARK INTER:                  -1.701
REMARK INTRA:                  -0.093
REMARK UNBOUND:                -0.092
REMARK SMILES C=C(C)[C@@H]1CC[C@@H](C)[C@@H](O)C1
REMARK SMILES IDX 8 1 7 2 6 3 5 4 4 5 11 6 9 7 10 8 2 10 1 11 3 12
REMARK H PARENT 10 9
REMARK Flexibility Score: inf
ROOT
ATOM      1  C   UNL     1      13.550  13.550  36.748  1.00  0.00     0.010 C 
ATOM      2  C   UNL     1      14.418  13.119  37.937  1.00  0.00     0.015 C 
ATOM      3  C   UNL     1      14.289  14.125  39.098  1.00  0.00     0.006 C 
ATOM      4  C   UNL     1      15.131  13.684  40.303  1.00  0.00     0.008 C 
ATOM      5  C   UNL     1      16.608  13.499  39.906  1.00  0.00     0.017 C 
ATOM      6  C   UNL     1      16.743  12.500  38.736  1.00  0.00     0.040 C 
ATOM      7  C   UNL     1      15.900  12.931  37.525  1.00  0.00     0.117 C 
ENDROOT
BRANCH   7   8
ATOM      8  O   UNL     1      16.427  14.122  36.991  1.00  0.00    -0.393 OA
ATOM      9  H   UNL     1      16.706  13.927  36.057  1.00  0.00     0.210 HD
ENDBRANCH   7   8
BRANCH   5  10
ATOM     10  C   UNL     1      17.455  13.074  41.098  1.00  0.00    -0.077 C 
ATOM     11  C   UNL     1      17.505  11.791  41.499  1.00  0.00     0.008 C 
ATOM     12  C   UNL     1      18.260  14.097  41.859  1.00  0.00     0.039 C 
ENDBRANCH   5  10
TORSDOF 2
ENDMDL
