MODEL 1
REMARK VINA RESULT:    -2.355      0.000      0.000
REMARK INTER + INTRA:          -2.823
REMARK INTER:                  -2.768
REMARK INTRA:                  -0.055
REMARK UNBOUND:                -0.055
REMARK SMILES O=C([O-])CCC(=O)[O-]
REMARK SMILES IDX 4 1 2 2 1 3 3 4 5 5 6 6 7 7 8 8
REMARK H PARENT
REMARK Flexibility Score: inf
ROOT
ATOM      1  C   UNL     1      -0.765   2.850  -1.617  1.00  0.00     0.059 C 
ENDROOT
BRANCH   1   2
ATOM      2  C   UNL     1      -1.435   1.536  -1.880  1.00  0.00     0.042 C 
ATOM      3  O   UNL     1      -1.876   0.848  -0.921  1.00  0.00    -0.550 OA
ATOM      4  O   UNL     1      -1.608   1.091  -3.184  1.00  0.00    -0.550 OA
ENDBRANCH   1   2
BRANCH   1   5
ATOM      5  C   UNL     1       0.737   2.678  -1.369  1.00  0.00     0.059 C 
BRANCH   5   6
ATOM      6  C   UNL     1       1.208   3.531  -0.230  1.00  0.00     0.042 C 
ATOM      7  O   UNL     1       2.141   4.360  -0.403  1.00  0.00    -0.550 OA
ATOM      8  O   UNL     1       0.647   3.379   1.031  1.00  0.00    -0.550 OA
ENDBRANCH   5   6
ENDBRANCH   1   5
TORSDOF 3
ENDMDL
MODEL 2
REMARK VINA RESULT:    -2.340      0.119      4.038
REMARK INTER + INTRA:          -2.805
REMARK INTER:                  -2.755
REMARK INTRA:                  -0.049
REMARK UNBOUND:                -0.055
REMARK SMILES O=C([O-])CCC(=O)[O-]
REMARK SMILES IDX 4 1 2 2 1 3 3 4 5 5 6 6 7 7 8 8
REMARK H PARENT
REMARK Flexibility Score: inf
ROOT
ATOM      1  C   UNL     1       0.765   2.681  -1.360  1.00  0.00     0.059 C 
ENDROOT
BRANCH   1   2
ATOM      2  C   UNL     1       1.223   3.559  -0.235  1.00  0.00     0.042 C 
ATOM      3  O   UNL     1       0.771   3.383   0.927  1.00  0.00    -0.550 OA
ATOM      4  O   UNL     1       2.176   4.542  -0.463  1.00  0.00    -0.550 OA
ENDBRANCH   1   2
BRANCH   1   5
ATOM      5  C   UNL     1      -0.732   2.851  -1.636  1.00  0.00     0.059 C 
BRANCH   5   6
ATOM      6  C   UNL     1      -1.397   1.534  -1.900  1.00  0.00     0.042 C 
ATOM      7  O   UNL     1      -1.476   1.088  -3.075  1.00  0.00    -0.550 OA
ATOM      8  O   UNL     1      -1.968   0.821  -0.854  1.00  0.00    -0.550 OA
ENDBRANCH   5   6
ENDBRANCH   1   5
TORSDOF 3
ENDMDL
MODEL 3
REMARK VINA RESULT:    -2.332      2.286      2.815
REMARK INTER + INTRA:          -2.796
REMARK INTER:                  -2.732
REMARK INTRA:                  -0.063
REMARK UNBOUND:                -0.055
REMARK SMILES O=C([O-])CCC(=O)[O-]
REMARK SMILES IDX 4 1 2 2 1 3 3 4 5 5 6 6 7 7 8 8
REMARK H PARENT
REMARK Flexibility Score: inf
ROOT
ATOM      1  C   UNL     1      -2.198   2.766   0.294  1.00  0.00     0.059 C 
ENDROOT
BRANCH   1   2
ATOM      2  C   UNL     1      -2.543   1.406  -0.231  1.00  0.00     0.042 C 
ATOM      3  O   UNL     1      -1.751   0.809  -1.008  1.00  0.00    -0.550 OA
ATOM      4  O   UNL     1      -3.716   0.782   0.169  1.00  0.00    -0.550 OA
ENDBRANCH   1   2
BRANCH   1   5
ATOM      5  C   UNL     1      -1.821   2.720   1.778  1.00  0.00     0.059 C 
BRANCH   5   6
ATOM      6  C   UNL     1      -0.544   3.457   2.046  1.00  0.00     0.042 C 
ATOM      7  O   UNL     1       0.428   3.351   1.252  1.00  0.00    -0.550 OA
ATOM      8  O   UNL     1      -0.413   4.229   3.194  1.00  0.00    -0.550 OA
ENDBRANCH   5   6
ENDBRANCH   1   5
TORSDOF 3
ENDMDL
MODEL 4
REMARK VINA RESULT:    -2.311      1.770      4.363
REMARK INTER + INTRA:          -2.771
REMARK INTER:                  -2.701
REMARK INTRA:                  -0.070
REMARK UNBOUND:                -0.055
REMARK SMILES O=C([O-])CCC(=O)[O-]
REMARK SMILES IDX 4 1 2 2 1 3 3 4 5 5 6 6 7 7 8 8
REMARK H PARENT
REMARK Flexibility Score: inf
ROOT
ATOM      1  C   UNL     1      -1.109   3.334   0.020  1.00  0.00     0.059 C 
ENDROOT
BRANCH   1   2
ATOM      2  C   UNL     1       0.110   3.433   0.886  1.00  0.00     0.042 C 
ATOM      3  O   UNL     1      -0.002   3.412   2.140  1.00  0.00    -0.550 OA
ATOM      4  O   UNL     1       1.370   3.506   0.308  1.00  0.00    -0.550 OA
ENDBRANCH   1   2
BRANCH   1   5
ATOM      5  C   UNL     1      -2.212   2.509   0.690  1.00  0.00     0.059 C 
BRANCH   5   6
ATOM      6  C   UNL     1      -2.625   1.346  -0.160  1.00  0.00     0.042 C 
ATOM      7  O   UNL     1      -1.815   0.844  -0.983  1.00  0.00    -0.550 OA
ATOM      8  O   UNL     1      -3.917   0.843  -0.071  1.00  0.00    -0.550 OA
ENDBRANCH   5   6
ENDBRANCH   1   5
TORSDOF 3
ENDMDL
MODEL 5
REMARK VINA RESULT:    -2.301      0.886      4.205
REMARK INTER + INTRA:          -2.759
REMARK INTER:                  -2.695
REMARK INTRA:                  -0.065
REMARK UNBOUND:                -0.055
REMARK SMILES O=C([O-])CCC(=O)[O-]
REMARK SMILES IDX 4 1 2 2 1 3 3 4 5 5 6 6 7 7 8 8
REMARK H PARENT
REMARK Flexibility Score: inf
ROOT
ATOM      1  C   UNL     1      -0.708   3.396  -0.402  1.00  0.00     0.059 C 
ENDROOT
BRANCH   1   2
ATOM      2  C   UNL     1       0.369   3.398   0.638  1.00  0.00     0.042 C 
ATOM      3  O   UNL     1       1.579   3.466   0.295  1.00  0.00    -0.550 OA
ATOM      4  O   UNL     1       0.036   3.367   1.986  1.00  0.00    -0.550 OA
ENDBRANCH   1   2
BRANCH   1   5
ATOM      5  C   UNL     1      -0.329   2.527  -1.606  1.00  0.00     0.059 C 
BRANCH   5   6
ATOM      6  C   UNL     1      -1.355   1.467  -1.866  1.00  0.00     0.042 C 
ATOM      7  O   UNL     1      -1.882   0.844  -0.906  1.00  0.00    -0.550 OA
ATOM      8  O   UNL     1      -1.700   1.137  -3.171  1.00  0.00    -0.550 OA
ENDBRANCH   5   6
ENDBRANCH   1   5
TORSDOF 3
ENDMDL
MODEL 6
REMARK VINA RESULT:    -2.271      1.191      1.787
REMARK INTER + INTRA:          -2.724
REMARK INTER:                  -2.644
REMARK INTRA:                  -0.081
REMARK UNBOUND:                -0.055
REMARK SMILES O=C([O-])CCC(=O)[O-]
REMARK SMILES IDX 4 1 2 2 1 3 3 4 5 5 6 6 7 7 8 8
REMARK H PARENT
REMARK Flexibility Score: inf
ROOT
ATOM      1  C   UNL     1      -1.078   2.920  -1.165  1.00  0.00     0.059 C 
ENDROOT
BRANCH   1   2
ATOM      2  C   UNL     1      -1.459   1.538  -1.601  1.00  0.00     0.042 C 
ATOM      3  O   UNL     1      -2.080   0.776  -0.814  1.00  0.00    -0.550 OA
ATOM      4  O   UNL     1      -1.163   1.108  -2.887  1.00  0.00    -0.550 OA
ENDBRANCH   1   2
BRANCH   1   5
ATOM      5  C   UNL     1      -1.356   3.138   0.326  1.00  0.00     0.059 C 
BRANCH   5   6
ATOM      6  C   UNL     1      -0.092   3.374   1.095  1.00  0.00     0.042 C 
ATOM      7  O   UNL     1      -0.132   3.573   2.337  1.00  0.00    -0.550 OA
ATOM      8  O   UNL     1       1.128   3.415   0.431  1.00  0.00    -0.550 OA
ENDBRANCH   5   6
ENDBRANCH   1   5
TORSDOF 3
ENDMDL
MODEL 7
REMARK VINA RESULT:    -2.184      1.344      4.377
REMARK INTER + INTRA:          -2.621
REMARK INTER:                  -2.535
REMARK INTRA:                  -0.086
REMARK UNBOUND:                -0.055
REMARK SMILES O=C([O-])CCC(=O)[O-]
REMARK SMILES IDX 4 1 2 2 1 3 3 4 5 5 6 6 7 7 8 8
REMARK H PARENT
REMARK Flexibility Score: inf
ROOT
ATOM      1  C   UNL     1      -0.760   3.468  -0.584  1.00  0.00     0.059 C 
ENDROOT
BRANCH   1   2
ATOM      2  C   UNL     1       0.400   3.629   0.350  1.00  0.00     0.042 C 
ATOM      3  O   UNL     1       1.484   4.118  -0.067  1.00  0.00    -0.550 OA
ATOM      4  O   UNL     1       0.272   3.279   1.687  1.00  0.00    -0.550 OA
ENDBRANCH   1   2
BRANCH   1   5
ATOM      5  C   UNL     1      -1.979   2.870   0.127  1.00  0.00     0.059 C 
BRANCH   5   6
ATOM      6  C   UNL     1      -2.308   1.505  -0.395  1.00  0.00     0.042 C 
ATOM      7  O   UNL     1      -3.341   0.905   0.005  1.00  0.00    -0.550 OA
ATOM      8  O   UNL     1      -1.451   0.878  -1.291  1.00  0.00    -0.550 OA
ENDBRANCH   5   6
ENDBRANCH   1   5
TORSDOF 3
ENDMDL
MODEL 8
REMARK VINA RESULT:    -1.906     10.351     11.207
REMARK INTER + INTRA:          -2.295
REMARK INTER:                  -2.254
REMARK INTRA:                  -0.041
REMARK UNBOUND:                -0.055
REMARK SMILES O=C([O-])CCC(=O)[O-]
REMARK SMILES IDX 4 1 2 2 1 3 3 4 5 5 6 6 7 7 8 8
REMARK H PARENT
REMARK Flexibility Score: inf
ROOT
ATOM      1  C   UNL     1       9.060  -4.282   0.392  1.00  0.00     0.059 C 
ENDROOT
BRANCH   1   2
ATOM      2  C   UNL     1       8.480  -3.952   1.733  1.00  0.00     0.042 C 
ATOM      3  O   UNL     1       7.821  -4.818   2.367  1.00  0.00    -0.550 OA
ATOM      4  O   UNL     1       8.701  -2.704   2.299  1.00  0.00    -0.550 OA
ENDBRANCH   1   2
BRANCH   1   5
ATOM      5  C   UNL     1       9.024  -3.076  -0.552  1.00  0.00     0.059 C 
BRANCH   5   6
ATOM      6  C   UNL     1       8.362  -3.414  -1.854  1.00  0.00     0.042 C 
ATOM      7  O   UNL     1       8.452  -4.577  -2.328  1.00  0.00    -0.550 OA
ATOM      8  O   UNL     1       7.682  -2.432  -2.563  1.00  0.00    -0.550 OA
ENDBRANCH   5   6
ENDBRANCH   1   5
TORSDOF 3
ENDMDL
MODEL 9
REMARK VINA RESULT:    -1.882      2.210      3.594
REMARK INTER + INTRA:          -2.267
REMARK INTER:                  -2.161
REMARK INTRA:                  -0.106
REMARK UNBOUND:                -0.055
REMARK SMILES O=C([O-])CCC(=O)[O-]
REMARK SMILES IDX 4 1 2 2 1 3 3 4 5 5 6 6 7 7 8 8
REMARK H PARENT
REMARK Flexibility Score: inf
ROOT
ATOM      1  C   UNL     1      -0.524   2.386  -1.417  1.00  0.00     0.059 C 
ENDROOT
BRANCH   1   2
ATOM      2  C   UNL     1      -1.578   1.792  -0.533  1.00  0.00     0.042 C 
ATOM      3  O   UNL     1      -2.284   0.835  -0.947  1.00  0.00    -0.550 OA
ATOM      4  O   UNL     1      -1.752   2.269   0.759  1.00  0.00    -0.550 OA
ENDBRANCH   1   2
BRANCH   1   5
ATOM      5  C   UNL     1       0.193   1.311  -2.241  1.00  0.00     0.059 C 
BRANCH   5   6
ATOM      6  C   UNL     1      -0.178   1.388  -3.690  1.00  0.00     0.042 C 
ATOM      7  O   UNL     1       0.382   2.226  -4.445  1.00  0.00    -0.550 OA
ATOM      8  O   UNL     1      -1.173   0.561  -4.198  1.00  0.00    -0.550 OA
ENDBRANCH   5   6
ENDBRANCH   1   5
TORSDOF 3
ENDMDL
