MODEL 1
REMARK VINA RESULT:    -4.211      0.000      0.000
REMARK INTER + INTRA:          -5.286
REMARK INTER:                  -5.072
REMARK INTRA:                  -0.214
REMARK UNBOUND:                -0.214
REMARK SMILES NC(=O)C[C@@H]([NH3+])C(=O)[O-]
REMARK SMILES IDX 4 1 5 2 6 3 7 7 8 8 9 9 2 10 3 11 1 12
REMARK H PARENT 6 4 6 5 6 6 1 13 1 14
REMARK Flexibility Score: inf
ROOT
ATOM      1  C   UNL     1      24.818   4.958  15.149  1.00  0.00     0.171 C 
ENDROOT
BRANCH   1   2
ATOM      2  C   UNL     1      24.151   5.697  13.973  1.00  0.00     0.237 C 
BRANCH   2   3
ATOM      3  N   UNL     1      22.981   6.465  14.416  1.00  0.00    -0.350 N 
ATOM      4  H   UNL     1      22.106   5.922  14.238  1.00  0.00     0.345 HD
ATOM      5  H   UNL     1      23.046   6.686  15.437  1.00  0.00     0.345 HD
ATOM      6  H   UNL     1      22.918   7.360  13.877  1.00  0.00     0.345 HD
ENDBRANCH   2   3
BRANCH   2   7
ATOM      7  C   UNL     1      25.151   6.610  13.315  1.00  0.00     0.100 C 
ATOM      8  O   UNL     1      25.382   6.512  12.081  1.00  0.00    -0.544 OA
ATOM      9  O   UNL     1      25.837   7.555  14.068  1.00  0.00    -0.544 OA
ENDBRANCH   2   7
ENDBRANCH   1   2
BRANCH   1  10
ATOM     10  C   UNL     1      23.877   3.990  15.804  1.00  0.00     0.223 C 
ATOM     11  O   UNL     1      23.323   4.294  16.894  1.00  0.00    -0.275 OA
ATOM     12  N   UNL     1      23.583   2.738  15.184  1.00  0.00    -0.369 N 
ATOM     13  H   UNL     1      22.918   2.070  15.635  1.00  0.00     0.159 HD
ATOM     14  H   UNL     1      24.027   2.477  14.276  1.00  0.00     0.159 HD
ENDBRANCH   1  10
TORSDOF 4
ENDMDL
MODEL 2
REMARK VINA RESULT:    -4.118      2.698      2.886
REMARK INTER + INTRA:          -5.174
REMARK INTER:                  -5.079
REMARK INTRA:                  -0.095
REMARK UNBOUND:                -0.214
REMARK SMILES NC(=O)C[C@@H]([NH3+])C(=O)[O-]
REMARK SMILES IDX 4 1 5 2 6 3 7 7 8 8 9 9 2 10 3 11 1 12
REMARK H PARENT 6 4 6 5 6 6 1 13 1 14
REMARK Flexibility Score: inf
ROOT
ATOM      1  C   UNL     1      24.588   5.084  14.657  1.00  0.00     0.171 C 
ENDROOT
BRANCH   1   2
ATOM      2  C   UNL     1      24.308   6.500  14.115  1.00  0.00     0.237 C 
BRANCH   2   3
ATOM      3  N   UNL     1      24.310   6.521  12.647  1.00  0.00    -0.350 N 
ATOM      4  H   UNL     1      24.534   5.570  12.274  1.00  0.00     0.345 HD
ATOM      5  H   UNL     1      23.378   6.824  12.278  1.00  0.00     0.345 HD
ATOM      6  H   UNL     1      25.045   7.182  12.302  1.00  0.00     0.345 HD
ENDBRANCH   2   3
BRANCH   2   7
ATOM      7  C   UNL     1      22.985   6.990  14.638  1.00  0.00     0.100 C 
ATOM      8  O   UNL     1      22.113   6.168  15.026  1.00  0.00    -0.544 OA
ATOM      9  O   UNL     1      22.709   8.352  14.680  1.00  0.00    -0.544 OA
ENDBRANCH   2   7
ENDBRANCH   1   2
BRANCH   1  10
ATOM     10  C   UNL     1      25.831   5.046  15.498  1.00  0.00     0.223 C 
ATOM     11  O   UNL     1      25.842   4.390  16.573  1.00  0.00    -0.275 OA
ATOM     12  N   UNL     1      27.011   5.728  15.072  1.00  0.00    -0.369 N 
ATOM     13  H   UNL     1      27.879   5.691  15.652  1.00  0.00     0.159 HD
ATOM     14  H   UNL     1      27.020   6.268  14.178  1.00  0.00     0.159 HD
ENDBRANCH   1  10
TORSDOF 4
ENDMDL
MODEL 3
REMARK VINA RESULT:    -4.074      2.004      3.407
REMARK INTER + INTRA:          -5.121
REMARK INTER:                  -5.021
REMARK INTRA:                  -0.101
REMARK UNBOUND:                -0.214
REMARK SMILES NC(=O)C[C@@H]([NH3+])C(=O)[O-]
REMARK SMILES IDX 4 1 5 2 6 3 7 7 8 8 9 9 2 10 3 11 1 12
REMARK H PARENT 6 4 6 5 6 6 1 13 1 14
REMARK Flexibility Score: inf
ROOT
ATOM      1  C   UNL     1      24.161   5.205  14.451  1.00  0.00     0.171 C 
ENDROOT
BRANCH   1   2
ATOM      2  C   UNL     1      24.507   4.383  15.708  1.00  0.00     0.237 C 
BRANCH   2   3
ATOM      3  N   UNL     1      24.392   2.941  15.455  1.00  0.00    -0.350 N 
ATOM      4  H   UNL     1      25.301   2.467  15.659  1.00  0.00     0.345 HD
ATOM      5  H   UNL     1      23.642   2.518  16.050  1.00  0.00     0.345 HD
ATOM      6  H   UNL     1      24.163   2.775  14.447  1.00  0.00     0.345 HD
ENDBRANCH   2   3
BRANCH   2   7
ATOM      7  C   UNL     1      25.903   4.718  16.164  1.00  0.00     0.100 C 
ATOM      8  O   UNL     1      26.710   5.275  15.375  1.00  0.00    -0.544 OA
ATOM      9  O   UNL     1      26.313   4.400  17.453  1.00  0.00    -0.544 OA
ENDBRANCH   2   7
ENDBRANCH   1   2
BRANCH   1  10
ATOM     10  C   UNL     1      23.082   6.211  14.725  1.00  0.00     0.223 C 
ATOM     11  O   UNL     1      23.256   7.419  14.411  1.00  0.00    -0.275 OA
ATOM     12  N   UNL     1      21.847   5.804  15.314  1.00  0.00    -0.369 N 
ATOM     13  H   UNL     1      21.092   6.503  15.493  1.00  0.00     0.159 HD
ATOM     14  H   UNL     1      21.684   4.805  15.570  1.00  0.00     0.159 HD
ENDBRANCH   1  10
TORSDOF 4
ENDMDL
MODEL 4
REMARK VINA RESULT:    -4.065      1.630      1.812
REMARK INTER + INTRA:          -5.110
REMARK INTER:                  -4.886
REMARK INTRA:                  -0.224
REMARK UNBOUND:                -0.214
REMARK SMILES NC(=O)C[C@@H]([NH3+])C(=O)[O-]
REMARK SMILES IDX 4 1 5 2 6 3 7 7 8 8 9 9 2 10 3 11 1 12
REMARK H PARENT 6 4 6 5 6 6 1 13 1 14
REMARK Flexibility Score: inf
ROOT
ATOM      1  C   UNL     1      23.753   5.259  15.031  1.00  0.00     0.171 C 
ENDROOT
BRANCH   1   2
ATOM      2  C   UNL     1      24.681   5.662  13.868  1.00  0.00     0.237 C 
BRANCH   2   3
ATOM      3  N   UNL     1      23.970   6.472  12.871  1.00  0.00    -0.350 N 
ATOM      4  H   UNL     1      23.878   7.457  13.209  1.00  0.00     0.345 HD
ATOM      5  H   UNL     1      24.479   6.468  11.957  1.00  0.00     0.345 HD
ATOM      6  H   UNL     1      23.006   6.091  12.726  1.00  0.00     0.345 HD
ENDBRANCH   2   3
BRANCH   2   7
ATOM      7  C   UNL     1      25.864   6.424  14.404  1.00  0.00     0.100 C 
ATOM      8  O   UNL     1      25.984   7.655  14.169  1.00  0.00    -0.544 OA
ATOM      9  O   UNL     1      26.840   5.770  15.147  1.00  0.00    -0.544 OA
ENDBRANCH   2   7
ENDBRANCH   1   2
BRANCH   1  10
ATOM     10  C   UNL     1      24.141   3.933  15.617  1.00  0.00     0.223 C 
ATOM     11  O   UNL     1      23.798   2.867  15.041  1.00  0.00    -0.275 OA
ATOM     12  N   UNL     1      24.922   3.873  16.811  1.00  0.00    -0.369 N 
ATOM     13  H   UNL     1      25.202   2.950  17.211  1.00  0.00     0.159 HD
ATOM     14  H   UNL     1      25.223   4.748  17.295  1.00  0.00     0.159 HD
ENDBRANCH   1  10
TORSDOF 4
ENDMDL
MODEL 5
REMARK VINA RESULT:    -4.060      1.756      1.935
REMARK INTER + INTRA:          -5.104
REMARK INTER:                  -5.018
REMARK INTRA:                  -0.086
REMARK UNBOUND:                -0.214
REMARK SMILES NC(=O)C[C@@H]([NH3+])C(=O)[O-]
REMARK SMILES IDX 4 1 5 2 6 3 7 7 8 8 9 9 2 10 3 11 1 12
REMARK H PARENT 6 4 6 5 6 6 1 13 1 14
REMARK Flexibility Score: inf
ROOT
ATOM      1  C   UNL     1      23.932   5.694  14.433  1.00  0.00     0.171 C 
ENDROOT
BRANCH   1   2
ATOM      2  C   UNL     1      25.084   6.409  13.699  1.00  0.00     0.237 C 
BRANCH   2   3
ATOM      3  N   UNL     1      24.889   6.385  12.244  1.00  0.00    -0.350 N 
ATOM      4  H   UNL     1      25.711   6.819  11.765  1.00  0.00     0.345 HD
ATOM      5  H   UNL     1      24.769   5.403  11.900  1.00  0.00     0.345 HD
ATOM      6  H   UNL     1      24.040   6.941  11.990  1.00  0.00     0.345 HD
ENDBRANCH   2   3
BRANCH   2   7
ATOM      7  C   UNL     1      25.189   7.830  14.184  1.00  0.00     0.100 C 
ATOM      8  O   UNL     1      24.149   8.485  14.455  1.00  0.00    -0.544 OA
ATOM      9  O   UNL     1      26.434   8.434  14.318  1.00  0.00    -0.544 OA
ENDBRANCH   2   7
ENDBRANCH   1   2
BRANCH   1  10
ATOM     10  C   UNL     1      24.414   4.488  15.184  1.00  0.00     0.223 C 
ATOM     11  O   UNL     1      25.540   4.510  15.749  1.00  0.00    -0.275 OA
ATOM     12  N   UNL     1      23.592   3.326  15.287  1.00  0.00    -0.369 N 
ATOM     13  H   UNL     1      23.924   2.491  15.821  1.00  0.00     0.159 HD
ATOM     14  H   UNL     1      22.652   3.297  14.834  1.00  0.00     0.159 HD
ENDBRANCH   1  10
TORSDOF 4
ENDMDL
MODEL 6
REMARK VINA RESULT:    -4.032      1.774      4.107
REMARK INTER + INTRA:          -5.071
REMARK INTER:                  -4.987
REMARK INTRA:                  -0.084
REMARK UNBOUND:                -0.214
REMARK SMILES NC(=O)C[C@@H]([NH3+])C(=O)[O-]
REMARK SMILES IDX 4 1 5 2 6 3 7 7 8 8 9 9 2 10 3 11 1 12
REMARK H PARENT 6 4 6 5 6 6 1 13 1 14
REMARK Flexibility Score: inf
ROOT
ATOM      1  C   UNL     1      24.728   5.038  14.882  1.00  0.00     0.171 C 
ENDROOT
BRANCH   1   2
ATOM      2  C   UNL     1      23.639   4.220  15.604  1.00  0.00     0.237 C 
BRANCH   2   3
ATOM      3  N   UNL     1      23.607   2.832  15.127  1.00  0.00    -0.350 N 
ATOM      4  H   UNL     1      24.500   2.347  15.373  1.00  0.00     0.345 HD
ATOM      5  H   UNL     1      22.805   2.311  15.553  1.00  0.00     0.345 HD
ATOM      6  H   UNL     1      23.510   2.816  14.085  1.00  0.00     0.345 HD
ENDBRANCH   2   3
BRANCH   2   7
ATOM      7  C   UNL     1      23.882   4.252  17.089  1.00  0.00     0.100 C 
ATOM      8  O   UNL     1      25.057   4.198  17.540  1.00  0.00    -0.544 OA
ATOM      9  O   UNL     1      22.812   4.323  17.973  1.00  0.00    -0.544 OA
ENDBRANCH   2   7
ENDBRANCH   1   2
BRANCH   1  10
ATOM     10  C   UNL     1      24.135   6.107  14.012  1.00  0.00     0.223 C 
ATOM     11  O   UNL     1      23.100   6.719  14.387  1.00  0.00    -0.275 OA
ATOM     12  N   UNL     1      24.754   6.456  12.774  1.00  0.00    -0.369 N 
ATOM     13  H   UNL     1      24.347   7.209  12.175  1.00  0.00     0.159 HD
ATOM     14  H   UNL     1      25.618   5.965  12.454  1.00  0.00     0.159 HD
ENDBRANCH   1  10
TORSDOF 4
ENDMDL
MODEL 7
REMARK VINA RESULT:    -3.997      2.378      3.085
REMARK INTER + INTRA:          -5.028
REMARK INTER:                  -4.934
REMARK INTRA:                  -0.094
REMARK UNBOUND:                -0.214
REMARK SMILES NC(=O)C[C@@H]([NH3+])C(=O)[O-]
REMARK SMILES IDX 4 1 5 2 6 3 7 7 8 8 9 9 2 10 3 11 1 12
REMARK H PARENT 6 4 6 5 6 6 1 13 1 14
REMARK Flexibility Score: inf
ROOT
ATOM      1  C   UNL     1      24.236   4.254  16.996  1.00  0.00     0.171 C 
ENDROOT
BRANCH   1   2
ATOM      2  C   UNL     1      24.283   4.039  15.470  1.00  0.00     0.237 C 
BRANCH   2   3
ATOM      3  N   UNL     1      23.500   2.863  15.070  1.00  0.00    -0.350 N 
ATOM      4  H   UNL     1      24.106   2.010  15.074  1.00  0.00     0.345 HD
ATOM      5  H   UNL     1      22.693   2.714  15.720  1.00  0.00     0.345 HD
ATOM      6  H   UNL     1      23.136   2.992  14.097  1.00  0.00     0.345 HD
ENDBRANCH   2   3
BRANCH   2   7
ATOM      7  C   UNL     1      23.765   5.267  14.769  1.00  0.00     0.100 C 
ATOM      8  O   UNL     1      24.426   5.788  13.833  1.00  0.00    -0.544 OA
ATOM      9  O   UNL     1      22.563   5.843  15.162  1.00  0.00    -0.544 OA
ENDBRANCH   2   7
ENDBRANCH   1   2
BRANCH   1  10
ATOM     10  C   UNL     1      25.610   4.252  17.599  1.00  0.00     0.223 C 
ATOM     11  O   UNL     1      26.597   4.629  16.913  1.00  0.00    -0.275 OA
ATOM     12  N   UNL     1      25.802   3.851  18.956  1.00  0.00    -0.369 N 
ATOM     13  H   UNL     1      26.757   3.862  19.378  1.00  0.00     0.159 HD
ATOM     14  H   UNL     1      24.992   3.546  19.540  1.00  0.00     0.159 HD
ENDBRANCH   1  10
TORSDOF 4
ENDMDL
MODEL 8
REMARK VINA RESULT:    -3.977      2.662      3.820
REMARK INTER + INTRA:          -5.005
REMARK INTER:                  -4.906
REMARK INTRA:                  -0.099
REMARK UNBOUND:                -0.214
REMARK SMILES NC(=O)C[C@@H]([NH3+])C(=O)[O-]
REMARK SMILES IDX 4 1 5 2 6 3 7 7 8 8 9 9 2 10 3 11 1 12
REMARK H PARENT 6 4 6 5 6 6 1 13 1 14
REMARK Flexibility Score: inf
ROOT
ATOM      1  C   UNL     1      24.702   7.856  14.238  1.00  0.00     0.171 C 
ENDROOT
BRANCH   1   2
ATOM      2  C   UNL     1      24.646   6.451  13.607  1.00  0.00     0.237 C 
BRANCH   2   3
ATOM      3  N   UNL     1      25.494   6.367  12.410  1.00  0.00    -0.350 N 
ATOM      4  H   UNL     1      26.448   6.028  12.670  1.00  0.00     0.345 HD
ATOM      5  H   UNL     1      25.077   5.717  11.704  1.00  0.00     0.345 HD
ATOM      6  H   UNL     1      25.597   7.317  11.981  1.00  0.00     0.345 HD
ENDBRANCH   2   3
BRANCH   2   7
ATOM      7  C   UNL     1      25.077   5.423  14.619  1.00  0.00     0.100 C 
ATOM      8  O   UNL     1      24.289   4.501  14.960  1.00  0.00    -0.544 OA
ATOM      9  O   UNL     1      26.339   5.494  15.195  1.00  0.00    -0.544 OA
ENDBRANCH   2   7
ENDBRANCH   1   2
BRANCH   1  10
ATOM     10  C   UNL     1      23.329   8.398  14.510  1.00  0.00     0.223 C 
ATOM     11  O   UNL     1      22.388   7.610  14.792  1.00  0.00    -0.275 OA
ATOM     12  N   UNL     1      23.089   9.805  14.478  1.00  0.00    -0.369 N 
ATOM     13  H   UNL     1      22.136  10.182  14.679  1.00  0.00     0.159 HD
ATOM     14  H   UNL     1      23.862  10.471  14.256  1.00  0.00     0.159 HD
ENDBRANCH   1  10
TORSDOF 4
ENDMDL
MODEL 9
REMARK VINA RESULT:    -3.972      1.836      4.233
REMARK INTER + INTRA:          -4.999
REMARK INTER:                  -4.738
REMARK INTRA:                  -0.260
REMARK UNBOUND:                -0.214
REMARK SMILES NC(=O)C[C@@H]([NH3+])C(=O)[O-]
REMARK SMILES IDX 4 1 5 2 6 3 7 7 8 8 9 9 2 10 3 11 1 12
REMARK H PARENT 6 4 6 5 6 6 1 13 1 14
REMARK Flexibility Score: inf
ROOT
ATOM      1  C   UNL     1      24.270   5.877  14.259  1.00  0.00     0.171 C 
ENDROOT
BRANCH   1   2
ATOM      2  C   UNL     1      24.976   4.609  14.780  1.00  0.00     0.237 C 
BRANCH   2   3
ATOM      3  N   UNL     1      26.133   4.947  15.618  1.00  0.00    -0.350 N 
ATOM      4  H   UNL     1      26.097   4.409  16.514  1.00  0.00     0.345 HD
ATOM      5  H   UNL     1      27.028   4.729  15.122  1.00  0.00     0.345 HD
ATOM      6  H   UNL     1      26.115   5.966  15.856  1.00  0.00     0.345 HD
ENDBRANCH   2   3
BRANCH   2   7
ATOM      7  C   UNL     1      23.999   3.770  15.561  1.00  0.00     0.100 C 
ATOM      8  O   UNL     1      23.503   4.208  16.632  1.00  0.00    -0.544 OA
ATOM      9  O   UNL     1      23.653   2.501  15.113  1.00  0.00    -0.544 OA
ENDBRANCH   2   7
ENDBRANCH   1   2
BRANCH   1  10
ATOM     10  C   UNL     1      25.213   6.768  13.506  1.00  0.00     0.223 C 
ATOM     11  O   UNL     1      25.787   7.719  14.101  1.00  0.00    -0.275 OA
ATOM     12  N   UNL     1      25.486   6.528  12.125  1.00  0.00    -0.369 N 
ATOM     13  H   UNL     1      26.152   7.142  11.605  1.00  0.00     0.159 HD
ATOM     14  H   UNL     1      25.025   5.738  11.622  1.00  0.00     0.159 HD
ENDBRANCH   1  10
TORSDOF 4
ENDMDL
