MODEL 1
REMARK VINA RESULT:     5.798      0.000      0.000
REMARK INTER + INTRA:           6.677
REMARK INTER:                   6.985
REMARK INTRA:                  -0.308
REMARK UNBOUND:                -0.308
REMARK SMILES O=c1c(O)c(-c2ccc(O)c(O)c2)oc2cc(O)cc(O)c12
REMARK SMILES IDX 5 1 3 2 2 3 1 4 22 5 20 6 19 7 17 8 16 9 15 10 14 11 6 12
REMARK SMILES IDX 7 13 8 14 9 15 13 16 11 17 10 18 12 20 4 22 21 24 18 26
REMARK H PARENT 10 19 12 21 4 23 21 25 18 27
REMARK Flexibility Score: inf
ROOT
ATOM      1  C   UNL     1     -17.965  33.949  -9.339  1.00  0.00     0.180 A 
ATOM      2  C   UNL     1     -17.757  33.485 -10.650  1.00  0.00     0.208 A 
ATOM      3  C   UNL     1     -16.486  33.622 -11.228  1.00  0.00     0.238 A 
ATOM      4  O   UNL     1     -16.293  33.156 -12.382  1.00  0.00    -0.285 OA
ATOM      5  C   UNL     1     -15.441  34.236 -10.496  1.00  0.00     0.111 A 
ATOM      6  C   UNL     1     -14.124  34.464 -10.998  1.00  0.00     0.134 A 
ATOM      7  C   UNL     1     -13.135  34.962 -10.141  1.00  0.00     0.093 A 
ATOM      8  C   UNL     1     -13.429  35.300  -8.820  1.00  0.00     0.123 A 
ATOM      9  C   UNL     1     -14.728  35.137  -8.337  1.00  0.00     0.094 A 
ATOM     10  C   UNL     1     -15.728  34.610  -9.157  1.00  0.00     0.146 A 
ATOM     11  O   UNL     1     -16.949  34.462  -8.655  1.00  0.00    -0.452 OA
ENDROOT
BRANCH   1  12
ATOM     12  C   UNL     1     -19.283  33.863  -8.672  1.00  0.00     0.025 A 
ATOM     13  C   UNL     1     -19.704  32.687  -8.032  1.00  0.00     0.016 A 
ATOM     14  C   UNL     1     -20.963  32.623  -7.431  1.00  0.00     0.051 A 
ATOM     15  C   UNL     1     -21.828  33.721  -7.466  1.00  0.00     0.157 A 
ATOM     16  C   UNL     1     -20.159  34.960  -8.728  1.00  0.00     0.062 A 
ATOM     17  C   UNL     1     -21.422  34.904  -8.126  1.00  0.00     0.158 A 
BRANCH  15  18
ATOM     18  O   UNL     1     -23.071  33.593  -6.841  1.00  0.00    -0.504 OA
ATOM     19  H   UNL     1     -23.932  33.968  -7.213  1.00  0.00     0.293 HD
ENDBRANCH  15  18
BRANCH  17  20
ATOM     20  O   UNL     1     -22.235  36.038  -8.212  1.00  0.00    -0.504 OA
ATOM     21  H   UNL     1     -21.886  36.985  -8.199  1.00  0.00     0.293 HD
ENDBRANCH  17  20
ENDBRANCH   1  12
BRANCH   2  22
ATOM     22  O   UNL     1     -18.796  32.862 -11.347  1.00  0.00    -0.502 OA
ATOM     23  H   UNL     1     -19.254  33.294 -12.141  1.00  0.00     0.293 HD
ENDBRANCH   2  22
BRANCH   6  24
ATOM     24  O   UNL     1     -13.747  34.246 -12.326  1.00  0.00    -0.507 OA
ATOM     25  H   UNL     1     -13.434  33.362 -12.697  1.00  0.00     0.293 HD
ENDBRANCH   6  24
BRANCH   8  26
ATOM     26  O   UNL     1     -12.424  35.807  -8.000  1.00  0.00    -0.508 OA
ATOM     27  H   UNL     1     -11.569  36.189  -8.385  1.00  0.00     0.293 HD
ENDBRANCH   8  26
TORSDOF 6
ENDMDL
MODEL 2
REMARK VINA RESULT:     7.119     14.253     16.179
REMARK INTER + INTRA:           8.268
REMARK INTER:                   8.399
REMARK INTRA:                  -0.131
REMARK UNBOUND:                -0.308
REMARK SMILES O=c1c(O)c(-c2ccc(O)c(O)c2)oc2cc(O)cc(O)c12
REMARK SMILES IDX 5 1 3 2 2 3 1 4 22 5 20 6 19 7 17 8 16 9 15 10 14 11 6 12
REMARK SMILES IDX 7 13 8 14 9 15 13 16 11 17 10 18 12 20 4 22 21 24 18 26
REMARK H PARENT 10 19 12 21 4 23 21 25 18 27
REMARK Flexibility Score: inf
ROOT
ATOM      1  C   UNL     1      -6.453  33.466   1.252  1.00  0.00     0.180 A 
ATOM      2  C   UNL     1      -5.364  33.946   0.504  1.00  0.00     0.208 A 
ATOM      3  C   UNL     1      -4.884  35.241   0.753  1.00  0.00     0.238 A 
ATOM      4  O   UNL     1      -3.875  35.644   0.117  1.00  0.00    -0.285 OA
ATOM      5  C   UNL     1      -5.509  36.047   1.735  1.00  0.00     0.111 A 
ATOM      6  C   UNL     1      -5.131  37.389   2.042  1.00  0.00     0.134 A 
ATOM      7  C   UNL     1      -5.734  38.047   3.121  1.00  0.00     0.093 A 
ATOM      8  C   UNL     1      -6.744  37.436   3.863  1.00  0.00     0.123 A 
ATOM      9  C   UNL     1      -7.162  36.146   3.534  1.00  0.00     0.094 A 
ATOM     10  C   UNL     1      -6.556  35.451   2.485  1.00  0.00     0.146 A 
ATOM     11  O   UNL     1      -6.976  34.222   2.210  1.00  0.00    -0.452 OA
ENDROOT
BRANCH   1  12
ATOM     12  C   UNL     1      -7.031  32.121   1.029  1.00  0.00     0.025 A 
ATOM     13  C   UNL     1      -7.549  31.746  -0.220  1.00  0.00     0.016 A 
ATOM     14  C   UNL     1      -8.111  30.480  -0.399  1.00  0.00     0.051 A 
ATOM     15  C   UNL     1      -8.178  29.571   0.663  1.00  0.00     0.157 A 
ATOM     16  C   UNL     1      -7.117  31.220   2.103  1.00  0.00     0.062 A 
ATOM     17  C   UNL     1      -7.678  29.947   1.931  1.00  0.00     0.158 A 
BRANCH  15  18
ATOM     18  O   UNL     1      -8.747  28.320   0.416  1.00  0.00    -0.504 OA
ATOM     19  H   UNL     1      -8.288  27.442   0.612  1.00  0.00     0.293 HD
ENDBRANCH  15  18
BRANCH  17  20
ATOM     20  O   UNL     1      -7.719  29.099   3.041  1.00  0.00    -0.504 OA
ATOM     21  H   UNL     1      -7.204  28.234   3.109  1.00  0.00     0.293 HD
ENDBRANCH  17  20
ENDBRANCH   1  12
BRANCH   2  22
ATOM     22  O   UNL     1      -4.748  33.125  -0.445  1.00  0.00    -0.502 OA
ATOM     23  H   UNL     1      -4.381  32.209  -0.216  1.00  0.00     0.293 HD
ENDBRANCH   2  22
BRANCH   6  24
ATOM     24  O   UNL     1      -4.198  38.125   1.306  1.00  0.00    -0.507 OA
ATOM     25  H   UNL     1      -4.423  38.911   0.715  1.00  0.00     0.293 HD
ENDBRANCH   6  24
BRANCH   8  26
ATOM     26  O   UNL     1      -7.333  38.125   4.921  1.00  0.00    -0.508 OA
ATOM     27  H   UNL     1      -6.804  38.380   5.747  1.00  0.00     0.293 HD
ENDBRANCH   8  26
TORSDOF 6
ENDMDL
MODEL 3
REMARK VINA RESULT:     7.937     10.904     14.243
REMARK INTER + INTRA:           9.253
REMARK INTER:                   9.019
REMARK INTRA:                   0.234
REMARK UNBOUND:                -0.308
REMARK SMILES O=c1c(O)c(-c2ccc(O)c(O)c2)oc2cc(O)cc(O)c12
REMARK SMILES IDX 5 1 3 2 2 3 1 4 22 5 20 6 19 7 17 8 16 9 15 10 14 11 6 12
REMARK SMILES IDX 7 13 8 14 9 15 13 16 11 17 10 18 12 20 4 22 21 24 18 26
REMARK H PARENT 10 19 12 21 4 23 21 25 18 27
REMARK Flexibility Score: inf
ROOT
ATOM      1  C   UNL     1      -8.109  35.748  -0.015  1.00  0.00     0.180 A 
ATOM      2  C   UNL     1      -7.289  36.812   0.400  1.00  0.00     0.208 A 
ATOM      3  C   UNL     1      -6.140  36.533   1.156  1.00  0.00     0.238 A 
ATOM      4  O   UNL     1      -5.382  37.485   1.478  1.00  0.00    -0.285 OA
ATOM      5  C   UNL     1      -5.834  35.195   1.503  1.00  0.00     0.111 A 
ATOM      6  C   UNL     1      -4.717  34.800   2.300  1.00  0.00     0.134 A 
ATOM      7  C   UNL     1      -4.438  33.439   2.472  1.00  0.00     0.093 A 
ATOM      8  C   UNL     1      -5.269  32.459   1.930  1.00  0.00     0.123 A 
ATOM      9  C   UNL     1      -6.397  32.834   1.199  1.00  0.00     0.094 A 
ATOM     10  C   UNL     1      -6.682  34.184   0.981  1.00  0.00     0.146 A 
ATOM     11  O   UNL     1      -7.759  34.499   0.271  1.00  0.00    -0.452 OA
ENDROOT
BRANCH   1  12
ATOM     12  C   UNL     1      -9.349  35.965  -0.793  1.00  0.00     0.025 A 
ATOM     13  C   UNL     1      -9.454  37.008  -1.726  1.00  0.00     0.016 A 
ATOM     14  C   UNL     1     -10.644  37.208  -2.430  1.00  0.00     0.051 A 
ATOM     15  C   UNL     1     -11.752  36.383  -2.210  1.00  0.00     0.157 A 
ATOM     16  C   UNL     1     -10.467  35.149  -0.553  1.00  0.00     0.062 A 
ATOM     17  C   UNL     1     -11.663  35.342  -1.256  1.00  0.00     0.158 A 
BRANCH  15  18
ATOM     18  O   UNL     1     -12.909  36.632  -2.950  1.00  0.00    -0.504 OA
ATOM     19  H   UNL     1     -13.566  37.371  -2.741  1.00  0.00     0.293 HD
ENDBRANCH  15  18
BRANCH  17  20
ATOM     20  O   UNL     1     -12.730  34.485  -0.974  1.00  0.00    -0.504 OA
ATOM     21  H   UNL     1     -13.503  34.725  -0.372  1.00  0.00     0.293 HD
ENDBRANCH  17  20
ENDBRANCH   1  12
BRANCH   2  22
ATOM     22  O   UNL     1      -7.599  38.123   0.027  1.00  0.00    -0.502 OA
ATOM     23  H   UNL     1      -7.999  38.792   0.674  1.00  0.00     0.293 HD
ENDBRANCH   2  22
BRANCH   6  24
ATOM     24  O   UNL     1      -3.875  35.698   2.963  1.00  0.00    -0.507 OA
ATOM     25  H   UNL     1      -3.511  36.549   2.561  1.00  0.00     0.293 HD
ENDBRANCH   6  24
BRANCH   8  26
ATOM     26  O   UNL     1      -4.970  31.114   2.134  1.00  0.00    -0.508 OA
ATOM     27  H   UNL     1      -5.698  30.411   2.183  1.00  0.00     0.293 HD
ENDBRANCH   8  26
TORSDOF 6
ENDMDL
MODEL 4
REMARK VINA RESULT:     8.155     13.568     15.692
REMARK INTER + INTRA:           9.515
REMARK INTER:                   9.610
REMARK INTRA:                  -0.095
REMARK UNBOUND:                -0.308
REMARK SMILES O=c1c(O)c(-c2ccc(O)c(O)c2)oc2cc(O)cc(O)c12
REMARK SMILES IDX 5 1 3 2 2 3 1 4 22 5 20 6 19 7 17 8 16 9 15 10 14 11 6 12
REMARK SMILES IDX 7 13 8 14 9 15 13 16 11 17 10 18 12 20 4 22 21 24 18 26
REMARK H PARENT 10 19 12 21 4 23 21 25 18 27
REMARK Flexibility Score: inf
ROOT
ATOM      1  C   UNL     1      -6.730  32.991   1.264  1.00  0.00     0.180 A 
ATOM      2  C   UNL     1      -5.469  33.380   1.748  1.00  0.00     0.208 A 
ATOM      3  C   UNL     1      -5.009  34.679   1.485  1.00  0.00     0.238 A 
ATOM      4  O   UNL     1      -3.902  35.038   1.966  1.00  0.00    -0.285 OA
ATOM      5  C   UNL     1      -5.808  35.569   0.727  1.00  0.00     0.111 A 
ATOM      6  C   UNL     1      -5.424  36.896   0.366  1.00  0.00     0.134 A 
ATOM      7  C   UNL     1      -6.347  37.732  -0.274  1.00  0.00     0.093 A 
ATOM      8  C   UNL     1      -7.615  37.271  -0.624  1.00  0.00     0.123 A 
ATOM      9  C   UNL     1      -7.980  35.956  -0.328  1.00  0.00     0.094 A 
ATOM     10  C   UNL     1      -7.094  35.109   0.341  1.00  0.00     0.146 A 
ATOM     11  O   UNL     1      -7.483  33.869   0.613  1.00  0.00    -0.452 OA
ENDROOT
BRANCH   1  12
ATOM     12  C   UNL     1      -7.271  31.630   1.480  1.00  0.00     0.025 A 
ATOM     13  C   UNL     1      -7.622  30.803   0.401  1.00  0.00     0.016 A 
ATOM     14  C   UNL     1      -8.153  29.532   0.630  1.00  0.00     0.051 A 
ATOM     15  C   UNL     1      -8.355  29.066   1.934  1.00  0.00     0.157 A 
ATOM     16  C   UNL     1      -7.493  31.174   2.789  1.00  0.00     0.062 A 
ATOM     17  C   UNL     1      -8.024  29.900   3.028  1.00  0.00     0.158 A 
BRANCH  15  18
ATOM     18  O   UNL     1      -8.885  27.784   2.094  1.00  0.00    -0.504 OA
ATOM     19  H   UNL     1      -8.696  27.190   2.889  1.00  0.00     0.293 HD
ENDBRANCH  15  18
BRANCH  17  20
ATOM     20  O   UNL     1      -8.207  29.509   4.356  1.00  0.00    -0.504 OA
ATOM     21  H   UNL     1      -7.885  30.042   5.151  1.00  0.00     0.293 HD
ENDBRANCH  17  20
ENDBRANCH   1  12
BRANCH   2  22
ATOM     22  O   UNL     1      -4.706  32.492   2.513  1.00  0.00    -0.502 OA
ATOM     23  H   UNL     1      -4.064  31.828   2.096  1.00  0.00     0.293 HD
ENDBRANCH   2  22
BRANCH   6  24
ATOM     24  O   UNL     1      -4.150  37.427   0.586  1.00  0.00    -0.507 OA
ATOM     25  H   UNL     1      -3.551  37.801  -0.135  1.00  0.00     0.293 HD
ENDBRANCH   6  24
BRANCH   8  26
ATOM     26  O   UNL     1      -8.503  38.125  -1.273  1.00  0.00    -0.508 OA
ATOM     27  H   UNL     1      -8.998  38.854  -0.774  1.00  0.00     0.293 HD
ENDBRANCH   8  26
TORSDOF 6
ENDMDL
MODEL 5
REMARK VINA RESULT:     8.488     11.048     14.382
REMARK INTER + INTRA:           9.917
REMARK INTER:                   9.618
REMARK INTRA:                   0.300
REMARK UNBOUND:                -0.308
REMARK SMILES O=c1c(O)c(-c2ccc(O)c(O)c2)oc2cc(O)cc(O)c12
REMARK SMILES IDX 5 1 3 2 2 3 1 4 22 5 20 6 19 7 17 8 16 9 15 10 14 11 6 12
REMARK SMILES IDX 7 13 8 14 9 15 13 16 11 17 10 18 12 20 4 22 21 24 18 26
REMARK H PARENT 10 19 12 21 4 23 21 25 18 27
REMARK Flexibility Score: inf
ROOT
ATOM      1  C   UNL     1      -8.099  34.825   0.252  1.00  0.00     0.180 A 
ATOM      2  C   UNL     1      -6.986  35.597   0.629  1.00  0.00     0.208 A 
ATOM      3  C   UNL     1      -5.920  34.975   1.297  1.00  0.00     0.238 A 
ATOM      4  O   UNL     1      -4.904  35.660   1.583  1.00  0.00    -0.285 OA
ATOM      5  C   UNL     1      -5.987  33.593   1.595  1.00  0.00     0.111 A 
ATOM      6  C   UNL     1      -4.982  32.868   2.305  1.00  0.00     0.134 A 
ATOM      7  C   UNL     1      -5.092  31.477   2.430  1.00  0.00     0.093 A 
ATOM      8  C   UNL     1      -6.200  30.794   1.929  1.00  0.00     0.123 A 
ATOM      9  C   UNL     1      -7.217  31.502   1.286  1.00  0.00     0.094 A 
ATOM     10  C   UNL     1      -7.119  32.884   1.114  1.00  0.00     0.146 A 
ATOM     11  O   UNL     1      -8.103  33.519   0.488  1.00  0.00    -0.452 OA
ENDROOT
BRANCH   1  12
ATOM     12  C   UNL     1      -9.272  35.415  -0.433  1.00  0.00     0.025 A 
ATOM     13  C   UNL     1     -10.562  34.892  -0.254  1.00  0.00     0.016 A 
ATOM     14  C   UNL     1     -11.649  35.451  -0.930  1.00  0.00     0.051 A 
ATOM     15  C   UNL     1     -11.471  36.530  -1.802  1.00  0.00     0.157 A 
ATOM     16  C   UNL     1      -9.086  36.483  -1.325  1.00  0.00     0.062 A 
ATOM     17  C   UNL     1     -10.171  37.051  -2.005  1.00  0.00     0.158 A 
BRANCH  15  18
ATOM     18  O   UNL     1     -12.599  37.046  -2.442  1.00  0.00    -0.504 OA
ATOM     19  H   UNL     1     -12.563  37.660  -3.244  1.00  0.00     0.293 HD
ENDBRANCH  15  18
BRANCH  17  20
ATOM     20  O   UNL     1      -9.912  38.118  -2.868  1.00  0.00    -0.504 OA
ATOM     21  H   UNL     1     -10.462  38.964  -2.900  1.00  0.00     0.293 HD
ENDBRANCH  17  20
ENDBRANCH   1  12
BRANCH   2  22
ATOM     22  O   UNL     1      -6.932  36.956   0.304  1.00  0.00    -0.502 OA
ATOM     23  H   UNL     1      -6.894  37.285  -0.653  1.00  0.00     0.293 HD
ENDBRANCH   2  22
BRANCH   6  24
ATOM     24  O   UNL     1      -3.880  33.464   2.924  1.00  0.00    -0.507 OA
ATOM     25  H   UNL     1      -3.682  33.418   3.912  1.00  0.00     0.293 HD
ENDBRANCH   6  24
BRANCH   8  26
ATOM     26  O   UNL     1      -6.285  29.413   2.085  1.00  0.00    -0.508 OA
ATOM     27  H   UNL     1      -7.106  28.974   2.483  1.00  0.00     0.293 HD
ENDBRANCH   8  26
TORSDOF 6
ENDMDL
