MODEL 1
REMARK VINA RESULT:    -5.525      0.000      0.000
REMARK INTER + INTRA:          -8.274
REMARK INTER:                  -7.463
REMARK INTRA:                  -0.811
REMARK UNBOUND:                -0.811
REMARK SMILES CC(=O)CCC=C(C)CCC=C(C)C
REMARK SMILES IDX 7 1 6 2 8 3 9 4 10 5 11 6 13 7 12 8 14 9 5 10 4 11 2 12 3 13
REMARK SMILES IDX 1 14
REMARK H PARENT
REMARK Flexibility Score: inf
ROOT
ATOM      1  C   UNL     1      12.728 -35.115 -31.523  1.00  0.00    -0.077 C 
ATOM      2  C   UNL     1      13.332 -33.913 -31.655  1.00  0.00    -0.028 C 
ATOM      3  C   UNL     1      11.371 -35.385 -32.124  1.00  0.00     0.039 C 
ENDROOT
BRANCH   1   4
ATOM      4  C   UNL     1      13.443 -36.225 -30.781  1.00  0.00     0.034 C 
BRANCH   4   5
ATOM      5  C   UNL     1      12.850 -36.443 -29.382  1.00  0.00     0.032 C 
BRANCH   5   6
ATOM      6  C   UNL     1      13.348 -35.411 -28.396  1.00  0.00    -0.028 C 
ATOM      7  C   UNL     1      11.230 -34.078 -28.470  1.00  0.00     0.039 C 
ATOM      8  C   UNL     1      12.623 -34.362 -27.954  1.00  0.00    -0.080 C 
ATOM      9  C   UNL     1      13.241 -33.444 -26.928  1.00  0.00     0.039 C 
ENDBRANCH   5   6
ENDBRANCH   4   5
ENDBRANCH   1   4
BRANCH   2  10
ATOM     10  C   UNL     1      12.717 -32.758 -32.408  1.00  0.00     0.035 C 
BRANCH  10  11
ATOM     11  C   UNL     1      13.735 -32.058 -33.323  1.00  0.00     0.079 C 
BRANCH  11  12
ATOM     12  C   UNL     1      15.061 -31.851 -32.633  1.00  0.00     0.130 C 
ATOM     13  O   UNL     1      16.054 -32.439 -33.037  1.00  0.00    -0.300 OA
ATOM     14  C   UNL     1      15.161 -30.979 -31.414  1.00  0.00     0.087 C 
ENDBRANCH  11  12
ENDBRANCH  10  11
ENDBRANCH   2  10
TORSDOF 6
ENDMDL
MODEL 2
REMARK VINA RESULT:    -5.316      1.839      4.485
REMARK INTER + INTRA:          -7.992
REMARK INTER:                  -7.380
REMARK INTRA:                  -0.611
REMARK UNBOUND:                -0.811
REMARK SMILES CC(=O)CCC=C(C)CCC=C(C)C
REMARK SMILES IDX 7 1 6 2 8 3 9 4 10 5 11 6 13 7 12 8 14 9 5 10 4 11 2 12 3 13
REMARK SMILES IDX 1 14
REMARK H PARENT
REMARK Flexibility Score: inf
ROOT
ATOM      1  C   UNL     1      13.251 -36.378 -29.379  1.00  0.00    -0.077 C 
ATOM      2  C   UNL     1      12.425 -35.377 -29.001  1.00  0.00    -0.028 C 
ATOM      3  C   UNL     1      14.284 -36.945 -28.436  1.00  0.00     0.039 C 
ENDROOT
BRANCH   1   4
ATOM      4  C   UNL     1      13.118 -36.962 -30.769  1.00  0.00     0.034 C 
BRANCH   4   5
ATOM      5  C   UNL     1      12.657 -35.907 -31.785  1.00  0.00     0.032 C 
BRANCH   5   6
ATOM      6  C   UNL     1      13.576 -34.706 -31.799  1.00  0.00    -0.028 C 
ATOM      7  C   UNL     1      11.762 -33.120 -32.481  1.00  0.00     0.039 C 
ATOM      8  C   UNL     1      13.183 -33.445 -32.079  1.00  0.00    -0.080 C 
ATOM      9  C   UNL     1      14.210 -32.341 -32.003  1.00  0.00     0.039 C 
ENDBRANCH   5   6
ENDBRANCH   4   5
ENDBRANCH   1   4
BRANCH   2  10
ATOM     10  C   UNL     1      12.455 -34.756 -27.625  1.00  0.00     0.035 C 
BRANCH  10  11
ATOM     11  C   UNL     1      11.427 -33.624 -27.480  1.00  0.00     0.079 C 
BRANCH  11  12
ATOM     12  C   UNL     1      11.452 -32.687 -28.663  1.00  0.00     0.130 C 
ATOM     13  O   UNL     1      12.486 -32.100 -28.951  1.00  0.00    -0.300 OA
ATOM     14  C   UNL     1      10.203 -32.417 -29.453  1.00  0.00     0.087 C 
ENDBRANCH  11  12
ENDBRANCH  10  11
ENDBRANCH   2  10
TORSDOF 6
ENDMDL
MODEL 3
REMARK VINA RESULT:    -5.243      1.432      2.477
REMARK INTER + INTRA:          -7.893
REMARK INTER:                  -7.042
REMARK INTRA:                  -0.851
REMARK UNBOUND:                -0.811
REMARK SMILES CC(=O)CCC=C(C)CCC=C(C)C
REMARK SMILES IDX 7 1 6 2 8 3 9 4 10 5 11 6 13 7 12 8 14 9 5 10 4 11 2 12 3 13
REMARK SMILES IDX 1 14
REMARK H PARENT
REMARK Flexibility Score: inf
ROOT
ATOM      1  C   UNL     1      11.979 -32.741 -30.220  1.00  0.00    -0.077 C 
ATOM      2  C   UNL     1      13.059 -32.801 -31.030  1.00  0.00    -0.028 C 
ATOM      3  C   UNL     1      10.576 -32.795 -30.772  1.00  0.00     0.039 C 
ENDROOT
BRANCH   1   4
ATOM      4  C   UNL     1      12.182 -32.646 -28.722  1.00  0.00     0.034 C 
BRANCH   4   5
ATOM      5  C   UNL     1      11.750 -33.936 -28.010  1.00  0.00     0.032 C 
BRANCH   5   6
ATOM      6  C   UNL     1      12.883 -34.933 -27.922  1.00  0.00    -0.028 C 
ATOM      7  C   UNL     1      12.105 -36.240 -29.912  1.00  0.00     0.039 C 
ATOM      8  C   UNL     1      13.073 -35.954 -28.786  1.00  0.00    -0.080 C 
ATOM      9  C   UNL     1      14.282 -36.837 -28.597  1.00  0.00     0.039 C 
ENDBRANCH   5   6
ENDBRANCH   4   5
ENDBRANCH   1   4
BRANCH   2  10
ATOM     10  C   UNL     1      12.959 -32.935 -32.531  1.00  0.00     0.035 C 
BRANCH  10  11
ATOM     11  C   UNL     1      13.853 -31.921 -33.262  1.00  0.00     0.079 C 
BRANCH  11  12
ATOM     12  C   UNL     1      15.284 -31.989 -32.786  1.00  0.00     0.130 C 
ATOM     13  O   UNL     1      15.695 -31.167 -31.979  1.00  0.00    -0.300 OA
ATOM     14  C   UNL     1      16.229 -33.015 -33.343  1.00  0.00     0.087 C 
ENDBRANCH  11  12
ENDBRANCH  10  11
ENDBRANCH   2  10
TORSDOF 6
ENDMDL
MODEL 4
REMARK VINA RESULT:    -5.228      2.264      4.807
REMARK INTER + INTRA:          -7.873
REMARK INTER:                  -6.708
REMARK INTRA:                  -1.165
REMARK UNBOUND:                -0.811
REMARK SMILES CC(=O)CCC=C(C)CCC=C(C)C
REMARK SMILES IDX 7 1 6 2 8 3 9 4 10 5 11 6 13 7 12 8 14 9 5 10 4 11 2 12 3 13
REMARK SMILES IDX 1 14
REMARK H PARENT
REMARK Flexibility Score: inf
ROOT
ATOM      1  C   UNL     1      10.727 -34.961 -31.738  1.00  0.00    -0.077 C 
ATOM      2  C   UNL     1      11.718 -35.831 -32.033  1.00  0.00    -0.028 C 
ATOM      3  C   UNL     1      10.033 -34.981 -30.399  1.00  0.00     0.039 C 
ENDROOT
BRANCH   1   4
ATOM      4  C   UNL     1      10.324 -33.923 -32.765  1.00  0.00     0.034 C 
BRANCH   4   5
ATOM      5  C   UNL     1      10.966 -32.559 -32.473  1.00  0.00     0.032 C 
BRANCH   5   6
ATOM      6  C   UNL     1      12.417 -32.522 -32.895  1.00  0.00    -0.028 C 
ATOM      7  C   UNL     1      13.273 -32.578 -30.543  1.00  0.00     0.039 C 
ATOM      8  C   UNL     1      13.464 -32.561 -32.043  1.00  0.00    -0.080 C 
ATOM      9  C   UNL     1      14.858 -32.568 -32.619  1.00  0.00     0.039 C 
ENDBRANCH   5   6
ENDBRANCH   4   5
ENDBRANCH   1   4
BRANCH   2  10
ATOM     10  C   UNL     1      12.217 -36.875 -31.062  1.00  0.00     0.035 C 
BRANCH  10  11
ATOM     11  C   UNL     1      13.617 -36.543 -30.525  1.00  0.00     0.079 C 
BRANCH  11  12
ATOM     12  C   UNL     1      13.623 -36.401 -29.022  1.00  0.00     0.130 C 
ATOM     13  O   UNL     1      14.176 -37.248 -28.334  1.00  0.00    -0.300 OA
ATOM     14  C   UNL     1      12.899 -35.265 -28.358  1.00  0.00     0.087 C 
ENDBRANCH  11  12
ENDBRANCH  10  11
ENDBRANCH   2  10
TORSDOF 6
ENDMDL
MODEL 5
REMARK VINA RESULT:    -5.227      2.114      4.118
REMARK INTER + INTRA:          -7.872
REMARK INTER:                  -6.826
REMARK INTRA:                  -1.045
REMARK UNBOUND:                -0.811
REMARK SMILES CC(=O)CCC=C(C)CCC=C(C)C
REMARK SMILES IDX 7 1 6 2 8 3 9 4 10 5 11 6 13 7 12 8 14 9 5 10 4 11 2 12 3 13
REMARK SMILES IDX 1 14
REMARK H PARENT
REMARK Flexibility Score: inf
ROOT
ATOM      1  C   UNL     1      11.064 -33.761 -31.865  1.00  0.00    -0.077 C 
ATOM      2  C   UNL     1      10.964 -35.106 -31.785  1.00  0.00    -0.028 C 
ATOM      3  C   UNL     1      12.321 -33.092 -32.363  1.00  0.00     0.039 C 
ENDROOT
BRANCH   1   4
ATOM      4  C   UNL     1       9.876 -32.907 -31.473  1.00  0.00     0.034 C 
BRANCH   4   5
ATOM      5  C   UNL     1      10.129 -32.156 -30.158  1.00  0.00     0.032 C 
BRANCH   5   6
ATOM      6  C   UNL     1      10.446 -33.105 -29.025  1.00  0.00    -0.028 C 
ATOM      7  C   UNL     1      12.798 -32.280 -28.774  1.00  0.00     0.039 C 
ATOM      8  C   UNL     1      11.629 -33.151 -28.373  1.00  0.00    -0.080 C 
ATOM      9  C   UNL     1      11.777 -34.121 -27.226  1.00  0.00     0.039 C 
ENDBRANCH   5   6
ENDBRANCH   4   5
ENDBRANCH   1   4
BRANCH   2  10
ATOM     10  C   UNL     1      12.078 -36.043 -32.188  1.00  0.00     0.035 C 
BRANCH  10  11
ATOM     11  C   UNL     1      12.418 -37.048 -31.077  1.00  0.00     0.079 C 
BRANCH  11  12
ATOM     12  C   UNL     1      13.295 -36.433 -30.013  1.00  0.00     0.130 C 
ATOM     13  O   UNL     1      13.750 -35.309 -30.176  1.00  0.00    -0.300 OA
ATOM     14  C   UNL     1      13.669 -37.212 -28.785  1.00  0.00     0.087 C 
ENDBRANCH  11  12
ENDBRANCH  10  11
ENDBRANCH   2  10
TORSDOF 6
ENDMDL
MODEL 6
REMARK VINA RESULT:    -5.172      2.818      4.913
REMARK INTER + INTRA:          -7.797
REMARK INTER:                  -6.837
REMARK INTRA:                  -0.960
REMARK UNBOUND:                -0.811
REMARK SMILES CC(=O)CCC=C(C)CCC=C(C)C
REMARK SMILES IDX 7 1 6 2 8 3 9 4 10 5 11 6 13 7 12 8 14 9 5 10 4 11 2 12 3 13
REMARK SMILES IDX 1 14
REMARK H PARENT
REMARK Flexibility Score: inf
ROOT
ATOM      1  C   UNL     1      11.753 -32.972 -31.174  1.00  0.00    -0.077 C 
ATOM      2  C   UNL     1      12.029 -32.860 -29.856  1.00  0.00    -0.028 C 
ATOM      3  C   UNL     1      10.332 -33.012 -31.681  1.00  0.00     0.039 C 
ENDROOT
BRANCH   1   4
ATOM      4  C   UNL     1      12.895 -33.030 -32.166  1.00  0.00     0.034 C 
BRANCH   4   5
ATOM      5  C   UNL     1      13.908 -34.123 -31.800  1.00  0.00     0.032 C 
BRANCH   5   6
ATOM      6  C   UNL     1      13.317 -35.507 -31.948  1.00  0.00    -0.028 C 
ATOM      7  C   UNL     1      13.535 -36.040 -29.511  1.00  0.00     0.039 C 
ATOM      8  C   UNL     1      13.114 -36.366 -30.927  1.00  0.00    -0.080 C 
ATOM      9  C   UNL     1      12.465 -37.696 -31.226  1.00  0.00     0.039 C 
ENDBRANCH   5   6
ENDBRANCH   4   5
ENDBRANCH   1   4
BRANCH   2  10
ATOM     10  C   UNL     1      10.960 -32.758 -28.793  1.00  0.00     0.035 C 
BRANCH  10  11
ATOM     11  C   UNL     1      10.889 -34.021 -27.921  1.00  0.00     0.079 C 
BRANCH  11  12
ATOM     12  C   UNL     1      11.734 -33.893 -26.677  1.00  0.00     0.130 C 
ATOM     13  O   UNL     1      11.224 -34.052 -25.577  1.00  0.00    -0.300 OA
ATOM     14  C   UNL     1      13.183 -33.506 -26.772  1.00  0.00     0.087 C 
ENDBRANCH  11  12
ENDBRANCH  10  11
ENDBRANCH   2  10
TORSDOF 6
ENDMDL
MODEL 7
REMARK VINA RESULT:    -5.035      1.343      2.247
REMARK INTER + INTRA:          -7.612
REMARK INTER:                  -6.902
REMARK INTRA:                  -0.711
REMARK UNBOUND:                -0.811
REMARK SMILES CC(=O)CCC=C(C)CCC=C(C)C
REMARK SMILES IDX 7 1 6 2 8 3 9 4 10 5 11 6 13 7 12 8 14 9 5 10 4 11 2 12 3 13
REMARK SMILES IDX 1 14
REMARK H PARENT
REMARK Flexibility Score: inf
ROOT
ATOM      1  C   UNL     1      12.283 -33.879 -31.547  1.00  0.00    -0.077 C 
ATOM      2  C   UNL     1      13.511 -33.385 -31.275  1.00  0.00    -0.028 C 
ATOM      3  C   UNL     1      11.039 -33.047 -31.356  1.00  0.00     0.039 C 
ENDROOT
BRANCH   1   4
ATOM      4  C   UNL     1      12.156 -35.289 -32.084  1.00  0.00     0.034 C 
BRANCH   4   5
ATOM      5  C   UNL     1      11.704 -36.271 -30.993  1.00  0.00     0.032 C 
BRANCH   5   6
ATOM      6  C   UNL     1      12.879 -36.842 -30.233  1.00  0.00    -0.028 C 
ATOM      7  C   UNL     1      12.628 -35.244 -28.320  1.00  0.00     0.039 C 
ATOM      8  C   UNL     1      13.287 -36.413 -29.019  1.00  0.00    -0.080 C 
ATOM      9  C   UNL     1      14.448 -37.118 -28.362  1.00  0.00     0.039 C 
ENDBRANCH   5   6
ENDBRANCH   4   5
ENDBRANCH   1   4
BRANCH   2  10
ATOM     10  C   UNL     1      13.744 -31.979 -30.774  1.00  0.00     0.035 C 
BRANCH  10  11
ATOM     11  C   UNL     1      14.906 -31.290 -31.506  1.00  0.00     0.079 C 
BRANCH  11  12
ATOM     12  C   UNL     1      15.025 -31.758 -32.936  1.00  0.00     0.130 C 
ATOM     13  O   UNL     1      14.251 -31.331 -33.781  1.00  0.00    -0.300 OA
ATOM     14  C   UNL     1      16.044 -32.793 -33.320  1.00  0.00     0.087 C 
ENDBRANCH  11  12
ENDBRANCH  10  11
ENDBRANCH   2  10
TORSDOF 6
ENDMDL
MODEL 8
REMARK VINA RESULT:    -4.971      1.564      2.414
REMARK INTER + INTRA:          -7.526
REMARK INTER:                  -6.736
REMARK INTRA:                  -0.790
REMARK UNBOUND:                -0.811
REMARK SMILES CC(=O)CCC=C(C)CCC=C(C)C
REMARK SMILES IDX 7 1 6 2 8 3 9 4 10 5 11 6 13 7 12 8 14 9 5 10 4 11 2 12 3 13
REMARK SMILES IDX 1 14
REMARK H PARENT
REMARK Flexibility Score: inf
ROOT
ATOM      1  C   UNL     1      11.672 -34.143 -31.827  1.00  0.00    -0.077 C 
ATOM      2  C   UNL     1      12.784 -33.401 -32.027  1.00  0.00    -0.028 C 
ATOM      3  C   UNL     1      11.740 -35.644 -31.689  1.00  0.00     0.039 C 
ENDROOT
BRANCH   1   4
ATOM      4  C   UNL     1      10.331 -33.450 -31.712  1.00  0.00     0.034 C 
BRANCH   4   5
ATOM      5  C   UNL     1      10.270 -32.538 -30.478  1.00  0.00     0.032 C 
BRANCH   5   6
ATOM      6  C   UNL     1      10.452 -33.318 -29.196  1.00  0.00    -0.028 C 
ATOM      7  C   UNL     1      12.711 -32.343 -28.730  1.00  0.00     0.039 C 
ATOM      8  C   UNL     1      11.528 -33.219 -28.386  1.00  0.00    -0.080 C 
ATOM      9  C   UNL     1      11.542 -34.027 -27.111  1.00  0.00     0.039 C 
ENDBRANCH   5   6
ENDBRANCH   4   5
ENDBRANCH   1   4
BRANCH   2  10
ATOM     10  C   UNL     1      14.169 -33.996 -32.117  1.00  0.00     0.035 C 
BRANCH  10  11
ATOM     11  C   UNL     1      15.137 -33.091 -32.894  1.00  0.00     0.079 C 
BRANCH  11  12
ATOM     12  C   UNL     1      14.810 -31.629 -32.708  1.00  0.00     0.130 C 
ATOM     13  O   UNL     1      14.398 -30.974 -33.655  1.00  0.00    -0.300 OA
ATOM     14  C   UNL     1      15.049 -30.953 -31.388  1.00  0.00     0.087 C 
ENDBRANCH  11  12
ENDBRANCH  10  11
ENDBRANCH   2  10
TORSDOF 6
ENDMDL
MODEL 9
REMARK VINA RESULT:    -4.907      2.416      5.305
REMARK INTER + INTRA:          -7.439
REMARK INTER:                  -6.375
REMARK INTRA:                  -1.064
REMARK UNBOUND:                -0.811
REMARK SMILES CC(=O)CCC=C(C)CCC=C(C)C
REMARK SMILES IDX 7 1 6 2 8 3 9 4 10 5 11 6 13 7 12 8 14 9 5 10 4 11 2 12 3 13
REMARK SMILES IDX 1 14
REMARK H PARENT
REMARK Flexibility Score: inf
ROOT
ATOM      1  C   UNL     1      10.188 -32.973 -30.525  1.00  0.00    -0.077 C 
ATOM      2  C   UNL     1      10.589 -34.221 -30.196  1.00  0.00    -0.028 C 
ATOM      3  C   UNL     1       9.915 -31.930 -29.470  1.00  0.00     0.039 C 
ENDROOT
BRANCH   1   4
ATOM      4  C   UNL     1      10.039 -32.605 -31.986  1.00  0.00     0.034 C 
BRANCH   4   5
ATOM      5  C   UNL     1      11.163 -33.209 -32.840  1.00  0.00     0.032 C 
BRANCH   5   6
ATOM      6  C   UNL     1      12.407 -32.351 -32.814  1.00  0.00    -0.028 C 
ATOM      7  C   UNL     1      13.794 -34.107 -31.692  1.00  0.00     0.039 C 
ATOM      8  C   UNL     1      13.603 -32.750 -32.331  1.00  0.00    -0.080 C 
ATOM      9  C   UNL     1      14.768 -31.796 -32.421  1.00  0.00     0.039 C 
ENDBRANCH   5   6
ENDBRANCH   4   5
ENDBRANCH   1   4
BRANCH   2  10
ATOM     10  C   UNL     1      10.804 -34.671 -28.771  1.00  0.00     0.035 C 
BRANCH  10  11
ATOM     11  C   UNL     1      12.281 -34.592 -28.357  1.00  0.00     0.079 C 
BRANCH  11  12
ATOM     12  C   UNL     1      12.456 -33.890 -27.032  1.00  0.00     0.130 C 
ATOM     13  O   UNL     1      13.499 -33.298 -26.792  1.00  0.00    -0.300 OA
ATOM     14  C   UNL     1      11.388 -33.966 -25.978  1.00  0.00     0.087 C 
ENDBRANCH  11  12
ENDBRANCH  10  11
ENDBRANCH   2  10
TORSDOF 6
ENDMDL
