MODEL 1
REMARK VINA RESULT:    -5.493      0.000      0.000
REMARK INTER + INTRA:         -10.766
REMARK INTER:                  -8.384
REMARK INTRA:                  -2.383
REMARK UNBOUND:                -2.383
REMARK SMILES OC[C@@H]1O[C@H](O[C@]2(CO)O[C@H](CO)[C@H](O)[C@H]2O)[C@H](O)[C@H](O)[C@@H]1O
REMARK SMILES IDX 6 1 5 2 3 3 22 4 4 5 20 6 18 7 2 8 1 9 23 11 21 13 19 15
REMARK SMILES IDX 7 17 16 18 10 19 14 20 11 21 8 22 9 23 17 25 15 27 12 29
REMARK SMILES IDX 13 30
REMARK H PARENT 1 10 23 12 21 14 19 16 9 24 17 26 15 28 13 31
REMARK Flexibility Score: inf
ROOT
ATOM      1  O   UNL     1      29.224  20.184 141.046  1.00  0.00    -0.313 OA
ENDROOT
BRANCH   1   2
ATOM      2  C   UNL     1      29.522  18.816 140.790  1.00  0.00     0.285 C 
ATOM      3  C   UNL     1      29.096  18.013 143.011  1.00  0.00     0.178 C 
ATOM      4  C   UNL     1      27.748  17.372 142.564  1.00  0.00     0.177 C 
ATOM      5  O   UNL     1      30.037  18.187 141.956  1.00  0.00    -0.341 OA
ATOM      6  C   UNL     1      27.166  17.982 141.275  1.00  0.00     0.179 C 
ATOM      7  C   UNL     1      28.288  18.077 140.230  1.00  0.00     0.202 C 
BRANCH   3   8
ATOM      8  C   UNL     1      29.017  19.244 143.943  1.00  0.00     0.191 C 
BRANCH   8   9
ATOM      9  O   UNL     1      30.189  20.005 143.919  1.00  0.00    -0.394 OA
ATOM     10  H   UNL     1      30.754  19.665 144.661  1.00  0.00     0.210 HD
ENDBRANCH   8   9
ENDBRANCH   3   8
BRANCH   4  11
ATOM     11  O   UNL     1      26.804  17.327 143.607  1.00  0.00    -0.387 OA
ATOM     12  H   UNL     1      27.150  17.864 144.364  1.00  0.00     0.211 HD
ENDBRANCH   4  11
BRANCH   6  13
ATOM     13  O   UNL     1      26.600  19.244 141.525  1.00  0.00    -0.387 OA
ATOM     14  H   UNL     1      27.330  19.912 141.455  1.00  0.00     0.211 HD
ENDBRANCH   6  13
BRANCH   7  15
ATOM     15  O   UNL     1      27.832  18.654 139.031  1.00  0.00    -0.385 OA
ATOM     16  H   UNL     1      27.868  19.641 139.126  1.00  0.00     0.211 HD
ENDBRANCH   7  15
ENDBRANCH   1   2
BRANCH   1  17
ATOM     17  C   UNL     1      29.864  21.110 140.170  1.00  0.00     0.224 C 
ATOM     18  C   UNL     1      30.948  20.397 139.302  1.00  0.00     0.208 C 
ATOM     19  O   UNL     1      28.918  21.716 139.303  1.00  0.00    -0.337 OA
ATOM     20  C   UNL     1      30.491  20.635 137.870  1.00  0.00     0.180 C 
ATOM     21  C   UNL     1      29.515  21.801 138.030  1.00  0.00     0.179 C 
BRANCH  17  22
ATOM     22  C   UNL     1      30.435  22.235 141.064  1.00  0.00     0.225 C 
BRANCH  22  23
ATOM     23  O   UNL     1      31.231  21.712 142.094  1.00  0.00    -0.391 OA
ATOM     24  H   UNL     1      30.626  21.210 142.700  1.00  0.00     0.210 HD
ENDBRANCH  22  23
ENDBRANCH  17  22
BRANCH  18  25
ATOM     25  O   UNL     1      32.255  20.880 139.516  1.00  0.00    -0.385 OA
ATOM     26  H   UNL     1      32.747  20.862 138.654  1.00  0.00     0.211 HD
ENDBRANCH  18  25
BRANCH  20  27
ATOM     27  O   UNL     1      29.845  19.492 137.367  1.00  0.00    -0.387 OA
ATOM     28  H   UNL     1      29.388  19.063 138.137  1.00  0.00     0.211 HD
ENDBRANCH  20  27
BRANCH  21  29
ATOM     29  C   UNL     1      28.442  21.882 136.935  1.00  0.00     0.191 C 
BRANCH  29  30
ATOM     30  O   UNL     1      27.402  20.977 137.192  1.00  0.00    -0.394 OA
ATOM     31  H   UNL     1      27.625  20.540 138.055  1.00  0.00     0.210 HD
ENDBRANCH  29  30
ENDBRANCH  21  29
ENDBRANCH   1  17
TORSDOF 13
ENDMDL
MODEL 2
REMARK VINA RESULT:    -5.476      3.412      5.464
REMARK INTER + INTRA:         -10.740
REMARK INTER:                  -8.320
REMARK INTRA:                  -2.420
REMARK UNBOUND:                -2.383
REMARK SMILES OC[C@@H]1O[C@H](O[C@]2(CO)O[C@H](CO)[C@H](O)[C@H]2O)[C@H](O)[C@H](O)[C@@H]1O
REMARK SMILES IDX 6 1 5 2 3 3 22 4 4 5 20 6 18 7 2 8 1 9 23 11 21 13 19 15
REMARK SMILES IDX 7 17 16 18 10 19 14 20 11 21 8 22 9 23 17 25 15 27 12 29
REMARK SMILES IDX 13 30
REMARK H PARENT 1 10 23 12 21 14 19 16 9 24 17 26 15 28 13 31
REMARK Flexibility Score: inf
ROOT
ATOM      1  O   UNL     1      25.877  18.909 141.037  1.00  0.00    -0.313 OA
ENDROOT
BRANCH   1   2
ATOM      2  C   UNL     1      24.771  18.015 140.984  1.00  0.00     0.285 C 
ATOM      3  C   UNL     1      23.051  19.688 141.061  1.00  0.00     0.178 C 
ATOM      4  C   UNL     1      22.743  19.498 139.546  1.00  0.00     0.177 C 
ATOM      5  O   UNL     1      23.655  18.555 141.679  1.00  0.00    -0.341 OA
ATOM      6  C   UNL     1      23.902  18.869 138.749  1.00  0.00     0.179 C 
ATOM      7  C   UNL     1      24.424  17.651 139.525  1.00  0.00     0.202 C 
BRANCH   3   8
ATOM      8  C   UNL     1      23.715  21.017 141.485  1.00  0.00     0.191 C 
BRANCH   8   9
ATOM      9  O   UNL     1      24.332  20.928 142.737  1.00  0.00    -0.394 OA
ATOM     10  H   UNL     1      25.286  21.158 142.590  1.00  0.00     0.210 HD
ENDBRANCH   8   9
ENDBRANCH   3   8
BRANCH   4  11
ATOM     11  O   UNL     1      22.260  20.675 138.947  1.00  0.00    -0.387 OA
ATOM     12  H   UNL     1      21.937  20.453 138.037  1.00  0.00     0.211 HD
ENDBRANCH   4  11
BRANCH   6  13
ATOM     13  O   UNL     1      24.927  19.805 138.528  1.00  0.00    -0.387 OA
ATOM     14  H   UNL     1      25.469  19.471 137.766  1.00  0.00     0.211 HD
ENDBRANCH   6  13
BRANCH   7  15
ATOM     15  O   UNL     1      25.507  17.041 138.866  1.00  0.00    -0.385 OA
ATOM     16  H   UNL     1      25.217  16.145 138.555  1.00  0.00     0.211 HD
ENDBRANCH   7  15
ENDBRANCH   1   2
BRANCH   1  17
ATOM     17  C   UNL     1      27.075  18.349 141.570  1.00  0.00     0.224 C 
ATOM     18  C   UNL     1      26.785  16.990 142.282  1.00  0.00     0.208 C 
ATOM     19  O   UNL     1      28.025  18.124 140.540  1.00  0.00    -0.337 OA
ATOM     20  C   UNL     1      27.639  15.985 141.523  1.00  0.00     0.180 C 
ATOM     21  C   UNL     1      28.643  16.886 140.806  1.00  0.00     0.179 C 
BRANCH  17  22
ATOM     22  C   UNL     1      27.679  19.418 142.509  1.00  0.00     0.225 C 
BRANCH  22  23
ATOM     23  O   UNL     1      26.826  19.685 143.591  1.00  0.00    -0.391 OA
ATOM     24  H   UNL     1      25.952  19.265 143.380  1.00  0.00     0.210 HD
ENDBRANCH  22  23
ENDBRANCH  17  22
BRANCH  18  25
ATOM     25  O   UNL     1      27.089  16.994 143.659  1.00  0.00    -0.385 OA
ATOM     26  H   UNL     1      27.988  17.397 143.786  1.00  0.00     0.211 HD
ENDBRANCH  18  25
BRANCH  20  27
ATOM     27  O   UNL     1      26.850  15.266 140.607  1.00  0.00    -0.387 OA
ATOM     28  H   UNL     1      26.439  15.937 140.000  1.00  0.00     0.211 HD
ENDBRANCH  20  27
BRANCH  21  29
ATOM     29  C   UNL     1      29.225  16.287 139.518  1.00  0.00     0.191 C 
BRANCH  29  30
ATOM     30  O   UNL     1      28.367  16.515 138.433  1.00  0.00    -0.394 OA
ATOM     31  H   UNL     1      27.597  17.025 138.795  1.00  0.00     0.210 HD
ENDBRANCH  29  30
ENDBRANCH  21  29
ENDBRANCH   1  17
TORSDOF 13
ENDMDL
MODEL 3
REMARK VINA RESULT:    -5.458      2.239      5.708
REMARK INTER + INTRA:         -10.713
REMARK INTER:                  -8.289
REMARK INTRA:                  -2.424
REMARK UNBOUND:                -2.383
REMARK SMILES OC[C@@H]1O[C@H](O[C@]2(CO)O[C@H](CO)[C@H](O)[C@H]2O)[C@H](O)[C@H](O)[C@@H]1O
REMARK SMILES IDX 6 1 5 2 3 3 22 4 4 5 20 6 18 7 2 8 1 9 23 11 21 13 19 15
REMARK SMILES IDX 7 17 16 18 10 19 14 20 11 21 8 22 9 23 17 25 15 27 12 29
REMARK SMILES IDX 13 30
REMARK H PARENT 1 10 23 12 21 14 19 16 9 24 17 26 15 28 13 31
REMARK Flexibility Score: inf
ROOT
ATOM      1  O   UNL     1      26.617  18.878 141.463  1.00  0.00    -0.313 OA
ENDROOT
BRANCH   1   2
ATOM      2  C   UNL     1      27.690  17.944 141.525  1.00  0.00     0.285 C 
ATOM      3  C   UNL     1      29.470  19.553 141.463  1.00  0.00     0.178 C 
ATOM      4  C   UNL     1      29.759  19.352 142.981  1.00  0.00     0.177 C 
ATOM      5  O   UNL     1      28.831  18.444 140.839  1.00  0.00    -0.341 OA
ATOM      6  C   UNL     1      28.571  18.766 143.768  1.00  0.00     0.179 C 
ATOM      7  C   UNL     1      28.012  17.568 142.986  1.00  0.00     0.202 C 
BRANCH   3   8
ATOM      8  C   UNL     1      28.859  20.907 141.034  1.00  0.00     0.191 C 
BRANCH   8   9
ATOM      9  O   UNL     1      28.227  20.833 139.789  1.00  0.00    -0.394 OA
ATOM     10  H   UNL     1      28.948  20.697 139.122  1.00  0.00     0.210 HD
ENDBRANCH   8   9
ENDBRANCH   3   8
BRANCH   4  11
ATOM     11  O   UNL     1      30.279  20.511 143.585  1.00  0.00    -0.387 OA
ATOM     12  H   UNL     1      30.061  21.288 143.010  1.00  0.00     0.211 HD
ENDBRANCH   4  11
BRANCH   6  13
ATOM     13  O   UNL     1      27.578  19.738 143.981  1.00  0.00    -0.387 OA
ATOM     14  H   UNL     1      27.318  20.092 143.091  1.00  0.00     0.211 HD
ENDBRANCH   6  13
BRANCH   7  15
ATOM     15  O   UNL     1      26.901  16.997 143.636  1.00  0.00    -0.385 OA
ATOM     16  H   UNL     1      26.630  17.599 144.375  1.00  0.00     0.211 HD
ENDBRANCH   7  15
ENDBRANCH   1   2
BRANCH   1  17
ATOM     17  C   UNL     1      25.406  18.363 140.916  1.00  0.00     0.224 C 
ATOM     18  C   UNL     1      25.661  17.015 140.169  1.00  0.00     0.208 C 
ATOM     19  O   UNL     1      24.450  18.137 141.940  1.00  0.00    -0.337 OA
ATOM     20  C   UNL     1      24.781  16.013 140.903  1.00  0.00     0.180 C 
ATOM     21  C   UNL     1      23.800  16.922 141.643  1.00  0.00     0.179 C 
BRANCH  17  22
ATOM     22  C   UNL     1      24.830  19.471 140.005  1.00  0.00     0.225 C 
BRANCH  22  23
ATOM     23  O   UNL     1      25.691  19.744 138.930  1.00  0.00    -0.391 OA
ATOM     24  H   UNL     1      25.643  20.721 138.764  1.00  0.00     0.210 HD
ENDBRANCH  22  23
ENDBRANCH  17  22
BRANCH  18  25
ATOM     25  O   UNL     1      25.358  17.063 138.793  1.00  0.00    -0.385 OA
ATOM     26  H   UNL     1      26.199  16.948 138.277  1.00  0.00     0.211 HD
ENDBRANCH  18  25
BRANCH  20  27
ATOM     27  O   UNL     1      25.551  15.252 141.800  1.00  0.00    -0.387 OA
ATOM     28  H   UNL     1      26.035  14.577 141.254  1.00  0.00     0.211 HD
ENDBRANCH  20  27
BRANCH  21  29
ATOM     29  C   UNL     1      23.202  16.305 142.915  1.00  0.00     0.191 C 
BRANCH  29  30
ATOM     30  O   UNL     1      24.119  16.365 143.974  1.00  0.00    -0.394 OA
ATOM     31  H   UNL     1      24.402  15.429 144.145  1.00  0.00     0.210 HD
ENDBRANCH  29  30
ENDBRANCH  21  29
ENDBRANCH   1  17
TORSDOF 13
ENDMDL
MODEL 4
REMARK VINA RESULT:    -5.405      0.734      2.484
REMARK INTER + INTRA:         -10.632
REMARK INTER:                  -8.411
REMARK INTRA:                  -2.221
REMARK UNBOUND:                -2.383
REMARK SMILES OC[C@@H]1O[C@H](O[C@]2(CO)O[C@H](CO)[C@H](O)[C@H]2O)[C@H](O)[C@H](O)[C@@H]1O
REMARK SMILES IDX 6 1 5 2 3 3 22 4 4 5 20 6 18 7 2 8 1 9 23 11 21 13 19 15
REMARK SMILES IDX 7 17 16 18 10 19 14 20 11 21 8 22 9 23 17 25 15 27 12 29
REMARK SMILES IDX 13 30
REMARK H PARENT 1 10 23 12 21 14 19 16 9 24 17 26 15 28 13 31
REMARK Flexibility Score: inf
ROOT
ATOM      1  O   UNL     1      29.613  19.718 141.124  1.00  0.00    -0.313 OA
ENDROOT
BRANCH   1   2
ATOM      2  C   UNL     1      28.509  20.022 141.970  1.00  0.00     0.285 C 
ATOM      3  C   UNL     1      27.141  18.156 141.330  1.00  0.00     0.178 C 
ATOM      4  C   UNL     1      27.436  17.428 142.675  1.00  0.00     0.177 C 
ATOM      5  O   UNL     1      27.293  19.572 141.389  1.00  0.00    -0.341 OA
ATOM      6  C   UNL     1      28.720  17.910 143.377  1.00  0.00     0.179 C 
ATOM      7  C   UNL     1      28.723  19.446 143.386  1.00  0.00     0.202 C 
BRANCH   3   8
ATOM      8  C   UNL     1      27.755  17.548 140.048  1.00  0.00     0.191 C 
BRANCH   8   9
ATOM      9  O   UNL     1      27.844  18.478 139.009  1.00  0.00    -0.394 OA
ATOM     10  H   UNL     1      27.117  19.136 139.164  1.00  0.00     0.210 HD
ENDBRANCH   8   9
ENDBRANCH   3   8
BRANCH   4  11
ATOM     11  O   UNL     1      27.392  16.027 142.546  1.00  0.00    -0.387 OA
ATOM     12  H   UNL     1      26.596  15.693 143.032  1.00  0.00     0.211 HD
ENDBRANCH   4  11
BRANCH   6  13
ATOM     13  O   UNL     1      29.864  17.407 142.735  1.00  0.00    -0.387 OA
ATOM     14  H   UNL     1      30.230  16.685 143.311  1.00  0.00     0.211 HD
ENDBRANCH   6  13
BRANCH   7  15
ATOM     15  O   UNL     1      29.886  19.959 143.989  1.00  0.00    -0.385 OA
ATOM     16  H   UNL     1      29.648  20.286 144.894  1.00  0.00     0.211 HD
ENDBRANCH   7  15
ENDBRANCH   1   2
BRANCH   1  17
ATOM     17  C   UNL     1      30.058  20.800 140.308  1.00  0.00     0.224 C 
ATOM     18  C   UNL     1      31.091  20.307 139.246  1.00  0.00     0.208 C 
ATOM     19  O   UNL     1      28.965  21.399 139.631  1.00  0.00    -0.337 OA
ATOM     20  C   UNL     1      30.446  20.659 137.913  1.00  0.00     0.180 C 
ATOM     21  C   UNL     1      29.396  21.691 138.321  1.00  0.00     0.179 C 
BRANCH  17  22
ATOM     22  C   UNL     1      30.627  21.868 141.269  1.00  0.00     0.225 C 
BRANCH  22  23
ATOM     23  O   UNL     1      31.559  21.309 142.158  1.00  0.00    -0.391 OA
ATOM     24  H   UNL     1      31.541  20.327 142.014  1.00  0.00     0.210 HD
ENDBRANCH  22  23
ENDBRANCH  17  22
BRANCH  18  25
ATOM     25  O   UNL     1      32.365  20.896 139.377  1.00  0.00    -0.385 OA
ATOM     26  H   UNL     1      32.408  21.373 140.247  1.00  0.00     0.211 HD
ENDBRANCH  18  25
BRANCH  20  27
ATOM     27  O   UNL     1      29.851  19.520 137.342  1.00  0.00    -0.387 OA
ATOM     28  H   UNL     1      29.322  19.087 138.062  1.00  0.00     0.211 HD
ENDBRANCH  20  27
BRANCH  21  29
ATOM     29  C   UNL     1      28.196  21.785 137.367  1.00  0.00     0.191 C 
BRANCH  29  30
ATOM     30  O   UNL     1      27.266  20.772 137.639  1.00  0.00    -0.394 OA
ATOM     31  H   UNL     1      27.306  20.149 136.868  1.00  0.00     0.210 HD
ENDBRANCH  29  30
ENDBRANCH  21  29
ENDBRANCH   1  17
TORSDOF 13
ENDMDL
MODEL 5
REMARK VINA RESULT:    -5.352      4.940      7.972
REMARK INTER + INTRA:         -10.550
REMARK INTER:                  -8.128
REMARK INTRA:                  -2.422
REMARK UNBOUND:                -2.383
REMARK SMILES OC[C@@H]1O[C@H](O[C@]2(CO)O[C@H](CO)[C@H](O)[C@H]2O)[C@H](O)[C@H](O)[C@@H]1O
REMARK SMILES IDX 6 1 5 2 3 3 22 4 4 5 20 6 18 7 2 8 1 9 23 11 21 13 19 15
REMARK SMILES IDX 7 17 16 18 10 19 14 20 11 21 8 22 9 23 17 25 15 27 12 29
REMARK SMILES IDX 13 30
REMARK H PARENT 1 10 23 12 21 14 19 16 9 24 17 26 15 28 13 31
REMARK Flexibility Score: inf
ROOT
ATOM      1  O   UNL     1      23.242  20.405 141.538  1.00  0.00    -0.313 OA
ENDROOT
BRANCH   1   2
ATOM      2  C   UNL     1      22.909  19.047 141.805  1.00  0.00     0.285 C 
ATOM      3  C   UNL     1      23.314  18.216 139.589  1.00  0.00     0.178 C 
ATOM      4  C   UNL     1      24.645  17.544 140.041  1.00  0.00     0.177 C 
ATOM      5  O   UNL     1      22.378  18.422 140.643  1.00  0.00    -0.341 OA
ATOM      6  C   UNL     1      25.243  18.149 141.326  1.00  0.00     0.179 C 
ATOM      7  C   UNL     1      24.125  18.281 142.369  1.00  0.00     0.202 C 
BRANCH   3   8
ATOM      8  C   UNL     1      23.424  19.437 138.648  1.00  0.00     0.191 C 
BRANCH   8   9
ATOM      9  O   UNL     1      22.238  20.175 138.594  1.00  0.00    -0.394 OA
ATOM     10  H   UNL     1      22.025  20.422 139.531  1.00  0.00     0.210 HD
ENDBRANCH   8   9
ENDBRANCH   3   8
BRANCH   4  11
ATOM     11  O   UNL     1      25.587  17.467 138.999  1.00  0.00    -0.387 OA
ATOM     12  H   UNL     1      25.167  17.815 138.172  1.00  0.00     0.211 HD
ENDBRANCH   4  11
BRANCH   6  13
ATOM     13  O   UNL     1      25.841  19.394 141.066  1.00  0.00    -0.387 OA
ATOM     14  H   UNL     1      25.605  19.644 140.134  1.00  0.00     0.211 HD
ENDBRANCH   6  13
BRANCH   7  15
ATOM     15  O   UNL     1      24.595  18.856 143.565  1.00  0.00    -0.385 OA
ATOM     16  H   UNL     1      24.640  19.839 143.441  1.00  0.00     0.211 HD
ENDBRANCH   7  15
ENDBRANCH   1   2
BRANCH   1  17
ATOM     17  C   UNL     1      22.611  21.355 142.394  1.00  0.00     0.224 C 
ATOM     18  C   UNL     1      21.460  20.689 143.213  1.00  0.00     0.208 C 
ATOM     19  O   UNL     1      23.548  21.910 143.304  1.00  0.00    -0.337 OA
ATOM     20  C   UNL     1      21.870  20.896 144.663  1.00  0.00     0.180 C 
ATOM     21  C   UNL     1      22.905  22.015 144.553  1.00  0.00     0.179 C 
BRANCH  17  22
ATOM     22  C   UNL     1      22.131  22.511 141.488  1.00  0.00     0.225 C 
BRANCH  22  23
ATOM     23  O   UNL     1      21.413  22.027 140.383  1.00  0.00    -0.391 OA
ATOM     24  H   UNL     1      21.648  21.068 140.285  1.00  0.00     0.210 HD
ENDBRANCH  22  23
ENDBRANCH  17  22
BRANCH  18  25
ATOM     25  O   UNL     1      20.187  21.234 142.950  1.00  0.00    -0.385 OA
ATOM     26  H   UNL     1      20.253  22.225 142.975  1.00  0.00     0.211 HD
ENDBRANCH  18  25
BRANCH  20  27
ATOM     27  O   UNL     1      22.440  19.720 145.183  1.00  0.00    -0.387 OA
ATOM     28  H   UNL     1      22.640  19.902 146.139  1.00  0.00     0.211 HD
ENDBRANCH  20  27
BRANCH  21  29
ATOM     29  C   UNL     1      23.936  22.038 145.690  1.00  0.00     0.191 C 
BRANCH  29  30
ATOM     30  O   UNL     1      24.965  21.118 145.446  1.00  0.00    -0.394 OA
ATOM     31  H   UNL     1      25.582  21.184 146.221  1.00  0.00     0.210 HD
ENDBRANCH  29  30
ENDBRANCH  21  29
ENDBRANCH   1  17
TORSDOF 13
ENDMDL
MODEL 6
REMARK VINA RESULT:    -5.312      4.242      6.726
REMARK INTER + INTRA:         -10.490
REMARK INTER:                  -8.029
REMARK INTRA:                  -2.460
REMARK UNBOUND:                -2.383
REMARK SMILES OC[C@@H]1O[C@H](O[C@]2(CO)O[C@H](CO)[C@H](O)[C@H]2O)[C@H](O)[C@H](O)[C@@H]1O
REMARK SMILES IDX 6 1 5 2 3 3 22 4 4 5 20 6 18 7 2 8 1 9 23 11 21 13 19 15
REMARK SMILES IDX 7 17 16 18 10 19 14 20 11 21 8 22 9 23 17 25 15 27 12 29
REMARK SMILES IDX 13 30
REMARK H PARENT 1 10 23 12 21 14 19 16 9 24 17 26 15 28 13 31
REMARK Flexibility Score: inf
ROOT
ATOM      1  O   UNL     1      23.599  20.129 141.380  1.00  0.00    -0.313 OA
ENDROOT
BRANCH   1   2
ATOM      2  C   UNL     1      24.723  20.893 141.804  1.00  0.00     0.285 C 
ATOM      3  C   UNL     1      23.488  22.780 142.625  1.00  0.00     0.178 C 
ATOM      4  C   UNL     1      23.745  22.357 144.102  1.00  0.00     0.177 C 
ATOM      5  O   UNL     1      24.451  22.284 141.700  1.00  0.00    -0.341 OA
ATOM      6  C   UNL     1      24.092  20.865 144.271  1.00  0.00     0.179 C 
ATOM      7  C   UNL     1      25.158  20.492 143.230  1.00  0.00     0.202 C 
BRANCH   3   8
ATOM      8  C   UNL     1      22.041  22.655 142.096  1.00  0.00     0.191 C 
BRANCH   8   9
ATOM      9  O   UNL     1      21.976  22.735 140.702  1.00  0.00    -0.394 OA
ATOM     10  H   UNL     1      22.876  22.483 140.369  1.00  0.00     0.210 HD
ENDBRANCH   8   9
ENDBRANCH   3   8
BRANCH   4  11
ATOM     11  O   UNL     1      22.709  22.764 144.963  1.00  0.00    -0.387 OA
ATOM     12  H   UNL     1      22.564  22.052 145.636  1.00  0.00     0.211 HD
ENDBRANCH   4  11
BRANCH   6  13
ATOM     13  O   UNL     1      22.947  20.062 144.132  1.00  0.00    -0.387 OA
ATOM     14  H   UNL     1      22.845  19.549 144.976  1.00  0.00     0.211 HD
ENDBRANCH   6  13
BRANCH   7  15
ATOM     15  O   UNL     1      25.505  19.131 143.307  1.00  0.00    -0.385 OA
ATOM     16  H   UNL     1      25.148  18.672 142.503  1.00  0.00     0.211 HD
ENDBRANCH   7  15
ENDBRANCH   1   2
BRANCH   1  17
ATOM     17  C   UNL     1      23.875  19.176 140.355  1.00  0.00     0.224 C 
ATOM     18  C   UNL     1      25.232  19.493 139.652  1.00  0.00     0.208 C 
ATOM     19  O   UNL     1      23.941  17.865 140.894  1.00  0.00    -0.337 OA
ATOM     20  C   UNL     1      26.070  18.245 139.885  1.00  0.00     0.180 C 
ATOM     21  C   UNL     1      25.011  17.207 140.256  1.00  0.00     0.179 C 
BRANCH  17  22
ATOM     22  C   UNL     1      22.664  19.203 139.395  1.00  0.00     0.225 C 
BRANCH  22  23
ATOM     23  O   UNL     1      22.372  20.512 138.980  1.00  0.00    -0.391 OA
ATOM     24  H   UNL     1      22.897  20.676 138.154  1.00  0.00     0.210 HD
ENDBRANCH  22  23
ENDBRANCH  17  22
BRANCH  18  25
ATOM     25  O   UNL     1      25.105  19.785 138.278  1.00  0.00    -0.385 OA
ATOM     26  H   UNL     1      25.553  19.067 137.758  1.00  0.00     0.211 HD
ENDBRANCH  18  25
BRANCH  20  27
ATOM     27  O   UNL     1      26.976  18.454 140.940  1.00  0.00    -0.387 OA
ATOM     28  H   UNL     1      27.562  19.206 140.664  1.00  0.00     0.211 HD
ENDBRANCH  20  27
BRANCH  21  29
ATOM     29  C   UNL     1      25.533  16.055 141.128  1.00  0.00     0.191 C 
BRANCH  29  30
ATOM     30  O   UNL     1      25.501  16.407 142.485  1.00  0.00    -0.394 OA
ATOM     31  H   UNL     1      25.102  17.315 142.524  1.00  0.00     0.210 HD
ENDBRANCH  29  30
ENDBRANCH  21  29
ENDBRANCH   1  17
TORSDOF 13
ENDMDL
MODEL 7
REMARK VINA RESULT:    -5.291      1.612      5.257
REMARK INTER + INTRA:         -10.457
REMARK INTER:                  -8.190
REMARK INTRA:                  -2.267
REMARK UNBOUND:                -2.383
REMARK SMILES OC[C@@H]1O[C@H](O[C@]2(CO)O[C@H](CO)[C@H](O)[C@H]2O)[C@H](O)[C@H](O)[C@@H]1O
REMARK SMILES IDX 6 1 5 2 3 3 22 4 4 5 20 6 18 7 2 8 1 9 23 11 21 13 19 15
REMARK SMILES IDX 7 17 16 18 10 19 14 20 11 21 8 22 9 23 17 25 15 27 12 29
REMARK SMILES IDX 13 30
REMARK H PARENT 1 10 23 12 21 14 19 16 9 24 17 26 15 28 13 31
REMARK Flexibility Score: inf
ROOT
ATOM      1  O   UNL     1      28.881  20.211 141.453  1.00  0.00    -0.313 OA
ENDROOT
BRANCH   1   2
ATOM      2  C   UNL     1      30.083  19.763 140.837  1.00  0.00     0.285 C 
ATOM      3  C   UNL     1      29.666  20.719 138.675  1.00  0.00     0.178 C 
ATOM      4  C   UNL     1      30.709  21.848 138.929  1.00  0.00     0.177 C 
ATOM      5  O   UNL     1      29.882  19.541 139.447  1.00  0.00    -0.341 OA
ATOM      6  C   UNL     1      31.003  22.100 140.420  1.00  0.00     0.179 C 
ATOM      7  C   UNL     1      31.241  20.746 141.105  1.00  0.00     0.202 C 
BRANCH   3   8
ATOM      8  C   UNL     1      28.177  21.131 138.628  1.00  0.00     0.191 C 
BRANCH   8   9
ATOM      9  O   UNL     1      27.319  20.045 138.831  1.00  0.00    -0.394 OA
ATOM     10  H   UNL     1      27.464  19.751 139.767  1.00  0.00     0.210 HD
ENDBRANCH   8   9
ENDBRANCH   3   8
BRANCH   4  11
ATOM     11  O   UNL     1      30.392  23.034 138.240  1.00  0.00    -0.387 OA
ATOM     12  H   UNL     1      30.209  22.806 137.294  1.00  0.00     0.211 HD
ENDBRANCH   4  11
BRANCH   6  13
ATOM     13  O   UNL     1      29.947  22.797 141.032  1.00  0.00    -0.387 OA
ATOM     14  H   UNL     1      29.222  22.140 141.203  1.00  0.00     0.211 HD
ENDBRANCH   6  13
BRANCH   7  15
ATOM     15  O   UNL     1      31.490  20.897 142.482  1.00  0.00    -0.385 OA
ATOM     16  H   UNL     1      31.828  20.034 142.834  1.00  0.00     0.211 HD
ENDBRANCH   7  15
ENDBRANCH   1   2
BRANCH   1  17
ATOM     17  C   UNL     1      28.136  19.195 142.121  1.00  0.00     0.224 C 
ATOM     18  C   UNL     1      26.749  19.739 142.591  1.00  0.00     0.208 C 
ATOM     19  O   UNL     1      27.917  18.086 141.263  1.00  0.00    -0.337 OA
ATOM     20  C   UNL     1      25.742  18.848 141.880  1.00  0.00     0.180 C 
ATOM     21  C   UNL     1      26.596  17.646 141.479  1.00  0.00     0.179 C 
BRANCH  17  22
ATOM     22  C   UNL     1      29.024  18.692 143.282  1.00  0.00     0.225 C 
BRANCH  22  23
ATOM     23  O   UNL     1      29.377  19.742 144.144  1.00  0.00    -0.391 OA
ATOM     24  H   UNL     1      28.619  19.866 144.773  1.00  0.00     0.210 HD
ENDBRANCH  22  23
ENDBRANCH  17  22
BRANCH  18  25
ATOM     25  O   UNL     1      26.572  19.710 143.990  1.00  0.00    -0.385 OA
ATOM     26  H   UNL     1      26.317  18.789 144.260  1.00  0.00     0.211 HD
ENDBRANCH  18  25
BRANCH  20  27
ATOM     27  O   UNL     1      25.218  19.504 140.752  1.00  0.00    -0.387 OA
ATOM     28  H   UNL     1      25.990  19.915 140.281  1.00  0.00     0.211 HD
ENDBRANCH  20  27
BRANCH  21  29
ATOM     29  C   UNL     1      26.076  16.881 140.253  1.00  0.00     0.191 C 
BRANCH  29  30
ATOM     30  O   UNL     1      26.668  17.364 139.078  1.00  0.00    -0.394 OA
ATOM     31  H   UNL     1      26.192  18.207 138.858  1.00  0.00     0.210 HD
ENDBRANCH  29  30
ENDBRANCH  21  29
ENDBRANCH   1  17
TORSDOF 13
ENDMDL
MODEL 8
REMARK VINA RESULT:    -5.258      5.112      7.554
REMARK INTER + INTRA:         -10.408
REMARK INTER:                  -8.157
REMARK INTRA:                  -2.251
REMARK UNBOUND:                -2.383
REMARK SMILES OC[C@@H]1O[C@H](O[C@]2(CO)O[C@H](CO)[C@H](O)[C@H]2O)[C@H](O)[C@H](O)[C@@H]1O
REMARK SMILES IDX 6 1 5 2 3 3 22 4 4 5 20 6 18 7 2 8 1 9 23 11 21 13 19 15
REMARK SMILES IDX 7 17 16 18 10 19 14 20 11 21 8 22 9 23 17 25 15 27 12 29
REMARK SMILES IDX 13 30
REMARK H PARENT 1 10 23 12 21 14 19 16 9 24 17 26 15 28 13 31
REMARK Flexibility Score: inf
ROOT
ATOM      1  O   UNL     1      22.782  19.606 141.273  1.00  0.00    -0.313 OA
ENDROOT
BRANCH   1   2
ATOM      2  C   UNL     1      23.941  19.831 140.478  1.00  0.00     0.285 C 
ATOM      3  C   UNL     1      25.223  17.982 141.315  1.00  0.00     0.178 C 
ATOM      4  C   UNL     1      24.990  17.175 140.003  1.00  0.00     0.177 C 
ATOM      5  O   UNL     1      25.110  19.394 141.158  1.00  0.00    -0.341 OA
ATOM      6  C   UNL     1      23.761  17.639 139.196  1.00  0.00     0.179 C 
ATOM      7  C   UNL     1      23.797  19.170 139.091  1.00  0.00     0.202 C 
BRANCH   3   8
ATOM      8  C   UNL     1      24.520  17.470 142.593  1.00  0.00     0.191 C 
BRANCH   8   9
ATOM      9  O   UNL     1      24.459  18.446 143.592  1.00  0.00    -0.394 OA
ATOM     10  H   UNL     1      25.337  18.908 143.580  1.00  0.00     0.210 HD
ENDBRANCH   8   9
ENDBRANCH   3   8
BRANCH   4  11
ATOM     11  O   UNL     1      24.990  15.785 140.222  1.00  0.00    -0.387 OA
ATOM     12  H   UNL     1      25.473  15.603 141.068  1.00  0.00     0.211 HD
ENDBRANCH   4  11
BRANCH   6  13
ATOM     13  O   UNL     1      22.569  17.201 139.798  1.00  0.00    -0.387 OA
ATOM     14  H   UNL     1      22.519  17.625 140.694  1.00  0.00     0.211 HD
ENDBRANCH   6  13
BRANCH   7  15
ATOM     15  O   UNL     1      22.684  19.668 138.388  1.00  0.00    -0.385 OA
ATOM     16  H   UNL     1      22.993  20.403 137.797  1.00  0.00     0.211 HD
ENDBRANCH   7  15
ENDBRANCH   1   2
BRANCH   1  17
ATOM     17  C   UNL     1      22.335  20.738 142.015  1.00  0.00     0.224 C 
ATOM     18  C   UNL     1      21.268  20.323 143.076  1.00  0.00     0.208 C 
ATOM     19  O   UNL     1      23.421  21.358 142.686  1.00  0.00    -0.337 OA
ATOM     20  C   UNL     1      21.884  20.739 144.404  1.00  0.00     0.180 C 
ATOM     21  C   UNL     1      22.962  21.730 143.966  1.00  0.00     0.179 C 
BRANCH  17  22
ATOM     22  C   UNL     1      21.808  21.759 140.981  1.00  0.00     0.225 C 
BRANCH  22  23
ATOM     23  O   UNL     1      20.847  21.180 140.139  1.00  0.00    -0.391 OA
ATOM     24  H   UNL     1      20.681  21.826 139.404  1.00  0.00     0.210 HD
ENDBRANCH  22  23
ENDBRANCH  17  22
BRANCH  18  25
ATOM     25  O   UNL     1      20.007  20.922 142.879  1.00  0.00    -0.385 OA
ATOM     26  H   UNL     1      19.782  21.462 143.681  1.00  0.00     0.211 HD
ENDBRANCH  18  25
BRANCH  20  27
ATOM     27  O   UNL     1      22.446  19.625 145.053  1.00  0.00    -0.387 OA
ATOM     28  H   UNL     1      23.329  19.917 145.402  1.00  0.00     0.211 HD
ENDBRANCH  20  27
BRANCH  21  29
ATOM     29  C   UNL     1      24.139  21.859 144.944  1.00  0.00     0.191 C 
BRANCH  29  30
ATOM     30  O   UNL     1      25.063  20.823 144.748  1.00  0.00    -0.394 OA
ATOM     31  H   UNL     1      24.595  20.138 144.203  1.00  0.00     0.210 HD
ENDBRANCH  29  30
ENDBRANCH  21  29
ENDBRANCH   1  17
TORSDOF 13
ENDMDL
MODEL 9
REMARK VINA RESULT:    -5.251      1.723      4.951
REMARK INTER + INTRA:         -10.396
REMARK INTER:                  -7.987
REMARK INTRA:                  -2.410
REMARK UNBOUND:                -2.383
REMARK SMILES OC[C@@H]1O[C@H](O[C@]2(CO)O[C@H](CO)[C@H](O)[C@H]2O)[C@H](O)[C@H](O)[C@@H]1O
REMARK SMILES IDX 6 1 5 2 3 3 22 4 4 5 20 6 18 7 2 8 1 9 23 11 21 13 19 15
REMARK SMILES IDX 7 17 16 18 10 19 14 20 11 21 8 22 9 23 17 25 15 27 12 29
REMARK SMILES IDX 13 30
REMARK H PARENT 1 10 23 12 21 14 19 16 9 24 17 26 15 28 13 31
REMARK Flexibility Score: inf
ROOT
ATOM      1  O   UNL     1      28.534  19.746 141.269  1.00  0.00    -0.313 OA
ENDROOT
BRANCH   1   2
ATOM      2  C   UNL     1      28.106  21.014 140.783  1.00  0.00     0.285 C 
ATOM      3  C   UNL     1      30.267  22.058 140.778  1.00  0.00     0.178 C 
ATOM      4  C   UNL     1      30.357  21.959 139.226  1.00  0.00     0.177 C 
ATOM      5  O   UNL     1      28.937  22.051 141.287  1.00  0.00    -0.341 OA
ATOM      6  C   UNL     1      29.439  20.881 138.617  1.00  0.00     0.179 C 
ATOM      7  C   UNL     1      28.043  21.021 139.241  1.00  0.00     0.202 C 
BRANCH   3   8
ATOM      8  C   UNL     1      31.220  21.159 141.599  1.00  0.00     0.191 C 
BRANCH   8   9
ATOM      9  O   UNL     1      30.738  20.912 142.888  1.00  0.00    -0.394 OA
ATOM     10  H   UNL     1      30.221  21.718 143.148  1.00  0.00     0.210 HD
ENDBRANCH   8   9
ENDBRANCH   3   8
BRANCH   4  11
ATOM     11  O   UNL     1      31.684  21.848 138.772  1.00  0.00    -0.387 OA
ATOM     12  H   UNL     1      32.264  21.644 139.549  1.00  0.00     0.211 HD
ENDBRANCH   4  11
BRANCH   6  13
ATOM     13  O   UNL     1      29.962  19.594 138.832  1.00  0.00    -0.387 OA
ATOM     14  H   UNL     1      30.914  19.614 138.553  1.00  0.00     0.211 HD
ENDBRANCH   6  13
BRANCH   7  15
ATOM     15  O   UNL     1      27.155  20.046 138.750  1.00  0.00    -0.385 OA
ATOM     16  H   UNL     1      26.964  19.402 139.480  1.00  0.00     0.211 HD
ENDBRANCH   7  15
ENDBRANCH   1   2
BRANCH   1  17
ATOM     17  C   UNL     1      27.526  18.990 141.938  1.00  0.00     0.224 C 
ATOM     18  C   UNL     1      26.286  19.881 142.262  1.00  0.00     0.208 C 
ATOM     19  O   UNL     1      27.101  17.901 141.135  1.00  0.00    -0.337 OA
ATOM     20  C   UNL     1      25.139  19.200 141.530  1.00  0.00     0.180 C 
ATOM     21  C   UNL     1      25.702  17.802 141.272  1.00  0.00     0.179 C 
BRANCH  17  22
ATOM     22  C   UNL     1      28.193  18.385 143.194  1.00  0.00     0.225 C 
BRANCH  22  23
ATOM     23  O   UNL     1      28.739  19.387 144.012  1.00  0.00    -0.391 OA
ATOM     24  H   UNL     1      29.038  20.118 143.412  1.00  0.00     0.210 HD
ENDBRANCH  22  23
ENDBRANCH  17  22
BRANCH  18  25
ATOM     25  O   UNL     1      26.020  20.005 143.641  1.00  0.00    -0.385 OA
ATOM     26  H   UNL     1      26.817  19.696 144.148  1.00  0.00     0.211 HD
ENDBRANCH  18  25
BRANCH  20  27
ATOM     27  O   UNL     1      24.860  19.870 140.326  1.00  0.00    -0.387 OA
ATOM     28  H   UNL     1      25.579  20.545 140.206  1.00  0.00     0.211 HD
ENDBRANCH  20  27
BRANCH  21  29
ATOM     29  C   UNL     1      25.090  17.087 140.059  1.00  0.00     0.191 C 
BRANCH  29  30
ATOM     30  O   UNL     1      25.800  17.395 138.891  1.00  0.00    -0.394 OA
ATOM     31  H   UNL     1      25.865  16.548 138.378  1.00  0.00     0.210 HD
ENDBRANCH  29  30
ENDBRANCH  21  29
ENDBRANCH   1  17
TORSDOF 13
ENDMDL
