MODEL 1
REMARK VINA RESULT:    -3.197      0.000      0.000
REMARK INTER + INTRA:          -4.989
REMARK INTER:                  -4.506
REMARK INTRA:                  -0.483
REMARK UNBOUND:                -0.483
REMARK SMILES C=CCCCCCCC(=O)[O-]
REMARK SMILES IDX 6 1 7 2 8 3 9 4 10 5 11 6 5 7 4 8 3 9 2 10 1 11
REMARK H PARENT
REMARK Flexibility Score: inf
ROOT
ATOM      1  C   UNL     1      35.006   6.283 -30.878  1.00  0.00     0.000 C 
ENDROOT
BRANCH   1   2
ATOM      2  C   UNL     1      34.270   7.580 -31.237  1.00  0.00     0.006 C 
BRANCH   2   3
ATOM      3  C   UNL     1      33.012   7.791 -30.382  1.00  0.00     0.053 C 
BRANCH   3   4
ATOM      4  C   UNL     1      32.584   9.226 -30.367  1.00  0.00     0.041 C 
ATOM      5  O   UNL     1      31.670   9.606 -29.589  1.00  0.00    -0.550 OA
ATOM      6  O   UNL     1      33.172  10.137 -31.236  1.00  0.00    -0.550 OA
ENDBRANCH   3   4
ENDBRANCH   2   3
ENDBRANCH   1   2
BRANCH   1   7
ATOM      7  C   UNL     1      35.696   5.683 -32.109  1.00  0.00     0.000 C 
BRANCH   7   8
ATOM      8  C   UNL     1      34.686   5.422 -33.234  1.00  0.00     0.004 C 
BRANCH   8   9
ATOM      9  C   UNL     1      33.894   4.136 -32.973  1.00  0.00     0.027 C 
BRANCH   9  10
ATOM     10  C   UNL     1      32.415   4.405 -32.935  1.00  0.00    -0.035 C 
ATOM     11  C   UNL     1      31.534   3.460 -32.593  1.00  0.00     0.004 C 
ENDBRANCH   9  10
ENDBRANCH   8   9
ENDBRANCH   7   8
ENDBRANCH   1   7
TORSDOF 7
ENDMDL
MODEL 2
REMARK VINA RESULT:    -3.157      3.690      5.164
REMARK INTER + INTRA:          -4.932
REMARK INTER:                  -4.291
REMARK INTRA:                  -0.641
REMARK UNBOUND:                -0.483
REMARK SMILES C=CCCCCCCC(=O)[O-]
REMARK SMILES IDX 6 1 7 2 8 3 9 4 10 5 11 6 5 7 4 8 3 9 2 10 1 11
REMARK H PARENT
REMARK Flexibility Score: inf
ROOT
ATOM      1  C   UNL     1      34.915   5.552 -32.940  1.00  0.00     0.000 C 
ENDROOT
BRANCH   1   2
ATOM      2  C   UNL     1      34.244   4.228 -32.549  1.00  0.00     0.006 C 
BRANCH   2   3
ATOM      3  C   UNL     1      32.784   4.155 -33.019  1.00  0.00     0.053 C 
BRANCH   3   4
ATOM      4  C   UNL     1      32.465   2.827 -33.635  1.00  0.00     0.041 C 
ATOM      5  O   UNL     1      31.345   2.634 -34.176  1.00  0.00    -0.550 OA
ATOM      6  O   UNL     1      33.392   1.794 -33.582  1.00  0.00    -0.550 OA
ENDBRANCH   3   4
ENDBRANCH   2   3
ENDBRANCH   1   2
BRANCH   1   7
ATOM      7  C   UNL     1      35.749   6.109 -31.780  1.00  0.00     0.000 C 
BRANCH   7   8
ATOM      8  C   UNL     1      34.848   6.653 -30.665  1.00  0.00     0.004 C 
BRANCH   8   9
ATOM      9  C   UNL     1      34.010   7.837 -31.165  1.00  0.00     0.027 C 
BRANCH   9  10
ATOM     10  C   UNL     1      32.656   7.861 -30.509  1.00  0.00    -0.035 C 
ATOM     11  C   UNL     1      31.699   6.988 -30.836  1.00  0.00     0.004 C 
ENDBRANCH   9  10
ENDBRANCH   8   9
ENDBRANCH   7   8
ENDBRANCH   1   7
TORSDOF 7
ENDMDL
MODEL 3
REMARK VINA RESULT:    -3.127      1.129      1.687
REMARK INTER + INTRA:          -4.890
REMARK INTER:                  -4.349
REMARK INTRA:                  -0.540
REMARK UNBOUND:                -0.483
REMARK SMILES C=CCCCCCCC(=O)[O-]
REMARK SMILES IDX 6 1 7 2 8 3 9 4 10 5 11 6 5 7 4 8 3 9 2 10 1 11
REMARK H PARENT
REMARK Flexibility Score: inf
ROOT
ATOM      1  C   UNL     1      33.823   6.631 -30.279  1.00  0.00     0.000 C 
ENDROOT
BRANCH   1   2
ATOM      2  C   UNL     1      32.581   7.452 -30.651  1.00  0.00     0.006 C 
BRANCH   2   3
ATOM      3  C   UNL     1      32.810   8.961 -30.489  1.00  0.00     0.053 C 
BRANCH   3   4
ATOM      4  C   UNL     1      32.077   9.511 -29.304  1.00  0.00     0.041 C 
ATOM      5  O   UNL     1      30.837   9.721 -29.369  1.00  0.00    -0.550 OA
ATOM      6  O   UNL     1      32.768   9.822 -28.140  1.00  0.00    -0.550 OA
ENDBRANCH   3   4
ENDBRANCH   2   3
ENDBRANCH   1   2
BRANCH   1   7
ATOM      7  C   UNL     1      35.008   6.987 -31.184  1.00  0.00     0.000 C 
BRANCH   7   8
ATOM      8  C   UNL     1      35.563   5.739 -31.882  1.00  0.00     0.004 C 
BRANCH   8   9
ATOM      9  C   UNL     1      34.784   5.439 -33.170  1.00  0.00     0.027 C 
BRANCH   9  10
ATOM     10  C   UNL     1      33.982   4.173 -33.039  1.00  0.00    -0.035 C 
ATOM     11  C   UNL     1      32.646   4.186 -33.016  1.00  0.00     0.004 C 
ENDBRANCH   9  10
ENDBRANCH   8   9
ENDBRANCH   7   8
ENDBRANCH   1   7
TORSDOF 7
ENDMDL
MODEL 4
REMARK VINA RESULT:    -3.127     14.377     15.651
REMARK INTER + INTRA:          -4.889
REMARK INTER:                  -4.090
REMARK INTRA:                  -0.800
REMARK UNBOUND:                -0.483
REMARK SMILES C=CCCCCCCC(=O)[O-]
REMARK SMILES IDX 6 1 7 2 8 3 9 4 10 5 11 6 5 7 4 8 3 9 2 10 1 11
REMARK H PARENT
REMARK Flexibility Score: inf
ROOT
ATOM      1  C   UNL     1      25.297  -4.374 -29.578  1.00  0.00     0.000 C 
ENDROOT
BRANCH   1   2
ATOM      2  C   UNL     1      23.950  -4.894 -30.097  1.00  0.00     0.006 C 
BRANCH   2   3
ATOM      3  C   UNL     1      24.111  -5.819 -31.311  1.00  0.00     0.053 C 
BRANCH   3   4
ATOM      4  C   UNL     1      24.259  -5.045 -32.584  1.00  0.00     0.041 C 
ATOM      5  O   UNL     1      25.262  -5.227 -33.323  1.00  0.00    -0.550 OA
ATOM      6  O   UNL     1      23.306  -4.099 -32.938  1.00  0.00    -0.550 OA
ENDBRANCH   3   4
ENDBRANCH   2   3
ENDBRANCH   1   2
BRANCH   1   7
ATOM      7  C   UNL     1      26.376  -5.460 -29.665  1.00  0.00     0.000 C 
BRANCH   7   8
ATOM      8  C   UNL     1      26.454  -6.264 -28.362  1.00  0.00     0.004 C 
BRANCH   8   9
ATOM      9  C   UNL     1      25.906  -7.684 -28.559  1.00  0.00     0.027 C 
BRANCH   9  10
ATOM     10  C   UNL     1      24.595  -7.865 -27.845  1.00  0.00    -0.035 C 
ATOM     11  C   UNL     1      24.130  -6.956 -26.983  1.00  0.00     0.004 C 
ENDBRANCH   9  10
ENDBRANCH   8   9
ENDBRANCH   7   8
ENDBRANCH   1   7
TORSDOF 7
ENDMDL
MODEL 5
REMARK VINA RESULT:    -3.124      1.638      2.091
REMARK INTER + INTRA:          -4.886
REMARK INTER:                  -4.266
REMARK INTRA:                  -0.620
REMARK UNBOUND:                -0.483
REMARK SMILES C=CCCCCCCC(=O)[O-]
REMARK SMILES IDX 6 1 7 2 8 3 9 4 10 5 11 6 5 7 4 8 3 9 2 10 1 11
REMARK H PARENT
REMARK Flexibility Score: inf
ROOT
ATOM      1  C   UNL     1      35.057   5.173 -31.307  1.00  0.00     0.000 C 
ENDROOT
BRANCH   1   2
ATOM      2  C   UNL     1      35.342   6.582 -30.769  1.00  0.00     0.006 C 
BRANCH   2   3
ATOM      3  C   UNL     1      34.261   7.592 -31.178  1.00  0.00     0.053 C 
BRANCH   3   4
ATOM      4  C   UNL     1      32.970   7.346 -30.459  1.00  0.00     0.041 C 
ATOM      5  O   UNL     1      31.979   6.879 -31.080  1.00  0.00    -0.550 OA
ATOM      6  O   UNL     1      32.852   7.662 -29.112  1.00  0.00    -0.550 OA
ENDBRANCH   3   4
ENDBRANCH   2   3
ENDBRANCH   1   2
BRANCH   1   7
ATOM      7  C   UNL     1      34.907   5.188 -32.833  1.00  0.00     0.000 C 
BRANCH   7   8
ATOM      8  C   UNL     1      33.745   4.292 -33.280  1.00  0.00     0.004 C 
BRANCH   8   9
ATOM      9  C   UNL     1      33.104   3.583 -32.080  1.00  0.00     0.027 C 
BRANCH   9  10
ATOM     10  C   UNL     1      32.883   2.123 -32.364  1.00  0.00    -0.035 C 
ATOM     11  C   UNL     1      33.089   1.602 -33.578  1.00  0.00     0.004 C 
ENDBRANCH   9  10
ENDBRANCH   8   9
ENDBRANCH   7   8
ENDBRANCH   1   7
TORSDOF 7
ENDMDL
MODEL 6
REMARK VINA RESULT:    -3.118     14.247     15.637
REMARK INTER + INTRA:          -4.877
REMARK INTER:                  -4.142
REMARK INTRA:                  -0.734
REMARK UNBOUND:                -0.483
REMARK SMILES C=CCCCCCCC(=O)[O-]
REMARK SMILES IDX 6 1 7 2 8 3 9 4 10 5 11 6 5 7 4 8 3 9 2 10 1 11
REMARK H PARENT
REMARK Flexibility Score: inf
ROOT
ATOM      1  C   UNL     1      25.056  -3.922 -29.509  1.00  0.00     0.000 C 
ENDROOT
BRANCH   1   2
ATOM      2  C   UNL     1      25.573  -4.799 -30.657  1.00  0.00     0.006 C 
BRANCH   2   3
ATOM      3  C   UNL     1      24.432  -5.436 -31.462  1.00  0.00     0.053 C 
BRANCH   3   4
ATOM      4  C   UNL     1      24.400  -4.936 -32.873  1.00  0.00     0.041 C 
ATOM      5  O   UNL     1      25.374  -5.152 -33.643  1.00  0.00    -0.550 OA
ATOM      6  O   UNL     1      23.311  -4.204 -33.328  1.00  0.00    -0.550 OA
ENDBRANCH   3   4
ENDBRANCH   2   3
ENDBRANCH   1   2
BRANCH   1   7
ATOM      7  C   UNL     1      23.954  -4.640 -28.722  1.00  0.00     0.000 C 
BRANCH   7   8
ATOM      8  C   UNL     1      24.543  -5.443 -27.555  1.00  0.00     0.004 C 
BRANCH   8   9
ATOM      9  C   UNL     1      24.059  -6.898 -27.591  1.00  0.00     0.027 C 
BRANCH   9  10
ATOM     10  C   UNL     1      24.902  -7.730 -28.518  1.00  0.00    -0.035 C 
ATOM     11  C   UNL     1      26.236  -7.743 -28.437  1.00  0.00     0.004 C 
ENDBRANCH   9  10
ENDBRANCH   8   9
ENDBRANCH   7   8
ENDBRANCH   1   7
TORSDOF 7
ENDMDL
MODEL 7
REMARK VINA RESULT:    -3.067      2.954      5.025
REMARK INTER + INTRA:          -4.806
REMARK INTER:                  -4.350
REMARK INTRA:                  -0.456
REMARK UNBOUND:                -0.483
REMARK SMILES C=CCCCCCCC(=O)[O-]
REMARK SMILES IDX 6 1 7 2 8 3 9 4 10 5 11 6 5 7 4 8 3 9 2 10 1 11
REMARK H PARENT
REMARK Flexibility Score: inf
ROOT
ATOM      1  C   UNL     1      35.562   6.625 -31.189  1.00  0.00     0.000 C 
ENDROOT
BRANCH   1   2
ATOM      2  C   UNL     1      35.067   5.193 -31.432  1.00  0.00     0.006 C 
BRANCH   2   3
ATOM      3  C   UNL     1      34.774   4.922 -32.914  1.00  0.00     0.053 C 
BRANCH   3   4
ATOM      4  C   UNL     1      33.493   4.168 -33.099  1.00  0.00     0.041 C 
ATOM      5  O   UNL     1      33.516   2.953 -33.427  1.00  0.00    -0.550 OA
ATOM      6  O   UNL     1      32.274   4.816 -32.940  1.00  0.00    -0.550 OA
ENDBRANCH   3   4
ENDBRANCH   2   3
ENDBRANCH   1   2
BRANCH   1   7
ATOM      7  C   UNL     1      34.395   7.619 -31.195  1.00  0.00     0.000 C 
BRANCH   7   8
ATOM      8  C   UNL     1      33.342   7.239 -30.146  1.00  0.00     0.004 C 
BRANCH   8   9
ATOM      9  C   UNL     1      31.946   7.706 -30.577  1.00  0.00     0.027 C 
BRANCH   9  10
ATOM     10  C   UNL     1      31.610   9.044 -29.977  1.00  0.00    -0.035 C 
ATOM     11  C   UNL     1      32.201   9.484 -28.861  1.00  0.00     0.004 C 
ENDBRANCH   9  10
ENDBRANCH   8   9
ENDBRANCH   7   8
ENDBRANCH   1   7
TORSDOF 7
ENDMDL
MODEL 8
REMARK VINA RESULT:    -3.062      3.284      4.536
REMARK INTER + INTRA:          -4.798
REMARK INTER:                  -4.517
REMARK INTRA:                  -0.281
REMARK UNBOUND:                -0.483
REMARK SMILES C=CCCCCCCC(=O)[O-]
REMARK SMILES IDX 6 1 7 2 8 3 9 4 10 5 11 6 5 7 4 8 3 9 2 10 1 11
REMARK H PARENT
REMARK Flexibility Score: inf
ROOT
ATOM      1  C   UNL     1      32.764   4.422 -33.003  1.00  0.00     0.000 C 
ENDROOT
BRANCH   1   2
ATOM      2  C   UNL     1      34.291   4.273 -32.981  1.00  0.00     0.006 C 
BRANCH   2   3
ATOM      3  C   UNL     1      35.006   5.625 -32.847  1.00  0.00     0.053 C 
BRANCH   3   4
ATOM      4  C   UNL     1      35.404   5.906 -31.431  1.00  0.00     0.041 C 
ATOM      5  O   UNL     1      36.124   6.903 -31.162  1.00  0.00    -0.550 OA
ATOM      6  O   UNL     1      35.008   5.048 -30.413  1.00  0.00    -0.550 OA
ENDBRANCH   3   4
ENDBRANCH   2   3
ENDBRANCH   1   2
BRANCH   1   7
ATOM      7  C   UNL     1      32.087   3.092 -33.356  1.00  0.00     0.000 C 
BRANCH   7   8
ATOM      8  C   UNL     1      33.111   1.952 -33.419  1.00  0.00     0.004 C 
BRANCH   8   9
ATOM      9  C   UNL     1      32.550   0.752 -34.192  1.00  0.00     0.027 C 
BRANCH   9  10
ATOM     10  C   UNL     1      33.516   0.282 -35.245  1.00  0.00    -0.035 C 
ATOM     11  C   UNL     1      33.099  -0.268 -36.389  1.00  0.00     0.004 C 
ENDBRANCH   9  10
ENDBRANCH   8   9
ENDBRANCH   7   8
ENDBRANCH   1   7
TORSDOF 7
ENDMDL
MODEL 9
REMARK VINA RESULT:    -3.024      4.613      6.005
REMARK INTER + INTRA:          -4.744
REMARK INTER:                  -4.531
REMARK INTRA:                  -0.213
REMARK UNBOUND:                -0.483
REMARK SMILES C=CCCCCCCC(=O)[O-]
REMARK SMILES IDX 6 1 7 2 8 3 9 4 10 5 11 6 5 7 4 8 3 9 2 10 1 11
REMARK H PARENT
REMARK Flexibility Score: inf
ROOT
ATOM      1  C   UNL     1      32.251   1.863 -33.772  1.00  0.00     0.000 C 
ENDROOT
BRANCH   1   2
ATOM      2  C   UNL     1      33.499   2.666 -33.379  1.00  0.00     0.006 C 
BRANCH   2   3
ATOM      3  C   UNL     1      33.157   4.100 -32.951  1.00  0.00     0.053 C 
BRANCH   3   4
ATOM      4  C   UNL     1      34.389   4.919 -32.718  1.00  0.00     0.041 C 
ATOM      5  O   UNL     1      34.947   5.510 -33.680  1.00  0.00    -0.550 OA
ATOM      6  O   UNL     1      34.939   5.003 -31.446  1.00  0.00    -0.550 OA
ENDBRANCH   3   4
ENDBRANCH   2   3
ENDBRANCH   1   2
BRANCH   1   7
ATOM      7  C   UNL     1      32.601   0.391 -34.024  1.00  0.00     0.000 C 
BRANCH   7   8
ATOM      8  C   UNL     1      33.604   0.253 -35.177  1.00  0.00     0.004 C 
BRANCH   8   9
ATOM      9  C   UNL     1      33.129  -0.793 -36.194  1.00  0.00     0.027 C 
BRANCH   9  10
ATOM     10  C   UNL     1      33.084  -0.220 -37.584  1.00  0.00    -0.035 C 
ATOM     11  C   UNL     1      32.988  -1.000 -38.665  1.00  0.00     0.004 C 
ENDBRANCH   9  10
ENDBRANCH   8   9
ENDBRANCH   7   8
ENDBRANCH   1   7
TORSDOF 7
ENDMDL
