MODEL 1
REMARK VINA RESULT:    -5.521      0.000      0.000
REMARK INTER + INTRA:          -6.960
REMARK INTER:                  -6.651
REMARK INTRA:                  -0.309
REMARK UNBOUND:                -0.309
REMARK SMILES O=c1c(O)c(-c2ccc(O)c(O)c2)oc2cc(O)cc(O)c12
REMARK SMILES IDX 5 1 3 2 2 3 1 4 22 5 20 6 19 7 17 8 16 9 15 10 14 11 6 12
REMARK SMILES IDX 7 13 8 14 9 15 13 16 11 17 10 18 12 20 4 22 21 24 18 26
REMARK H PARENT 10 19 12 21 4 23 21 25 18 27
REMARK Flexibility Score: inf
ROOT
ATOM      1  C   UNL     1     213.743 215.947 220.500  1.00  0.00     0.180 A 
ATOM      2  C   UNL     1     212.594 216.704 220.196  1.00  0.00     0.208 A 
ATOM      3  C   UNL     1     212.723 218.090 220.019  1.00  0.00     0.238 A 
ATOM      4  O   UNL     1     211.699 218.780 219.759  1.00  0.00    -0.285 OA
ATOM      5  C   UNL     1     213.994 218.692 220.127  1.00  0.00     0.111 A 
ATOM      6  C   UNL     1     214.209 220.081 219.959  1.00  0.00     0.134 A 
ATOM      7  C   UNL     1     215.506 220.602 220.073  1.00  0.00     0.093 A 
ATOM      8  C   UNL     1     216.590 219.762 220.351  1.00  0.00     0.123 A 
ATOM      9  C   UNL     1     216.382 218.392 220.518  1.00  0.00     0.094 A 
ATOM     10  C   UNL     1     215.097 217.853 220.410  1.00  0.00     0.146 A 
ATOM     11  O   UNL     1     214.927 216.546 220.579  1.00  0.00    -0.452 OA
ENDROOT
BRANCH   1  12
ATOM     12  C   UNL     1     213.685 214.484 220.719  1.00  0.00     0.025 A 
ATOM     13  C   UNL     1     213.957 213.577 219.682  1.00  0.00     0.016 A 
ATOM     14  C   UNL     1     213.873 212.203 219.906  1.00  0.00     0.051 A 
ATOM     15  C   UNL     1     213.505 211.705 221.161  1.00  0.00     0.157 A 
ATOM     16  C   UNL     1     213.294 213.988 221.972  1.00  0.00     0.062 A 
ATOM     17  C   UNL     1     213.207 212.610 222.207  1.00  0.00     0.158 A 
BRANCH  15  18
ATOM     18  O   UNL     1     213.443 210.319 221.322  1.00  0.00    -0.504 OA
ATOM     19  H   UNL     1     212.821 209.718 220.802  1.00  0.00     0.293 HD
ENDBRANCH  15  18
BRANCH  17  20
ATOM     20  O   UNL     1     212.823 212.189 223.482  1.00  0.00    -0.504 OA
ATOM     21  H   UNL     1     211.865 212.129 223.793  1.00  0.00     0.293 HD
ENDBRANCH  17  20
ENDBRANCH   1  12
BRANCH   2  22
ATOM     22  O   UNL     1     211.354 216.076 220.046  1.00  0.00    -0.502 OA
ATOM     23  H   UNL     1     210.482 216.590 220.057  1.00  0.00     0.293 HD
ENDBRANCH   2  22
BRANCH   6  24
ATOM     24  O   UNL     1     213.148 220.945 219.681  1.00  0.00    -0.507 OA
ATOM     25  H   UNL     1     212.215 220.773 220.035  1.00  0.00     0.293 HD
ENDBRANCH   6  24
BRANCH   8  26
ATOM     26  O   UNL     1     217.879 220.280 220.464  1.00  0.00    -0.508 OA
ATOM     27  H   UNL     1     218.661 219.699 220.743  1.00  0.00     0.293 HD
ENDBRANCH   8  26
TORSDOF 6
ENDMDL
MODEL 2
REMARK VINA RESULT:    -5.520      5.089      7.269
REMARK INTER + INTRA:          -6.958
REMARK INTER:                  -6.634
REMARK INTRA:                  -0.324
REMARK UNBOUND:                -0.309
REMARK SMILES O=c1c(O)c(-c2ccc(O)c(O)c2)oc2cc(O)cc(O)c12
REMARK SMILES IDX 5 1 3 2 2 3 1 4 22 5 20 6 19 7 17 8 16 9 15 10 14 11 6 12
REMARK SMILES IDX 7 13 8 14 9 15 13 16 11 17 10 18 12 20 4 22 21 24 18 26
REMARK H PARENT 10 19 12 21 4 23 21 25 18 27
REMARK Flexibility Score: inf
ROOT
ATOM      1  C   UNL     1     220.486 217.600 220.277  1.00  0.00     0.180 A 
ATOM      2  C   UNL     1     221.214 218.804 220.213  1.00  0.00     0.208 A 
ATOM      3  C   UNL     1     220.513 220.015 220.098  1.00  0.00     0.238 A 
ATOM      4  O   UNL     1     221.155 221.099 220.029  1.00  0.00    -0.285 OA
ATOM      5  C   UNL     1     219.103 220.004 220.068  1.00  0.00     0.111 A 
ATOM      6  C   UNL     1     218.322 221.180 219.958  1.00  0.00     0.134 A 
ATOM      7  C   UNL     1     216.923 221.086 219.944  1.00  0.00     0.093 A 
ATOM      8  C   UNL     1     216.291 219.842 220.039  1.00  0.00     0.123 A 
ATOM      9  C   UNL     1     217.057 218.680 220.148  1.00  0.00     0.094 A 
ATOM     10  C   UNL     1     218.453 218.751 220.162  1.00  0.00     0.146 A 
ATOM     11  O   UNL     1     219.157 217.629 220.261  1.00  0.00    -0.452 OA
ENDROOT
BRANCH   1  12
ATOM     12  C   UNL     1     221.154 216.282 220.380  1.00  0.00     0.025 A 
ATOM     13  C   UNL     1     221.425 215.508 219.241  1.00  0.00     0.016 A 
ATOM     14  C   UNL     1     222.033 214.258 219.366  1.00  0.00     0.051 A 
ATOM     15  C   UNL     1     222.371 213.750 220.626  1.00  0.00     0.157 A 
ATOM     16  C   UNL     1     221.471 215.766 221.646  1.00  0.00     0.062 A 
ATOM     17  C   UNL     1     222.081 214.513 221.782  1.00  0.00     0.158 A 
BRANCH  15  18
ATOM     18  O   UNL     1     222.981 212.495 220.682  1.00  0.00    -0.504 OA
ATOM     19  H   UNL     1     222.666 211.741 221.274  1.00  0.00     0.293 HD
ENDBRANCH  15  18
BRANCH  17  20
ATOM     20  O   UNL     1     222.379 214.069 223.072  1.00  0.00    -0.504 OA
ATOM     21  H   UNL     1     223.251 214.253 223.546  1.00  0.00     0.293 HD
ENDBRANCH  17  20
ENDBRANCH   1  12
BRANCH   2  22
ATOM     22  O   UNL     1     222.609 218.791 220.295  1.00  0.00    -0.502 OA
ATOM     23  H   UNL     1     223.101 218.514 221.135  1.00  0.00     0.293 HD
ENDBRANCH   2  22
BRANCH   6  24
ATOM     24  O   UNL     1     218.924 222.436 219.861  1.00  0.00    -0.507 OA
ATOM     25  H   UNL     1     218.408 223.251 219.551  1.00  0.00     0.293 HD
ENDBRANCH   6  24
BRANCH   8  26
ATOM     26  O   UNL     1     214.901 219.749 220.027  1.00  0.00    -0.508 OA
ATOM     27  H   UNL     1     214.369 219.869 219.173  1.00  0.00     0.293 HD
ENDBRANCH   8  26
TORSDOF 6
ENDMDL
MODEL 3
REMARK VINA RESULT:    -5.517      2.487      6.089
REMARK INTER + INTRA:          -6.955
REMARK INTER:                  -6.630
REMARK INTRA:                  -0.325
REMARK UNBOUND:                -0.309
REMARK SMILES O=c1c(O)c(-c2ccc(O)c(O)c2)oc2cc(O)cc(O)c12
REMARK SMILES IDX 5 1 3 2 2 3 1 4 22 5 20 6 19 7 17 8 16 9 15 10 14 11 6 12
REMARK SMILES IDX 7 13 8 14 9 15 13 16 11 17 10 18 12 20 4 22 21 24 18 26
REMARK H PARENT 10 19 12 21 4 23 21 25 18 27
REMARK Flexibility Score: inf
ROOT
ATOM      1  C   UNL     1     213.897 216.785 220.285  1.00  0.00     0.180 A 
ATOM      2  C   UNL     1     213.159 215.587 220.207  1.00  0.00     0.208 A 
ATOM      3  C   UNL     1     213.850 214.372 220.079  1.00  0.00     0.238 A 
ATOM      4  O   UNL     1     213.199 213.294 219.997  1.00  0.00    -0.285 OA
ATOM      5  C   UNL     1     215.260 214.371 220.050  1.00  0.00     0.111 A 
ATOM      6  C   UNL     1     216.031 213.190 219.927  1.00  0.00     0.134 A 
ATOM      7  C   UNL     1     217.431 213.272 219.915  1.00  0.00     0.093 A 
ATOM      8  C   UNL     1     218.074 214.510 220.025  1.00  0.00     0.123 A 
ATOM      9  C   UNL     1     217.317 215.676 220.146  1.00  0.00     0.094 A 
ATOM     10  C   UNL     1     215.921 215.617 220.158  1.00  0.00     0.146 A 
ATOM     11  O   UNL     1     215.226 216.744 220.269  1.00  0.00    -0.452 OA
ENDROOT
BRANCH   1  12
ATOM     12  C   UNL     1     213.241 218.107 220.403  1.00  0.00     0.025 A 
ATOM     13  C   UNL     1     212.974 218.895 219.272  1.00  0.00     0.016 A 
ATOM     14  C   UNL     1     212.377 220.148 219.410  1.00  0.00     0.051 A 
ATOM     15  C   UNL     1     212.045 220.646 220.676  1.00  0.00     0.157 A 
ATOM     16  C   UNL     1     212.930 218.613 221.674  1.00  0.00     0.062 A 
ATOM     17  C   UNL     1     212.330 219.869 221.824  1.00  0.00     0.158 A 
BRANCH  15  18
ATOM     18  O   UNL     1     211.446 221.905 220.745  1.00  0.00    -0.504 OA
ATOM     19  H   UNL     1     210.886 222.305 220.008  1.00  0.00     0.293 HD
ENDBRANCH  15  18
BRANCH  17  20
ATOM     20  O   UNL     1     212.038 220.303 223.118  1.00  0.00    -0.504 OA
ATOM     21  H   UNL     1     212.729 220.644 223.770  1.00  0.00     0.293 HD
ENDBRANCH  17  20
ENDBRANCH   1  12
BRANCH   2  22
ATOM     22  O   UNL     1     211.764 215.611 220.288  1.00  0.00    -0.502 OA
ATOM     23  H   UNL     1     211.200 216.255 219.745  1.00  0.00     0.293 HD
ENDBRANCH   2  22
BRANCH   6  24
ATOM     24  O   UNL     1     215.419 211.941 219.816  1.00  0.00    -0.507 OA
ATOM     25  H   UNL     1     215.643 211.179 220.446  1.00  0.00     0.293 HD
ENDBRANCH   6  24
BRANCH   8  26
ATOM     26  O   UNL     1     219.464 214.591 220.014  1.00  0.00    -0.508 OA
ATOM     27  H   UNL     1     220.012 214.409 220.846  1.00  0.00     0.293 HD
ENDBRANCH   8  26
TORSDOF 6
ENDMDL
MODEL 4
REMARK VINA RESULT:    -5.516      4.876      9.698
REMARK INTER + INTRA:          -6.953
REMARK INTER:                  -6.644
REMARK INTRA:                  -0.309
REMARK UNBOUND:                -0.309
REMARK SMILES O=c1c(O)c(-c2ccc(O)c(O)c2)oc2cc(O)cc(O)c12
REMARK SMILES IDX 5 1 3 2 2 3 1 4 22 5 20 6 19 7 17 8 16 9 15 10 14 11 6 12
REMARK SMILES IDX 7 13 8 14 9 15 13 16 11 17 10 18 12 20 4 22 21 24 18 26
REMARK H PARENT 10 19 12 21 4 23 21 25 18 27
REMARK Flexibility Score: inf
ROOT
ATOM      1  C   UNL     1     220.626 218.437 220.488  1.00  0.00     0.180 A 
ATOM      2  C   UNL     1     221.776 217.682 220.187  1.00  0.00     0.208 A 
ATOM      3  C   UNL     1     221.651 216.295 220.013  1.00  0.00     0.238 A 
ATOM      4  O   UNL     1     222.677 215.607 219.755  1.00  0.00    -0.285 OA
ATOM      5  C   UNL     1     220.382 215.690 220.121  1.00  0.00     0.111 A 
ATOM      6  C   UNL     1     220.170 214.300 219.955  1.00  0.00     0.134 A 
ATOM      7  C   UNL     1     218.874 213.776 220.070  1.00  0.00     0.093 A 
ATOM      8  C   UNL     1     217.788 214.614 220.345  1.00  0.00     0.123 A 
ATOM      9  C   UNL     1     217.993 215.985 220.509  1.00  0.00     0.094 A 
ATOM     10  C   UNL     1     219.276 216.527 220.401  1.00  0.00     0.146 A 
ATOM     11  O   UNL     1     219.443 217.835 220.567  1.00  0.00    -0.452 OA
ENDROOT
BRANCH   1  12
ATOM     12  C   UNL     1     220.679 219.900 220.704  1.00  0.00     0.025 A 
ATOM     13  C   UNL     1     220.404 220.804 219.665  1.00  0.00     0.016 A 
ATOM     14  C   UNL     1     220.484 222.180 219.887  1.00  0.00     0.051 A 
ATOM     15  C   UNL     1     220.853 222.681 221.140  1.00  0.00     0.157 A 
ATOM     16  C   UNL     1     221.071 220.400 221.955  1.00  0.00     0.062 A 
ATOM     17  C   UNL     1     221.155 221.779 222.188  1.00  0.00     0.158 A 
BRANCH  15  18
ATOM     18  O   UNL     1     220.911 224.068 221.298  1.00  0.00    -0.504 OA
ATOM     19  H   UNL     1     221.185 224.527 222.153  1.00  0.00     0.293 HD
ENDBRANCH  15  18
BRANCH  17  20
ATOM     20  O   UNL     1     221.539 222.204 223.461  1.00  0.00    -0.504 OA
ATOM     21  H   UNL     1     222.353 221.861 223.950  1.00  0.00     0.293 HD
ENDBRANCH  17  20
ENDBRANCH   1  12
BRANCH   2  22
ATOM     22  O   UNL     1     223.015 218.312 220.037  1.00  0.00    -0.502 OA
ATOM     23  H   UNL     1     223.174 219.271 220.321  1.00  0.00     0.293 HD
ENDBRANCH   2  22
BRANCH   6  24
ATOM     24  O   UNL     1     221.233 213.439 219.680  1.00  0.00    -0.507 OA
ATOM     25  H   UNL     1     221.265 212.496 220.051  1.00  0.00     0.293 HD
ENDBRANCH   6  24
BRANCH   8  26
ATOM     26  O   UNL     1     216.500 214.094 220.458  1.00  0.00    -0.508 OA
ATOM     27  H   UNL     1     215.979 213.789 219.645  1.00  0.00     0.293 HD
ENDBRANCH   8  26
TORSDOF 6
ENDMDL
MODEL 5
REMARK VINA RESULT:    -5.441      4.224      5.511
REMARK INTER + INTRA:          -6.863
REMARK INTER:                  -6.623
REMARK INTRA:                  -0.240
REMARK UNBOUND:                -0.309
REMARK SMILES O=c1c(O)c(-c2ccc(O)c(O)c2)oc2cc(O)cc(O)c12
REMARK SMILES IDX 5 1 3 2 2 3 1 4 22 5 20 6 19 7 17 8 16 9 15 10 14 11 6 12
REMARK SMILES IDX 7 13 8 14 9 15 13 16 11 17 10 18 12 20 4 22 21 24 18 26
REMARK H PARENT 10 19 12 21 4 23 21 25 18 27
REMARK Flexibility Score: inf
ROOT
ATOM      1  C   UNL     1     216.966 213.804 220.360  1.00  0.00     0.180 A 
ATOM      2  C   UNL     1     217.016 215.199 220.167  1.00  0.00     0.208 A 
ATOM      3  C   UNL     1     218.264 215.840 220.172  1.00  0.00     0.238 A 
ATOM      4  O   UNL     1     218.320 217.090 220.012  1.00  0.00    -0.285 OA
ATOM      5  C   UNL     1     219.438 215.079 220.347  1.00  0.00     0.111 A 
ATOM      6  C   UNL     1     220.735 215.648 220.360  1.00  0.00     0.134 A 
ATOM      7  C   UNL     1     221.855 214.822 220.531  1.00  0.00     0.093 A 
ATOM      8  C   UNL     1     221.704 213.439 220.688  1.00  0.00     0.123 A 
ATOM      9  C   UNL     1     220.427 212.875 220.677  1.00  0.00     0.094 A 
ATOM     10  C   UNL     1     219.298 213.680 220.510  1.00  0.00     0.146 A 
ATOM     11  O   UNL     1     218.095 213.117 220.508  1.00  0.00    -0.452 OA
ENDROOT
BRANCH   1  12
ATOM     12  C   UNL     1     215.687 213.059 220.387  1.00  0.00     0.025 A 
ATOM     13  C   UNL     1     214.937 212.851 219.218  1.00  0.00     0.016 A 
ATOM     14  C   UNL     1     213.722 212.166 219.273  1.00  0.00     0.051 A 
ATOM     15  C   UNL     1     213.225 211.687 220.490  1.00  0.00     0.157 A 
ATOM     16  C   UNL     1     215.181 212.599 221.612  1.00  0.00     0.062 A 
ATOM     17  C   UNL     1     213.963 211.911 221.677  1.00  0.00     0.158 A 
BRANCH  15  18
ATOM     18  O   UNL     1     212.006 211.006 220.476  1.00  0.00    -0.504 OA
ATOM     19  H   UNL     1     211.465 210.836 219.642  1.00  0.00     0.293 HD
ENDBRANCH  15  18
BRANCH  17  20
ATOM     20  O   UNL     1     213.527 211.472 222.929  1.00  0.00    -0.504 OA
ATOM     21  H   UNL     1     213.408 210.502 223.178  1.00  0.00     0.293 HD
ENDBRANCH  17  20
ENDBRANCH   1  12
BRANCH   2  22
ATOM     22  O   UNL     1     215.841 215.923 219.946  1.00  0.00    -0.502 OA
ATOM     23  H   UNL     1     215.141 216.054 220.667  1.00  0.00     0.293 HD
ENDBRANCH   2  22
BRANCH   6  24
ATOM     24  O   UNL     1     220.918 217.023 220.205  1.00  0.00    -0.507 OA
ATOM     25  H   UNL     1     221.359 217.412 219.380  1.00  0.00     0.293 HD
ENDBRANCH   6  24
BRANCH   8  26
ATOM     26  O   UNL     1     222.817 212.618 220.858  1.00  0.00    -0.508 OA
ATOM     27  H   UNL     1     223.431 212.716 221.657  1.00  0.00     0.293 HD
ENDBRANCH   8  26
TORSDOF 6
ENDMDL
MODEL 6
REMARK VINA RESULT:    -5.434      5.070      6.804
REMARK INTER + INTRA:          -6.854
REMARK INTER:                  -6.550
REMARK INTRA:                  -0.304
REMARK UNBOUND:                -0.309
REMARK SMILES O=c1c(O)c(-c2ccc(O)c(O)c2)oc2cc(O)cc(O)c12
REMARK SMILES IDX 5 1 3 2 2 3 1 4 22 5 20 6 19 7 17 8 16 9 15 10 14 11 6 12
REMARK SMILES IDX 7 13 8 14 9 15 13 16 11 17 10 18 12 20 4 22 21 24 18 26
REMARK H PARENT 10 19 12 21 4 23 21 25 18 27
REMARK Flexibility Score: inf
ROOT
ATOM      1  C   UNL     1     215.943 220.557 220.489  1.00  0.00     0.180 A 
ATOM      2  C   UNL     1     216.688 221.709 220.173  1.00  0.00     0.208 A 
ATOM      3  C   UNL     1     218.075 221.592 219.991  1.00  0.00     0.238 A 
ATOM      4  O   UNL     1     218.754 222.619 219.719  1.00  0.00    -0.285 OA
ATOM      5  C   UNL     1     218.689 220.327 220.108  1.00  0.00     0.111 A 
ATOM      6  C   UNL     1     220.079 220.123 219.936  1.00  0.00     0.134 A 
ATOM      7  C   UNL     1     220.612 218.832 220.061  1.00  0.00     0.093 A 
ATOM      8  C   UNL     1     219.783 217.743 220.352  1.00  0.00     0.123 A 
ATOM      9  C   UNL     1     218.412 217.941 220.522  1.00  0.00     0.094 A 
ATOM     10  C   UNL     1     217.861 219.219 220.405  1.00  0.00     0.146 A 
ATOM     11  O   UNL     1     216.553 219.379 220.577  1.00  0.00    -0.452 OA
ENDROOT
BRANCH   1  12
ATOM     12  C   UNL     1     214.480 220.603 220.714  1.00  0.00     0.025 A 
ATOM     13  C   UNL     1     213.572 220.296 219.688  1.00  0.00     0.016 A 
ATOM     14  C   UNL     1     212.198 220.371 219.917  1.00  0.00     0.051 A 
ATOM     15  C   UNL     1     211.701 220.763 221.165  1.00  0.00     0.157 A 
ATOM     16  C   UNL     1     213.985 221.018 221.959  1.00  0.00     0.062 A 
ATOM     17  C   UNL     1     212.608 221.096 222.199  1.00  0.00     0.158 A 
BRANCH  15  18
ATOM     18  O   UNL     1     210.315 220.813 221.330  1.00  0.00    -0.504 OA
ATOM     19  H   UNL     1     209.696 220.040 221.136  1.00  0.00     0.293 HD
ENDBRANCH  15  18
BRANCH  17  20
ATOM     20  O   UNL     1     212.187 221.505 223.466  1.00  0.00    -0.504 OA
ATOM     21  H   UNL     1     212.246 220.931 224.294  1.00  0.00     0.293 HD
ENDBRANCH  17  20
ENDBRANCH   1  12
BRANCH   2  22
ATOM     22  O   UNL     1     216.049 222.942 220.014  1.00  0.00    -0.502 OA
ATOM     23  H   UNL     1     216.212 223.722 220.639  1.00  0.00     0.293 HD
ENDBRANCH   2  22
BRANCH   6  24
ATOM     24  O   UNL     1     220.932 221.189 219.645  1.00  0.00    -0.507 OA
ATOM     25  H   UNL     1     220.584 222.060 219.262  1.00  0.00     0.293 HD
ENDBRANCH   6  24
BRANCH   8  26
ATOM     26  O   UNL     1     220.313 216.460 220.474  1.00  0.00    -0.508 OA
ATOM     27  H   UNL     1     221.254 216.305 220.813  1.00  0.00     0.293 HD
ENDBRANCH   8  26
TORSDOF 6
ENDMDL
MODEL 7
REMARK VINA RESULT:    -5.428      5.054      6.843
REMARK INTER + INTRA:          -6.847
REMARK INTER:                  -6.544
REMARK INTRA:                  -0.303
REMARK UNBOUND:                -0.309
REMARK SMILES O=c1c(O)c(-c2ccc(O)c(O)c2)oc2cc(O)cc(O)c12
REMARK SMILES IDX 5 1 3 2 2 3 1 4 22 5 20 6 19 7 17 8 16 9 15 10 14 11 6 12
REMARK SMILES IDX 7 13 8 14 9 15 13 16 11 17 10 18 12 20 4 22 21 24 18 26
REMARK H PARENT 10 19 12 21 4 23 21 25 18 27
REMARK Flexibility Score: inf
ROOT
ATOM      1  C   UNL     1     218.410 213.835 220.480  1.00  0.00     0.180 A 
ATOM      2  C   UNL     1     217.669 212.677 220.175  1.00  0.00     0.208 A 
ATOM      3  C   UNL     1     216.280 212.786 220.001  1.00  0.00     0.238 A 
ATOM      4  O   UNL     1     215.605 211.754 219.738  1.00  0.00    -0.285 OA
ATOM      5  C   UNL     1     215.661 214.048 220.114  1.00  0.00     0.111 A 
ATOM      6  C   UNL     1     214.269 214.245 219.948  1.00  0.00     0.134 A 
ATOM      7  C   UNL     1     213.730 215.534 220.068  1.00  0.00     0.093 A 
ATOM      8  C   UNL     1     214.555 216.629 220.347  1.00  0.00     0.123 A 
ATOM      9  C   UNL     1     215.928 216.439 220.511  1.00  0.00     0.094 A 
ATOM     10  C   UNL     1     216.485 215.163 220.398  1.00  0.00     0.146 A 
ATOM     11  O   UNL     1     217.794 215.010 220.564  1.00  0.00    -0.452 OA
ENDROOT
BRANCH   1  12
ATOM     12  C   UNL     1     219.874 213.797 220.697  1.00  0.00     0.025 A 
ATOM     13  C   UNL     1     220.775 214.109 219.665  1.00  0.00     0.016 A 
ATOM     14  C   UNL     1     222.151 214.042 219.887  1.00  0.00     0.051 A 
ATOM     15  C   UNL     1     222.657 213.653 221.132  1.00  0.00     0.157 A 
ATOM     16  C   UNL     1     220.379 213.385 221.939  1.00  0.00     0.062 A 
ATOM     17  C   UNL     1     221.758 213.316 222.172  1.00  0.00     0.158 A 
BRANCH  15  18
ATOM     18  O   UNL     1     224.044 213.612 221.290  1.00  0.00    -0.504 OA
ATOM     19  H   UNL     1     224.651 212.992 220.775  1.00  0.00     0.293 HD
ENDBRANCH  15  18
BRANCH  17  20
ATOM     20  O   UNL     1     222.187 212.910 223.437  1.00  0.00    -0.504 OA
ATOM     21  H   UNL     1     221.568 212.606 224.173  1.00  0.00     0.293 HD
ENDBRANCH  17  20
ENDBRANCH   1  12
BRANCH   2  22
ATOM     22  O   UNL     1     218.313 211.446 220.020  1.00  0.00    -0.502 OA
ATOM     23  H   UNL     1     217.829 210.618 219.696  1.00  0.00     0.293 HD
ENDBRANCH   2  22
BRANCH   6  24
ATOM     24  O   UNL     1     213.420 213.173 219.669  1.00  0.00    -0.507 OA
ATOM     25  H   UNL     1     212.416 213.293 219.598  1.00  0.00     0.293 HD
ENDBRANCH   6  24
BRANCH   8  26
ATOM     26  O   UNL     1     214.020 217.910 220.465  1.00  0.00    -0.508 OA
ATOM     27  H   UNL     1     213.276 218.231 219.857  1.00  0.00     0.293 HD
ENDBRANCH   8  26
TORSDOF 6
ENDMDL
MODEL 8
REMARK VINA RESULT:    -5.422      5.629      7.045
REMARK INTER + INTRA:          -6.840
REMARK INTER:                  -6.562
REMARK INTRA:                  -0.277
REMARK UNBOUND:                -0.309
REMARK SMILES O=c1c(O)c(-c2ccc(O)c(O)c2)oc2cc(O)cc(O)c12
REMARK SMILES IDX 5 1 3 2 2 3 1 4 22 5 20 6 19 7 17 8 16 9 15 10 14 11 6 12
REMARK SMILES IDX 7 13 8 14 9 15 13 16 11 17 10 18 12 20 4 22 21 24 18 26
REMARK H PARENT 10 19 12 21 4 23 21 25 18 27
REMARK Flexibility Score: inf
ROOT
ATOM      1  C   UNL     1     220.587 217.048 220.345  1.00  0.00     0.180 A 
ATOM      2  C   UNL     1     219.192 217.108 220.159  1.00  0.00     0.208 A 
ATOM      3  C   UNL     1     218.562 218.362 220.158  1.00  0.00     0.238 A 
ATOM      4  O   UNL     1     217.311 218.428 220.003  1.00  0.00    -0.285 OA
ATOM      5  C   UNL     1     219.334 219.531 220.321  1.00  0.00     0.111 A 
ATOM      6  C   UNL     1     218.777 220.833 220.328  1.00  0.00     0.134 A 
ATOM      7  C   UNL     1     219.614 221.946 220.487  1.00  0.00     0.093 A 
ATOM      8  C   UNL     1     220.996 221.784 220.638  1.00  0.00     0.123 A 
ATOM      9  C   UNL     1     221.549 220.502 220.633  1.00  0.00     0.094 A 
ATOM     10  C   UNL     1     220.732 219.379 220.477  1.00  0.00     0.146 A 
ATOM     11  O   UNL     1     221.285 218.171 220.481  1.00  0.00    -0.452 OA
ENDROOT
BRANCH   1  12
ATOM     12  C   UNL     1     221.321 215.762 220.377  1.00  0.00     0.025 A 
ATOM     13  C   UNL     1     221.604 215.052 219.199  1.00  0.00     0.016 A 
ATOM     14  C   UNL     1     222.276 213.830 219.257  1.00  0.00     0.051 A 
ATOM     15  C   UNL     1     222.667 213.287 220.486  1.00  0.00     0.157 A 
ATOM     16  C   UNL     1     221.692 215.209 221.612  1.00  0.00     0.062 A 
ATOM     17  C   UNL     1     222.367 213.984 221.680  1.00  0.00     0.158 A 
BRANCH  15  18
ATOM     18  O   UNL     1     223.340 212.063 220.475  1.00  0.00    -0.504 OA
ATOM     19  H   UNL     1     222.971 211.213 220.872  1.00  0.00     0.293 HD
ENDBRANCH  15  18
BRANCH  17  20
ATOM     20  O   UNL     1     222.716 213.500 222.943  1.00  0.00    -0.504 OA
ATOM     21  H   UNL     1     222.529 212.561 223.260  1.00  0.00     0.293 HD
ENDBRANCH  17  20
ENDBRANCH   1  12
BRANCH   2  22
ATOM     22  O   UNL     1     218.456 215.939 219.949  1.00  0.00    -0.502 OA
ATOM     23  H   UNL     1     217.753 215.616 220.603  1.00  0.00     0.293 HD
ENDBRANCH   2  22
BRANCH   6  24
ATOM     24  O   UNL     1     217.403 221.027 220.179  1.00  0.00    -0.507 OA
ATOM     25  H   UNL     1     217.029 221.719 219.540  1.00  0.00     0.293 HD
ENDBRANCH   6  24
BRANCH   8  26
ATOM     26  O   UNL     1     221.828 222.890 220.796  1.00  0.00    -0.508 OA
ATOM     27  H   UNL     1     221.671 223.749 220.282  1.00  0.00     0.293 HD
ENDBRANCH   8  26
TORSDOF 6
ENDMDL
MODEL 9
REMARK VINA RESULT:    -5.329      4.914      6.854
REMARK INTER + INTRA:          -6.728
REMARK INTER:                  -6.403
REMARK INTRA:                  -0.325
REMARK UNBOUND:                -0.309
REMARK SMILES O=c1c(O)c(-c2ccc(O)c(O)c2)oc2cc(O)cc(O)c12
REMARK SMILES IDX 5 1 3 2 2 3 1 4 22 5 20 6 19 7 17 8 16 9 15 10 14 11 6 12
REMARK SMILES IDX 7 13 8 14 9 15 13 16 11 17 10 18 12 20 4 22 21 24 18 26
REMARK H PARENT 10 19 12 21 4 23 21 25 18 27
REMARK Flexibility Score: inf
ROOT
ATOM      1  C   UNL     1     218.477 214.633 220.706  1.00  0.00     0.180 A 
ATOM      2  C   UNL     1     218.040 215.928 221.050  1.00  0.00     0.208 A 
ATOM      3  C   UNL     1     216.674 216.233 220.939  1.00  0.00     0.238 A 
ATOM      4  O   UNL     1     216.273 217.393 221.233  1.00  0.00    -0.285 OA
ATOM      5  C   UNL     1     215.770 215.240 220.510  1.00  0.00     0.111 A 
ATOM      6  C   UNL     1     214.378 215.466 220.376  1.00  0.00     0.134 A 
ATOM      7  C   UNL     1     213.543 214.423 219.951  1.00  0.00     0.093 A 
ATOM      8  C   UNL     1     214.071 213.160 219.659  1.00  0.00     0.123 A 
ATOM      9  C   UNL     1     215.442 212.934 219.789  1.00  0.00     0.094 A 
ATOM     10  C   UNL     1     216.292 213.960 220.209  1.00  0.00     0.146 A 
ATOM     11  O   UNL     1     217.594 213.718 220.320  1.00  0.00    -0.452 OA
ENDROOT
BRANCH   1  12
ATOM     12  C   UNL     1     219.903 214.240 220.778  1.00  0.00     0.025 A 
ATOM     13  C   UNL     1     220.740 214.313 219.653  1.00  0.00     0.016 A 
ATOM     14  C   UNL     1     222.074 213.913 219.739  1.00  0.00     0.051 A 
ATOM     15  C   UNL     1     222.597 213.424 220.941  1.00  0.00     0.157 A 
ATOM     16  C   UNL     1     220.419 213.729 221.979  1.00  0.00     0.062 A 
ATOM     17  C   UNL     1     221.756 213.326 222.076  1.00  0.00     0.158 A 
BRANCH  15  18
ATOM     18  O   UNL     1     223.941 213.045 220.963  1.00  0.00    -0.504 OA
ATOM     19  H   UNL     1     224.270 212.148 221.289  1.00  0.00     0.293 HD
ENDBRANCH  15  18
BRANCH  17  20
ATOM     20  O   UNL     1     222.204 212.838 223.305  1.00  0.00    -0.504 OA
ATOM     21  H   UNL     1     223.143 212.960 223.653  1.00  0.00     0.293 HD
ENDBRANCH  17  20
ENDBRANCH   1  12
BRANCH   2  22
ATOM     22  O   UNL     1     218.949 216.879 221.520  1.00  0.00    -0.502 OA
ATOM     23  H   UNL     1     218.731 217.868 221.554  1.00  0.00     0.293 HD
ENDBRANCH   2  22
BRANCH   6  24
ATOM     24  O   UNL     1     213.822 216.714 220.660  1.00  0.00    -0.507 OA
ATOM     25  H   UNL     1     214.400 217.519 220.872  1.00  0.00     0.293 HD
ENDBRANCH   6  24
BRANCH   8  26
ATOM     26  O   UNL     1     213.240 212.124 219.238  1.00  0.00    -0.508 OA
ATOM     27  H   UNL     1     213.414 211.624 218.374  1.00  0.00     0.293 HD
ENDBRANCH   8  26
TORSDOF 6
ENDMDL
