MODEL 1
REMARK VINA RESULT:    -3.319      0.000      0.000
REMARK INTER + INTRA:          -3.073
REMARK INTER:                  -4.095
REMARK INTRA:                   1.022
REMARK UNBOUND:                 1.022
REMARK SMILES C=C1[C@@H]2CC[C@H]3[C@@H]2C(C)(C)CCC[C@@]13C
REMARK SMILES IDX 14 1 6 2 7 3 3 4 2 5 1 6 4 7 5 8 15 9 8 10 9 11 10 12 11 13
REMARK SMILES IDX 13 15 12 16
REMARK H PARENT
REMARK Flexibility Score: 80.00
ROOT
ATOM      1  C   UNL     1      21.321  63.659  16.075  1.00  0.00    -0.008 C 
ATOM      2  C   UNL     1      21.193  62.751  14.790  1.00  0.00     0.003 C 
ATOM      3  C   UNL     1      22.281  63.280  13.829  1.00  0.00     0.006 C 
ATOM      4  C   UNL     1      21.818  64.727  13.929  1.00  0.00     0.019 C 
ATOM      5  C   UNL     1      21.784  64.938  15.416  1.00  0.00    -0.068 C 
ATOM      6  C   UNL     1      22.023  66.106  16.027  1.00  0.00     0.009 C 
ATOM      7  C   UNL     1      20.349  64.594  13.466  1.00  0.00     0.008 C 
ATOM      8  C   UNL     1      19.946  63.186  13.972  1.00  0.00     0.005 C 
ATOM      9  C   UNL     1      19.979  63.901  16.816  1.00  0.00     0.016 C 
ENDROOT
BRANCH   3  10
ATOM     10  C   UNL     1      23.802  62.951  14.077  1.00  0.00    -0.032 C 
ATOM     11  C   UNL     1      24.665  63.843  13.152  1.00  0.00     0.011 C 
ATOM     12  C   UNL     1      24.060  61.482  13.645  1.00  0.00     0.011 C 
BRANCH  10  13
ATOM     13  C   UNL     1      24.312  63.172  15.529  1.00  0.00     0.007 CG0
ATOM     14  G   UNL     1      23.558  62.374  16.594  1.00  0.00     0.000 G0
ENDBRANCH  10  13
ENDBRANCH   3  10
BRANCH   1  15
ATOM     15  C   UNL     1      22.332  63.116  17.128  1.00  0.00     0.011 C 
BRANCH  15  16
ATOM     16  C   UNL     1      23.563  62.385  16.597  1.00  0.00     0.001 CG0
ATOM     17  G   UNL     1      24.311  63.176  15.523  1.00  0.00     0.000 G0
ENDBRANCH  15  16
ENDBRANCH   1  15
TORSDOF 0
ENDMDL
MODEL 2
REMARK VINA RESULT:    -3.226      1.497      3.308
REMARK INTER + INTRA:          -2.959
REMARK INTER:                  -3.992
REMARK INTRA:                   1.034
REMARK UNBOUND:                 1.022
REMARK SMILES C=C1[C@@H]2CC[C@H]3[C@@H]2C(C)(C)CCC[C@@]13C
REMARK SMILES IDX 14 1 6 2 7 3 3 4 2 5 1 6 4 7 5 8 15 9 8 10 9 11 10 12 11 13
REMARK SMILES IDX 13 15 12 16
REMARK H PARENT
REMARK Flexibility Score: 80.00
ROOT
ATOM      1  C   UNL     1      22.433  63.441  16.928  1.00  0.00    -0.008 C 
ATOM      2  C   UNL     1      20.904  63.048  16.918  1.00  0.00     0.003 C 
ATOM      3  C   UNL     1      20.221  64.161  16.092  1.00  0.00     0.006 C 
ATOM      4  C   UNL     1      20.830  65.292  16.910  1.00  0.00     0.019 C 
ATOM      5  C   UNL     1      22.292  64.945  16.875  1.00  0.00    -0.068 C 
ATOM      6  C   UNL     1      23.288  65.839  16.903  1.00  0.00     0.009 C 
ATOM      7  C   UNL     1      20.322  64.931  18.325  1.00  0.00     0.008 C 
ATOM      8  C   UNL     1      20.276  63.382  18.299  1.00  0.00     0.005 C 
ATOM      9  C   UNL     1      23.186  63.025  18.220  1.00  0.00     0.016 C 
ENDROOT
BRANCH   3  10
ATOM     10  C   UNL     1      20.362  64.199  14.523  1.00  0.00    -0.032 C 
ATOM     11  C   UNL     1      19.828  65.557  14.004  1.00  0.00     0.011 C 
ATOM     12  C   UNL     1      19.442  63.102  13.923  1.00  0.00     0.011 C 
BRANCH  10  13
ATOM     13  C   UNL     1      21.806  64.037  13.971  1.00  0.00     0.007 CG0
ATOM     14  G   UNL     1      22.506  62.745  14.397  1.00  0.00     0.000 G0
ENDBRANCH  10  13
ENDBRANCH   3  10
BRANCH   1  15
ATOM     15  C   UNL     1      23.237  62.863  15.726  1.00  0.00     0.011 C 
BRANCH  15  16
ATOM     16  C   UNL     1      22.505  62.750  14.391  1.00  0.00     0.001 CG0
ATOM     17  G   UNL     1      21.814  64.049  13.976  1.00  0.00     0.000 G0
ENDBRANCH  15  16
ENDBRANCH   1  15
TORSDOF 0
ENDMDL
MODEL 3
REMARK VINA RESULT:    -3.182      1.912      4.176
REMARK INTER + INTRA:          -2.904
REMARK INTER:                  -3.938
REMARK INTRA:                   1.034
REMARK UNBOUND:                 1.022
REMARK SMILES C=C1[C@@H]2CC[C@H]3[C@@H]2C(C)(C)CCC[C@@]13C
REMARK SMILES IDX 14 1 6 2 7 3 3 4 2 5 1 6 4 7 5 8 15 9 8 10 9 11 10 12 11 13
REMARK SMILES IDX 13 15 12 16
REMARK H PARENT
REMARK Flexibility Score: 80.00
ROOT
ATOM      1  C   UNL     1      23.369  64.545  13.747  1.00  0.00    -0.008 C 
ATOM      2  C   UNL     1      22.833  63.064  13.851  1.00  0.00     0.003 C 
ATOM      3  C   UNL     1      21.860  63.085  15.051  1.00  0.00     0.006 C 
ATOM      4  C   UNL     1      22.870  63.720  15.998  1.00  0.00     0.019 C 
ATOM      5  C   UNL     1      23.319  64.918  15.212  1.00  0.00    -0.068 C 
ATOM      6  C   UNL     1      23.708  66.081  15.750  1.00  0.00     0.009 C 
ATOM      7  C   UNL     1      24.020  62.688  15.928  1.00  0.00     0.008 C 
ATOM      8  C   UNL     1      23.932  62.159  14.474  1.00  0.00     0.005 C 
ATOM      9  C   UNL     1      24.826  64.656  13.223  1.00  0.00     0.016 C 
ENDROOT
BRANCH   3  10
ATOM     10  C   UNL     1      20.432  63.737  14.917  1.00  0.00    -0.032 C 
ATOM     11  C   UNL     1      19.807  63.869  16.328  1.00  0.00     0.011 C 
ATOM     12  C   UNL     1      19.524  62.764  14.118  1.00  0.00     0.011 C 
BRANCH  10  13
ATOM     13  C   UNL     1      20.394  65.149  14.268  1.00  0.00     0.007 CG0
ATOM     14  G   UNL     1      20.976  65.213  12.855  1.00  0.00     0.000 G0
ENDBRANCH  10  13
ENDBRANCH   3  10
BRANCH   1  15
ATOM     15  C   UNL     1      22.490  65.469  12.853  1.00  0.00     0.011 C 
BRANCH  15  16
ATOM     16  C   UNL     1      20.984  65.221  12.867  1.00  0.00     0.001 CG0
ATOM     17  G   UNL     1      20.402  65.153  14.279  1.00  0.00     0.000 G0
ENDBRANCH  15  16
ENDBRANCH   1  15
TORSDOF 0
ENDMDL
MODEL 4
REMARK VINA RESULT:    -3.180      1.579      3.411
REMARK INTER + INTRA:          -2.902
REMARK INTER:                  -3.924
REMARK INTRA:                   1.022
REMARK UNBOUND:                 1.022
REMARK SMILES C=C1[C@@H]2CC[C@H]3[C@@H]2C(C)(C)CCC[C@@]13C
REMARK SMILES IDX 14 1 6 2 7 3 3 4 2 5 1 6 4 7 5 8 15 9 8 10 9 11 10 12 11 13
REMARK SMILES IDX 13 15 12 16
REMARK H PARENT
REMARK Flexibility Score: 80.00
ROOT
ATOM      1  C   UNL     1      20.216  65.077  14.575  1.00  0.00    -0.008 C 
ATOM      2  C   UNL     1      21.113  65.360  15.843  1.00  0.00     0.003 C 
ATOM      3  C   UNL     1      21.994  64.099  15.986  1.00  0.00     0.006 C 
ATOM      4  C   UNL     1      20.814  63.138  15.945  1.00  0.00     0.019 C 
ATOM      5  C   UNL     1      20.104  63.574  14.695  1.00  0.00    -0.068 C 
ATOM      6  C   UNL     1      19.404  62.762  13.893  1.00  0.00     0.009 C 
ATOM      7  C   UNL     1      19.976  63.658  17.135  1.00  0.00     0.008 C 
ATOM      8  C   UNL     1      20.261  65.181  17.129  1.00  0.00     0.005 C 
ATOM      9  C   UNL     1      18.804  65.720  14.642  1.00  0.00     0.016 C 
ENDROOT
BRANCH   3  10
ATOM     10  C   UNL     1      23.209  63.852  15.012  1.00  0.00    -0.032 C 
ATOM     11  C   UNL     1      23.710  62.399  15.196  1.00  0.00     0.011 C 
ATOM     12  C   UNL     1      24.375  64.782  15.441  1.00  0.00     0.011 C 
BRANCH  10  13
ATOM     13  C   UNL     1      22.909  64.043  13.499  1.00  0.00     0.007 CG0
ATOM     14  G   UNL     1      22.382  65.429  13.127  1.00  0.00     0.000 G0
ENDBRANCH  10  13
ENDBRANCH   3  10
BRANCH   1  15
ATOM     15  C   UNL     1      20.863  65.534  13.234  1.00  0.00     0.011 C 
BRANCH  15  16
ATOM     16  C   UNL     1      22.381  65.425  13.122  1.00  0.00     0.001 CG0
ATOM     17  G   UNL     1      22.911  64.042  13.504  1.00  0.00     0.000 G0
ENDBRANCH  15  16
ENDBRANCH   1  15
TORSDOF 0
ENDMDL
MODEL 5
REMARK VINA RESULT:    -3.149      1.717      3.791
REMARK INTER + INTRA:          -2.864
REMARK INTER:                  -3.898
REMARK INTRA:                   1.034
REMARK UNBOUND:                 1.022
REMARK SMILES C=C1[C@@H]2CC[C@H]3[C@@H]2C(C)(C)CCC[C@@]13C
REMARK SMILES IDX 14 1 6 2 7 3 3 4 2 5 1 6 4 7 5 8 15 9 8 10 9 11 10 12 11 13
REMARK SMILES IDX 13 15 12 16
REMARK H PARENT
REMARK Flexibility Score: 80.00
ROOT
ATOM      1  C   UNL     1      21.411  65.055  14.270  1.00  0.00    -0.008 C 
ATOM      2  C   UNL     1      20.105  65.258  15.133  1.00  0.00     0.003 C 
ATOM      3  C   UNL     1      20.212  64.203  16.256  1.00  0.00     0.006 C 
ATOM      4  C   UNL     1      20.456  63.047  15.296  1.00  0.00     0.019 C 
ATOM      5  C   UNL     1      21.598  63.567  14.470  1.00  0.00    -0.068 C 
ATOM      6  C   UNL     1      22.553  62.805  13.923  1.00  0.00     0.009 C 
ATOM      7  C   UNL     1      19.192  63.136  14.410  1.00  0.00     0.008 C 
ATOM      8  C   UNL     1      18.888  64.655  14.379  1.00  0.00     0.005 C 
ATOM      9  C   UNL     1      21.228  65.366  12.760  1.00  0.00     0.016 C 
ENDROOT
BRANCH   3  10
ATOM     10  C   UNL     1      21.206  64.410  17.462  1.00  0.00    -0.032 C 
ATOM     11  C   UNL     1      21.308  63.087  18.260  1.00  0.00     0.011 C 
ATOM     12  C   UNL     1      20.593  65.463  18.424  1.00  0.00     0.011 C 
BRANCH  10  13
ATOM     13  C   UNL     1      22.654  64.824  17.079  1.00  0.00     0.007 CG0
ATOM     14  G   UNL     1      22.751  66.118  16.269  1.00  0.00     0.000 G0
ENDBRANCH  10  13
ENDBRANCH   3  10
BRANCH   1  15
ATOM     15  C   UNL     1      22.627  65.892  14.764  1.00  0.00     0.011 C 
BRANCH  15  16
ATOM     16  C   UNL     1      22.752  66.114  16.270  1.00  0.00     0.001 CG0
ATOM     17  G   UNL     1      22.657  64.817  17.075  1.00  0.00     0.000 G0
ENDBRANCH  15  16
ENDBRANCH   1  15
TORSDOF 0
ENDMDL
MODEL 6
REMARK VINA RESULT:    -3.059      1.162      2.064
REMARK INTER + INTRA:          -2.752
REMARK INTER:                  -3.757
REMARK INTRA:                   1.005
REMARK UNBOUND:                 1.022
REMARK SMILES C=C1[C@@H]2CC[C@H]3[C@@H]2C(C)(C)CCC[C@@]13C
REMARK SMILES IDX 14 1 6 2 7 3 3 4 2 5 1 6 4 7 5 8 15 9 8 10 9 11 10 12 11 13
REMARK SMILES IDX 13 15 12 16
REMARK H PARENT
REMARK Flexibility Score: 80.00
ROOT
ATOM      1  C   UNL     1      21.442  65.165  15.528  1.00  0.00    -0.008 C 
ATOM      2  C   UNL     1      21.199  63.705  16.076  1.00  0.00     0.003 C 
ATOM      3  C   UNL     1      22.103  62.806  15.204  1.00  0.00     0.006 C 
ATOM      4  C   UNL     1      21.561  63.350  13.890  1.00  0.00     0.019 C 
ATOM      5  C   UNL     1      21.720  64.831  14.080  1.00  0.00    -0.068 C 
ATOM      6  C   UNL     1      21.961  65.705  13.094  1.00  0.00     0.009 C 
ATOM      7  C   UNL     1      20.054  63.041  14.049  1.00  0.00     0.008 C 
ATOM      8  C   UNL     1      19.823  63.187  15.574  1.00  0.00     0.005 C 
ATOM      9  C   UNL     1      20.203  66.094  15.629  1.00  0.00     0.016 C 
ENDROOT
BRANCH   3  10
ATOM     10  C   UNL     1      23.663  62.777  15.427  1.00  0.00    -0.032 C 
ATOM     11  C   UNL     1      24.327  62.051  14.232  1.00  0.00     0.011 C 
ATOM     12  C   UNL     1      23.960  61.920  16.688  1.00  0.00     0.011 C 
BRANCH  10  13
ATOM     13  C   UNL     1      24.352  64.164  15.557  1.00  0.00     0.007 CG0
ATOM     14  G   UNL     1      23.784  65.052  16.666  1.00  0.00     0.000 G0
ENDBRANCH  10  13
ENDBRANCH   3  10
BRANCH   1  15
ATOM     15  C   UNL     1      22.625  65.906  16.219  1.00  0.00     0.011 C 
BRANCH  15  16
ATOM     16  C   UNL     1      23.809  65.054  16.670  1.00  0.00     0.001 CG0
ATOM     17  G   UNL     1      24.361  64.161  15.559  1.00  0.00     0.000 G0
ENDBRANCH  15  16
ENDBRANCH   1  15
TORSDOF 0
ENDMDL
MODEL 7
REMARK VINA RESULT:    -3.011      1.710      3.757
REMARK INTER + INTRA:          -2.693
REMARK INTER:                  -3.721
REMARK INTRA:                   1.028
REMARK UNBOUND:                 1.022
REMARK SMILES C=C1[C@@H]2CC[C@H]3[C@@H]2C(C)(C)CCC[C@@]13C
REMARK SMILES IDX 14 1 6 2 7 3 3 4 2 5 1 6 4 7 5 8 15 9 8 10 9 11 10 12 11 13
REMARK SMILES IDX 13 15 12 16
REMARK H PARENT
REMARK Flexibility Score: 80.00
ROOT
ATOM      1  C   UNL     1      23.292  64.486  16.190  1.00  0.00    -0.008 C 
ATOM      2  C   UNL     1      22.805  65.088  14.814  1.00  0.00     0.003 C 
ATOM      3  C   UNL     1      21.857  64.016  14.233  1.00  0.00     0.006 C 
ATOM      4  C   UNL     1      22.865  62.886  14.386  1.00  0.00     0.019 C 
ATOM      5  C   UNL     1      23.259  63.018  15.829  1.00  0.00    -0.068 C 
ATOM      6  C   UNL     1      23.623  61.998  16.617  1.00  0.00     0.009 C 
ATOM      7  C   UNL     1      24.045  63.436  13.552  1.00  0.00     0.008 C 
ATOM      8  C   UNL     1      23.944  64.967  13.764  1.00  0.00     0.005 C 
ATOM      9  C   UNL     1      24.733  64.902  16.588  1.00  0.00     0.016 C 
ENDROOT
BRANCH   3  10
ATOM     10  C   UNL     1      20.406  63.823  14.818  1.00  0.00    -0.032 C 
ATOM     11  C   UNL     1      19.807  62.513  14.250  1.00  0.00     0.011 C 
ATOM     12  C   UNL     1      19.512  64.982  14.299  1.00  0.00     0.011 C 
BRANCH  10  13
ATOM     13  C   UNL     1      20.310  63.734  16.367  1.00  0.00     0.007 CG0
ATOM     14  G   UNL     1      20.860  64.954  17.107  1.00  0.00     0.000 G0
ENDBRANCH  10  13
ENDBRANCH   3  10
BRANCH   1  15
ATOM     15  C   UNL     1      22.366  64.838  17.391  1.00  0.00     0.011 C 
BRANCH  15  16
ATOM     16  C   UNL     1      20.870  64.946  17.108  1.00  0.00     0.001 CG0
ATOM     17  G   UNL     1      20.315  63.735  16.357  1.00  0.00     0.000 G0
ENDBRANCH  15  16
ENDBRANCH   1  15
TORSDOF 0
ENDMDL
MODEL 8
REMARK VINA RESULT:    -2.906      1.714      2.980
REMARK INTER + INTRA:          -2.563
REMARK INTER:                  -3.580
REMARK INTRA:                   1.016
REMARK UNBOUND:                 1.022
REMARK SMILES C=C1[C@@H]2CC[C@H]3[C@@H]2C(C)(C)CCC[C@@]13C
REMARK SMILES IDX 14 1 6 2 7 3 3 4 2 5 1 6 4 7 5 8 15 9 8 10 9 11 10 12 11 13
REMARK SMILES IDX 13 15 12 16
REMARK H PARENT
REMARK Flexibility Score: 80.00
ROOT
ATOM      1  C   UNL     1      20.958  63.554  15.278  1.00  0.00    -0.008 C 
ATOM      2  C   UNL     1      22.374  62.859  15.327  1.00  0.00     0.003 C 
ATOM      3  C   UNL     1      23.330  63.957  15.846  1.00  0.00     0.006 C 
ATOM      4  C   UNL     1      22.892  64.981  14.807  1.00  0.00     0.019 C 
ATOM      5  C   UNL     1      21.399  64.968  14.973  1.00  0.00    -0.068 C 
ATOM      6  C   UNL     1      20.600  66.023  14.771  1.00  0.00     0.009 C 
ATOM      7  C   UNL     1      23.200  64.216  13.500  1.00  0.00     0.008 C 
ATOM      8  C   UNL     1      22.941  62.738  13.885  1.00  0.00     0.005 C 
ATOM      9  C   UNL     1      20.034  63.031  14.146  1.00  0.00     0.016 C 
ENDROOT
BRANCH   3  10
ATOM     10  C   UNL     1      23.329  64.370  17.367  1.00  0.00    -0.032 C 
ATOM     11  C   UNL     1      24.149  65.673  17.532  1.00  0.00     0.011 C 
ATOM     12  C   UNL     1      24.073  63.271  18.172  1.00  0.00     0.011 C 
BRANCH  10  13
ATOM     13  C   UNL     1      21.931  64.629  17.994  1.00  0.00     0.007 CG0
ATOM     14  G   UNL     1      20.963  63.449  17.895  1.00  0.00     0.000 G0
ENDBRANCH  10  13
ENDBRANCH   3  10
BRANCH   1  15
ATOM     15  C   UNL     1      20.158  63.440  16.609  1.00  0.00     0.011 C 
BRANCH  15  16
ATOM     16  C   UNL     1      20.962  63.455  17.907  1.00  0.00     0.001 CG0
ATOM     17  G   UNL     1      21.934  64.632  17.994  1.00  0.00     0.000 G0
ENDBRANCH  15  16
ENDBRANCH   1  15
TORSDOF 0
ENDMDL
MODEL 9
REMARK VINA RESULT:    -2.888      1.851      4.177
REMARK INTER + INTRA:          -2.541
REMARK INTER:                  -3.551
REMARK INTRA:                   1.010
REMARK UNBOUND:                 1.022
REMARK SMILES C=C1[C@@H]2CC[C@H]3[C@@H]2C(C)(C)CCC[C@@]13C
REMARK SMILES IDX 14 1 6 2 7 3 3 4 2 5 1 6 4 7 5 8 15 9 8 10 9 11 10 12 11 13
REMARK SMILES IDX 13 15 12 16
REMARK H PARENT
REMARK Flexibility Score: 80.00
ROOT
ATOM      1  C   UNL     1      22.865  63.132  14.789  1.00  0.00    -0.008 C 
ATOM      2  C   UNL     1      22.878  62.568  16.264  1.00  0.00     0.003 C 
ATOM      3  C   UNL     1      22.553  63.790  17.151  1.00  0.00     0.006 C 
ATOM      4  C   UNL     1      23.640  64.661  16.537  1.00  0.00     0.019 C 
ATOM      5  C   UNL     1      23.342  64.539  15.070  1.00  0.00    -0.068 C 
ATOM      6  C   UNL     1      23.571  65.497  14.163  1.00  0.00     0.009 C 
ATOM      7  C   UNL     1      24.892  63.796  16.809  1.00  0.00     0.008 C 
ATOM      8  C   UNL     1      24.346  62.348  16.721  1.00  0.00     0.005 C 
ATOM      9  C   UNL     1      23.856  62.419  13.830  1.00  0.00     0.016 C 
ENDROOT
BRANCH   3  10
ATOM     10  C   UNL     1      21.084  64.356  17.234  1.00  0.00    -0.032 C 
ATOM     11  C   UNL     1      21.117  65.735  17.938  1.00  0.00     0.011 C 
ATOM     12  C   UNL     1      20.249  63.414  18.143  1.00  0.00     0.011 C 
BRANCH  10  13
ATOM     13  C   UNL     1      20.361  64.556  15.873  1.00  0.00     0.007 CG0
ATOM     14  G   UNL     1      20.253  63.291  15.020  1.00  0.00     0.000 G0
ENDBRANCH  10  13
ENDBRANCH   3  10
BRANCH   1  15
ATOM     15  C   UNL     1      21.463  63.088  14.113  1.00  0.00     0.011 C 
BRANCH  15  16
ATOM     16  C   UNL     1      20.250  63.308  15.013  1.00  0.00     0.001 CG0
ATOM     17  G   UNL     1      20.369  64.563  15.880  1.00  0.00     0.000 G0
ENDBRANCH  15  16
ENDBRANCH   1  15
TORSDOF 0
ENDMDL
