MODEL 1
REMARK VINA RESULT:    -5.702      0.000      0.000
REMARK INTER + INTRA:          -5.869
REMARK INTER:                  -5.869
REMARK INTRA:                   0.000
REMARK UNBOUND:                 0.000
REMARK SMILES C=C1[C@H]2C[C@@]3(C[C@@H]1O)[C@H](CC[C@@H]3C)C2(C)C
REMARK SMILES IDX 13 1 12 2 11 3 10 4 9 5 5 6 4 7 3 8 14 9 15 10 16 11 2 12
REMARK SMILES IDX 1 13 7 14 6 15 8 16
REMARK H PARENT 8 17
REMARK Flexibility Score: inf
ROOT
ATOM      1  C   UNL     1      49.124   8.387 114.979  1.00  0.00     0.008 C 
ATOM      2  C   UNL     1      48.106   8.072 116.092  1.00  0.00    -0.008 C 
ATOM      3  C   UNL     1      48.151   9.160 117.166  1.00  0.00     0.004 C 
ATOM      4  C   UNL     1      47.134  10.207 116.736  1.00  0.00     0.005 C 
ATOM      5  C   UNL     1      46.050   9.463 115.929  1.00  0.00     0.002 C 
ATOM      6  C   UNL     1      46.626   8.058 115.622  1.00  0.00    -0.020 C 
ATOM      7  C   UNL     1      45.784   7.097 116.469  1.00  0.00     0.016 C 
ATOM      8  C   UNL     1      44.401   7.702 116.335  1.00  0.00     0.023 C 
ATOM      9  C   UNL     1      44.653   9.215 116.605  1.00  0.00    -0.025 C 
ATOM     10  C   UNL     1      44.630   9.458 118.141  1.00  0.00     0.012 C 
ATOM     11  C   UNL     1      43.561  10.123 115.989  1.00  0.00     0.012 C 
ATOM     12  C   UNL     1      43.928   7.426 114.908  1.00  0.00    -0.045 C 
ATOM     13  C   UNL     1      42.639   7.128 114.680  1.00  0.00     0.011 C 
ATOM     14  C   UNL     1      44.890   7.555 113.727  1.00  0.00     0.140 C 
ATOM     15  C   UNL     1      46.394   7.659 114.133  1.00  0.00     0.044 C 
ENDROOT
BRANCH  14  16
ATOM     16  O   UNL     1      44.521   8.672 112.961  1.00  0.00    -0.389 OA
ATOM     17  H   UNL     1      44.814   8.494 112.029  1.00  0.00     0.211 HD
ENDBRANCH  14  16
TORSDOF 1
ENDMDL
MODEL 2
REMARK VINA RESULT:    -5.396      4.607      7.171
REMARK INTER + INTRA:          -5.554
REMARK INTER:                  -5.554
REMARK INTRA:                   0.000
REMARK UNBOUND:                 0.000
REMARK SMILES C=C1[C@H]2C[C@@]3(C[C@@H]1O)[C@H](CC[C@@H]3C)C2(C)C
REMARK SMILES IDX 13 1 12 2 11 3 10 4 9 5 5 6 4 7 3 8 14 9 15 10 16 11 2 12
REMARK SMILES IDX 1 13 7 14 6 15 8 16
REMARK H PARENT 8 17
REMARK Flexibility Score: inf
ROOT
ATOM      1  C   UNL     1      47.654   7.619 111.686  1.00  0.00     0.008 C 
ATOM      2  C   UNL     1      48.448   6.309 111.848  1.00  0.00    -0.008 C 
ATOM      3  C   UNL     1      49.321   6.068 110.615  1.00  0.00     0.004 C 
ATOM      4  C   UNL     1      50.653   6.741 110.915  1.00  0.00     0.005 C 
ATOM      5  C   UNL     1      50.831   6.704 112.447  1.00  0.00     0.002 C 
ATOM      6  C   UNL     1      49.452   6.310 113.034  1.00  0.00    -0.020 C 
ATOM      7  C   UNL     1      49.654   4.896 113.592  1.00  0.00     0.016 C 
ATOM      8  C   UNL     1      51.043   4.999 114.188  1.00  0.00     0.023 C 
ATOM      9  C   UNL     1      51.862   5.684 113.054  1.00  0.00    -0.025 C 
ATOM     10  C   UNL     1      52.350   4.593 112.060  1.00  0.00     0.012 C 
ATOM     11  C   UNL     1      53.124   6.409 113.583  1.00  0.00     0.012 C 
ATOM     12  C   UNL     1      50.929   5.863 115.443  1.00  0.00    -0.045 C 
ATOM     13  C   UNL     1      51.661   5.562 116.527  1.00  0.00     0.011 C 
ATOM     14  C   UNL     1      50.045   7.110 115.456  1.00  0.00     0.140 C 
ATOM     15  C   UNL     1      49.067   7.215 114.243  1.00  0.00     0.044 C 
ENDROOT
BRANCH  14  16
ATOM     16  O   UNL     1      50.866   8.248 115.510  1.00  0.00    -0.389 OA
ATOM     17  H   UNL     1      51.363   8.206 116.368  1.00  0.00     0.211 HD
ENDBRANCH  14  16
TORSDOF 1
ENDMDL
MODEL 3
REMARK VINA RESULT:    -5.314      7.343      9.739
REMARK INTER + INTRA:          -5.469
REMARK INTER:                  -5.469
REMARK INTRA:                   0.000
REMARK UNBOUND:                 0.000
REMARK SMILES C=C1[C@H]2C[C@@]3(C[C@@H]1O)[C@H](CC[C@@H]3C)C2(C)C
REMARK SMILES IDX 13 1 12 2 11 3 10 4 9 5 5 6 4 7 3 8 14 9 15 10 16 11 2 12
REMARK SMILES IDX 1 13 7 14 6 15 8 16
REMARK H PARENT 8 17
REMARK Flexibility Score: inf
ROOT
ATOM      1  C   UNL     1      41.095  17.326 116.129  1.00  0.00     0.008 C 
ATOM      2  C   UNL     1      39.973  16.793 115.217  1.00  0.00    -0.008 C 
ATOM      3  C   UNL     1      39.305  17.952 114.475  1.00  0.00     0.004 C 
ATOM      4  C   UNL     1      40.083  18.114 113.176  1.00  0.00     0.005 C 
ATOM      5  C   UNL     1      40.643  16.720 112.822  1.00  0.00     0.002 C 
ATOM      6  C   UNL     1      40.462  15.845 114.087  1.00  0.00    -0.020 C 
ATOM      7  C   UNL     1      39.378  14.829 113.709  1.00  0.00     0.016 C 
ATOM      8  C   UNL     1      39.745  14.512 112.273  1.00  0.00     0.023 C 
ATOM      9  C   UNL     1      39.968  15.921 111.648  1.00  0.00    -0.025 C 
ATOM     10  C   UNL     1      38.595  16.487 111.190  1.00  0.00     0.012 C 
ATOM     11  C   UNL     1      40.880  15.883 110.398  1.00  0.00     0.012 C 
ATOM     12  C   UNL     1      41.021  13.673 112.312  1.00  0.00    -0.045 C 
ATOM     13  C   UNL     1      41.183  12.666 111.439  1.00  0.00     0.011 C 
ATOM     14  C   UNL     1      42.149  14.009 113.287  1.00  0.00     0.140 C 
ATOM     15  C   UNL     1      41.750  15.025 114.404  1.00  0.00     0.044 C 
ENDROOT
BRANCH  14  16
ATOM     16  O   UNL     1      43.245  14.500 112.562  1.00  0.00    -0.389 OA
ATOM     17  H   UNL     1      43.870  14.905 113.218  1.00  0.00     0.211 HD
ENDBRANCH  14  16
TORSDOF 1
ENDMDL
MODEL 4
REMARK VINA RESULT:    -5.235      1.534      4.063
REMARK INTER + INTRA:          -5.388
REMARK INTER:                  -5.388
REMARK INTRA:                   0.000
REMARK UNBOUND:                 0.000
REMARK SMILES C=C1[C@H]2C[C@@]3(C[C@@H]1O)[C@H](CC[C@@H]3C)C2(C)C
REMARK SMILES IDX 13 1 12 2 11 3 10 4 9 5 5 6 4 7 3 8 14 9 15 10 16 11 2 12
REMARK SMILES IDX 1 13 7 14 6 15 8 16
REMARK H PARENT 8 17
REMARK Flexibility Score: inf
ROOT
ATOM      1  C   UNL     1      42.760   6.951 113.998  1.00  0.00     0.008 C 
ATOM      2  C   UNL     1      44.055   6.598 114.756  1.00  0.00    -0.008 C 
ATOM      3  C   UNL     1      45.229   6.517 113.779  1.00  0.00     0.004 C 
ATOM      4  C   UNL     1      45.818   7.920 113.724  1.00  0.00     0.005 C 
ATOM      5  C   UNL     1      45.533   8.570 115.094  1.00  0.00     0.002 C 
ATOM      6  C   UNL     1      44.497   7.660 115.799  1.00  0.00    -0.020 C 
ATOM      7  C   UNL     1      45.268   7.013 116.956  1.00  0.00     0.016 C 
ATOM      8  C   UNL     1      46.129   8.166 117.432  1.00  0.00     0.023 C 
ATOM      9  C   UNL     1      46.725   8.730 116.107  1.00  0.00    -0.025 C 
ATOM     10  C   UNL     1      47.994   7.909 115.742  1.00  0.00     0.012 C 
ATOM     11  C   UNL     1      47.163  10.209 116.231  1.00  0.00     0.012 C 
ATOM     12  C   UNL     1      45.202   9.158 118.133  1.00  0.00    -0.045 C 
ATOM     13  C   UNL     1      45.626   9.804 119.231  1.00  0.00     0.011 C 
ATOM     14  C   UNL     1      43.821   9.477 117.560  1.00  0.00     0.140 C 
ATOM     15  C   UNL     1      43.348   8.495 116.442  1.00  0.00     0.044 C 
ENDROOT
BRANCH  14  16
ATOM     16  O   UNL     1      43.825  10.793 117.072  1.00  0.00    -0.389 OA
ATOM     17  H   UNL     1      44.766  11.109 117.096  1.00  0.00     0.211 HD
ENDBRANCH  14  16
TORSDOF 1
ENDMDL
MODEL 5
REMARK VINA RESULT:    -5.232      5.948      8.370
REMARK INTER + INTRA:          -5.385
REMARK INTER:                  -5.385
REMARK INTRA:                   0.000
REMARK UNBOUND:                 0.000
REMARK SMILES C=C1[C@H]2C[C@@]3(C[C@@H]1O)[C@H](CC[C@@H]3C)C2(C)C
REMARK SMILES IDX 13 1 12 2 11 3 10 4 9 5 5 6 4 7 3 8 14 9 15 10 16 11 2 12
REMARK SMILES IDX 1 13 7 14 6 15 8 16
REMARK H PARENT 8 17
REMARK Flexibility Score: inf
ROOT
ATOM      1  C   UNL     1      37.347  13.517 110.925  1.00  0.00     0.008 C 
ATOM      2  C   UNL     1      38.813  13.992 110.942  1.00  0.00    -0.008 C 
ATOM      3  C   UNL     1      38.972  15.169 111.906  1.00  0.00     0.004 C 
ATOM      4  C   UNL     1      39.311  14.553 113.256  1.00  0.00     0.005 C 
ATOM      5  C   UNL     1      40.043  13.227 112.964  1.00  0.00     0.002 C 
ATOM      6  C   UNL     1      39.824  12.933 111.459  1.00  0.00    -0.020 C 
ATOM      7  C   UNL     1      41.204  13.124 110.819  1.00  0.00     0.016 C 
ATOM      8  C   UNL     1      42.115  12.524 111.870  1.00  0.00     0.023 C 
ATOM      9  C   UNL     1      41.598  13.167 113.192  1.00  0.00    -0.025 C 
ATOM     10  C   UNL     1      42.276  14.554 113.371  1.00  0.00     0.012 C 
ATOM     11  C   UNL     1      41.950  12.328 114.443  1.00  0.00     0.012 C 
ATOM     12  C   UNL     1      41.911  11.010 111.829  1.00  0.00    -0.045 C 
ATOM     13  C   UNL     1      42.960  10.192 112.005  1.00  0.00     0.011 C 
ATOM     14  C   UNL     1      40.514  10.414 111.659  1.00  0.00     0.140 C 
ATOM     15  C   UNL     1      39.425  11.445 111.221  1.00  0.00     0.044 C 
ENDROOT
BRANCH  14  16
ATOM     16  O   UNL     1      40.134   9.799 112.863  1.00  0.00    -0.389 OA
ATOM     17  H   UNL     1      39.530  10.431 113.334  1.00  0.00     0.211 HD
ENDBRANCH  14  16
TORSDOF 1
ENDMDL
MODEL 6
REMARK VINA RESULT:    -5.136      6.619      8.736
REMARK INTER + INTRA:          -5.286
REMARK INTER:                  -5.286
REMARK INTRA:                   0.000
REMARK UNBOUND:                 0.000
REMARK SMILES C=C1[C@H]2C[C@@]3(C[C@@H]1O)[C@H](CC[C@@H]3C)C2(C)C
REMARK SMILES IDX 13 1 12 2 11 3 10 4 9 5 5 6 4 7 3 8 14 9 15 10 16 11 2 12
REMARK SMILES IDX 1 13 7 14 6 15 8 16
REMARK H PARENT 8 17
REMARK Flexibility Score: inf
ROOT
ATOM      1  C   UNL     1      41.585  12.880 108.457  1.00  0.00     0.008 C 
ATOM      2  C   UNL     1      41.897  14.069 109.386  1.00  0.00    -0.008 C 
ATOM      3  C   UNL     1      40.933  15.223 109.102  1.00  0.00     0.004 C 
ATOM      4  C   UNL     1      39.743  15.003 110.026  1.00  0.00     0.005 C 
ATOM      5  C   UNL     1      40.280  14.261 111.267  1.00  0.00     0.002 C 
ATOM      6  C   UNL     1      41.702  13.770 110.898  1.00  0.00    -0.020 C 
ATOM      7  C   UNL     1      42.645  14.620 111.758  1.00  0.00     0.016 C 
ATOM      8  C   UNL     1      41.881  14.696 113.064  1.00  0.00     0.023 C 
ATOM      9  C   UNL     1      40.439  15.067 112.607  1.00  0.00    -0.025 C 
ATOM     10  C   UNL     1      40.349  16.611 112.444  1.00  0.00     0.012 C 
ATOM     11  C   UNL     1      39.361  14.659 113.640  1.00  0.00     0.012 C 
ATOM     12  C   UNL     1      41.960  13.314 113.710  1.00  0.00    -0.045 C 
ATOM     13  C   UNL     1      42.091  13.207 115.042  1.00  0.00     0.011 C 
ATOM     14  C   UNL     1      41.821  12.047 112.866  1.00  0.00     0.140 C 
ATOM     15  C   UNL     1      41.923  12.288 111.326  1.00  0.00     0.044 C 
ENDROOT
BRANCH  14  16
ATOM     16  O   UNL     1      40.599  11.428 113.174  1.00  0.00    -0.389 OA
ATOM     17  H   UNL     1      39.885  12.096 113.007  1.00  0.00     0.211 HD
ENDBRANCH  14  16
TORSDOF 1
ENDMDL
MODEL 7
REMARK VINA RESULT:    -5.131      5.993      7.785
REMARK INTER + INTRA:          -5.281
REMARK INTER:                  -5.281
REMARK INTRA:                   0.000
REMARK UNBOUND:                 0.000
REMARK SMILES C=C1[C@H]2C[C@@]3(C[C@@H]1O)[C@H](CC[C@@H]3C)C2(C)C
REMARK SMILES IDX 13 1 12 2 11 3 10 4 9 5 5 6 4 7 3 8 14 9 15 10 16 11 2 12
REMARK SMILES IDX 1 13 7 14 6 15 8 16
REMARK H PARENT 8 17
REMARK Flexibility Score: inf
ROOT
ATOM      1  C   UNL     1      42.623  11.148 114.391  1.00  0.00     0.008 C 
ATOM      2  C   UNL     1      41.482  12.016 113.826  1.00  0.00    -0.008 C 
ATOM      3  C   UNL     1      41.372  13.319 114.620  1.00  0.00     0.004 C 
ATOM      4  C   UNL     1      42.282  14.312 113.910  1.00  0.00     0.005 C 
ATOM      5  C   UNL     1      42.316  13.895 112.425  1.00  0.00     0.002 C 
ATOM      6  C   UNL     1      41.695  12.477 112.358  1.00  0.00    -0.020 C 
ATOM      7  C   UNL     1      40.355  12.671 111.638  1.00  0.00     0.016 C 
ATOM      8  C   UNL     1      40.721  13.693 110.581  1.00  0.00     0.023 C 
ATOM      9  C   UNL     1      41.515  14.763 111.387  1.00  0.00    -0.025 C 
ATOM     10  C   UNL     1      40.505  15.758 112.025  1.00  0.00     0.012 C 
ATOM     11  C   UNL     1      42.468  15.597 110.497  1.00  0.00     0.012 C 
ATOM     12  C   UNL     1      41.582  12.974 109.543  1.00  0.00    -0.045 C 
ATOM     13  C   UNL     1      41.446  13.274 108.242  1.00  0.00     0.011 C 
ATOM     14  C   UNL     1      42.649  11.968 109.974  1.00  0.00     0.140 C 
ATOM     15  C   UNL     1      42.546  11.523 111.467  1.00  0.00     0.044 C 
ENDROOT
BRANCH  14  16
ATOM     16  O   UNL     1      43.917  12.515 109.723  1.00  0.00    -0.389 OA
ATOM     17  H   UNL     1      43.873  12.956 108.835  1.00  0.00     0.211 HD
ENDBRANCH  14  16
TORSDOF 1
ENDMDL
MODEL 8
REMARK VINA RESULT:    -5.128      6.734      8.819
REMARK INTER + INTRA:          -5.278
REMARK INTER:                  -5.278
REMARK INTRA:                   0.000
REMARK UNBOUND:                 0.000
REMARK SMILES C=C1[C@H]2C[C@@]3(C[C@@H]1O)[C@H](CC[C@@H]3C)C2(C)C
REMARK SMILES IDX 13 1 12 2 11 3 10 4 9 5 5 6 4 7 3 8 14 9 15 10 16 11 2 12
REMARK SMILES IDX 1 13 7 14 6 15 8 16
REMARK H PARENT 8 17
REMARK Flexibility Score: inf
ROOT
ATOM      1  C   UNL     1      40.912  16.109 114.587  1.00  0.00     0.008 C 
ATOM      2  C   UNL     1      41.922  15.183 113.882  1.00  0.00    -0.008 C 
ATOM      3  C   UNL     1      41.979  13.830 114.595  1.00  0.00     0.004 C 
ATOM      4  C   UNL     1      40.931  12.961 113.914  1.00  0.00     0.005 C 
ATOM      5  C   UNL     1      40.817  13.467 112.461  1.00  0.00     0.002 C 
ATOM      6  C   UNL     1      41.553  14.828 112.416  1.00  0.00    -0.020 C 
ATOM      7  C   UNL     1      42.809  14.566 111.576  1.00  0.00     0.016 C 
ATOM      8  C   UNL     1      42.270  13.643 110.502  1.00  0.00     0.023 C 
ATOM      9  C   UNL     1      41.452  12.597 111.315  1.00  0.00    -0.025 C 
ATOM     10  C   UNL     1      42.417  11.484 111.812  1.00  0.00     0.012 C 
ATOM     11  C   UNL     1      40.360  11.901 110.467  1.00  0.00     0.012 C 
ATOM     12  C   UNL     1      41.396  14.491 109.579  1.00  0.00    -0.045 C 
ATOM     13  C   UNL     1      41.402  14.258 108.257  1.00  0.00     0.011 C 
ATOM     14  C   UNL     1      40.461  15.556 110.150  1.00  0.00     0.140 C 
ATOM     15  C   UNL     1      40.722  15.902 111.650  1.00  0.00     0.044 C 
ENDROOT
BRANCH  14  16
ATOM     16  O   UNL     1      39.133  15.134 109.980  1.00  0.00    -0.389 OA
ATOM     17  H   UNL     1      39.035  14.278 110.474  1.00  0.00     0.211 HD
ENDBRANCH  14  16
TORSDOF 1
ENDMDL
MODEL 9
REMARK VINA RESULT:    -5.104      7.122      9.595
REMARK INTER + INTRA:          -5.253
REMARK INTER:                  -5.253
REMARK INTRA:                   0.000
REMARK UNBOUND:                 0.000
REMARK SMILES C=C1[C@H]2C[C@@]3(C[C@@H]1O)[C@H](CC[C@@H]3C)C2(C)C
REMARK SMILES IDX 13 1 12 2 11 3 10 4 9 5 5 6 4 7 3 8 14 9 15 10 16 11 2 12
REMARK SMILES IDX 1 13 7 14 6 15 8 16
REMARK H PARENT 8 17
REMARK Flexibility Score: inf
ROOT
ATOM      1  C   UNL     1      40.372   5.002 113.789  1.00  0.00     0.008 C 
ATOM      2  C   UNL     1      40.036   3.617 114.374  1.00  0.00    -0.008 C 
ATOM      3  C   UNL     1      38.537   3.342 114.242  1.00  0.00     0.004 C 
ATOM      4  C   UNL     1      38.360   2.653 112.896  1.00  0.00     0.005 C 
ATOM      5  C   UNL     1      39.675   1.897 112.613  1.00  0.00     0.002 C 
ATOM      6  C   UNL     1      40.710   2.428 113.636  1.00  0.00    -0.020 C 
ATOM      7  C   UNL     1      40.957   1.252 114.589  1.00  0.00     0.016 C 
ATOM      8  C   UNL     1      40.955   0.078 113.631  1.00  0.00     0.023 C 
ATOM      9  C   UNL     1      39.684   0.333 112.766  1.00  0.00    -0.025 C 
ATOM     10  C   UNL     1      38.449  -0.249 113.509  1.00  0.00     0.012 C 
ATOM     11  C   UNL     1      39.750  -0.366 111.386  1.00  0.00     0.012 C 
ATOM     12  C   UNL     1      42.248   0.158 112.821  1.00  0.00    -0.045 C 
ATOM     13  C   UNL     1      42.902  -0.969 112.497  1.00  0.00     0.011 C 
ATOM     14  C   UNL     1      42.771   1.501 112.314  1.00  0.00     0.140 C 
ATOM     15  C   UNL     1      42.076   2.744 112.955  1.00  0.00     0.044 C 
ENDROOT
BRANCH  14  16
ATOM     16  O   UNL     1      42.636   1.543 110.918  1.00  0.00    -0.389 OA
ATOM     17  H   UNL     1      42.199   2.406 110.694  1.00  0.00     0.211 HD
ENDBRANCH  14  16
TORSDOF 1
ENDMDL
