MODEL 1
REMARK VINA RESULT:    -4.526      0.000      0.000
REMARK INTER + INTRA:          -4.658
REMARK INTER:                  -4.658
REMARK INTRA:                   0.000
REMARK UNBOUND:                 0.000
REMARK SMILES Nc1ncnc2nc[nH]c12
REMARK SMILES IDX 8 1 7 2 6 3 5 4 4 5 3 6 2 7 10 8 9 9 1 11
REMARK H PARENT 9 10 1 12 1 13
REMARK Flexibility Score: inf
ROOT
ATOM      1  C   UNL     1      -4.398  -4.202  15.887  1.00  0.00     0.199 A 
ATOM      2  N   UNL     1      -3.794  -3.914  14.702  1.00  0.00    -0.217 NA
ATOM      3  C   UNL     1      -4.652  -4.435  13.810  1.00  0.00     0.182 A 
ATOM      4  N   UNL     1      -4.522  -4.422  12.461  1.00  0.00    -0.215 NA
ATOM      5  C   UNL     1      -5.506  -5.008  11.712  1.00  0.00     0.226 A 
ATOM      6  N   UNL     1      -6.589  -5.589  12.320  1.00  0.00    -0.217 NA
ATOM      7  C   UNL     1      -6.722  -5.604  13.680  1.00  0.00     0.152 A 
ATOM      8  C   UNL     1      -5.712  -5.004  14.427  1.00  0.00     0.127 A 
ATOM      9  N   UNL     1      -5.573  -4.868  15.752  1.00  0.00    -0.340 N 
ATOM     10  H   UNL     1      -6.212  -5.192  16.512  1.00  0.00     0.168 HD
ENDROOT
BRANCH   7  11
ATOM     11  N   UNL     1      -7.859  -6.216  14.290  1.00  0.00    -0.382 N 
ATOM     12  H   UNL     1      -8.360  -7.009  13.834  1.00  0.00     0.158 HD
ATOM     13  H   UNL     1      -8.205  -5.871  15.212  1.00  0.00     0.158 HD
ENDBRANCH   7  11
TORSDOF 1
ENDMDL
MODEL 2
REMARK VINA RESULT:    -4.315     10.273     11.091
REMARK INTER + INTRA:          -4.441
REMARK INTER:                  -4.441
REMARK INTRA:                   0.000
REMARK UNBOUND:                 0.000
REMARK SMILES Nc1ncnc2nc[nH]c12
REMARK SMILES IDX 8 1 7 2 6 3 5 4 4 5 3 6 2 7 10 8 9 9 1 11
REMARK H PARENT 9 10 1 12 1 13
REMARK Flexibility Score: inf
ROOT
ATOM      1  C   UNL     1      -6.464  -6.069   2.548  1.00  0.00     0.199 A 
ATOM      2  N   UNL     1      -5.330  -5.411   2.182  1.00  0.00    -0.217 NA
ATOM      3  C   UNL     1      -4.375  -6.125   2.799  1.00  0.00     0.182 A 
ATOM      4  N   UNL     1      -3.041  -5.889   2.762  1.00  0.00    -0.215 NA
ATOM      5  C   UNL     1      -2.218  -6.731   3.459  1.00  0.00     0.226 A 
ATOM      6  N   UNL     1      -2.739  -7.781   4.172  1.00  0.00    -0.217 NA
ATOM      7  C   UNL     1      -4.084  -8.020   4.211  1.00  0.00     0.152 A 
ATOM      8  C   UNL     1      -4.908  -7.153   3.496  1.00  0.00     0.127 A 
ATOM      9  N   UNL     1      -6.239  -7.139   3.351  1.00  0.00    -0.340 N 
ATOM     10  H   UNL     1      -6.946  -7.792   3.755  1.00  0.00     0.168 HD
ENDROOT
BRANCH   7  11
ATOM     11  N   UNL     1      -4.604  -9.119   4.960  1.00  0.00    -0.382 N 
ATOM     12  H   UNL     1      -4.866 -10.016   4.498  1.00  0.00     0.158 HD
ATOM     13  H   UNL     1      -4.728  -9.033   5.993  1.00  0.00     0.158 HD
ENDBRANCH   7  11
TORSDOF 1
ENDMDL
MODEL 3
REMARK VINA RESULT:    -4.297      1.269      2.608
REMARK INTER + INTRA:          -4.423
REMARK INTER:                  -4.423
REMARK INTRA:                   0.000
REMARK UNBOUND:                 0.000
REMARK SMILES Nc1ncnc2nc[nH]c12
REMARK SMILES IDX 8 1 7 2 6 3 5 4 4 5 3 6 2 7 10 8 9 9 1 11
REMARK H PARENT 9 10 1 12 1 13
REMARK Flexibility Score: inf
ROOT
ATOM      1  C   UNL     1      -4.681  -4.496  15.819  1.00  0.00     0.199 A 
ATOM      2  N   UNL     1      -5.902  -4.589  15.224  1.00  0.00    -0.217 NA
ATOM      3  C   UNL     1      -5.585  -4.984  13.980  1.00  0.00     0.182 A 
ATOM      4  N   UNL     1      -6.448  -5.227  12.965  1.00  0.00    -0.215 NA
ATOM      5  C   UNL     1      -5.933  -5.623  11.761  1.00  0.00     0.226 A 
ATOM      6  N   UNL     1      -4.579  -5.767  11.597  1.00  0.00    -0.217 NA
ATOM      7  C   UNL     1      -3.706  -5.521  12.620  1.00  0.00     0.152 A 
ATOM      8  C   UNL     1      -4.247  -5.119  13.838  1.00  0.00     0.127 A 
ATOM      9  N   UNL     1      -3.649  -4.814  14.997  1.00  0.00    -0.340 N 
ATOM     10  H   UNL     1      -2.631  -4.817  15.227  1.00  0.00     0.168 HD
ENDROOT
BRANCH   7  11
ATOM     11  N   UNL     1      -2.300  -5.678  12.425  1.00  0.00    -0.382 N 
ATOM     12  H   UNL     1      -1.611  -5.101  12.955  1.00  0.00     0.158 HD
ATOM     13  H   UNL     1      -1.943  -6.380  11.741  1.00  0.00     0.158 HD
ENDBRANCH   7  11
TORSDOF 1
ENDMDL
MODEL 4
REMARK VINA RESULT:    -4.289      1.380      3.182
REMARK INTER + INTRA:          -4.414
REMARK INTER:                  -4.414
REMARK INTRA:                   0.000
REMARK UNBOUND:                 0.000
REMARK SMILES Nc1ncnc2nc[nH]c12
REMARK SMILES IDX 8 1 7 2 6 3 5 4 4 5 3 6 2 7 10 8 9 9 1 11
REMARK H PARENT 9 10 1 12 1 13
REMARK Flexibility Score: inf
ROOT
ATOM      1  C   UNL     1      -3.078  -5.613  11.820  1.00  0.00     0.199 A 
ATOM      2  N   UNL     1      -4.364  -5.817  11.423  1.00  0.00    -0.217 NA
ATOM      3  C   UNL     1      -5.055  -5.544  12.541  1.00  0.00     0.182 A 
ATOM      4  N   UNL     1      -6.400  -5.595  12.692  1.00  0.00    -0.215 NA
ATOM      5  C   UNL     1      -6.925  -5.281  13.916  1.00  0.00     0.226 A 
ATOM      6  N   UNL     1      -6.103  -4.926  14.955  1.00  0.00    -0.217 NA
ATOM      7  C   UNL     1      -4.746  -4.874  14.805  1.00  0.00     0.152 A 
ATOM      8  C   UNL     1      -4.228  -5.197  13.553  1.00  0.00     0.127 A 
ATOM      9  N   UNL     1      -2.962  -5.233  13.118  1.00  0.00    -0.340 N 
ATOM     10  H   UNL     1      -2.085  -5.021  13.643  1.00  0.00     0.168 HD
ENDROOT
BRANCH   7  11
ATOM     11  N   UNL     1      -3.910  -4.502  15.902  1.00  0.00    -0.382 N 
ATOM     12  H   UNL     1      -4.285  -4.434  16.872  1.00  0.00     0.158 HD
ATOM     13  H   UNL     1      -2.901  -4.291  15.740  1.00  0.00     0.158 HD
ENDBRANCH   7  11
TORSDOF 1
ENDMDL
MODEL 5
REMARK VINA RESULT:    -4.160      0.758      2.858
REMARK INTER + INTRA:          -4.281
REMARK INTER:                  -4.281
REMARK INTRA:                   0.000
REMARK UNBOUND:                 0.000
REMARK SMILES Nc1ncnc2nc[nH]c12
REMARK SMILES IDX 8 1 7 2 6 3 5 4 4 5 3 6 2 7 10 8 9 9 1 11
REMARK H PARENT 9 10 1 12 1 13
REMARK Flexibility Score: inf
ROOT
ATOM      1  C   UNL     1      -5.289  -4.752  10.978  1.00  0.00     0.199 A 
ATOM      2  N   UNL     1      -4.233  -4.304  11.710  1.00  0.00    -0.217 NA
ATOM      3  C   UNL     1      -4.644  -4.524  12.969  1.00  0.00     0.182 A 
ATOM      4  N   UNL     1      -3.956  -4.250  14.103  1.00  0.00    -0.215 NA
ATOM      5  C   UNL     1      -4.544  -4.547  15.302  1.00  0.00     0.226 A 
ATOM      6  N   UNL     1      -5.796  -5.105  15.344  1.00  0.00    -0.217 NA
ATOM      7  C   UNL     1      -6.492  -5.382  14.201  1.00  0.00     0.152 A 
ATOM      8  C   UNL     1      -5.880  -5.074  12.989  1.00  0.00     0.127 A 
ATOM      9  N   UNL     1      -6.312  -5.229  11.731  1.00  0.00    -0.340 N 
ATOM     10  H   UNL     1      -7.219  -5.623  11.397  1.00  0.00     0.168 HD
ENDROOT
BRANCH   7  11
ATOM     11  N   UNL     1      -7.795  -5.963  14.270  1.00  0.00    -0.382 N 
ATOM     12  H   UNL     1      -8.009  -6.874  13.808  1.00  0.00     0.158 HD
ATOM     13  H   UNL     1      -8.557  -5.476  14.790  1.00  0.00     0.158 HD
ENDBRANCH   7  11
TORSDOF 1
ENDMDL
MODEL 6
REMARK VINA RESULT:    -4.131      0.956      2.996
REMARK INTER + INTRA:          -4.252
REMARK INTER:                  -4.252
REMARK INTRA:                   0.000
REMARK UNBOUND:                 0.000
REMARK SMILES Nc1ncnc2nc[nH]c12
REMARK SMILES IDX 8 1 7 2 6 3 5 4 4 5 3 6 2 7 10 8 9 9 1 11
REMARK H PARENT 9 10 1 12 1 13
REMARK Flexibility Score: inf
ROOT
ATOM      1  C   UNL     1      -7.022  -6.360  13.534  1.00  0.00     0.199 A 
ATOM      2  N   UNL     1      -6.147  -5.906  12.595  1.00  0.00    -0.217 NA
ATOM      3  C   UNL     1      -5.308  -5.155  13.326  1.00  0.00     0.182 A 
ATOM      4  N   UNL     1      -4.236  -4.464  12.868  1.00  0.00    -0.215 NA
ATOM      5  C   UNL     1      -3.495  -3.751  13.770  1.00  0.00     0.226 A 
ATOM      6  N   UNL     1      -3.836  -3.742  15.098  1.00  0.00    -0.217 NA
ATOM      7  C   UNL     1      -4.917  -4.438  15.562  1.00  0.00     0.152 A 
ATOM      8  C   UNL     1      -5.661  -5.158  14.631  1.00  0.00     0.127 A 
ATOM      9  N   UNL     1      -6.750  -5.920  14.789  1.00  0.00    -0.340 N 
ATOM     10  H   UNL     1      -7.276  -6.133  15.666  1.00  0.00     0.168 HD
ENDROOT
BRANCH   7  11
ATOM     11  N   UNL     1      -5.253  -4.414  16.950  1.00  0.00    -0.382 N 
ATOM     12  H   UNL     1      -5.721  -3.588  17.382  1.00  0.00     0.158 HD
ATOM     13  H   UNL     1      -5.030  -5.235  17.555  1.00  0.00     0.158 HD
ENDBRANCH   7  11
TORSDOF 1
ENDMDL
MODEL 7
REMARK VINA RESULT:    -4.126     16.160     17.444
REMARK INTER + INTRA:          -4.246
REMARK INTER:                  -4.246
REMARK INTRA:                   0.000
REMARK UNBOUND:                 0.000
REMARK SMILES Nc1ncnc2nc[nH]c12
REMARK SMILES IDX 8 1 7 2 6 3 5 4 4 5 3 6 2 7 10 8 9 9 1 11
REMARK H PARENT 9 10 1 12 1 13
REMARK Flexibility Score: inf
ROOT
ATOM      1  C   UNL     1       2.053   5.240   0.952  1.00  0.00     0.199 A 
ATOM      2  N   UNL     1       0.853   4.598   0.976  1.00  0.00    -0.217 NA
ATOM      3  C   UNL     1       0.125   5.384   1.785  1.00  0.00     0.182 A 
ATOM      4  N   UNL     1      -1.166   5.193   2.150  1.00  0.00    -0.215 NA
ATOM      5  C   UNL     1      -1.742   6.108   2.988  1.00  0.00     0.226 A 
ATOM      6  N   UNL     1      -1.024   7.185   3.441  1.00  0.00    -0.217 NA
ATOM      7  C   UNL     1       0.279   7.380   3.075  1.00  0.00     0.152 A 
ATOM      8  C   UNL     1       0.850   6.439   2.222  1.00  0.00     0.127 A 
ATOM      9  N   UNL     1       2.083   6.370   1.704  1.00  0.00    -0.340 N 
ATOM     10  H   UNL     1       2.885   7.023   1.838  1.00  0.00     0.168 HD
ENDROOT
BRANCH   7  11
ATOM     11  N   UNL     1       1.006   8.509   3.560  1.00  0.00    -0.382 N 
ATOM     12  H   UNL     1       1.597   9.088   2.925  1.00  0.00     0.158 HD
ATOM     13  H   UNL     1       0.954   8.769   4.569  1.00  0.00     0.158 HD
ENDBRANCH   7  11
TORSDOF 1
ENDMDL
MODEL 8
REMARK VINA RESULT:    -4.029     10.697     11.206
REMARK INTER + INTRA:          -4.146
REMARK INTER:                  -4.146
REMARK INTRA:                   0.000
REMARK UNBOUND:                 0.000
REMARK SMILES Nc1ncnc2nc[nH]c12
REMARK SMILES IDX 8 1 7 2 6 3 5 4 4 5 3 6 2 7 10 8 9 9 1 11
REMARK H PARENT 9 10 1 12 1 13
REMARK Flexibility Score: inf
ROOT
ATOM      1  C   UNL     1      -1.384  -6.638   3.873  1.00  0.00     0.199 A 
ATOM      2  N   UNL     1      -1.497  -5.586   3.017  1.00  0.00    -0.217 NA
ATOM      3  C   UNL     1      -2.808  -5.594   2.727  1.00  0.00     0.182 A 
ATOM      4  N   UNL     1      -3.458  -4.737   1.903  1.00  0.00    -0.215 NA
ATOM      5  C   UNL     1      -4.805  -4.904   1.731  1.00  0.00     0.226 A 
ATOM      6  N   UNL     1      -5.469  -5.914   2.380  1.00  0.00    -0.217 NA
ATOM      7  C   UNL     1      -4.816  -6.779   3.211  1.00  0.00     0.152 A 
ATOM      8  C   UNL     1      -3.445  -6.596   3.375  1.00  0.00     0.127 A 
ATOM      9  N   UNL     1      -2.558  -7.275   4.112  1.00  0.00    -0.340 N 
ATOM     10  H   UNL     1      -2.719  -8.102   4.730  1.00  0.00     0.168 HD
ENDROOT
BRANCH   7  11
ATOM     11  N   UNL     1      -5.528  -7.823   3.875  1.00  0.00    -0.382 N 
ATOM     12  H   UNL     1      -5.034  -8.651   4.274  1.00  0.00     0.158 HD
ATOM     13  H   UNL     1      -6.566  -7.768   3.970  1.00  0.00     0.158 HD
ENDBRANCH   7  11
TORSDOF 1
ENDMDL
MODEL 9
REMARK VINA RESULT:    -4.022     13.531     14.261
REMARK INTER + INTRA:          -4.140
REMARK INTER:                  -4.140
REMARK INTRA:                   0.000
REMARK UNBOUND:                 0.000
REMARK SMILES Nc1ncnc2nc[nH]c12
REMARK SMILES IDX 8 1 7 2 6 3 5 4 4 5 3 6 2 7 10 8 9 9 1 11
REMARK H PARENT 9 10 1 12 1 13
REMARK Flexibility Score: inf
ROOT
ATOM      1  C   UNL     1       2.673   6.242  18.134  1.00  0.00     0.199 A 
ATOM      2  N   UNL     1       2.569   5.194  18.997  1.00  0.00    -0.217 NA
ATOM      3  C   UNL     1       1.412   5.456  19.626  1.00  0.00     0.182 A 
ATOM      4  N   UNL     1       0.836   4.711  20.600  1.00  0.00    -0.215 NA
ATOM      5  C   UNL     1      -0.352   5.142  21.125  1.00  0.00     0.226 A 
ATOM      6  N   UNL     1      -0.934   6.298  20.671  1.00  0.00    -0.217 NA
ATOM      7  C   UNL     1      -0.354   7.051  19.689  1.00  0.00     0.152 A 
ATOM      8  C   UNL     1       0.854   6.599  19.166  1.00  0.00     0.127 A 
ATOM      9  N   UNL     1       1.639   7.118  18.213  1.00  0.00    -0.340 N 
ATOM     10  H   UNL     1       1.500   7.990  17.656  1.00  0.00     0.168 HD
ENDROOT
BRANCH   7  11
ATOM     11  N   UNL     1      -0.979   8.252  19.233  1.00  0.00    -0.382 N 
ATOM     12  H   UNL     1      -1.869   8.595  19.654  1.00  0.00     0.158 HD
ATOM     13  H   UNL     1      -0.545   8.805  18.462  1.00  0.00     0.158 HD
ENDBRANCH   7  11
TORSDOF 1
ENDMDL
