MODEL 1
REMARK VINA RESULT:    -3.923      0.000      0.000
REMARK INTER + INTRA:          -6.805
REMARK INTER:                  -6.217
REMARK INTRA:                  -0.588
REMARK UNBOUND:                -0.588
REMARK SMILES CCCCCCCCCCCC(=O)[O-]
REMARK SMILES IDX 7 1 8 2 9 3 10 4 11 5 12 6 13 7 14 8 6 9 5 10 4 11 3 12 2 13
REMARK SMILES IDX 1 14
REMARK H PARENT
REMARK Flexibility Score: inf
ROOT
ATOM      1  C   UNL     1      11.940 -10.137  16.409  1.00  0.00     0.000 C 
ENDROOT
BRANCH   1   2
ATOM      2  C   UNL     1      11.185 -10.888  15.301  1.00  0.00     0.000 C 
BRANCH   2   3
ATOM      3  C   UNL     1      11.555 -10.390  13.892  1.00  0.00     0.000 C 
BRANCH   3   4
ATOM      4  C   UNL     1      10.330 -10.254  12.974  1.00  0.00     0.006 C 
BRANCH   4   5
ATOM      5  C   UNL     1      10.481  -9.124  11.947  1.00  0.00     0.053 C 
BRANCH   5   6
ATOM      6  C   UNL     1       9.367  -9.173  10.950  1.00  0.00     0.041 C 
ATOM      7  O   UNL     1       9.469  -8.560   9.854  1.00  0.00    -0.550 OA
ATOM      8  O   UNL     1       8.195  -9.855  11.249  1.00  0.00    -0.550 OA
ENDBRANCH   5   6
ENDBRANCH   4   5
ENDBRANCH   3   4
ENDBRANCH   2   3
ENDBRANCH   1   2
BRANCH   1   9
ATOM      9  C   UNL     1      13.171 -10.911  16.914  1.00  0.00     0.000 C 
BRANCH   9  10
ATOM     10  C   UNL     1      13.894 -10.184  18.059  1.00  0.00    -0.000 C 
BRANCH  10  11
ATOM     11  C   UNL     1      13.744 -10.907  19.410  1.00  0.00    -0.000 C 
BRANCH  11  12
ATOM     12  C   UNL     1      12.351 -10.717  20.036  1.00  0.00    -0.000 C 
BRANCH  12  13
ATOM     13  C   UNL     1      11.628 -12.024  20.407  1.00  0.00    -0.003 C 
ATOM     14  C   UNL     1      10.972 -12.707  19.208  1.00  0.00     0.004 C 
ENDBRANCH  12  13
ENDBRANCH  11  12
ENDBRANCH  10  11
ENDBRANCH   9  10
ENDBRANCH   1   9
TORSDOF 10
ENDMDL
MODEL 2
REMARK VINA RESULT:    -3.802      3.891      7.284
REMARK INTER + INTRA:          -6.613
REMARK INTER:                  -5.971
REMARK INTRA:                  -0.642
REMARK UNBOUND:                -0.588
REMARK SMILES CCCCCCCCCCCC(=O)[O-]
REMARK SMILES IDX 7 1 8 2 9 3 10 4 11 5 12 6 13 7 14 8 6 9 5 10 4 11 3 12 2 13
REMARK SMILES IDX 1 14
REMARK H PARENT
REMARK Flexibility Score: inf
ROOT
ATOM      1  C   UNL     1      10.665 -10.449  12.968  1.00  0.00     0.000 C 
ENDROOT
BRANCH   1   2
ATOM      2  C   UNL     1      11.779 -10.391  14.026  1.00  0.00     0.000 C 
BRANCH   2   3
ATOM      3  C   UNL     1      11.277 -10.760  15.433  1.00  0.00     0.000 C 
BRANCH   3   4
ATOM      4  C   UNL     1      12.305 -10.438  16.530  1.00  0.00     0.006 C 
BRANCH   4   5
ATOM      5  C   UNL     1      11.765  -9.458  17.579  1.00  0.00     0.053 C 
BRANCH   5   6
ATOM      6  C   UNL     1      11.918 -10.029  18.954  1.00  0.00     0.041 C 
ATOM      7  O   UNL     1      11.700 -11.252  19.160  1.00  0.00    -0.550 OA
ATOM      8  O   UNL     1      12.254  -9.202  20.017  1.00  0.00    -0.550 OA
ENDBRANCH   5   6
ENDBRANCH   4   5
ENDBRANCH   3   4
ENDBRANCH   2   3
ENDBRANCH   1   2
BRANCH   1   9
ATOM      9  C   UNL     1      10.543  -9.141  12.167  1.00  0.00     0.000 C 
BRANCH   9  10
ATOM     10  C   UNL     1       9.336  -9.145  11.216  1.00  0.00    -0.000 C 
BRANCH  10  11
ATOM     11  C   UNL     1       8.469 -10.409  11.361  1.00  0.00    -0.000 C 
BRANCH  11  12
ATOM     12  C   UNL     1       7.103 -10.123  12.009  1.00  0.00    -0.000 C 
BRANCH  12  13
ATOM     13  C   UNL     1       6.536 -11.279  12.853  1.00  0.00    -0.003 C 
ATOM     14  C   UNL     1       7.335 -11.535  14.130  1.00  0.00     0.004 C 
ENDBRANCH  12  13
ENDBRANCH  11  12
ENDBRANCH  10  11
ENDBRANCH   9  10
ENDBRANCH   1   9
TORSDOF 10
ENDMDL
MODEL 3
REMARK VINA RESULT:    -3.654      3.999      7.604
REMARK INTER + INTRA:          -6.378
REMARK INTER:                  -5.902
REMARK INTRA:                  -0.476
REMARK UNBOUND:                -0.588
REMARK SMILES CCCCCCCCCCCC(=O)[O-]
REMARK SMILES IDX 7 1 8 2 9 3 10 4 11 5 12 6 13 7 14 8 6 9 5 10 4 11 3 12 2 13
REMARK SMILES IDX 1 14
REMARK H PARENT
REMARK Flexibility Score: inf
ROOT
ATOM      1  C   UNL     1      11.610 -10.300  15.679  1.00  0.00     0.000 C 
ENDROOT
BRANCH   1   2
ATOM      2  C   UNL     1      12.794 -11.119  16.219  1.00  0.00     0.000 C 
BRANCH   2   3
ATOM      3  C   UNL     1      13.553 -10.389  17.342  1.00  0.00     0.000 C 
BRANCH   3   4
ATOM      4  C   UNL     1      13.863 -11.306  18.536  1.00  0.00     0.006 C 
BRANCH   4   5
ATOM      5  C   UNL     1      13.924 -12.788  18.146  1.00  0.00     0.053 C 
BRANCH   5   6
ATOM      6  C   UNL     1      12.920 -13.574  18.928  1.00  0.00     0.041 C 
ATOM      7  O   UNL     1      11.694 -13.297  18.846  1.00  0.00    -0.550 OA
ATOM      8  O   UNL     1      13.340 -14.583  19.785  1.00  0.00    -0.550 OA
ENDBRANCH   5   6
ENDBRANCH   4   5
ENDBRANCH   3   4
ENDBRANCH   2   3
ENDBRANCH   1   2
BRANCH   1   9
ATOM      9  C   UNL     1      10.940 -10.963  14.463  1.00  0.00     0.000 C 
BRANCH   9  10
ATOM     10  C   UNL     1      11.407 -10.357  13.130  1.00  0.00    -0.000 C 
BRANCH  10  11
ATOM     11  C   UNL     1      10.527  -9.179  12.673  1.00  0.00    -0.000 C 
BRANCH  11  12
ATOM     12  C   UNL     1      10.135  -9.271  11.187  1.00  0.00    -0.000 C 
BRANCH  12  13
ATOM     13  C   UNL     1       8.648  -9.576  10.932  1.00  0.00    -0.003 C 
ATOM     14  C   UNL     1       7.954 -10.218  12.132  1.00  0.00     0.004 C 
ENDBRANCH  12  13
ENDBRANCH  11  12
ENDBRANCH  10  11
ENDBRANCH   9  10
ENDBRANCH   1   9
TORSDOF 10
ENDMDL
MODEL 4
REMARK VINA RESULT:    -3.608      1.584      2.236
REMARK INTER + INTRA:          -6.306
REMARK INTER:                  -5.576
REMARK INTRA:                  -0.730
REMARK UNBOUND:                -0.588
REMARK SMILES CCCCCCCCCCCC(=O)[O-]
REMARK SMILES IDX 7 1 8 2 9 3 10 4 11 5 12 6 13 7 14 8 6 9 5 10 4 11 3 12 2 13
REMARK SMILES IDX 1 14
REMARK H PARENT
REMARK Flexibility Score: inf
ROOT
ATOM      1  C   UNL     1      11.650  -9.481  17.165  1.00  0.00     0.000 C 
ENDROOT
BRANCH   1   2
ATOM      2  C   UNL     1      11.547 -10.834  16.443  1.00  0.00     0.000 C 
BRANCH   2   3
ATOM      3  C   UNL     1      11.951 -10.745  14.961  1.00  0.00     0.000 C 
BRANCH   3   4
ATOM      4  C   UNL     1      10.737 -10.635  14.024  1.00  0.00     0.006 C 
BRANCH   4   5
ATOM      5  C   UNL     1      11.063  -9.905  12.715  1.00  0.00     0.053 C 
BRANCH   5   6
ATOM      6  C   UNL     1       9.820  -9.704  11.906  1.00  0.00     0.041 C 
ATOM      7  O   UNL     1       8.809 -10.428  12.108  1.00  0.00    -0.550 OA
ATOM      8  O   UNL     1       9.793  -8.750  10.898  1.00  0.00    -0.550 OA
ENDBRANCH   5   6
ENDBRANCH   4   5
ENDBRANCH   3   4
ENDBRANCH   2   3
ENDBRANCH   1   2
BRANCH   1   9
ATOM      9  C   UNL     1      12.466  -9.567  18.467  1.00  0.00     0.000 C 
BRANCH   9  10
ATOM     10  C   UNL     1      12.304 -10.922  19.174  1.00  0.00    -0.000 C 
BRANCH  10  11
ATOM     11  C   UNL     1      11.098 -10.953  20.131  1.00  0.00    -0.000 C 
BRANCH  11  12
ATOM     12  C   UNL     1      10.012 -11.949  19.690  1.00  0.00    -0.000 C 
BRANCH  12  13
ATOM     13  C   UNL     1       8.841 -11.323  18.911  1.00  0.00    -0.003 C 
ATOM     14  C   UNL     1       7.861 -10.568  19.809  1.00  0.00     0.004 C 
ENDBRANCH  12  13
ENDBRANCH  11  12
ENDBRANCH  10  11
ENDBRANCH   9  10
ENDBRANCH   1   9
TORSDOF 10
ENDMDL
MODEL 5
REMARK VINA RESULT:    -3.557      5.348      6.959
REMARK INTER + INTRA:          -6.225
REMARK INTER:                  -4.444
REMARK INTRA:                  -1.781
REMARK UNBOUND:                -0.588
REMARK SMILES CCCCCCCCCCCC(=O)[O-]
REMARK SMILES IDX 7 1 8 2 9 3 10 4 11 5 12 6 13 7 14 8 6 9 5 10 4 11 3 12 2 13
REMARK SMILES IDX 1 14
REMARK H PARENT
REMARK Flexibility Score: inf
ROOT
ATOM      1  C   UNL     1      13.715  -9.920  19.402  1.00  0.00     0.000 C 
ENDROOT
BRANCH   1   2
ATOM      2  C   UNL     1      14.154 -10.959  20.446  1.00  0.00     0.000 C 
BRANCH   2   3
ATOM      3  C   UNL     1      13.028 -11.943  20.810  1.00  0.00     0.000 C 
BRANCH   3   4
ATOM      4  C   UNL     1      11.664 -11.514  20.245  1.00  0.00     0.006 C 
BRANCH   4   5
ATOM      5  C   UNL     1      10.959 -12.640  19.479  1.00  0.00     0.053 C 
BRANCH   5   6
ATOM      6  C   UNL     1      10.693 -13.800  20.385  1.00  0.00     0.041 C 
ATOM      7  O   UNL     1       9.946 -13.661  21.390  1.00  0.00    -0.550 OA
ATOM      8  O   UNL     1      11.307 -15.023  20.149  1.00  0.00    -0.550 OA
ENDBRANCH   5   6
ENDBRANCH   4   5
ENDBRANCH   3   4
ENDBRANCH   2   3
ENDBRANCH   1   2
BRANCH   1   9
ATOM      9  C   UNL     1      14.263 -10.226  17.998  1.00  0.00     0.000 C 
BRANCH   9  10
ATOM     10  C   UNL     1      13.148 -10.534  16.986  1.00  0.00    -0.000 C 
BRANCH  10  11
ATOM     11  C   UNL     1      13.205 -11.980  16.461  1.00  0.00    -0.000 C 
BRANCH  11  12
ATOM     12  C   UNL     1      14.326 -12.808  17.114  1.00  0.00    -0.000 C 
BRANCH  12  13
ATOM     13  C   UNL     1      13.860 -14.119  17.772  1.00  0.00    -0.003 C 
ATOM     14  C   UNL     1      14.734 -14.541  18.952  1.00  0.00     0.004 C 
ENDBRANCH  12  13
ENDBRANCH  11  12
ENDBRANCH  10  11
ENDBRANCH   9  10
ENDBRANCH   1   9
TORSDOF 10
ENDMDL
MODEL 6
REMARK VINA RESULT:    -3.517      5.287      6.685
REMARK INTER + INTRA:          -6.161
REMARK INTER:                  -4.457
REMARK INTRA:                  -1.704
REMARK UNBOUND:                -0.588
REMARK SMILES CCCCCCCCCCCC(=O)[O-]
REMARK SMILES IDX 7 1 8 2 9 3 10 4 11 5 12 6 13 7 14 8 6 9 5 10 4 11 3 12 2 13
REMARK SMILES IDX 1 14
REMARK H PARENT
REMARK Flexibility Score: inf
ROOT
ATOM      1  C   UNL     1       8.960 -10.529  20.152  1.00  0.00     0.000 C 
ENDROOT
BRANCH   1   2
ATOM      2  C   UNL     1       9.185 -11.372  18.886  1.00  0.00     0.000 C 
BRANCH   2   3
ATOM      3  C   UNL     1      10.646 -11.833  18.735  1.00  0.00     0.000 C 
BRANCH   3   4
ATOM      4  C   UNL     1      11.616 -11.015  19.603  1.00  0.00     0.006 C 
BRANCH   4   5
ATOM      5  C   UNL     1      12.907 -11.777  19.929  1.00  0.00     0.053 C 
BRANCH   5   6
ATOM      6  C   UNL     1      13.656 -12.094  18.674  1.00  0.00     0.041 C 
ATOM      7  O   UNL     1      13.941 -13.288  18.391  1.00  0.00    -0.550 OA
ATOM      8  O   UNL     1      14.081 -11.069  17.839  1.00  0.00    -0.550 OA
ENDBRANCH   5   6
ENDBRANCH   4   5
ENDBRANCH   3   4
ENDBRANCH   2   3
ENDBRANCH   1   2
BRANCH   1   9
ATOM      9  C   UNL     1       7.913 -11.148  21.095  1.00  0.00     0.000 C 
BRANCH   9  10
ATOM     10  C   UNL     1       8.373 -12.492  21.682  1.00  0.00    -0.000 C 
BRANCH  10  11
ATOM     11  C   UNL     1       9.687 -12.375  22.475  1.00  0.00    -0.000 C 
BRANCH  11  12
ATOM     12  C   UNL     1      10.615 -13.586  22.271  1.00  0.00    -0.000 C 
BRANCH  12  13
ATOM     13  C   UNL     1      10.188 -14.542  21.143  1.00  0.00    -0.003 C 
ATOM     14  C   UNL     1      11.373 -15.166  20.407  1.00  0.00     0.004 C 
ENDBRANCH  12  13
ENDBRANCH  11  12
ENDBRANCH  10  11
ENDBRANCH   9  10
ENDBRANCH   1   9
TORSDOF 10
ENDMDL
MODEL 7
REMARK VINA RESULT:    -3.499      4.372      5.128
REMARK INTER + INTRA:          -6.133
REMARK INTER:                  -4.642
REMARK INTRA:                  -1.491
REMARK UNBOUND:                -0.588
REMARK SMILES CCCCCCCCCCCC(=O)[O-]
REMARK SMILES IDX 7 1 8 2 9 3 10 4 11 5 12 6 13 7 14 8 6 9 5 10 4 11 3 12 2 13
REMARK SMILES IDX 1 14
REMARK H PARENT
REMARK Flexibility Score: inf
ROOT
ATOM      1  C   UNL     1      13.638  -9.898  18.537  1.00  0.00     0.000 C 
ENDROOT
BRANCH   1   2
ATOM      2  C   UNL     1      12.262  -9.391  18.074  1.00  0.00     0.000 C 
BRANCH   2   3
ATOM      3  C   UNL     1      11.854  -9.960  16.703  1.00  0.00     0.000 C 
BRANCH   3   4
ATOM      4  C   UNL     1      12.740 -11.137  16.265  1.00  0.00     0.006 C 
BRANCH   4   5
ATOM      5  C   UNL     1      12.023 -12.490  16.369  1.00  0.00     0.053 C 
BRANCH   5   6
ATOM      6  C   UNL     1      12.954 -13.534  16.899  1.00  0.00     0.041 C 
ATOM      7  O   UNL     1      14.047 -13.199  17.429  1.00  0.00    -0.550 OA
ATOM      8  O   UNL     1      12.638 -14.879  16.767  1.00  0.00    -0.550 OA
ENDBRANCH   5   6
ENDBRANCH   4   5
ENDBRANCH   3   4
ENDBRANCH   2   3
ENDBRANCH   1   2
BRANCH   1   9
ATOM      9  C   UNL     1      13.567 -10.667  19.868  1.00  0.00     0.000 C 
BRANCH   9  10
ATOM     10  C   UNL     1      12.122 -10.884  20.344  1.00  0.00    -0.000 C 
BRANCH  10  11
ATOM     11  C   UNL     1      11.691 -12.360  20.281  1.00  0.00    -0.000 C 
BRANCH  11  12
ATOM     12  C   UNL     1      10.450 -12.582  19.398  1.00  0.00    -0.000 C 
BRANCH  12  13
ATOM     13  C   UNL     1       9.384 -11.475  19.495  1.00  0.00    -0.003 C 
ATOM     14  C   UNL     1       8.461 -11.638  20.702  1.00  0.00     0.004 C 
ENDBRANCH  12  13
ENDBRANCH  11  12
ENDBRANCH  10  11
ENDBRANCH   9  10
ENDBRANCH   1   9
TORSDOF 10
ENDMDL
MODEL 8
REMARK VINA RESULT:    -3.471      4.714      5.516
REMARK INTER + INTRA:          -6.089
REMARK INTER:                  -4.384
REMARK INTRA:                  -1.705
REMARK UNBOUND:                -0.588
REMARK SMILES CCCCCCCCCCCC(=O)[O-]
REMARK SMILES IDX 7 1 8 2 9 3 10 4 11 5 12 6 13 7 14 8 6 9 5 10 4 11 3 12 2 13
REMARK SMILES IDX 1 14
REMARK H PARENT
REMARK Flexibility Score: inf
ROOT
ATOM      1  C   UNL     1      12.314  -9.244  18.626  1.00  0.00     0.000 C 
ENDROOT
BRANCH   1   2
ATOM      2  C   UNL     1      11.921  -9.916  17.300  1.00  0.00     0.000 C 
BRANCH   2   3
ATOM      3  C   UNL     1      13.104 -10.638  16.631  1.00  0.00     0.000 C 
BRANCH   3   4
ATOM      4  C   UNL     1      12.907 -12.162  16.570  1.00  0.00     0.006 C 
BRANCH   4   5
ATOM      5  C   UNL     1      14.226 -12.935  16.684  1.00  0.00     0.053 C 
BRANCH   5   6
ATOM      6  C   UNL     1      14.002 -14.252  17.357  1.00  0.00     0.041 C 
ATOM      7  O   UNL     1      12.973 -14.930  17.097  1.00  0.00    -0.550 OA
ATOM      8  O   UNL     1      14.905 -14.710  18.307  1.00  0.00    -0.550 OA
ENDBRANCH   5   6
ENDBRANCH   4   5
ENDBRANCH   3   4
ENDBRANCH   2   3
ENDBRANCH   1   2
BRANCH   1   9
ATOM      9  C   UNL     1      13.783  -9.499  19.004  1.00  0.00     0.000 C 
BRANCH   9  10
ATOM     10  C   UNL     1      13.925 -10.240  20.344  1.00  0.00    -0.000 C 
BRANCH  10  11
ATOM     11  C   UNL     1      13.766 -11.764  20.198  1.00  0.00    -0.000 C 
BRANCH  11  12
ATOM     12  C   UNL     1      12.465 -12.291  20.827  1.00  0.00    -0.000 C 
BRANCH  12  13
ATOM     13  C   UNL     1      11.615 -13.180  19.901  1.00  0.00    -0.003 C 
ATOM     14  C   UNL     1      10.365 -12.475  19.377  1.00  0.00     0.004 C 
ENDBRANCH  12  13
ENDBRANCH  11  12
ENDBRANCH  10  11
ENDBRANCH   9  10
ENDBRANCH   1   9
TORSDOF 10
ENDMDL
MODEL 9
REMARK VINA RESULT:    -3.466      5.228      7.184
REMARK INTER + INTRA:          -6.081
REMARK INTER:                  -4.458
REMARK INTRA:                  -1.623
REMARK UNBOUND:                -0.588
REMARK SMILES CCCCCCCCCCCC(=O)[O-]
REMARK SMILES IDX 7 1 8 2 9 3 10 4 11 5 12 6 13 7 14 8 6 9 5 10 4 11 3 12 2 13
REMARK SMILES IDX 1 14
REMARK H PARENT
REMARK Flexibility Score: inf
ROOT
ATOM      1  C   UNL     1      14.160 -13.702  18.929  1.00  0.00     0.000 C 
ENDROOT
BRANCH   1   2
ATOM      2  C   UNL     1      13.055 -13.511  19.980  1.00  0.00     0.000 C 
BRANCH   2   3
ATOM      3  C   UNL     1      11.645 -13.728  19.402  1.00  0.00     0.000 C 
BRANCH   3   4
ATOM      4  C   UNL     1      10.801 -12.444  19.406  1.00  0.00     0.006 C 
BRANCH   4   5
ATOM      5  C   UNL     1      10.706 -11.802  20.796  1.00  0.00     0.053 C 
BRANCH   5   6
ATOM      6  C   UNL     1       9.786 -12.591  21.673  1.00  0.00     0.041 C 
ATOM      7  O   UNL     1      10.254 -13.379  22.538  1.00  0.00    -0.550 OA
ATOM      8  O   UNL     1       8.411 -12.495  21.504  1.00  0.00    -0.550 OA
ENDBRANCH   5   6
ENDBRANCH   4   5
ENDBRANCH   3   4
ENDBRANCH   2   3
ENDBRANCH   1   2
BRANCH   1   9
ATOM      9  C   UNL     1      13.603 -13.799  17.498  1.00  0.00     0.000 C 
BRANCH   9  10
ATOM     10  C   UNL     1      14.014 -12.603  16.624  1.00  0.00    -0.000 C 
BRANCH  10  11
ATOM     11  C   UNL     1      12.835 -11.666  16.307  1.00  0.00    -0.000 C 
BRANCH  11  12
ATOM     12  C   UNL     1      12.900 -10.341  17.088  1.00  0.00    -0.000 C 
BRANCH  12  13
ATOM     13  C   UNL     1      14.161 -10.164  17.953  1.00  0.00    -0.003 C 
ATOM     14  C   UNL     1      13.845  -9.896  19.424  1.00  0.00     0.004 C 
ENDBRANCH  12  13
ENDBRANCH  11  12
ENDBRANCH  10  11
ENDBRANCH   9  10
ENDBRANCH   1   9
TORSDOF 10
ENDMDL
