MODEL 1
REMARK VINA RESULT:    -4.827      0.000      0.000
REMARK INTER + INTRA:          -7.518
REMARK INTER:                  -6.944
REMARK INTRA:                  -0.574
REMARK UNBOUND:                -0.574
REMARK SMILES O=c1c(O[C@H]2O[C@@H](CO)[C@@H](O)[C@H](O)[C@@H]2O)c(-c2ccc(O)cc2)oc2cc(O)cc(O)c12
REMARK SMILES IDX 4 1 3 2 16 3 24 4 2 5 25 6 1 7 32 8 26 9 30 10 27 11 29 12
REMARK SMILES IDX 17 13 18 14 19 15 20 16 23 17 22 18 21 19 31 21 28 23 5 25
REMARK SMILES IDX 14 26 6 27 12 28 7 29 10 30 15 31 13 33 8 35 9 36 11 38
REMARK H PARENT 21 20 31 22 28 24 15 32 13 34 9 37 11 39
REMARK Flexibility Score: inf
ROOT
ATOM      1  O   UNL     1       3.679 -17.239   6.131  1.00  0.00    -0.454 OA
ENDROOT
BRANCH   1   2
ATOM      2  C   UNL     1       3.961 -15.865   6.282  1.00  0.00     0.214 A 
ATOM      3  C   UNL     1       4.277 -15.391   7.572  1.00  0.00     0.180 A 
ATOM      4  O   UNL     1       4.607 -14.117   7.756  1.00  0.00    -0.452 OA
ATOM      5  C   UNL     1       3.964 -14.939   5.212  1.00  0.00     0.239 A 
ATOM      6  C   UNL     1       4.634 -13.221   6.778  1.00  0.00     0.146 A 
ATOM      7  O   UNL     1       3.667 -15.311   4.045  1.00  0.00    -0.285 OA
ATOM      8  C   UNL     1       4.301 -13.590   5.456  1.00  0.00     0.111 A 
ATOM      9  C   UNL     1       4.990 -11.902   7.076  1.00  0.00     0.094 A 
ATOM     10  C   UNL     1       4.325 -12.602   4.441  1.00  0.00     0.134 A 
ATOM     11  C   UNL     1       5.014 -10.932   6.070  1.00  0.00     0.123 A 
ATOM     12  C   UNL     1       4.679 -11.282   4.761  1.00  0.00     0.093 A 
BRANCH   3  13
ATOM     13  C   UNL     1       4.281 -16.282   8.756  1.00  0.00     0.021 A 
ATOM     14  C   UNL     1       5.152 -16.010   9.824  1.00  0.00     0.016 A 
ATOM     15  C   UNL     1       5.169 -16.836  10.952  1.00  0.00     0.047 A 
ATOM     16  C   UNL     1       4.309 -17.936  11.034  1.00  0.00     0.115 A 
ATOM     17  C   UNL     1       3.394 -17.371   8.858  1.00  0.00     0.016 A 
ATOM     18  C   UNL     1       3.418 -18.200   9.985  1.00  0.00     0.047 A 
BRANCH  16  19
ATOM     19  O   UNL     1       4.340 -18.751  12.164  1.00  0.00    -0.508 OA
ATOM     20  H   UNL     1       4.298 -19.760  12.091  1.00  0.00     0.293 HD
ENDBRANCH  16  19
ENDBRANCH   3  13
BRANCH  10  21
ATOM     21  O   UNL     1       3.999 -12.917   3.121  1.00  0.00    -0.507 OA
ATOM     22  H   UNL     1       4.695 -12.919   2.384  1.00  0.00     0.293 HD
ENDBRANCH  10  21
BRANCH  11  23
ATOM     23  O   UNL     1       5.367  -9.616   6.360  1.00  0.00    -0.508 OA
ATOM     24  H   UNL     1       6.108  -9.398   7.016  1.00  0.00     0.293 HD
ENDBRANCH  11  23
ENDBRANCH   1   2
BRANCH   1  25
ATOM     25  C   UNL     1       4.552 -18.263   5.658  1.00  0.00     0.339 C 
ATOM     26  C   UNL     1       4.049 -18.717   4.253  1.00  0.00     0.214 C 
ATOM     27  O   UNL     1       4.571 -19.318   6.615  1.00  0.00    -0.332 OA
ATOM     28  C   UNL     1       3.283 -20.044   4.363  1.00  0.00     0.180 C 
ATOM     29  C   UNL     1       5.145 -20.489   6.065  1.00  0.00     0.179 C 
ATOM     30  C   UNL     1       4.161 -21.131   5.042  1.00  0.00     0.177 C 
BRANCH  26  31
ATOM     31  O   UNL     1       5.134 -18.876   3.373  1.00  0.00    -0.384 OA
ATOM     32  H   UNL     1       4.820 -19.462   2.634  1.00  0.00     0.211 HD
ENDBRANCH  26  31
BRANCH  28  33
ATOM     33  O   UNL     1       2.879 -20.465   3.085  1.00  0.00    -0.387 OA
ATOM     34  H   UNL     1       2.550 -21.397   3.180  1.00  0.00     0.211 HD
ENDBRANCH  28  33
BRANCH  29  35
ATOM     35  C   UNL     1       5.579 -21.442   7.193  1.00  0.00     0.191 C 
BRANCH  35  36
ATOM     36  O   UNL     1       4.718 -21.360   8.298  1.00  0.00    -0.394 OA
ATOM     37  H   UNL     1       4.028 -20.680   8.076  1.00  0.00     0.210 HD
ENDBRANCH  35  36
ENDBRANCH  29  35
BRANCH  30  38
ATOM     38  O   UNL     1       3.346 -22.121   5.622  1.00  0.00    -0.387 OA
ATOM     39  H   UNL     1       2.863 -22.582   4.889  1.00  0.00     0.211 HD
ENDBRANCH  30  38
ENDBRANCH   1  25
TORSDOF 11
ENDMDL
MODEL 2
REMARK VINA RESULT:    -4.173      1.252      2.574
REMARK INTER + INTRA:          -6.577
REMARK INTER:                  -7.832
REMARK INTRA:                   1.255
REMARK UNBOUND:                -0.574
REMARK SMILES O=c1c(O[C@H]2O[C@@H](CO)[C@@H](O)[C@H](O)[C@@H]2O)c(-c2ccc(O)cc2)oc2cc(O)cc(O)c12
REMARK SMILES IDX 4 1 3 2 16 3 24 4 2 5 25 6 1 7 32 8 26 9 30 10 27 11 29 12
REMARK SMILES IDX 17 13 18 14 19 15 20 16 23 17 22 18 21 19 31 21 28 23 5 25
REMARK SMILES IDX 14 26 6 27 12 28 7 29 10 30 15 31 13 33 8 35 9 36 11 38
REMARK H PARENT 21 20 31 22 28 24 15 32 13 34 9 37 11 39
REMARK Flexibility Score: inf
ROOT
ATOM      1  O   UNL     1       3.431 -18.158   7.317  1.00  0.00    -0.454 OA
ENDROOT
BRANCH   1   2
ATOM      2  C   UNL     1       3.700 -16.791   7.096  1.00  0.00     0.214 A 
ATOM      3  C   UNL     1       4.249 -16.043   8.158  1.00  0.00     0.180 A 
ATOM      4  O   UNL     1       4.575 -14.767   7.981  1.00  0.00    -0.452 OA
ATOM      5  C   UNL     1       3.471 -16.132   5.865  1.00  0.00     0.239 A 
ATOM      6  C   UNL     1       4.388 -14.117   6.841  1.00  0.00     0.146 A 
ATOM      7  O   UNL     1       2.963 -16.752   4.893  1.00  0.00    -0.285 OA
ATOM      8  C   UNL     1       3.814 -14.770   5.727  1.00  0.00     0.111 A 
ATOM      9  C   UNL     1       4.761 -12.772   6.757  1.00  0.00     0.094 A 
ATOM     10  C   UNL     1       3.614 -14.038   4.530  1.00  0.00     0.134 A 
ATOM     11  C   UNL     1       4.562 -12.056   5.574  1.00  0.00     0.123 A 
ATOM     12  C   UNL     1       3.989 -12.687   4.469  1.00  0.00     0.093 A 
BRANCH   3  13
ATOM     13  C   UNL     1       4.506 -16.643   9.489  1.00  0.00     0.021 A 
ATOM     14  C   UNL     1       4.501 -18.040   9.631  1.00  0.00     0.016 A 
ATOM     15  C   UNL     1       4.746 -18.626  10.876  1.00  0.00     0.047 A 
ATOM     16  C   UNL     1       5.010 -17.826  11.993  1.00  0.00     0.115 A 
ATOM     17  C   UNL     1       4.806 -15.843  10.609  1.00  0.00     0.016 A 
ATOM     18  C   UNL     1       5.042 -16.432  11.856  1.00  0.00     0.047 A 
BRANCH  16  19
ATOM     19  O   UNL     1       5.248 -18.426  13.228  1.00  0.00    -0.508 OA
ATOM     20  H   UNL     1       6.125 -18.887  13.434  1.00  0.00     0.293 HD
ENDBRANCH  16  19
ENDBRANCH   3  13
BRANCH  10  21
ATOM     21  O   UNL     1       3.046 -14.637   3.406  1.00  0.00    -0.507 OA
ATOM     22  H   UNL     1       3.163 -15.625   3.209  1.00  0.00     0.293 HD
ENDBRANCH  10  21
BRANCH  11  23
ATOM     23  O   UNL     1       4.931 -10.715   5.484  1.00  0.00    -0.508 OA
ATOM     24  H   UNL     1       5.535 -10.283   6.174  1.00  0.00     0.293 HD
ENDBRANCH  11  23
ENDBRANCH   1   2
BRANCH   1  25
ATOM     25  C   UNL     1       3.295 -19.191   6.343  1.00  0.00     0.339 C 
ATOM     26  C   UNL     1       3.758 -20.532   6.992  1.00  0.00     0.214 C 
ATOM     27  O   UNL     1       4.058 -18.831   5.194  1.00  0.00    -0.332 OA
ATOM     28  C   UNL     1       5.175 -20.892   6.521  1.00  0.00     0.180 C 
ATOM     29  C   UNL     1       4.234 -19.943   4.337  1.00  0.00     0.179 C 
ATOM     30  C   UNL     1       5.243 -20.946   4.970  1.00  0.00     0.177 C 
BRANCH  26  31
ATOM     31  O   UNL     1       2.875 -21.570   6.649  1.00  0.00    -0.384 OA
ATOM     32  H   UNL     1       3.432 -22.377   6.486  1.00  0.00     0.211 HD
ENDBRANCH  26  31
BRANCH  28  33
ATOM     33  O   UNL     1       5.559 -22.125   7.074  1.00  0.00    -0.387 OA
ATOM     34  H   UNL     1       4.742 -22.687   7.118  1.00  0.00     0.211 HD
ENDBRANCH  28  33
BRANCH  29  35
ATOM     35  C   UNL     1       4.635 -19.463   2.929  1.00  0.00     0.191 C 
BRANCH  35  36
ATOM     36  O   UNL     1       4.755 -18.066   2.875  1.00  0.00    -0.394 OA
ATOM     37  H   UNL     1       5.602 -17.868   2.393  1.00  0.00     0.210 HD
ENDBRANCH  35  36
ENDBRANCH  29  35
BRANCH  30  38
ATOM     38  O   UNL     1       6.564 -20.735   4.533  1.00  0.00    -0.387 OA
ATOM     39  H   UNL     1       7.115 -20.520   5.330  1.00  0.00     0.211 HD
ENDBRANCH  30  38
ENDBRANCH   1  25
TORSDOF 11
ENDMDL
MODEL 3
REMARK VINA RESULT:    -3.287      1.169      2.297
REMARK INTER + INTRA:          -5.302
REMARK INTER:                  -4.692
REMARK INTRA:                  -0.610
REMARK UNBOUND:                -0.574
REMARK SMILES O=c1c(O[C@H]2O[C@@H](CO)[C@@H](O)[C@H](O)[C@@H]2O)c(-c2ccc(O)cc2)oc2cc(O)cc(O)c12
REMARK SMILES IDX 4 1 3 2 16 3 24 4 2 5 25 6 1 7 32 8 26 9 30 10 27 11 29 12
REMARK SMILES IDX 17 13 18 14 19 15 20 16 23 17 22 18 21 19 31 21 28 23 5 25
REMARK SMILES IDX 14 26 6 27 12 28 7 29 10 30 15 31 13 33 8 35 9 36 11 38
REMARK H PARENT 21 20 31 22 28 24 15 32 13 34 9 37 11 39
REMARK Flexibility Score: inf
ROOT
ATOM      1  O   UNL     1       4.786 -17.515   6.767  1.00  0.00    -0.454 OA
ENDROOT
BRANCH   1   2
ATOM      2  C   UNL     1       4.538 -16.135   6.618  1.00  0.00     0.214 A 
ATOM      3  C   UNL     1       4.483 -15.341   7.783  1.00  0.00     0.180 A 
ATOM      4  O   UNL     1       4.311 -14.027   7.691  1.00  0.00    -0.452 OA
ATOM      5  C   UNL     1       4.361 -15.496   5.368  1.00  0.00     0.239 A 
ATOM      6  C   UNL     1       4.154 -13.389   6.538  1.00  0.00     0.146 A 
ATOM      7  O   UNL     1       4.381 -16.166   4.301  1.00  0.00    -0.285 OA
ATOM      8  C   UNL     1       4.161 -14.100   5.318  1.00  0.00     0.111 A 
ATOM      9  C   UNL     1       3.974 -12.003   6.549  1.00  0.00     0.094 A 
ATOM     10  C   UNL     1       3.973 -13.388   4.108  1.00  0.00     0.134 A 
ATOM     11  C   UNL     1       3.791 -11.305   5.352  1.00  0.00     0.123 A 
ATOM     12  C   UNL     1       3.788 -11.996   4.140  1.00  0.00     0.093 A 
BRANCH   3  13
ATOM     13  C   UNL     1       4.639 -15.924   9.137  1.00  0.00     0.021 A 
ATOM     14  C   UNL     1       5.569 -15.364  10.028  1.00  0.00     0.016 A 
ATOM     15  C   UNL     1       5.729 -15.896  11.311  1.00  0.00     0.047 A 
ATOM     16  C   UNL     1       4.954 -16.984  11.725  1.00  0.00     0.115 A 
ATOM     17  C   UNL     1       3.838 -16.998   9.570  1.00  0.00     0.016 A 
ATOM     18  C   UNL     1       4.005 -17.533  10.852  1.00  0.00     0.047 A 
BRANCH  16  19
ATOM     19  O   UNL     1       5.128 -17.505  13.006  1.00  0.00    -0.508 OA
ATOM     20  H   UNL     1       4.401 -18.042  13.463  1.00  0.00     0.293 HD
ENDBRANCH  16  19
ENDBRANCH   3  13
BRANCH  10  21
ATOM     21  O   UNL     1       3.966 -14.046   2.878  1.00  0.00    -0.507 OA
ATOM     22  H   UNL     1       4.346 -13.618   2.040  1.00  0.00     0.293 HD
ENDBRANCH  10  21
BRANCH  11  23
ATOM     23  O   UNL     1       3.612  -9.923   5.355  1.00  0.00    -0.508 OA
ATOM     24  H   UNL     1       3.351  -9.424   6.198  1.00  0.00     0.293 HD
ENDBRANCH  11  23
ENDBRANCH   1   2
BRANCH   1  25
ATOM     25  C   UNL     1       3.910 -18.599   6.463  1.00  0.00     0.339 C 
ATOM     26  C   UNL     1       4.116 -19.706   7.543  1.00  0.00     0.214 C 
ATOM     27  O   UNL     1       4.189 -19.047   5.140  1.00  0.00    -0.332 OA
ATOM     28  C   UNL     1       4.986 -20.842   6.984  1.00  0.00     0.180 C 
ATOM     29  C   UNL     1       3.597 -20.309   4.899  1.00  0.00     0.179 C 
ATOM     30  C   UNL     1       4.370 -21.415   5.678  1.00  0.00     0.177 C 
BRANCH  26  31
ATOM     31  O   UNL     1       2.876 -20.226   7.952  1.00  0.00    -0.384 OA
ATOM     32  H   UNL     1       2.493 -19.577   8.600  1.00  0.00     0.211 HD
ENDBRANCH  26  31
BRANCH  28  33
ATOM     33  O   UNL     1       5.121 -21.853   7.949  1.00  0.00    -0.387 OA
ATOM     34  H   UNL     1       5.848 -22.453   7.637  1.00  0.00     0.211 HD
ENDBRANCH  28  33
BRANCH  29  35
ATOM     35  C   UNL     1       3.503 -20.566   3.383  1.00  0.00     0.191 C 
BRANCH  35  36
ATOM     36  O   UNL     1       2.946 -21.824   3.107  1.00  0.00    -0.394 OA
ATOM     37  H   UNL     1       3.669 -22.379   2.712  1.00  0.00     0.210 HD
ENDBRANCH  35  36
ENDBRANCH  29  35
BRANCH  30  38
ATOM     38  O   UNL     1       5.368 -22.029   4.898  1.00  0.00    -0.387 OA
ATOM     39  H   UNL     1       5.305 -23.008   5.045  1.00  0.00     0.211 HD
ENDBRANCH  30  38
ENDBRANCH   1  25
TORSDOF 11
ENDMDL
MODEL 4
REMARK VINA RESULT:    -2.777      1.620      4.909
REMARK INTER + INTRA:          -4.569
REMARK INTER:                  -4.613
REMARK INTRA:                   0.044
REMARK UNBOUND:                -0.574
REMARK SMILES O=c1c(O[C@H]2O[C@@H](CO)[C@@H](O)[C@H](O)[C@@H]2O)c(-c2ccc(O)cc2)oc2cc(O)cc(O)c12
REMARK SMILES IDX 4 1 3 2 16 3 24 4 2 5 25 6 1 7 32 8 26 9 30 10 27 11 29 12
REMARK SMILES IDX 17 13 18 14 19 15 20 16 23 17 22 18 21 19 31 21 28 23 5 25
REMARK SMILES IDX 14 26 6 27 12 28 7 29 10 30 15 31 13 33 8 35 9 36 11 38
REMARK H PARENT 21 20 31 22 28 24 15 32 13 34 9 37 11 39
REMARK Flexibility Score: inf
ROOT
ATOM      1  O   UNL     1       3.727 -17.236   7.489  1.00  0.00    -0.454 OA
ENDROOT
BRANCH   1   2
ATOM      2  C   UNL     1       3.864 -16.173   6.573  1.00  0.00     0.214 A 
ATOM      3  C   UNL     1       3.743 -16.464   5.198  1.00  0.00     0.180 A 
ATOM      4  O   UNL     1       3.805 -15.488   4.298  1.00  0.00    -0.452 OA
ATOM      5  C   UNL     1       4.095 -14.830   6.952  1.00  0.00     0.239 A 
ATOM      6  C   UNL     1       4.008 -14.215   4.614  1.00  0.00     0.146 A 
ATOM      7  O   UNL     1       4.231 -14.524   8.167  1.00  0.00    -0.285 OA
ATOM      8  C   UNL     1       4.174 -13.827   5.962  1.00  0.00     0.111 A 
ATOM      9  C   UNL     1       4.063 -13.263   3.592  1.00  0.00     0.094 A 
ATOM     10  C   UNL     1       4.406 -12.461   6.259  1.00  0.00     0.134 A 
ATOM     11  C   UNL     1       4.290 -11.917   3.891  1.00  0.00     0.123 A 
ATOM     12  C   UNL     1       4.463 -11.522   5.218  1.00  0.00     0.093 A 
BRANCH   3  13
ATOM     13  C   UNL     1       3.519 -17.843   4.704  1.00  0.00     0.021 A 
ATOM     14  C   UNL     1       3.791 -18.150   3.361  1.00  0.00     0.016 A 
ATOM     15  C   UNL     1       3.590 -19.446   2.876  1.00  0.00     0.047 A 
ATOM     16  C   UNL     1       3.127 -20.454   3.728  1.00  0.00     0.115 A 
ATOM     17  C   UNL     1       3.085 -18.869   5.565  1.00  0.00     0.016 A 
ATOM     18  C   UNL     1       2.877 -20.163   5.076  1.00  0.00     0.047 A 
BRANCH  16  19
ATOM     19  O   UNL     1       2.928 -21.740   3.228  1.00  0.00    -0.508 OA
ATOM     20  H   UNL     1       2.137 -22.303   3.513  1.00  0.00     0.293 HD
ENDBRANCH  16  19
ENDBRANCH   3  13
BRANCH  10  21
ATOM     21  O   UNL     1       4.582 -12.030   7.574  1.00  0.00    -0.507 OA
ATOM     22  H   UNL     1       4.547 -11.048   7.824  1.00  0.00     0.293 HD
ENDBRANCH  10  21
BRANCH  11  23
ATOM     23  O   UNL     1       4.346 -10.963   2.877  1.00  0.00    -0.508 OA
ATOM     24  H   UNL     1       3.801 -11.058   2.028  1.00  0.00     0.293 HD
ENDBRANCH  11  23
ENDBRANCH   1   2
BRANCH   1  25
ATOM     25  C   UNL     1       4.696 -17.721   8.417  1.00  0.00     0.339 C 
ATOM     26  C   UNL     1       4.717 -19.278   8.325  1.00  0.00     0.214 C 
ATOM     27  O   UNL     1       4.359 -17.240   9.715  1.00  0.00    -0.332 OA
ATOM     28  C   UNL     1       3.943 -19.894   9.501  1.00  0.00     0.180 C 
ATOM     29  C   UNL     1       5.074 -17.942  10.714  1.00  0.00     0.179 C 
ATOM     30  C   UNL     1       4.507 -19.387  10.856  1.00  0.00     0.177 C 
BRANCH  26  31
ATOM     31  O   UNL     1       6.041 -19.751   8.340  1.00  0.00    -0.384 OA
ATOM     32  H   UNL     1       6.391 -19.650   7.415  1.00  0.00     0.211 HD
ENDBRANCH  26  31
BRANCH  28  33
ATOM     33  O   UNL     1       4.012 -21.295   9.432  1.00  0.00    -0.387 OA
ATOM     34  H   UNL     1       4.588 -21.516   8.654  1.00  0.00     0.211 HD
ENDBRANCH  28  33
BRANCH  29  35
ATOM     35  C   UNL     1       5.066 -17.139  12.029  1.00  0.00     0.191 C 
BRANCH  35  36
ATOM     36  O   UNL     1       5.792 -17.792  13.036  1.00  0.00    -0.394 OA
ATOM     37  H   UNL     1       6.730 -17.862  12.716  1.00  0.00     0.210 HD
ENDBRANCH  35  36
ENDBRANCH  29  35
BRANCH  30  38
ATOM     38  O   UNL     1       3.526 -19.487  11.860  1.00  0.00    -0.387 OA
ATOM     39  H   UNL     1       2.671 -19.737  11.422  1.00  0.00     0.211 HD
ENDBRANCH  30  38
ENDBRANCH   1  25
TORSDOF 11
ENDMDL
MODEL 5
REMARK VINA RESULT:    -1.953      1.717      7.145
REMARK INTER + INTRA:          -3.383
REMARK INTER:                  -4.397
REMARK INTRA:                   1.013
REMARK UNBOUND:                -0.574
REMARK SMILES O=c1c(O[C@H]2O[C@@H](CO)[C@@H](O)[C@H](O)[C@@H]2O)c(-c2ccc(O)cc2)oc2cc(O)cc(O)c12
REMARK SMILES IDX 4 1 3 2 16 3 24 4 2 5 25 6 1 7 32 8 26 9 30 10 27 11 29 12
REMARK SMILES IDX 17 13 18 14 19 15 20 16 23 17 22 18 21 19 31 21 28 23 5 25
REMARK SMILES IDX 14 26 6 27 12 28 7 29 10 30 15 31 13 33 8 35 9 36 11 38
REMARK H PARENT 21 20 31 22 28 24 15 32 13 34 9 37 11 39
REMARK Flexibility Score: inf
ROOT
ATOM      1  O   UNL     1       4.668 -16.573   8.586  1.00  0.00    -0.454 OA
ENDROOT
BRANCH   1   2
ATOM      2  C   UNL     1       4.577 -17.464   7.496  1.00  0.00     0.214 A 
ATOM      3  C   UNL     1       4.265 -16.930   6.228  1.00  0.00     0.180 A 
ATOM      4  O   UNL     1       4.226 -17.719   5.160  1.00  0.00    -0.452 OA
ATOM      5  C   UNL     1       4.800 -18.857   7.596  1.00  0.00     0.239 A 
ATOM      6  C   UNL     1       4.442 -19.027   5.209  1.00  0.00     0.146 A 
ATOM      7  O   UNL     1       5.061 -19.383   8.711  1.00  0.00    -0.285 OA
ATOM      8  C   UNL     1       4.730 -19.661   6.439  1.00  0.00     0.111 A 
ATOM      9  C   UNL     1       4.373 -19.771   4.028  1.00  0.00     0.094 A 
ATOM     10  C   UNL     1       4.937 -21.063   6.455  1.00  0.00     0.134 A 
ATOM     11  C   UNL     1       4.580 -21.153   4.050  1.00  0.00     0.123 A 
ATOM     12  C   UNL     1       4.858 -21.793   5.259  1.00  0.00     0.093 A 
BRANCH   3  13
ATOM     13  C   UNL     1       3.996 -15.486   6.029  1.00  0.00     0.021 A 
ATOM     14  C   UNL     1       4.671 -14.542   6.820  1.00  0.00     0.016 A 
ATOM     15  C   UNL     1       4.435 -13.174   6.647  1.00  0.00     0.047 A 
ATOM     16  C   UNL     1       3.534 -12.733   5.673  1.00  0.00     0.115 A 
ATOM     17  C   UNL     1       3.115 -15.035   5.028  1.00  0.00     0.016 A 
ATOM     18  C   UNL     1       2.875 -13.666   4.861  1.00  0.00     0.047 A 
BRANCH  16  19
ATOM     19  O   UNL     1       3.307 -11.366   5.514  1.00  0.00    -0.508 OA
ATOM     20  H   UNL     1       2.492 -10.914   5.909  1.00  0.00     0.293 HD
ENDBRANCH  16  19
ENDBRANCH   3  13
BRANCH  10  21
ATOM     21  O   UNL     1       5.219 -21.735   7.645  1.00  0.00    -0.507 OA
ATOM     22  H   UNL     1       5.406 -22.732   7.664  1.00  0.00     0.293 HD
ENDBRANCH  10  21
BRANCH  11  23
ATOM     23  O   UNL     1       4.513 -21.901   2.876  1.00  0.00    -0.508 OA
ATOM     24  H   UNL     1       3.940 -21.609   2.094  1.00  0.00     0.293 HD
ENDBRANCH  11  23
ENDBRANCH   1   2
BRANCH   1  25
ATOM     25  C   UNL     1       4.096 -16.720   9.884  1.00  0.00     0.339 C 
ATOM     26  C   UNL     1       5.083 -16.099  10.921  1.00  0.00     0.214 C 
ATOM     27  O   UNL     1       3.840 -18.103  10.111  1.00  0.00    -0.332 OA
ATOM     28  C   UNL     1       5.872 -17.206  11.636  1.00  0.00     0.180 C 
ATOM     29  C   UNL     1       3.587 -18.351  11.481  1.00  0.00     0.179 C 
ATOM     30  C   UNL     1       4.910 -18.230  12.296  1.00  0.00     0.177 C 
BRANCH  26  31
ATOM     31  O   UNL     1       4.379 -15.340  11.872  1.00  0.00    -0.384 OA
ATOM     32  H   UNL     1       4.833 -15.483  12.745  1.00  0.00     0.211 HD
ENDBRANCH  26  31
BRANCH  28  33
ATOM     33  O   UNL     1       6.720 -16.636  12.600  1.00  0.00    -0.387 OA
ATOM     34  H   UNL     1       6.670 -17.214  13.405  1.00  0.00     0.211 HD
ENDBRANCH  28  33
BRANCH  29  35
ATOM     35  C   UNL     1       2.875 -19.707  11.648  1.00  0.00     0.191 C 
BRANCH  35  36
ATOM     36  O   UNL     1       3.061 -20.528  10.525  1.00  0.00    -0.394 OA
ATOM     37  H   UNL     1       3.515 -21.353  10.843  1.00  0.00     0.210 HD
ENDBRANCH  35  36
ENDBRANCH  29  35
BRANCH  30  38
ATOM     38  O   UNL     1       5.557 -19.469  12.463  1.00  0.00    -0.387 OA
ATOM     39  H   UNL     1       5.056 -19.981  13.149  1.00  0.00     0.211 HD
ENDBRANCH  30  38
ENDBRANCH   1  25
TORSDOF 11
ENDMDL
MODEL 6
REMARK VINA RESULT:    -1.878      1.481      7.101
REMARK INTER + INTRA:          -3.275
REMARK INTER:                  -3.829
REMARK INTRA:                   0.554
REMARK UNBOUND:                -0.574
REMARK SMILES O=c1c(O[C@H]2O[C@@H](CO)[C@@H](O)[C@H](O)[C@@H]2O)c(-c2ccc(O)cc2)oc2cc(O)cc(O)c12
REMARK SMILES IDX 4 1 3 2 16 3 24 4 2 5 25 6 1 7 32 8 26 9 30 10 27 11 29 12
REMARK SMILES IDX 17 13 18 14 19 15 20 16 23 17 22 18 21 19 31 21 28 23 5 25
REMARK SMILES IDX 14 26 6 27 12 28 7 29 10 30 15 31 13 33 8 35 9 36 11 38
REMARK H PARENT 21 20 31 22 28 24 15 32 13 34 9 37 11 39
REMARK Flexibility Score: inf
ROOT
ATOM      1  O   UNL     1       4.656 -16.303   6.504  1.00  0.00    -0.454 OA
ENDROOT
BRANCH   1   2
ATOM      2  C   UNL     1       4.693 -16.903   7.779  1.00  0.00     0.214 A 
ATOM      3  C   UNL     1       4.615 -18.309   7.853  1.00  0.00     0.180 A 
ATOM      4  O   UNL     1       4.705 -18.925   9.027  1.00  0.00    -0.452 OA
ATOM      5  C   UNL     1       4.823 -16.179   8.988  1.00  0.00     0.239 A 
ATOM      6  C   UNL     1       4.840 -18.284  10.180  1.00  0.00     0.146 A 
ATOM      7  O   UNL     1       4.876 -14.920   8.975  1.00  0.00    -0.285 OA
ATOM      8  C   UNL     1       4.896 -16.872  10.215  1.00  0.00     0.111 A 
ATOM      9  C   UNL     1       4.921 -19.024  11.363  1.00  0.00     0.094 A 
ATOM     10  C   UNL     1       5.024 -16.222  11.466  1.00  0.00     0.134 A 
ATOM     11  C   UNL     1       5.049 -18.377  12.595  1.00  0.00     0.123 A 
ATOM     12  C   UNL     1       5.097 -16.983  12.644  1.00  0.00     0.093 A 
BRANCH   3  13
ATOM     13  C   UNL     1       4.458 -19.151   6.643  1.00  0.00     0.021 A 
ATOM     14  C   UNL     1       5.255 -20.297   6.489  1.00  0.00     0.016 A 
ATOM     15  C   UNL     1       5.121 -21.106   5.357  1.00  0.00     0.047 A 
ATOM     16  C   UNL     1       4.182 -20.789   4.371  1.00  0.00     0.115 A 
ATOM     17  C   UNL     1       3.492 -18.854   5.663  1.00  0.00     0.016 A 
ATOM     18  C   UNL     1       3.364 -19.661   4.527  1.00  0.00     0.047 A 
BRANCH  16  19
ATOM     19  O   UNL     1       4.062 -21.604   3.246  1.00  0.00    -0.508 OA
ATOM     20  H   UNL     1       4.392 -22.561   3.248  1.00  0.00     0.293 HD
ENDBRANCH  16  19
ENDBRANCH   3  13
BRANCH  10  21
ATOM     21  O   UNL     1       5.076 -14.830  11.553  1.00  0.00    -0.507 OA
ATOM     22  H   UNL     1       5.011 -14.240  10.731  1.00  0.00     0.293 HD
ENDBRANCH  10  21
BRANCH  11  23
ATOM     23  O   UNL     1       5.130 -19.109  13.778  1.00  0.00    -0.508 OA
ATOM     24  H   UNL     1       4.877 -18.703  14.671  1.00  0.00     0.293 HD
ENDBRANCH  11  23
ENDBRANCH   1   2
BRANCH   1  25
ATOM     25  C   UNL     1       3.926 -15.145   6.103  1.00  0.00     0.339 C 
ATOM     26  C   UNL     1       4.102 -14.970   4.563  1.00  0.00     0.214 C 
ATOM     27  O   UNL     1       4.403 -14.030   6.852  1.00  0.00    -0.332 OA
ATOM     28  C   UNL     1       5.134 -13.872   4.264  1.00  0.00     0.180 C 
ATOM     29  C   UNL     1       3.963 -12.812   6.280  1.00  0.00     0.179 C 
ATOM     30  C   UNL     1       4.735 -12.540   4.955  1.00  0.00     0.177 C 
BRANCH  26  31
ATOM     31  O   UNL     1       2.875 -14.632   3.966  1.00  0.00    -0.384 OA
ATOM     32  H   UNL     1       2.475 -13.912   4.523  1.00  0.00     0.211 HD
ENDBRANCH  26  31
BRANCH  28  33
ATOM     33  O   UNL     1       5.245 -13.692   2.875  1.00  0.00    -0.387 OA
ATOM     34  H   UNL     1       5.386 -14.591   2.479  1.00  0.00     0.211 HD
ENDBRANCH  28  33
BRANCH  29  35
ATOM     35  C   UNL     1       4.076 -11.675   7.312  1.00  0.00     0.191 C 
BRANCH  35  36
ATOM     36  O   UNL     1       4.047 -10.415   6.696  1.00  0.00    -0.394 OA
ATOM     37  H   UNL     1       4.934 -10.282   6.269  1.00  0.00     0.210 HD
ENDBRANCH  35  36
ENDBRANCH  29  35
BRANCH  30  38
ATOM     38  O   UNL     1       5.872 -11.732   5.148  1.00  0.00    -0.387 OA
ATOM     39  H   UNL     1       5.596 -10.948   5.689  1.00  0.00     0.211 HD
ENDBRANCH  30  38
ENDBRANCH   1  25
TORSDOF 11
ENDMDL
