MODEL 1
REMARK VINA RESULT:    -3.061      0.000      0.000
REMARK INTER + INTRA:         -11.448
REMARK INTER:                  -6.998
REMARK INTRA:                  -4.449
REMARK UNBOUND:                -4.449
REMARK SMILES CCCCCCCCCCCCCCCCCCCCCCCC(=O)[O-]
REMARK SMILES IDX 13 1 14 2 15 3 16 4 17 5 18 6 19 7 20 8 21 9 22 10 23 11
REMARK SMILES IDX 24 12 25 13 26 14 12 15 11 16 10 17 9 18 8 19 7 20 6 21 5 22
REMARK SMILES IDX 4 23 3 24 2 25 1 26
REMARK H PARENT
REMARK Flexibility Score: inf
ROOT
ATOM      1  C   UNL     1      63.220  32.856  60.889  1.00  0.00     0.000 C 
ENDROOT
BRANCH   1   2
ATOM      2  C   UNL     1      61.684  32.775  60.811  1.00  0.00     0.000 C 
BRANCH   2   3
ATOM      3  C   UNL     1      61.106  31.353  60.928  1.00  0.00     0.000 C 
BRANCH   3   4
ATOM      4  C   UNL     1      61.778  30.528  62.035  1.00  0.00     0.000 C 
BRANCH   4   5
ATOM      5  C   UNL     1      62.573  29.350  61.446  1.00  0.00     0.000 C 
BRANCH   5   6
ATOM      6  C   UNL     1      61.969  28.823  60.136  1.00  0.00     0.000 C 
BRANCH   6   7
ATOM      7  C   UNL     1      63.018  28.638  59.029  1.00  0.00     0.000 C 
BRANCH   7   8
ATOM      8  C   UNL     1      63.487  29.991  58.475  1.00  0.00     0.000 C 
BRANCH   8   9
ATOM      9  C   UNL     1      65.027  30.084  58.393  1.00  0.00     0.000 C 
BRANCH   9  10
ATOM     10  C   UNL     1      65.702  30.328  59.756  1.00  0.00     0.006 C 
BRANCH  10  11
ATOM     11  C   UNL     1      66.973  29.496  59.984  1.00  0.00     0.053 C 
BRANCH  11  12
ATOM     12  C   UNL     1      66.827  28.556  61.141  1.00  0.00     0.041 C 
ATOM     13  O   UNL     1      67.665  28.574  62.080  1.00  0.00    -0.550 OA
ATOM     14  O   UNL     1      65.750  27.682  61.199  1.00  0.00    -0.550 OA
ENDBRANCH  11  12
ENDBRANCH  10  11
ENDBRANCH   9  10
ENDBRANCH   8   9
ENDBRANCH   7   8
ENDBRANCH   6   7
ENDBRANCH   5   6
ENDBRANCH   4   5
ENDBRANCH   3   4
ENDBRANCH   2   3
ENDBRANCH   1   2
BRANCH   1  15
ATOM     15  C   UNL     1      63.835  33.541  59.658  1.00  0.00     0.000 C 
BRANCH  15  16
ATOM     16  C   UNL     1      64.534  34.870  59.994  1.00  0.00     0.000 C 
BRANCH  16  17
ATOM     17  C   UNL     1      64.493  35.269  61.483  1.00  0.00     0.000 C 
BRANCH  17  18
ATOM     18  C   UNL     1      63.731  36.586  61.757  1.00  0.00    -0.000 C 
BRANCH  18  19
ATOM     19  C   UNL     1      62.737  36.917  60.630  1.00  0.00    -0.000 C 
BRANCH  19  20
ATOM     20  C   UNL     1      61.293  36.487  60.948  1.00  0.00    -0.000 C 
BRANCH  20  21
ATOM     21  C   UNL     1      60.448  36.111  59.717  1.00  0.00    -0.000 C 
BRANCH  21  22
ATOM     22  C   UNL     1      61.292  35.955  58.440  1.00  0.00    -0.000 C 
BRANCH  22  23
ATOM     23  C   UNL     1      60.589  35.123  57.352  1.00  0.00    -0.000 C 
BRANCH  23  24
ATOM     24  C   UNL     1      60.947  33.623  57.344  1.00  0.00    -0.000 C 
BRANCH  24  25
ATOM     25  C   UNL     1      59.762  32.666  57.577  1.00  0.00    -0.003 C 
ATOM     26  C   UNL     1      60.130  31.195  57.390  1.00  0.00     0.004 C 
ENDBRANCH  24  25
ENDBRANCH  23  24
ENDBRANCH  22  23
ENDBRANCH  21  22
ENDBRANCH  20  21
ENDBRANCH  19  20
ENDBRANCH  18  19
ENDBRANCH  17  18
ENDBRANCH  16  17
ENDBRANCH  15  16
ENDBRANCH   1  15
TORSDOF 22
ENDMDL
MODEL 2
REMARK VINA RESULT:    -3.057      2.773      4.877
REMARK INTER + INTRA:         -11.438
REMARK INTER:                  -8.708
REMARK INTRA:                  -2.730
REMARK UNBOUND:                -4.449
REMARK SMILES CCCCCCCCCCCCCCCCCCCCCCCC(=O)[O-]
REMARK SMILES IDX 13 1 14 2 15 3 16 4 17 5 18 6 19 7 20 8 21 9 22 10 23 11
REMARK SMILES IDX 24 12 25 13 26 14 12 15 11 16 10 17 9 18 8 19 7 20 6 21 5 22
REMARK SMILES IDX 4 23 3 24 2 25 1 26
REMARK H PARENT
REMARK Flexibility Score: inf
ROOT
ATOM      1  C   UNL     1      62.039  29.601  61.509  1.00  0.00     0.000 C 
ENDROOT
BRANCH   1   2
ATOM      2  C   UNL     1      63.548  29.786  61.760  1.00  0.00     0.000 C 
BRANCH   2   3
ATOM      3  C   UNL     1      64.441  29.552  60.527  1.00  0.00     0.000 C 
BRANCH   3   4
ATOM      4  C   UNL     1      65.936  29.703  60.840  1.00  0.00     0.000 C 
BRANCH   4   5
ATOM      5  C   UNL     1      66.664  28.352  60.740  1.00  0.00     0.000 C 
BRANCH   5   6
ATOM      6  C   UNL     1      67.892  28.270  61.662  1.00  0.00     0.000 C 
BRANCH   6   7
ATOM      7  C   UNL     1      68.948  29.338  61.341  1.00  0.00     0.000 C 
BRANCH   7   8
ATOM      8  C   UNL     1      69.397  29.256  59.876  1.00  0.00     0.000 C 
BRANCH   8   9
ATOM      9  C   UNL     1      70.694  28.433  59.709  1.00  0.00     0.000 C 
BRANCH   9  10
ATOM     10  C   UNL     1      71.916  29.065  60.404  1.00  0.00     0.006 C 
BRANCH  10  11
ATOM     11  C   UNL     1      72.260  30.477  59.905  1.00  0.00     0.053 C 
BRANCH  11  12
ATOM     12  C   UNL     1      72.318  31.468  61.026  1.00  0.00     0.041 C 
ATOM     13  O   UNL     1      72.865  31.158  62.116  1.00  0.00    -0.550 OA
ATOM     14  O   UNL     1      71.799  32.745  60.857  1.00  0.00    -0.550 OA
ENDBRANCH  11  12
ENDBRANCH  10  11
ENDBRANCH   9  10
ENDBRANCH   8   9
ENDBRANCH   7   8
ENDBRANCH   6   7
ENDBRANCH   5   6
ENDBRANCH   4   5
ENDBRANCH   3   4
ENDBRANCH   2   3
ENDBRANCH   1   2
BRANCH   1  15
ATOM     15  C   UNL     1      61.223  30.845  61.896  1.00  0.00     0.000 C 
BRANCH  15  16
ATOM     16  C   UNL     1      61.039  31.832  60.729  1.00  0.00     0.000 C 
BRANCH  16  17
ATOM     17  C   UNL     1      61.960  33.068  60.771  1.00  0.00     0.000 C 
BRANCH  17  18
ATOM     18  C   UNL     1      63.111  33.025  59.741  1.00  0.00    -0.000 C 
BRANCH  18  19
ATOM     19  C   UNL     1      64.401  33.651  60.298  1.00  0.00    -0.000 C 
BRANCH  19  20
ATOM     20  C   UNL     1      64.157  34.566  61.514  1.00  0.00    -0.000 C 
BRANCH  20  21
ATOM     21  C   UNL     1      64.071  36.067  61.181  1.00  0.00    -0.000 C 
BRANCH  21  22
ATOM     22  C   UNL     1      62.725  36.692  61.588  1.00  0.00    -0.000 C 
BRANCH  22  23
ATOM     23  C   UNL     1      61.745  36.829  60.409  1.00  0.00    -0.000 C 
BRANCH  23  24
ATOM     24  C   UNL     1      62.365  36.607  59.014  1.00  0.00    -0.000 C 
BRANCH  24  25
ATOM     25  C   UNL     1      61.415  36.000  57.965  1.00  0.00    -0.003 C 
ATOM     26  C   UNL     1      60.162  35.374  58.576  1.00  0.00     0.004 C 
ENDBRANCH  24  25
ENDBRANCH  23  24
ENDBRANCH  22  23
ENDBRANCH  21  22
ENDBRANCH  20  21
ENDBRANCH  19  20
ENDBRANCH  18  19
ENDBRANCH  17  18
ENDBRANCH  16  17
ENDBRANCH  15  16
ENDBRANCH   1  15
TORSDOF 22
ENDMDL
MODEL 3
REMARK VINA RESULT:    -2.950      9.324     11.770
REMARK INTER + INTRA:         -11.195
REMARK INTER:                  -6.896
REMARK INTRA:                  -4.299
REMARK UNBOUND:                -4.449
REMARK SMILES CCCCCCCCCCCCCCCCCCCCCCCC(=O)[O-]
REMARK SMILES IDX 13 1 14 2 15 3 16 4 17 5 18 6 19 7 20 8 21 9 22 10 23 11
REMARK SMILES IDX 24 12 25 13 26 14 12 15 11 16 10 17 9 18 8 19 7 20 6 21 5 22
REMARK SMILES IDX 4 23 3 24 2 25 1 26
REMARK H PARENT
REMARK Flexibility Score: inf
ROOT
ATOM      1  C   UNL     1      60.479  29.500  50.488  1.00  0.00     0.000 C 
ENDROOT
BRANCH   1   2
ATOM      2  C   UNL     1      60.442  29.486  52.028  1.00  0.00     0.000 C 
BRANCH   2   3
ATOM      3  C   UNL     1      61.359  28.440  52.687  1.00  0.00     0.000 C 
BRANCH   3   4
ATOM      4  C   UNL     1      62.494  27.979  51.762  1.00  0.00     0.000 C 
BRANCH   4   5
ATOM      5  C   UNL     1      62.644  26.449  51.783  1.00  0.00     0.000 C 
BRANCH   5   6
ATOM      6  C   UNL     1      62.843  25.853  50.381  1.00  0.00     0.000 C 
BRANCH   6   7
ATOM      7  C   UNL     1      63.521  26.830  49.410  1.00  0.00     0.000 C 
BRANCH   7   8
ATOM      8  C   UNL     1      65.011  26.500  49.236  1.00  0.00     0.000 C 
BRANCH   8   9
ATOM      9  C   UNL     1      65.589  27.087  47.930  1.00  0.00     0.000 C 
BRANCH   9  10
ATOM     10  C   UNL     1      64.735  28.223  47.335  1.00  0.00     0.006 C 
BRANCH  10  11
ATOM     11  C   UNL     1      65.298  29.630  47.590  1.00  0.00     0.053 C 
BRANCH  11  12
ATOM     12  C   UNL     1      64.717  30.251  48.822  1.00  0.00     0.041 C 
ATOM     13  O   UNL     1      63.525  30.656  48.823  1.00  0.00    -0.550 OA
ATOM     14  O   UNL     1      65.478  30.354  49.979  1.00  0.00    -0.550 OA
ENDBRANCH  11  12
ENDBRANCH  10  11
ENDBRANCH   9  10
ENDBRANCH   8   9
ENDBRANCH   7   8
ENDBRANCH   6   7
ENDBRANCH   5   6
ENDBRANCH   4   5
ENDBRANCH   3   4
ENDBRANCH   2   3
ENDBRANCH   1   2
BRANCH   1  15
ATOM     15  C   UNL     1      59.301  28.734  49.865  1.00  0.00     0.000 C 
BRANCH  15  16
ATOM     16  C   UNL     1      59.729  27.430  49.169  1.00  0.00     0.000 C 
BRANCH  16  17
ATOM     17  C   UNL     1      58.954  26.173  49.609  1.00  0.00     0.000 C 
BRANCH  17  18
ATOM     18  C   UNL     1      59.171  25.790  51.091  1.00  0.00    -0.000 C 
BRANCH  18  19
ATOM     19  C   UNL     1      57.874  25.913  51.910  1.00  0.00    -0.000 C 
BRANCH  19  20
ATOM     20  C   UNL     1      58.002  26.871  53.110  1.00  0.00    -0.000 C 
BRANCH  20  21
ATOM     21  C   UNL     1      56.760  27.744  53.370  1.00  0.00    -0.000 C 
BRANCH  21  22
ATOM     22  C   UNL     1      56.797  29.078  52.605  1.00  0.00    -0.000 C 
BRANCH  22  23
ATOM     23  C   UNL     1      55.603  29.258  51.651  1.00  0.00    -0.000 C 
BRANCH  23  24
ATOM     24  C   UNL     1      55.656  28.404  50.368  1.00  0.00    -0.000 C 
BRANCH  24  25
ATOM     25  C   UNL     1      54.575  27.311  50.264  1.00  0.00    -0.003 C 
ATOM     26  C   UNL     1      55.063  26.046  49.561  1.00  0.00     0.004 C 
ENDBRANCH  24  25
ENDBRANCH  23  24
ENDBRANCH  22  23
ENDBRANCH  21  22
ENDBRANCH  20  21
ENDBRANCH  19  20
ENDBRANCH  18  19
ENDBRANCH  17  18
ENDBRANCH  16  17
ENDBRANCH  15  16
ENDBRANCH   1  15
TORSDOF 22
ENDMDL
MODEL 4
REMARK VINA RESULT:    -2.944      1.947      3.307
REMARK INTER + INTRA:         -11.179
REMARK INTER:                  -7.438
REMARK INTRA:                  -3.741
REMARK UNBOUND:                -4.449
REMARK SMILES CCCCCCCCCCCCCCCCCCCCCCCC(=O)[O-]
REMARK SMILES IDX 13 1 14 2 15 3 16 4 17 5 18 6 19 7 20 8 21 9 22 10 23 11
REMARK SMILES IDX 24 12 25 13 26 14 12 15 11 16 10 17 9 18 8 19 7 20 6 21 5 22
REMARK SMILES IDX 4 23 3 24 2 25 1 26
REMARK H PARENT
REMARK Flexibility Score: inf
ROOT
ATOM      1  C   UNL     1      61.715  34.338  59.438  1.00  0.00     0.000 C 
ENDROOT
BRANCH   1   2
ATOM      2  C   UNL     1      61.124  32.937  59.685  1.00  0.00     0.000 C 
BRANCH   2   3
ATOM      3  C   UNL     1      61.606  32.252  60.977  1.00  0.00     0.000 C 
BRANCH   3   4
ATOM      4  C   UNL     1      61.389  30.732  60.959  1.00  0.00     0.000 C 
BRANCH   4   5
ATOM      5  C   UNL     1      62.249  30.034  62.025  1.00  0.00     0.000 C 
BRANCH   5   6
ATOM      6  C   UNL     1      63.677  29.742  61.537  1.00  0.00     0.000 C 
BRANCH   6   7
ATOM      7  C   UNL     1      63.890  28.266  61.171  1.00  0.00     0.000 C 
BRANCH   7   8
ATOM      8  C   UNL     1      65.334  28.007  60.717  1.00  0.00     0.000 C 
BRANCH   8   9
ATOM      9  C   UNL     1      66.334  28.990  61.365  1.00  0.00     0.000 C 
BRANCH   9  10
ATOM     10  C   UNL     1      67.725  28.377  61.612  1.00  0.00     0.006 C 
BRANCH  10  11
ATOM     11  C   UNL     1      68.649  28.403  60.385  1.00  0.00     0.053 C 
BRANCH  11  12
ATOM     12  C   UNL     1      69.577  29.579  60.408  1.00  0.00     0.041 C 
ATOM     13  O   UNL     1      69.780  30.244  59.360  1.00  0.00    -0.550 OA
ATOM     14  O   UNL     1      70.194  29.958  61.593  1.00  0.00    -0.550 OA
ENDBRANCH  11  12
ENDBRANCH  10  11
ENDBRANCH   9  10
ENDBRANCH   8   9
ENDBRANCH   7   8
ENDBRANCH   6   7
ENDBRANCH   5   6
ENDBRANCH   4   5
ENDBRANCH   3   4
ENDBRANCH   2   3
ENDBRANCH   1   2
BRANCH   1  15
ATOM     15  C   UNL     1      61.295  35.351  60.515  1.00  0.00     0.000 C 
BRANCH  15  16
ATOM     16  C   UNL     1      62.493  35.998  61.233  1.00  0.00     0.000 C 
BRANCH  16  17
ATOM     17  C   UNL     1      63.752  35.115  61.325  1.00  0.00     0.000 C 
BRANCH  17  18
ATOM     18  C   UNL     1      65.060  35.847  60.946  1.00  0.00    -0.000 C 
BRANCH  18  19
ATOM     19  C   UNL     1      64.872  36.753  59.716  1.00  0.00    -0.000 C 
BRANCH  19  20
ATOM     20  C   UNL     1      64.717  35.966  58.401  1.00  0.00    -0.000 C 
BRANCH  20  21
ATOM     21  C   UNL     1      65.647  34.746  58.268  1.00  0.00    -0.000 C 
BRANCH  21  22
ATOM     22  C   UNL     1      64.903  33.474  57.829  1.00  0.00    -0.000 C 
BRANCH  22  23
ATOM     23  C   UNL     1      64.990  32.338  58.865  1.00  0.00    -0.000 C 
BRANCH  23  24
ATOM     24  C   UNL     1      64.688  30.929  58.317  1.00  0.00    -0.000 C 
BRANCH  24  25
ATOM     25  C   UNL     1      63.341  30.787  57.583  1.00  0.00    -0.003 C 
ATOM     26  C   UNL     1      62.659  29.443  57.829  1.00  0.00     0.004 C 
ENDBRANCH  24  25
ENDBRANCH  23  24
ENDBRANCH  22  23
ENDBRANCH  21  22
ENDBRANCH  20  21
ENDBRANCH  19  20
ENDBRANCH  18  19
ENDBRANCH  17  18
ENDBRANCH  16  17
ENDBRANCH  15  16
ENDBRANCH   1  15
TORSDOF 22
ENDMDL
MODEL 5
REMARK VINA RESULT:    -2.912      8.809     12.369
REMARK INTER + INTRA:         -11.108
REMARK INTER:                  -7.204
REMARK INTRA:                  -3.904
REMARK UNBOUND:                -4.449
REMARK SMILES CCCCCCCCCCCCCCCCCCCCCCCC(=O)[O-]
REMARK SMILES IDX 13 1 14 2 15 3 16 4 17 5 18 6 19 7 20 8 21 9 22 10 23 11
REMARK SMILES IDX 24 12 25 13 26 14 12 15 11 16 10 17 9 18 8 19 7 20 6 21 5 22
REMARK SMILES IDX 4 23 3 24 2 25 1 26
REMARK H PARENT
REMARK Flexibility Score: inf
ROOT
ATOM      1  C   UNL     1      58.469  29.725  51.935  1.00  0.00     0.000 C 
ENDROOT
BRANCH   1   2
ATOM      2  C   UNL     1      57.222  30.170  52.723  1.00  0.00     0.000 C 
BRANCH   2   3
ATOM      3  C   UNL     1      56.022  29.210  52.627  1.00  0.00     0.000 C 
BRANCH   3   4
ATOM      4  C   UNL     1      54.710  29.932  52.285  1.00  0.00     0.000 C 
BRANCH   4   5
ATOM      5  C   UNL     1      53.638  28.940  51.807  1.00  0.00     0.000 C 
BRANCH   5   6
ATOM      6  C   UNL     1      53.129  29.255  50.391  1.00  0.00     0.000 C 
BRANCH   6   7
ATOM      7  C   UNL     1      53.077  28.013  49.488  1.00  0.00     0.000 C 
BRANCH   7   8
ATOM      8  C   UNL     1      53.505  26.751  50.251  1.00  0.00     0.000 C 
BRANCH   8   9
ATOM      9  C   UNL     1      54.597  25.958  49.499  1.00  0.00     0.000 C 
BRANCH   9  10
ATOM     10  C   UNL     1      56.018  26.202  50.043  1.00  0.00     0.006 C 
BRANCH  10  11
ATOM     11  C   UNL     1      56.198  25.822  51.521  1.00  0.00     0.053 C 
BRANCH  11  12
ATOM     12  C   UNL     1      57.633  25.566  51.863  1.00  0.00     0.041 C 
ATOM     13  O   UNL     1      58.294  24.711  51.217  1.00  0.00    -0.550 OA
ATOM     14  O   UNL     1      58.251  26.293  52.871  1.00  0.00    -0.550 OA
ENDBRANCH  11  12
ENDBRANCH  10  11
ENDBRANCH   9  10
ENDBRANCH   8   9
ENDBRANCH   7   8
ENDBRANCH   6   7
ENDBRANCH   5   6
ENDBRANCH   4   5
ENDBRANCH   3   4
ENDBRANCH   2   3
ENDBRANCH   1   2
BRANCH   1  15
ATOM     15  C   UNL     1      58.113  29.065  50.594  1.00  0.00     0.000 C 
BRANCH  15  16
ATOM     16  C   UNL     1      59.276  29.078  49.587  1.00  0.00     0.000 C 
BRANCH  16  17
ATOM     17  C   UNL     1      59.763  27.687  49.136  1.00  0.00     0.000 C 
BRANCH  17  18
ATOM     18  C   UNL     1      60.627  26.955  50.188  1.00  0.00    -0.000 C 
BRANCH  18  19
ATOM     19  C   UNL     1      62.020  26.600  49.637  1.00  0.00    -0.000 C 
BRANCH  19  20
ATOM     20  C   UNL     1      62.708  27.777  48.921  1.00  0.00    -0.000 C 
BRANCH  20  21
ATOM     21  C   UNL     1      63.484  28.730  49.849  1.00  0.00    -0.000 C 
BRANCH  21  22
ATOM     22  C   UNL     1      62.904  30.154  49.863  1.00  0.00    -0.000 C 
BRANCH  22  23
ATOM     23  C   UNL     1      62.184  30.498  51.179  1.00  0.00    -0.000 C 
BRANCH  23  24
ATOM     24  C   UNL     1      62.757  29.814  52.436  1.00  0.00    -0.000 C 
BRANCH  24  25
ATOM     25  C   UNL     1      61.857  28.732  53.061  1.00  0.00    -0.003 C 
ATOM     26  C   UNL     1      62.595  27.426  53.349  1.00  0.00     0.004 C 
ENDBRANCH  24  25
ENDBRANCH  23  24
ENDBRANCH  22  23
ENDBRANCH  21  22
ENDBRANCH  20  21
ENDBRANCH  19  20
ENDBRANCH  18  19
ENDBRANCH  17  18
ENDBRANCH  16  17
ENDBRANCH  15  16
ENDBRANCH   1  15
TORSDOF 22
ENDMDL
MODEL 6
REMARK VINA RESULT:    -2.911      2.374      4.403
REMARK INTER + INTRA:         -11.105
REMARK INTER:                  -7.197
REMARK INTRA:                  -3.907
REMARK UNBOUND:                -4.449
REMARK SMILES CCCCCCCCCCCCCCCCCCCCCCCC(=O)[O-]
REMARK SMILES IDX 13 1 14 2 15 3 16 4 17 5 18 6 19 7 20 8 21 9 22 10 23 11
REMARK SMILES IDX 24 12 25 13 26 14 12 15 11 16 10 17 9 18 8 19 7 20 6 21 5 22
REMARK SMILES IDX 4 23 3 24 2 25 1 26
REMARK H PARENT
REMARK Flexibility Score: inf
ROOT
ATOM      1  C   UNL     1      65.811  31.384  57.708  1.00  0.00     0.000 C 
ENDROOT
BRANCH   1   2
ATOM      2  C   UNL     1      64.701  30.842  58.629  1.00  0.00     0.000 C 
BRANCH   2   3
ATOM      3  C   UNL     1      64.891  31.156  60.124  1.00  0.00     0.000 C 
BRANCH   3   4
ATOM      4  C   UNL     1      63.858  32.160  60.656  1.00  0.00     0.000 C 
BRANCH   4   5
ATOM      5  C   UNL     1      62.515  32.018  59.921  1.00  0.00     0.000 C 
BRANCH   5   6
ATOM      6  C   UNL     1      61.307  32.240  60.844  1.00  0.00     0.000 C 
BRANCH   6   7
ATOM      7  C   UNL     1      61.130  31.114  61.873  1.00  0.00     0.000 C 
BRANCH   7   8
ATOM      8  C   UNL     1      61.382  29.737  61.242  1.00  0.00     0.000 C 
BRANCH   8   9
ATOM      9  C   UNL     1      62.495  28.955  61.974  1.00  0.00     0.000 C 
BRANCH   9  10
ATOM     10  C   UNL     1      63.248  27.964  61.067  1.00  0.00     0.006 C 
BRANCH  10  11
ATOM     11  C   UNL     1      63.296  26.528  61.612  1.00  0.00     0.053 C 
BRANCH  11  12
ATOM     12  C   UNL     1      61.940  26.037  62.017  1.00  0.00     0.041 C 
ATOM     13  O   UNL     1      61.049  25.853  61.147  1.00  0.00    -0.550 OA
ATOM     14  O   UNL     1      61.670  25.753  63.349  1.00  0.00    -0.550 OA
ENDBRANCH  11  12
ENDBRANCH  10  11
ENDBRANCH   9  10
ENDBRANCH   8   9
ENDBRANCH   7   8
ENDBRANCH   6   7
ENDBRANCH   5   6
ENDBRANCH   4   5
ENDBRANCH   3   4
ENDBRANCH   2   3
ENDBRANCH   1   2
BRANCH   1  15
ATOM     15  C   UNL     1      65.361  32.616  56.908  1.00  0.00     0.000 C 
BRANCH  15  16
ATOM     16  C   UNL     1      65.983  33.927  57.419  1.00  0.00     0.000 C 
BRANCH  16  17
ATOM     17  C   UNL     1      65.092  34.741  58.378  1.00  0.00     0.000 C 
BRANCH  17  18
ATOM     18  C   UNL     1      63.623  34.865  57.913  1.00  0.00    -0.000 C 
BRANCH  18  19
ATOM     19  C   UNL     1      63.263  36.312  57.532  1.00  0.00    -0.000 C 
BRANCH  19  20
ATOM     20  C   UNL     1      61.897  36.764  58.083  1.00  0.00    -0.000 C 
BRANCH  20  21
ATOM     21  C   UNL     1      61.053  35.639  58.709  1.00  0.00    -0.000 C 
BRANCH  21  22
ATOM     22  C   UNL     1      60.918  35.773  60.236  1.00  0.00    -0.000 C 
BRANCH  22  23
ATOM     23  C   UNL     1      61.427  37.125  60.768  1.00  0.00    -0.000 C 
BRANCH  23  24
ATOM     24  C   UNL     1      62.749  37.060  61.558  1.00  0.00    -0.000 C 
BRANCH  24  25
ATOM     25  C   UNL     1      63.454  35.690  61.544  1.00  0.00    -0.003 C 
ATOM     26  C   UNL     1      64.920  35.762  61.966  1.00  0.00     0.004 C 
ENDBRANCH  24  25
ENDBRANCH  23  24
ENDBRANCH  22  23
ENDBRANCH  21  22
ENDBRANCH  20  21
ENDBRANCH  19  20
ENDBRANCH  18  19
ENDBRANCH  17  18
ENDBRANCH  16  17
ENDBRANCH  15  16
ENDBRANCH   1  15
TORSDOF 22
ENDMDL
MODEL 7
REMARK VINA RESULT:    -2.865      8.522     12.510
REMARK INTER + INTRA:         -11.000
REMARK INTER:                  -6.496
REMARK INTRA:                  -4.504
REMARK UNBOUND:                -4.449
REMARK SMILES CCCCCCCCCCCCCCCCCCCCCCCC(=O)[O-]
REMARK SMILES IDX 13 1 14 2 15 3 16 4 17 5 18 6 19 7 20 8 21 9 22 10 23 11
REMARK SMILES IDX 24 12 25 13 26 14 12 15 11 16 10 17 9 18 8 19 7 20 6 21 5 22
REMARK SMILES IDX 4 23 3 24 2 25 1 26
REMARK H PARENT
REMARK Flexibility Score: inf
ROOT
ATOM      1  C   UNL     1      54.929  25.834  50.629  1.00  0.00     0.000 C 
ENDROOT
BRANCH   1   2
ATOM      2  C   UNL     1      54.193  25.986  49.284  1.00  0.00     0.000 C 
BRANCH   2   3
ATOM      3  C   UNL     1      53.049  27.017  49.287  1.00  0.00     0.000 C 
BRANCH   3   4
ATOM      4  C   UNL     1      53.079  27.933  50.520  1.00  0.00     0.000 C 
BRANCH   4   5
ATOM      5  C   UNL     1      53.742  29.281  50.195  1.00  0.00     0.000 C 
BRANCH   5   6
ATOM      6  C   UNL     1      53.608  30.299  51.338  1.00  0.00     0.000 C 
BRANCH   6   7
ATOM      7  C   UNL     1      53.967  29.704  52.708  1.00  0.00     0.000 C 
BRANCH   7   8
ATOM      8  C   UNL     1      54.413  30.797  53.691  1.00  0.00     0.000 C 
BRANCH   8   9
ATOM      9  C   UNL     1      55.859  31.269  53.420  1.00  0.00     0.000 C 
BRANCH   9  10
ATOM     10  C   UNL     1      56.890  30.683  54.403  1.00  0.00     0.006 C 
BRANCH  10  11
ATOM     11  C   UNL     1      56.275  29.834  55.526  1.00  0.00     0.053 C 
BRANCH  11  12
ATOM     12  C   UNL     1      56.578  28.377  55.357  1.00  0.00     0.041 C 
ATOM     13  O   UNL     1      55.641  27.540  55.292  1.00  0.00    -0.550 OA
ATOM     14  O   UNL     1      57.893  27.947  55.239  1.00  0.00    -0.550 OA
ENDBRANCH  11  12
ENDBRANCH  10  11
ENDBRANCH   9  10
ENDBRANCH   8   9
ENDBRANCH   7   8
ENDBRANCH   6   7
ENDBRANCH   5   6
ENDBRANCH   4   5
ENDBRANCH   3   4
ENDBRANCH   2   3
ENDBRANCH   1   2
BRANCH   1  15
ATOM     15  C   UNL     1      56.427  26.161  50.519  1.00  0.00     0.000 C 
BRANCH  15  16
ATOM     16  C   UNL     1      56.975  26.896  51.755  1.00  0.00     0.000 C 
BRANCH  16  17
ATOM     17  C   UNL     1      57.193  28.411  51.569  1.00  0.00     0.000 C 
BRANCH  17  18
ATOM     18  C   UNL     1      57.512  28.823  50.113  1.00  0.00    -0.000 C 
BRANCH  18  19
ATOM     19  C   UNL     1      59.016  29.069  49.905  1.00  0.00    -0.000 C 
BRANCH  19  20
ATOM     20  C   UNL     1      59.659  28.091  48.902  1.00  0.00    -0.000 C 
BRANCH  20  21
ATOM     21  C   UNL     1      59.864  26.662  49.439  1.00  0.00    -0.000 C 
BRANCH  21  22
ATOM     22  C   UNL     1      61.026  26.563  50.442  1.00  0.00    -0.000 C 
BRANCH  22  23
ATOM     23  C   UNL     1      60.609  25.938  51.786  1.00  0.00    -0.000 C 
BRANCH  23  24
ATOM     24  C   UNL     1      60.418  26.941  52.941  1.00  0.00    -0.000 C 
BRANCH  24  25
ATOM     25  C   UNL     1      61.187  28.267  52.792  1.00  0.00    -0.003 C 
ATOM     26  C   UNL     1      60.396  29.481  53.275  1.00  0.00     0.004 C 
ENDBRANCH  24  25
ENDBRANCH  23  24
ENDBRANCH  22  23
ENDBRANCH  21  22
ENDBRANCH  20  21
ENDBRANCH  19  20
ENDBRANCH  18  19
ENDBRANCH  17  18
ENDBRANCH  16  17
ENDBRANCH  15  16
ENDBRANCH   1  15
TORSDOF 22
ENDMDL
MODEL 8
REMARK VINA RESULT:    -2.831      9.299     12.008
REMARK INTER + INTRA:         -10.922
REMARK INTER:                  -6.084
REMARK INTRA:                  -4.838
REMARK UNBOUND:                -4.449
REMARK SMILES CCCCCCCCCCCCCCCCCCCCCCCC(=O)[O-]
REMARK SMILES IDX 13 1 14 2 15 3 16 4 17 5 18 6 19 7 20 8 21 9 22 10 23 11
REMARK SMILES IDX 24 12 25 13 26 14 12 15 11 16 10 17 9 18 8 19 7 20 6 21 5 22
REMARK SMILES IDX 4 23 3 24 2 25 1 26
REMARK H PARENT
REMARK Flexibility Score: inf
ROOT
ATOM      1  C   UNL     1      58.211  28.933  53.830  1.00  0.00     0.000 C 
ENDROOT
BRANCH   1   2
ATOM      2  C   UNL     1      57.454  28.965  52.488  1.00  0.00     0.000 C 
BRANCH   2   3
ATOM      3  C   UNL     1      58.232  29.602  51.323  1.00  0.00     0.000 C 
BRANCH   3   4
ATOM      4  C   UNL     1      58.004  28.874  49.990  1.00  0.00     0.000 C 
BRANCH   4   5
ATOM      5  C   UNL     1      59.338  28.545  49.300  1.00  0.00     0.000 C 
BRANCH   5   6
ATOM      6  C   UNL     1      59.635  27.038  49.272  1.00  0.00     0.000 C 
BRANCH   6   7
ATOM      7  C   UNL     1      58.417  26.184  49.654  1.00  0.00     0.000 C 
BRANCH   7   8
ATOM      8  C   UNL     1      58.754  25.210  50.792  1.00  0.00     0.000 C 
BRANCH   8   9
ATOM      9  C   UNL     1      59.456  25.915  51.974  1.00  0.00     0.000 C 
BRANCH   9  10
ATOM     10  C   UNL     1      59.240  25.210  53.326  1.00  0.00     0.006 C 
BRANCH  10  11
ATOM     11  C   UNL     1      58.379  23.941  53.242  1.00  0.00     0.053 C 
BRANCH  11  12
ATOM     12  C   UNL     1      57.968  23.452  54.596  1.00  0.00     0.041 C 
ATOM     13  O   UNL     1      57.953  22.218  54.844  1.00  0.00    -0.550 OA
ATOM     14  O   UNL     1      57.632  24.357  55.593  1.00  0.00    -0.550 OA
ENDBRANCH  11  12
ENDBRANCH  10  11
ENDBRANCH   9  10
ENDBRANCH   8   9
ENDBRANCH   7   8
ENDBRANCH   6   7
ENDBRANCH   5   6
ENDBRANCH   4   5
ENDBRANCH   3   4
ENDBRANCH   2   3
ENDBRANCH   1   2
BRANCH   1  15
ATOM     15  C   UNL     1      57.481  28.103  54.897  1.00  0.00     0.000 C 
BRANCH  15  16
ATOM     16  C   UNL     1      55.949  28.150  54.754  1.00  0.00     0.000 C 
BRANCH  16  17
ATOM     17  C   UNL     1      55.263  26.774  54.645  1.00  0.00     0.000 C 
BRANCH  17  18
ATOM     18  C   UNL     1      54.548  26.536  53.296  1.00  0.00    -0.000 C 
BRANCH  18  19
ATOM     19  C   UNL     1      55.518  26.025  52.216  1.00  0.00    -0.000 C 
BRANCH  19  20
ATOM     20  C   UNL     1      54.846  25.814  50.846  1.00  0.00    -0.000 C 
BRANCH  20  21
ATOM     21  C   UNL     1      54.796  27.069  49.955  1.00  0.00    -0.000 C 
BRANCH  21  22
ATOM     22  C   UNL     1      53.360  27.502  49.614  1.00  0.00    -0.000 C 
BRANCH  22  23
ATOM     23  C   UNL     1      53.050  28.948  50.042  1.00  0.00    -0.000 C 
BRANCH  23  24
ATOM     24  C   UNL     1      54.148  29.631  50.883  1.00  0.00    -0.000 C 
BRANCH  24  25
ATOM     25  C   UNL     1      53.743  29.982  52.327  1.00  0.00    -0.003 C 
ATOM     26  C   UNL     1      54.566  31.122  52.924  1.00  0.00     0.004 C 
ENDBRANCH  24  25
ENDBRANCH  23  24
ENDBRANCH  22  23
ENDBRANCH  21  22
ENDBRANCH  20  21
ENDBRANCH  19  20
ENDBRANCH  18  19
ENDBRANCH  17  18
ENDBRANCH  16  17
ENDBRANCH  15  16
ENDBRANCH   1  15
TORSDOF 22
ENDMDL
MODEL 9
REMARK VINA RESULT:    -2.815      3.293      7.174
REMARK INTER + INTRA:         -10.884
REMARK INTER:                  -6.275
REMARK INTRA:                  -4.609
REMARK UNBOUND:                -4.449
REMARK SMILES CCCCCCCCCCCCCCCCCCCCCCCC(=O)[O-]
REMARK SMILES IDX 13 1 14 2 15 3 16 4 17 5 18 6 19 7 20 8 21 9 22 10 23 11
REMARK SMILES IDX 24 12 25 13 26 14 12 15 11 16 10 17 9 18 8 19 7 20 6 21 5 22
REMARK SMILES IDX 4 23 3 24 2 25 1 26
REMARK H PARENT
REMARK Flexibility Score: inf
ROOT
ATOM      1  C   UNL     1      64.248  30.135  57.226  1.00  0.00     0.000 C 
ENDROOT
BRANCH   1   2
ATOM      2  C   UNL     1      65.450  30.584  58.079  1.00  0.00     0.000 C 
BRANCH   2   3
ATOM      3  C   UNL     1      65.193  31.825  58.953  1.00  0.00     0.000 C 
BRANCH   3   4
ATOM      4  C   UNL     1      65.026  33.109  58.127  1.00  0.00     0.000 C 
BRANCH   4   5
ATOM      5  C   UNL     1      64.385  34.229  58.963  1.00  0.00     0.000 C 
BRANCH   5   6
ATOM      6  C   UNL     1      64.429  33.942  60.472  1.00  0.00     0.000 C 
BRANCH   6   7
ATOM      7  C   UNL     1      63.709  35.015  61.302  1.00  0.00     0.000 C 
BRANCH   7   8
ATOM      8  C   UNL     1      62.936  35.990  60.402  1.00  0.00     0.000 C 
BRANCH   8   9
ATOM      9  C   UNL     1      61.516  36.278  60.939  1.00  0.00     0.000 C 
BRANCH   9  10
ATOM     10  C   UNL     1      60.429  36.248  59.848  1.00  0.00     0.006 C 
BRANCH  10  11
ATOM     11  C   UNL     1      60.950  35.869  58.453  1.00  0.00     0.053 C 
BRANCH  11  12
ATOM     12  C   UNL     1      59.833  35.579  57.498  1.00  0.00     0.041 C 
ATOM     13  O   UNL     1      59.911  35.959  56.301  1.00  0.00    -0.550 OA
ATOM     14  O   UNL     1      58.722  34.861  57.921  1.00  0.00    -0.550 OA
ENDBRANCH  11  12
ENDBRANCH  10  11
ENDBRANCH   9  10
ENDBRANCH   8   9
ENDBRANCH   7   8
ENDBRANCH   6   7
ENDBRANCH   5   6
ENDBRANCH   4   5
ENDBRANCH   3   4
ENDBRANCH   2   3
ENDBRANCH   1   2
BRANCH   1  15
ATOM     15  C   UNL     1      62.943  30.073  58.036  1.00  0.00     0.000 C 
BRANCH  15  16
ATOM     16  C   UNL     1      61.786  30.841  57.374  1.00  0.00     0.000 C 
BRANCH  16  17
ATOM     17  C   UNL     1      61.408  32.169  58.060  1.00  0.00     0.000 C 
BRANCH  17  18
ATOM     18  C   UNL     1      60.416  32.006  59.234  1.00  0.00    -0.000 C 
BRANCH  18  19
ATOM     19  C   UNL     1      60.972  32.601  60.540  1.00  0.00    -0.000 C 
BRANCH  19  20
ATOM     20  C   UNL     1      62.006  31.691  61.230  1.00  0.00    -0.000 C 
BRANCH  20  21
ATOM     21  C   UNL     1      61.431  30.382  61.801  1.00  0.00    -0.000 C 
BRANCH  21  22
ATOM     22  C   UNL     1      62.387  29.188  61.637  1.00  0.00    -0.000 C 
BRANCH  22  23
ATOM     23  C   UNL     1      63.867  29.607  61.582  1.00  0.00    -0.000 C 
BRANCH  23  24
ATOM     24  C   UNL     1      64.845  28.496  61.146  1.00  0.00    -0.000 C 
BRANCH  24  25
ATOM     25  C   UNL     1      66.337  28.872  61.218  1.00  0.00    -0.003 C 
ATOM     26  C   UNL     1      67.252  27.834  60.570  1.00  0.00     0.004 C 
ENDBRANCH  24  25
ENDBRANCH  23  24
ENDBRANCH  22  23
ENDBRANCH  21  22
ENDBRANCH  20  21
ENDBRANCH  19  20
ENDBRANCH  18  19
ENDBRANCH  17  18
ENDBRANCH  16  17
ENDBRANCH  15  16
ENDBRANCH   1  15
TORSDOF 22
ENDMDL
