MODEL 1
REMARK VINA RESULT:    -3.317      0.000      0.000
REMARK INTER + INTRA:          -4.005
REMARK INTER:                  -3.996
REMARK INTRA:                  -0.009
REMARK UNBOUND:                -0.009
REMARK SMILES CCCCCO
REMARK SMILES IDX 4 1 3 2 2 3 1 4 5 5 6 6
REMARK H PARENT 6 7
REMARK Flexibility Score: inf
ROOT
ATOM      1  C   UNL     1       7.994 -23.534  55.936  1.00  0.00     0.028 C 
ENDROOT
BRANCH   1   2
ATOM      2  C   UNL     1       8.742 -22.220  56.224  1.00  0.00     0.002 C 
BRANCH   2   3
ATOM      3  C   UNL     1       7.808 -21.110  56.731  1.00  0.00    -0.003 C 
ATOM      4  C   UNL     1       8.497 -20.157  57.706  1.00  0.00     0.004 C 
ENDBRANCH   2   3
ENDBRANCH   1   2
BRANCH   1   5
ATOM      5  C   UNL     1       8.720 -24.378  54.888  1.00  0.00     0.156 C 
BRANCH   5   6
ATOM      6  O   UNL     1       9.803 -25.048  55.471  1.00  0.00    -0.396 OA
ATOM      7  H   UNL     1      10.619 -24.593  55.138  1.00  0.00     0.210 HD
ENDBRANCH   5   6
ENDBRANCH   1   5
TORSDOF 4
ENDMDL
MODEL 2
REMARK VINA RESULT:    -3.195      2.898      5.493
REMARK INTER + INTRA:          -3.858
REMARK INTER:                  -3.832
REMARK INTRA:                  -0.026
REMARK UNBOUND:                -0.009
REMARK SMILES CCCCCO
REMARK SMILES IDX 4 1 3 2 2 3 1 4 5 5 6 6
REMARK H PARENT 6 7
REMARK Flexibility Score: inf
ROOT
ATOM      1  C   UNL     1       8.264 -24.724  53.725  1.00  0.00     0.028 C 
ENDROOT
BRANCH   1   2
ATOM      2  C   UNL     1       8.278 -26.219  53.363  1.00  0.00     0.002 C 
BRANCH   2   3
ATOM      3  C   UNL     1       8.222 -26.457  51.846  1.00  0.00    -0.003 C 
ATOM      4  C   UNL     1       8.917 -27.751  51.424  1.00  0.00     0.004 C 
ENDBRANCH   2   3
ENDBRANCH   1   2
BRANCH   1   5
ATOM      5  C   UNL     1       8.965 -24.460  55.058  1.00  0.00     0.156 C 
BRANCH   5   6
ATOM      6  O   UNL     1       9.911 -25.461  55.314  1.00  0.00    -0.396 OA
ATOM      7  H   UNL     1       9.404 -26.229  55.685  1.00  0.00     0.210 HD
ENDBRANCH   5   6
ENDBRANCH   1   5
TORSDOF 4
ENDMDL
MODEL 3
REMARK VINA RESULT:    -3.165      0.717      1.219
REMARK INTER + INTRA:          -3.822
REMARK INTER:                  -3.795
REMARK INTRA:                  -0.027
REMARK UNBOUND:                -0.009
REMARK SMILES CCCCCO
REMARK SMILES IDX 4 1 3 2 2 3 1 4 5 5 6 6
REMARK H PARENT 6 7
REMARK Flexibility Score: inf
ROOT
ATOM      1  C   UNL     1       8.124 -23.860  54.595  1.00  0.00     0.028 C 
ENDROOT
BRANCH   1   2
ATOM      2  C   UNL     1       8.116 -23.437  56.074  1.00  0.00     0.002 C 
BRANCH   2   3
ATOM      3  C   UNL     1       8.750 -22.055  56.295  1.00  0.00    -0.003 C 
ATOM      4  C   UNL     1       7.735 -21.002  56.735  1.00  0.00     0.004 C 
ENDBRANCH   2   3
ENDBRANCH   1   2
BRANCH   1   5
ATOM      5  C   UNL     1       9.065 -25.041  54.351  1.00  0.00     0.156 C 
BRANCH   5   6
ATOM      6  O   UNL     1       9.904 -25.227  55.457  1.00  0.00    -0.396 OA
ATOM      7  H   UNL     1      10.786 -24.854  55.197  1.00  0.00     0.210 HD
ENDBRANCH   5   6
ENDBRANCH   1   5
TORSDOF 4
ENDMDL
MODEL 4
REMARK VINA RESULT:    -3.087      4.359      6.071
REMARK INTER + INTRA:          -3.727
REMARK INTER:                  -3.677
REMARK INTRA:                  -0.050
REMARK UNBOUND:                -0.009
REMARK SMILES CCCCCO
REMARK SMILES IDX 4 1 3 2 2 3 1 4 5 5 6 6
REMARK H PARENT 6 7
REMARK Flexibility Score: inf
ROOT
ATOM      1  C   UNL     1       8.412 -25.695  53.526  1.00  0.00     0.028 C 
ENDROOT
BRANCH   1   2
ATOM      2  C   UNL     1       8.237 -26.091  52.050  1.00  0.00     0.002 C 
BRANCH   2   3
ATOM      3  C   UNL     1       8.945 -27.410  51.706  1.00  0.00    -0.003 C 
ATOM      4  C   UNL     1       9.769 -27.322  50.422  1.00  0.00     0.004 C 
ENDBRANCH   2   3
ENDBRANCH   1   2
BRANCH   1   5
ATOM      5  C   UNL     1       9.688 -26.291  54.122  1.00  0.00     0.156 C 
BRANCH   5   6
ATOM      6  O   UNL     1      10.044 -25.602  55.289  1.00  0.00    -0.396 OA
ATOM      7  H   UNL     1      10.687 -26.188  55.767  1.00  0.00     0.210 HD
ENDBRANCH   5   6
ENDBRANCH   1   5
TORSDOF 4
ENDMDL
MODEL 5
REMARK VINA RESULT:    -2.996      2.313      4.008
REMARK INTER + INTRA:          -3.618
REMARK INTER:                  -3.603
REMARK INTRA:                  -0.015
REMARK UNBOUND:                -0.009
REMARK SMILES CCCCCO
REMARK SMILES IDX 4 1 3 2 2 3 1 4 5 5 6 6
REMARK H PARENT 6 7
REMARK Flexibility Score: inf
ROOT
ATOM      1  C   UNL     1       7.779 -21.075  56.788  1.00  0.00     0.028 C 
ENDROOT
BRANCH   1   2
ATOM      2  C   UNL     1       8.758 -22.211  56.445  1.00  0.00     0.002 C 
BRANCH   2   3
ATOM      3  C   UNL     1       8.037 -23.510  56.052  1.00  0.00    -0.003 C 
ATOM      4  C   UNL     1       8.862 -24.382  55.106  1.00  0.00     0.004 C 
ENDBRANCH   2   3
ENDBRANCH   1   2
BRANCH   1   5
ATOM      5  C   UNL     1       8.496 -19.888  57.431  1.00  0.00     0.156 C 
BRANCH   5   6
ATOM      6  O   UNL     1       9.281 -20.322  58.507  1.00  0.00    -0.396 OA
ATOM      7  H   UNL     1      10.224 -20.175  58.236  1.00  0.00     0.210 HD
ENDBRANCH   5   6
ENDBRANCH   1   5
TORSDOF 4
ENDMDL
MODEL 6
REMARK VINA RESULT:    -2.884      3.727      5.345
REMARK INTER + INTRA:          -3.484
REMARK INTER:                  -3.458
REMARK INTRA:                  -0.025
REMARK UNBOUND:                -0.009
REMARK SMILES CCCCCO
REMARK SMILES IDX 4 1 3 2 2 3 1 4 5 5 6 6
REMARK H PARENT 6 7
REMARK Flexibility Score: inf
ROOT
ATOM      1  C   UNL     1       8.445 -24.080  52.597  1.00  0.00     0.028 C 
ENDROOT
BRANCH   1   2
ATOM      2  C   UNL     1       8.296 -25.102  53.736  1.00  0.00     0.002 C 
BRANCH   2   3
ATOM      3  C   UNL     1       8.676 -26.527  53.303  1.00  0.00    -0.003 C 
ATOM      4  C   UNL     1       8.245 -26.845  51.872  1.00  0.00     0.004 C 
ENDBRANCH   2   3
ENDBRANCH   1   2
BRANCH   1   5
ATOM      5  C   UNL     1       7.937 -22.698  53.008  1.00  0.00     0.156 C 
BRANCH   5   6
ATOM      6  O   UNL     1       6.735 -22.816  53.719  1.00  0.00    -0.396 OA
ATOM      7  H   UNL     1       6.011 -22.774  53.042  1.00  0.00     0.210 HD
ENDBRANCH   5   6
ENDBRANCH   1   5
TORSDOF 4
ENDMDL
MODEL 7
REMARK VINA RESULT:    -2.849      3.107      3.923
REMARK INTER + INTRA:          -3.441
REMARK INTER:                  -3.367
REMARK INTRA:                  -0.074
REMARK UNBOUND:                -0.009
REMARK SMILES CCCCCO
REMARK SMILES IDX 4 1 3 2 2 3 1 4 5 5 6 6
REMARK H PARENT 6 7
REMARK Flexibility Score: inf
ROOT
ATOM      1  C   UNL     1       8.265 -25.316  53.777  1.00  0.00     0.028 C 
ENDROOT
BRANCH   1   2
ATOM      2  C   UNL     1       8.731 -24.809  52.401  1.00  0.00     0.002 C 
BRANCH   2   3
ATOM      3  C   UNL     1       9.349 -23.404  52.470  1.00  0.00    -0.003 C 
ATOM      4  C   UNL     1       8.378 -22.308  52.036  1.00  0.00     0.004 C 
ENDBRANCH   2   3
ENDBRANCH   1   2
BRANCH   1   5
ATOM      5  C   UNL     1       9.060 -24.673  54.914  1.00  0.00     0.156 C 
BRANCH   5   6
ATOM      6  O   UNL     1      10.102 -25.519  55.314  1.00  0.00    -0.396 OA
ATOM      7  H   UNL     1      10.909 -24.945  55.385  1.00  0.00     0.210 HD
ENDBRANCH   5   6
ENDBRANCH   1   5
TORSDOF 4
ENDMDL
MODEL 8
REMARK VINA RESULT:    -2.838      2.202      4.602
REMARK INTER + INTRA:          -3.428
REMARK INTER:                  -3.418
REMARK INTRA:                  -0.010
REMARK UNBOUND:                -0.009
REMARK SMILES CCCCCO
REMARK SMILES IDX 4 1 3 2 2 3 1 4 5 5 6 6
REMARK H PARENT 6 7
REMARK Flexibility Score: inf
ROOT
ATOM      1  C   UNL     1       8.776 -24.033  55.166  1.00  0.00     0.028 C 
ENDROOT
BRANCH   1   2
ATOM      2  C   UNL     1       8.707 -24.362  53.665  1.00  0.00     0.002 C 
BRANCH   2   3
ATOM      3  C   UNL     1       8.275 -25.812  53.400  1.00  0.00    -0.003 C 
ATOM      4  C   UNL     1       8.151 -26.130  51.910  1.00  0.00     0.004 C 
ENDBRANCH   2   3
ENDBRANCH   1   2
BRANCH   1   5
ATOM      5  C   UNL     1       9.317 -22.623  55.410  1.00  0.00     0.156 C 
BRANCH   5   6
ATOM      6  O   UNL     1       9.818 -22.517  56.714  1.00  0.00    -0.396 OA
ATOM      7  H   UNL     1      10.804 -22.450  56.625  1.00  0.00     0.210 HD
ENDBRANCH   5   6
ENDBRANCH   1   5
TORSDOF 4
ENDMDL
