MODEL 1
REMARK VINA RESULT:    -4.344      0.000      0.000
REMARK INTER + INTRA:          -6.677
REMARK INTER:                  -6.122
REMARK INTRA:                  -0.555
REMARK UNBOUND:                -0.555
REMARK SMILES CCCCCCCCC(=O)[O-]
REMARK SMILES IDX 6 1 7 2 8 3 9 4 10 5 11 6 5 7 4 8 3 9 2 10 1 11
REMARK H PARENT
REMARK Flexibility Score: inf
ROOT
ATOM      1  C   UNL     1      11.193 -15.014  15.783  1.00  0.00     0.000 C 
ENDROOT
BRANCH   1   2
ATOM      2  C   UNL     1      11.335 -15.253  14.270  1.00  0.00     0.006 C 
BRANCH   2   3
ATOM      3  C   UNL     1      11.808 -16.677  13.951  1.00  0.00     0.053 C 
BRANCH   3   4
ATOM      4  C   UNL     1      13.221 -16.906  14.396  1.00  0.00     0.041 C 
ATOM      5  O   UNL     1      14.147 -16.167  13.972  1.00  0.00    -0.550 OA
ATOM      6  O   UNL     1      13.517 -17.955  15.257  1.00  0.00    -0.550 OA
ENDBRANCH   3   4
ENDBRANCH   2   3
ENDBRANCH   1   2
BRANCH   1   7
ATOM      7  C   UNL     1      11.869 -13.713  16.243  1.00  0.00     0.000 C 
BRANCH   7   8
ATOM      8  C   UNL     1      12.833 -13.139  15.193  1.00  0.00    -0.000 C 
BRANCH   8   9
ATOM      9  C   UNL     1      12.677 -11.615  15.081  1.00  0.00    -0.000 C 
BRANCH   9  10
ATOM     10  C   UNL     1      11.230 -11.151  15.308  1.00  0.00    -0.003 C 
ATOM     11  C   UNL     1      11.095  -9.628  15.334  1.00  0.00     0.004 C 
ENDBRANCH   9  10
ENDBRANCH   8   9
ENDBRANCH   7   8
ENDBRANCH   1   7
TORSDOF 7
ENDMDL
MODEL 2
REMARK VINA RESULT:    -4.187      3.409      5.717
REMARK INTER + INTRA:          -6.455
REMARK INTER:                  -6.154
REMARK INTRA:                  -0.300
REMARK UNBOUND:                -0.555
REMARK SMILES CCCCCCCCC(=O)[O-]
REMARK SMILES IDX 6 1 7 2 8 3 9 4 10 5 11 6 5 7 4 8 3 9 2 10 1 11
REMARK H PARENT
REMARK Flexibility Score: inf
ROOT
ATOM      1  C   UNL     1      11.827 -13.719  16.528  1.00  0.00     0.000 C 
ENDROOT
BRANCH   1   2
ATOM      2  C   UNL     1      11.312 -12.466  15.800  1.00  0.00     0.006 C 
BRANCH   2   3
ATOM      3  C   UNL     1      12.448 -11.678  15.133  1.00  0.00     0.053 C 
BRANCH   3   4
ATOM      4  C   UNL     1      12.200 -10.200  15.178  1.00  0.00     0.041 C 
ATOM      5  O   UNL     1      13.169  -9.396  15.186  1.00  0.00    -0.550 OA
ATOM      6  O   UNL     1      10.901  -9.715  15.241  1.00  0.00    -0.550 OA
ENDBRANCH   3   4
ENDBRANCH   2   3
ENDBRANCH   1   2
BRANCH   1   7
ATOM      7  C   UNL     1      11.274 -15.021  15.928  1.00  0.00     0.000 C 
BRANCH   7   8
ATOM      8  C   UNL     1      11.572 -15.159  14.427  1.00  0.00    -0.000 C 
BRANCH   8   9
ATOM      9  C   UNL     1      11.737 -16.634  14.034  1.00  0.00    -0.000 C 
BRANCH   9  10
ATOM     10  C   UNL     1      13.211 -17.054  13.921  1.00  0.00    -0.003 C 
ATOM     11  C   UNL     1      13.701 -17.829  15.144  1.00  0.00     0.004 C 
ENDBRANCH   9  10
ENDBRANCH   8   9
ENDBRANCH   7   8
ENDBRANCH   1   7
TORSDOF 7
ENDMDL
MODEL 3
REMARK VINA RESULT:    -4.132      1.342      2.025
REMARK INTER + INTRA:          -6.377
REMARK INTER:                  -5.723
REMARK INTRA:                  -0.654
REMARK UNBOUND:                -0.555
REMARK SMILES CCCCCCCCC(=O)[O-]
REMARK SMILES IDX 6 1 7 2 8 3 9 4 10 5 11 6 5 7 4 8 3 9 2 10 1 11
REMARK H PARENT
REMARK Flexibility Score: inf
ROOT
ATOM      1  C   UNL     1      11.403 -15.157  14.169  1.00  0.00     0.000 C 
ENDROOT
BRANCH   1   2
ATOM      2  C   UNL     1      12.718 -15.867  13.805  1.00  0.00     0.006 C 
BRANCH   2   3
ATOM      3  C   UNL     1      12.868 -17.213  14.527  1.00  0.00     0.053 C 
BRANCH   3   4
ATOM      4  C   UNL     1      14.119 -17.266  15.351  1.00  0.00     0.041 C 
ATOM      5  O   UNL     1      15.039 -18.073  15.054  1.00  0.00    -0.550 OA
ATOM      6  O   UNL     1      14.256 -16.444  16.461  1.00  0.00    -0.550 OA
ENDBRANCH   3   4
ENDBRANCH   2   3
ENDBRANCH   1   2
BRANCH   1   7
ATOM      7  C   UNL     1      11.164 -15.094  15.686  1.00  0.00     0.000 C 
BRANCH   7   8
ATOM      8  C   UNL     1      11.713 -13.808  16.323  1.00  0.00    -0.000 C 
BRANCH   8   9
ATOM      9  C   UNL     1      11.347 -12.579  15.478  1.00  0.00    -0.000 C 
BRANCH   9  10
ATOM     10  C   UNL     1      12.560 -11.685  15.179  1.00  0.00    -0.003 C 
ATOM     11  C   UNL     1      13.862 -12.477  15.052  1.00  0.00     0.004 C 
ENDBRANCH   9  10
ENDBRANCH   8   9
ENDBRANCH   7   8
ENDBRANCH   1   7
TORSDOF 7
ENDMDL
MODEL 4
REMARK VINA RESULT:    -4.123      2.854      5.234
REMARK INTER + INTRA:          -6.365
REMARK INTER:                  -5.894
REMARK INTRA:                  -0.470
REMARK UNBOUND:                -0.555
REMARK SMILES CCCCCCCCC(=O)[O-]
REMARK SMILES IDX 6 1 7 2 8 3 9 4 10 5 11 6 5 7 4 8 3 9 2 10 1 11
REMARK H PARENT
REMARK Flexibility Score: inf
ROOT
ATOM      1  C   UNL     1      11.486 -16.214  13.414  1.00  0.00     0.000 C 
ENDROOT
BRANCH   1   2
ATOM      2  C   UNL     1      11.413 -14.909  14.224  1.00  0.00     0.006 C 
BRANCH   2   3
ATOM      3  C   UNL     1      11.183 -15.167  15.719  1.00  0.00     0.053 C 
BRANCH   3   4
ATOM      4  C   UNL     1      11.583 -13.989  16.555  1.00  0.00     0.041 C 
ATOM      5  O   UNL     1      11.341 -12.819  16.158  1.00  0.00    -0.550 OA
ATOM      6  O   UNL     1      12.249 -14.184  17.758  1.00  0.00    -0.550 OA
ENDBRANCH   3   4
ENDBRANCH   2   3
ENDBRANCH   1   2
BRANCH   1   7
ATOM      7  C   UNL     1      12.743 -16.296  12.535  1.00  0.00     0.000 C 
BRANCH   7   8
ATOM      8  C   UNL     1      13.680 -17.445  12.938  1.00  0.00    -0.000 C 
BRANCH   8   9
ATOM      9  C   UNL     1      13.383 -17.916  14.370  1.00  0.00    -0.000 C 
BRANCH   9  10
ATOM     10  C   UNL     1      14.587 -17.743  15.310  1.00  0.00    -0.003 C 
ATOM     11  C   UNL     1      15.893 -17.493  14.557  1.00  0.00     0.004 C 
ENDBRANCH   9  10
ENDBRANCH   8   9
ENDBRANCH   7   8
ENDBRANCH   1   7
TORSDOF 7
ENDMDL
MODEL 5
REMARK VINA RESULT:    -4.030      2.664      5.292
REMARK INTER + INTRA:          -6.234
REMARK INTER:                  -5.712
REMARK INTRA:                  -0.522
REMARK UNBOUND:                -0.555
REMARK SMILES CCCCCCCCC(=O)[O-]
REMARK SMILES IDX 6 1 7 2 8 3 9 4 10 5 11 6 5 7 4 8 3 9 2 10 1 11
REMARK H PARENT
REMARK Flexibility Score: inf
ROOT
ATOM      1  C   UNL     1      11.305 -15.667  14.791  1.00  0.00     0.000 C 
ENDROOT
BRANCH   1   2
ATOM      2  C   UNL     1      11.411 -14.496  15.783  1.00  0.00     0.006 C 
BRANCH   2   3
ATOM      3  C   UNL     1      12.752 -13.759  15.665  1.00  0.00     0.053 C 
BRANCH   3   4
ATOM      4  C   UNL     1      12.575 -12.366  15.138  1.00  0.00     0.041 C 
ATOM      5  O   UNL     1      13.571 -11.712  14.730  1.00  0.00    -0.550 OA
ATOM      6  O   UNL     1      11.315 -11.783  15.124  1.00  0.00    -0.550 OA
ENDBRANCH   3   4
ENDBRANCH   2   3
ENDBRANCH   1   2
BRANCH   1   7
ATOM      7  C   UNL     1      12.428 -15.659  13.743  1.00  0.00     0.000 C 
BRANCH   7   8
ATOM      8  C   UNL     1      13.153 -17.010  13.637  1.00  0.00    -0.000 C 
BRANCH   8   9
ATOM      9  C   UNL     1      13.278 -17.675  15.016  1.00  0.00    -0.000 C 
BRANCH   9  10
ATOM     10  C   UNL     1      14.730 -17.735  15.513  1.00  0.00    -0.003 C 
ATOM     11  C   UNL     1      15.749 -17.562  14.387  1.00  0.00     0.004 C 
ENDBRANCH   9  10
ENDBRANCH   8   9
ENDBRANCH   7   8
ENDBRANCH   1   7
TORSDOF 7
ENDMDL
MODEL 6
REMARK VINA RESULT:    -4.023      2.851      3.717
REMARK INTER + INTRA:          -6.225
REMARK INTER:                  -5.432
REMARK INTRA:                  -0.792
REMARK UNBOUND:                -0.555
REMARK SMILES CCCCCCCCC(=O)[O-]
REMARK SMILES IDX 6 1 7 2 8 3 9 4 10 5 11 6 5 7 4 8 3 9 2 10 1 11
REMARK H PARENT
REMARK Flexibility Score: inf
ROOT
ATOM      1  C   UNL     1      13.925 -16.984  15.897  1.00  0.00     0.000 C 
ENDROOT
BRANCH   1   2
ATOM      2  C   UNL     1      13.751 -17.786  14.597  1.00  0.00     0.006 C 
BRANCH   2   3
ATOM      3  C   UNL     1      14.819 -17.434  13.552  1.00  0.00     0.053 C 
BRANCH   3   4
ATOM      4  C   UNL     1      14.208 -16.906  12.289  1.00  0.00     0.041 C 
ATOM      5  O   UNL     1      13.616 -17.685  11.498  1.00  0.00    -0.550 OA
ATOM      6  O   UNL     1      14.320 -15.558  11.974  1.00  0.00    -0.550 OA
ENDBRANCH   3   4
ENDBRANCH   2   3
ENDBRANCH   1   2
BRANCH   1   7
ATOM      7  C   UNL     1      13.599 -15.493  15.721  1.00  0.00     0.000 C 
BRANCH   7   8
ATOM      8  C   UNL     1      12.266 -15.094  16.374  1.00  0.00    -0.000 C 
BRANCH   8   9
ATOM      9  C   UNL     1      11.097 -15.284  15.396  1.00  0.00    -0.000 C 
BRANCH   9  10
ATOM     10  C   UNL     1      11.455 -14.871  13.960  1.00  0.00    -0.003 C 
ATOM     11  C   UNL     1      10.778 -15.747  12.907  1.00  0.00     0.004 C 
ENDBRANCH   9  10
ENDBRANCH   8   9
ENDBRANCH   7   8
ENDBRANCH   1   7
TORSDOF 7
ENDMDL
MODEL 7
REMARK VINA RESULT:    -3.997      2.457      5.354
REMARK INTER + INTRA:          -6.188
REMARK INTER:                  -5.702
REMARK INTRA:                  -0.486
REMARK UNBOUND:                -0.555
REMARK SMILES CCCCCCCCC(=O)[O-]
REMARK SMILES IDX 6 1 7 2 8 3 9 4 10 5 11 6 5 7 4 8 3 9 2 10 1 11
REMARK H PARENT
REMARK Flexibility Score: inf
ROOT
ATOM      1  C   UNL     1      11.354 -15.076  15.649  1.00  0.00     0.000 C 
ENDROOT
BRANCH   1   2
ATOM      2  C   UNL     1      12.009 -13.839  16.285  1.00  0.00     0.006 C 
BRANCH   2   3
ATOM      3  C   UNL     1      11.400 -12.530  15.766  1.00  0.00     0.053 C 
BRANCH   3   4
ATOM      4  C   UNL     1      12.445 -11.614  15.205  1.00  0.00     0.041 C 
ATOM      5  O   UNL     1      13.508 -12.086  14.722  1.00  0.00    -0.550 OA
ATOM      6  O   UNL     1      12.256 -10.239  15.242  1.00  0.00    -0.550 OA
ENDBRANCH   3   4
ENDBRANCH   2   3
ENDBRANCH   1   2
BRANCH   1   7
ATOM      7  C   UNL     1      11.330 -15.010  14.114  1.00  0.00     0.000 C 
BRANCH   7   8
ATOM      8  C   UNL     1      11.907 -16.272  13.454  1.00  0.00    -0.000 C 
BRANCH   8   9
ATOM      9  C   UNL     1      12.432 -17.253  14.513  1.00  0.00    -0.000 C 
BRANCH   9  10
ATOM     10  C   UNL     1      13.908 -17.621  14.297  1.00  0.00    -0.003 C 
ATOM     11  C   UNL     1      14.704 -17.664  15.601  1.00  0.00     0.004 C 
ENDBRANCH   9  10
ENDBRANCH   8   9
ENDBRANCH   7   8
ENDBRANCH   1   7
TORSDOF 7
ENDMDL
MODEL 8
REMARK VINA RESULT:    -3.995      2.369      3.614
REMARK INTER + INTRA:          -6.185
REMARK INTER:                  -5.439
REMARK INTRA:                  -0.745
REMARK UNBOUND:                -0.555
REMARK SMILES CCCCCCCCC(=O)[O-]
REMARK SMILES IDX 6 1 7 2 8 3 9 4 10 5 11 6 5 7 4 8 3 9 2 10 1 11
REMARK H PARENT
REMARK Flexibility Score: inf
ROOT
ATOM      1  C   UNL     1      13.669 -15.834  12.595  1.00  0.00     0.000 C 
ENDROOT
BRANCH   1   2
ATOM      2  C   UNL     1      14.626 -17.025  12.771  1.00  0.00     0.006 C 
BRANCH   2   3
ATOM      3  C   UNL     1      15.296 -17.030  14.151  1.00  0.00     0.053 C 
BRANCH   3   4
ATOM      4  C   UNL     1      14.308 -17.285  15.249  1.00  0.00     0.041 C 
ATOM      5  O   UNL     1      14.393 -16.656  16.336  1.00  0.00    -0.550 OA
ATOM      6  O   UNL     1      13.312 -18.237  15.080  1.00  0.00    -0.550 OA
ENDBRANCH   3   4
ENDBRANCH   2   3
ENDBRANCH   1   2
BRANCH   1   7
ATOM      7  C   UNL     1      12.261 -16.265  12.155  1.00  0.00     0.000 C 
BRANCH   7   8
ATOM      8  C   UNL     1      11.172 -15.849  13.156  1.00  0.00    -0.000 C 
BRANCH   8   9
ATOM      9  C   UNL     1      11.735 -14.884  14.210  1.00  0.00    -0.000 C 
BRANCH   9  10
ATOM     10  C   UNL     1      11.165 -15.144  15.613  1.00  0.00    -0.003 C 
ATOM     11  C   UNL     1      11.825 -14.281  16.688  1.00  0.00     0.004 C 
ENDBRANCH   9  10
ENDBRANCH   8   9
ENDBRANCH   7   8
ENDBRANCH   1   7
TORSDOF 7
ENDMDL
MODEL 9
REMARK VINA RESULT:    -3.950      2.841      4.437
REMARK INTER + INTRA:          -6.121
REMARK INTER:                  -5.465
REMARK INTRA:                  -0.657
REMARK UNBOUND:                -0.555
REMARK SMILES CCCCCCCCC(=O)[O-]
REMARK SMILES IDX 6 1 7 2 8 3 9 4 10 5 11 6 5 7 4 8 3 9 2 10 1 11
REMARK H PARENT
REMARK Flexibility Score: inf
ROOT
ATOM      1  C   UNL     1      11.029 -15.194  15.490  1.00  0.00     0.000 C 
ENDROOT
BRANCH   1   2
ATOM      2  C   UNL     1      11.384 -14.949  14.014  1.00  0.00     0.006 C 
BRANCH   2   3
ATOM      3  C   UNL     1      11.013 -16.143  13.124  1.00  0.00     0.053 C 
BRANCH   3   4
ATOM      4  C   UNL     1      11.940 -16.272  11.953  1.00  0.00     0.041 C 
ATOM      5  O   UNL     1      13.172 -16.050  12.093  1.00  0.00    -0.550 OA
ATOM      6  O   UNL     1      11.439 -16.611  10.703  1.00  0.00    -0.550 OA
ENDBRANCH   3   4
ENDBRANCH   2   3
ENDBRANCH   1   2
BRANCH   1   7
ATOM      7  C   UNL     1      12.227 -14.987  16.429  1.00  0.00     0.000 C 
BRANCH   7   8
ATOM      8  C   UNL     1      13.565 -15.380  15.782  1.00  0.00    -0.000 C 
BRANCH   8   9
ATOM      9  C   UNL     1      13.992 -16.789  16.218  1.00  0.00    -0.000 C 
BRANCH   9  10
ATOM     10  C   UNL     1      14.049 -17.778  15.043  1.00  0.00    -0.003 C 
ATOM     11  C   UNL     1      15.400 -17.769  14.328  1.00  0.00     0.004 C 
ENDBRANCH   9  10
ENDBRANCH   8   9
ENDBRANCH   7   8
ENDBRANCH   1   7
TORSDOF 7
ENDMDL
