MODEL 1
REMARK VINA RESULT:    -4.808      0.000      0.000
REMARK INTER + INTRA:          -5.545
REMARK INTER:                  -5.370
REMARK INTRA:                  -0.175
REMARK UNBOUND:                -0.175
REMARK SMILES O=C([O-])C=Cc1ccccc1
REMARK SMILES IDX 4 1 5 2 2 3 1 4 3 5 6 6 7 7 11 8 8 9 10 10 9 11
REMARK H PARENT
REMARK Flexibility Score: inf
ROOT
ATOM      1  C   UNL     1       6.321  14.649  -9.493  1.00  0.00     0.025 C 
ATOM      2  C   UNL     1       5.358  15.532  -9.185  1.00  0.00     0.010 C 
ENDROOT
BRANCH   1   3
ATOM      3  C   UNL     1       7.529  14.375  -8.689  1.00  0.00     0.064 C 
ATOM      4  O   UNL     1       7.528  13.516  -7.770  1.00  0.00    -0.545 OA
ATOM      5  O   UNL     1       8.673  15.132  -8.909  1.00  0.00    -0.545 OA
ENDBRANCH   1   3
BRANCH   2   6
ATOM      6  C   UNL     1       5.239  16.258  -7.903  1.00  0.00    -0.026 A 
ATOM      7  C   UNL     1       4.224  15.948  -6.981  1.00  0.00     0.008 A 
ATOM      8  C   UNL     1       6.090  17.346  -7.650  1.00  0.00     0.008 A 
ATOM      9  C   UNL     1       4.099  16.684  -5.799  1.00  0.00     0.001 A 
ATOM     10  C   UNL     1       5.961  18.079  -6.465  1.00  0.00     0.001 A 
ATOM     11  C   UNL     1       4.970  17.746  -5.538  1.00  0.00     0.000 A 
ENDBRANCH   2   6
TORSDOF 2
ENDMDL
MODEL 2
REMARK VINA RESULT:    -4.736      0.098      1.757
REMARK INTER + INTRA:          -5.465
REMARK INTER:                  -5.315
REMARK INTRA:                  -0.149
REMARK UNBOUND:                -0.175
REMARK SMILES O=C([O-])C=Cc1ccccc1
REMARK SMILES IDX 4 1 5 2 2 3 1 4 3 5 6 6 7 7 11 8 8 9 10 10 9 11
REMARK H PARENT
REMARK Flexibility Score: inf
ROOT
ATOM      1  C   UNL     1       6.272  14.653  -9.441  1.00  0.00     0.025 C 
ATOM      2  C   UNL     1       5.286  15.527  -9.181  1.00  0.00     0.010 C 
ENDROOT
BRANCH   1   3
ATOM      3  C   UNL     1       7.487  14.457  -8.626  1.00  0.00     0.064 C 
ATOM      4  O   UNL     1       8.516  15.161  -8.797  1.00  0.00    -0.545 OA
ATOM      5  O   UNL     1       7.518  13.426  -7.696  1.00  0.00    -0.545 OA
ENDBRANCH   1   3
BRANCH   2   6
ATOM      6  C   UNL     1       5.150  16.321  -7.942  1.00  0.00    -0.026 A 
ATOM      7  C   UNL     1       6.014  17.395  -7.666  1.00  0.00     0.008 A 
ATOM      8  C   UNL     1       4.208  15.930  -6.977  1.00  0.00     0.008 A 
ATOM      9  C   UNL     1       5.900  18.099  -6.463  1.00  0.00     0.001 A 
ATOM     10  C   UNL     1       4.097  16.638  -5.775  1.00  0.00     0.001 A 
ATOM     11  C   UNL     1       4.938  17.724  -5.521  1.00  0.00     0.000 A 
ENDBRANCH   2   6
TORSDOF 2
ENDMDL
MODEL 3
REMARK VINA RESULT:    -4.702      1.559      2.232
REMARK INTER + INTRA:          -5.427
REMARK INTER:                  -5.188
REMARK INTRA:                  -0.240
REMARK UNBOUND:                -0.175
REMARK SMILES O=C([O-])C=Cc1ccccc1
REMARK SMILES IDX 4 1 5 2 2 3 1 4 3 5 6 6 7 7 11 8 8 9 10 10 9 11
REMARK H PARENT
REMARK Flexibility Score: inf
ROOT
ATOM      1  C   UNL     1       7.002  13.977  -9.083  1.00  0.00     0.025 C 
ATOM      2  C   UNL     1       6.577  14.205  -7.830  1.00  0.00     0.010 C 
ENDROOT
BRANCH   1   3
ATOM      3  C   UNL     1       6.828  14.886 -10.232  1.00  0.00     0.064 C 
ATOM      4  O   UNL     1       5.749  14.931 -10.879  1.00  0.00    -0.545 OA
ATOM      5  O   UNL     1       7.902  15.660 -10.650  1.00  0.00    -0.545 OA
ENDBRANCH   1   3
BRANCH   2   6
ATOM      6  C   UNL     1       6.019  15.480  -7.334  1.00  0.00    -0.026 A 
ATOM      7  C   UNL     1       6.851  16.576  -7.046  1.00  0.00     0.008 A 
ATOM      8  C   UNL     1       4.648  15.564  -7.046  1.00  0.00     0.008 A 
ATOM      9  C   UNL     1       6.307  17.756  -6.527  1.00  0.00     0.001 A 
ATOM     10  C   UNL     1       4.107  16.746  -6.529  1.00  0.00     0.001 A 
ATOM     11  C   UNL     1       4.935  17.842  -6.273  1.00  0.00     0.000 A 
ENDBRANCH   2   6
TORSDOF 2
ENDMDL
MODEL 4
REMARK VINA RESULT:    -4.598      2.408      4.397
REMARK INTER + INTRA:          -5.310
REMARK INTER:                  -5.093
REMARK INTRA:                  -0.217
REMARK UNBOUND:                -0.175
REMARK SMILES O=C([O-])C=Cc1ccccc1
REMARK SMILES IDX 4 1 5 2 2 3 1 4 3 5 6 6 7 7 11 8 8 9 10 10 9 11
REMARK H PARENT
REMARK Flexibility Score: inf
ROOT
ATOM      1  C   UNL     1       4.241  16.640  -6.437  1.00  0.00     0.025 C 
ATOM      2  C   UNL     1       4.539  15.430  -6.938  1.00  0.00     0.010 C 
ENDROOT
BRANCH   1   3
ATOM      3  C   UNL     1       4.939  17.900  -6.756  1.00  0.00     0.064 C 
ATOM      4  O   UNL     1       4.608  18.604  -7.746  1.00  0.00    -0.545 OA
ATOM      5  O   UNL     1       6.029  18.283  -5.987  1.00  0.00    -0.545 OA
ENDBRANCH   1   3
BRANCH   2   6
ATOM      6  C   UNL     1       5.498  15.167  -8.031  1.00  0.00    -0.026 A 
ATOM      7  C   UNL     1       6.885  15.183  -7.802  1.00  0.00     0.008 A 
ATOM      8  C   UNL     1       5.019  15.003  -9.340  1.00  0.00     0.008 A 
ATOM      9  C   UNL     1       7.776  14.984  -8.862  1.00  0.00     0.001 A 
ATOM     10  C   UNL     1       5.913  14.804 -10.397  1.00  0.00     0.001 A 
ATOM     11  C   UNL     1       7.290  14.790 -10.158  1.00  0.00     0.000 A 
ENDBRANCH   2   6
TORSDOF 2
ENDMDL
MODEL 5
REMARK VINA RESULT:    -4.577      2.593      4.371
REMARK INTER + INTRA:          -5.286
REMARK INTER:                  -5.171
REMARK INTRA:                  -0.115
REMARK UNBOUND:                -0.175
REMARK SMILES O=C([O-])C=Cc1ccccc1
REMARK SMILES IDX 4 1 5 2 2 3 1 4 3 5 6 6 7 7 11 8 8 9 10 10 9 11
REMARK H PARENT
REMARK Flexibility Score: inf
ROOT
ATOM      1  C   UNL     1       6.093  17.656  -6.248  1.00  0.00     0.025 C 
ATOM      2  C   UNL     1       7.196  17.088  -6.762  1.00  0.00     0.010 C 
ENDROOT
BRANCH   1   3
ATOM      3  C   UNL     1       4.728  17.541  -6.798  1.00  0.00     0.064 C 
ATOM      4  O   UNL     1       3.875  16.769  -6.287  1.00  0.00    -0.545 OA
ATOM      5  O   UNL     1       4.400  18.249  -7.946  1.00  0.00    -0.545 OA
ENDBRANCH   1   3
BRANCH   2   6
ATOM      6  C   UNL     1       7.219  16.101  -7.862  1.00  0.00    -0.026 A 
ATOM      7  C   UNL     1       6.563  14.863  -7.743  1.00  0.00     0.008 A 
ATOM      8  C   UNL     1       7.995  16.361  -9.001  1.00  0.00     0.008 A 
ATOM      9  C   UNL     1       6.641  13.923  -8.776  1.00  0.00     0.001 A 
ATOM     10  C   UNL     1       8.071  15.419 -10.032  1.00  0.00     0.001 A 
ATOM     11  C   UNL     1       7.391  14.203  -9.922  1.00  0.00     0.000 A 
ENDBRANCH   2   6
TORSDOF 2
ENDMDL
MODEL 6
REMARK VINA RESULT:    -4.473     11.867     13.665
REMARK INTER + INTRA:          -5.170
REMARK INTER:                  -5.512
REMARK INTRA:                   0.342
REMARK UNBOUND:                -0.175
REMARK SMILES O=C([O-])C=Cc1ccccc1
REMARK SMILES IDX 4 1 5 2 2 3 1 4 3 5 6 6 7 7 11 8 8 9 10 10 9 11
REMARK H PARENT
REMARK Flexibility Score: inf
ROOT
ATOM      1  C   UNL     1      16.676  21.466 -12.865  1.00  0.00     0.025 C 
ATOM      2  C   UNL     1      17.801  20.890 -13.320  1.00  0.00     0.010 C 
ENDROOT
BRANCH   1   3
ATOM      3  C   UNL     1      15.587  20.779 -12.144  1.00  0.00     0.064 C 
ATOM      4  O   UNL     1      15.410  19.537 -12.246  1.00  0.00    -0.545 OA
ATOM      5  O   UNL     1      14.696  21.531 -11.390  1.00  0.00    -0.545 OA
ENDBRANCH   1   3
BRANCH   2   6
ATOM      6  C   UNL     1      18.235  19.508 -13.027  1.00  0.00    -0.026 A 
ATOM      7  C   UNL     1      18.599  19.120 -11.725  1.00  0.00     0.008 A 
ATOM      8  C   UNL     1      18.385  18.597 -14.084  1.00  0.00     0.008 A 
ATOM      9  C   UNL     1      19.057  17.821 -11.481  1.00  0.00     0.001 A 
ATOM     10  C   UNL     1      18.842  17.299 -13.835  1.00  0.00     0.001 A 
ATOM     11  C   UNL     1      19.174  16.910 -12.535  1.00  0.00     0.000 A 
ENDBRANCH   2   6
TORSDOF 2
ENDMDL
MODEL 7
REMARK VINA RESULT:    -4.392     13.414     14.674
REMARK INTER + INTRA:          -5.080
REMARK INTER:                  -4.847
REMARK INTRA:                  -0.233
REMARK UNBOUND:                -0.175
REMARK SMILES O=C([O-])C=Cc1ccccc1
REMARK SMILES IDX 4 1 5 2 2 3 1 4 3 5 6 6 7 7 11 8 8 9 10 10 9 11
REMARK H PARENT
REMARK Flexibility Score: inf
ROOT
ATOM      1  C   UNL     1      20.139  16.300 -11.448  1.00  0.00     0.025 C 
ATOM      2  C   UNL     1      19.348  16.636 -12.479  1.00  0.00     0.010 C 
ENDROOT
BRANCH   1   3
ATOM      3  C   UNL     1      20.883  17.242 -10.589  1.00  0.00     0.064 C 
ATOM      4  O   UNL     1      20.322  17.851  -9.640  1.00  0.00    -0.545 OA
ATOM      5  O   UNL     1      22.214  17.513 -10.876  1.00  0.00    -0.545 OA
ENDBRANCH   1   3
BRANCH   2   6
ATOM      6  C   UNL     1      18.934  18.011 -12.829  1.00  0.00    -0.026 A 
ATOM      7  C   UNL     1      19.621  18.751 -13.807  1.00  0.00     0.008 A 
ATOM      8  C   UNL     1      17.905  18.626 -12.098  1.00  0.00     0.008 A 
ATOM      9  C   UNL     1      19.245  20.070 -14.085  1.00  0.00     0.001 A 
ATOM     10  C   UNL     1      17.532  19.944 -12.379  1.00  0.00     0.001 A 
ATOM     11  C   UNL     1      18.198  20.664 -13.374  1.00  0.00     0.000 A 
ENDBRANCH   2   6
TORSDOF 2
ENDMDL
MODEL 8
REMARK VINA RESULT:    -4.254      1.906      2.743
REMARK INTER + INTRA:          -4.926
REMARK INTER:                  -4.804
REMARK INTRA:                  -0.122
REMARK UNBOUND:                -0.175
REMARK SMILES O=C([O-])C=Cc1ccccc1
REMARK SMILES IDX 4 1 5 2 2 3 1 4 3 5 6 6 7 7 11 8 8 9 10 10 9 11
REMARK H PARENT
REMARK Flexibility Score: inf
ROOT
ATOM      1  C   UNL     1       8.700  13.828 -10.711  1.00  0.00     0.025 C 
ATOM      2  C   UNL     1       7.627  14.611 -10.518  1.00  0.00     0.010 C 
ENDROOT
BRANCH   1   3
ATOM      3  C   UNL     1       9.809  13.635  -9.757  1.00  0.00     0.064 C 
ATOM      4  O   UNL     1      10.977  14.025 -10.017  1.00  0.00    -0.545 OA
ATOM      5  O   UNL     1       9.572  12.946  -8.575  1.00  0.00    -0.545 OA
ENDBRANCH   1   3
BRANCH   2   6
ATOM      6  C   UNL     1       7.271  15.280  -9.249  1.00  0.00    -0.026 A 
ATOM      7  C   UNL     1       6.188  14.835  -8.470  1.00  0.00     0.008 A 
ATOM      8  C   UNL     1       7.960  16.441  -8.868  1.00  0.00     0.008 A 
ATOM      9  C   UNL     1       5.837  15.514  -7.299  1.00  0.00     0.001 A 
ATOM     10  C   UNL     1       7.607  17.118  -7.696  1.00  0.00     0.001 A 
ATOM     11  C   UNL     1       6.549  16.653  -6.910  1.00  0.00     0.000 A 
ENDBRANCH   2   6
TORSDOF 2
ENDMDL
