MODEL 1
REMARK VINA RESULT:    -5.916      0.000      0.000
REMARK INTER + INTRA:          -9.382
REMARK INTER:                  -8.682
REMARK INTRA:                  -0.700
REMARK UNBOUND:                -0.700
REMARK SMILES O=c1c(O[C@H]2O[C@H](CO)[C@H](O)[C@@H](O)[C@@H]2O)c(-c2ccc(O)c(O)c2)oc2cc(O)cc(O)c12
REMARK SMILES IDX 4 1 3 2 16 3 25 4 2 5 26 6 1 7 33 8 27 9 31 10 28 11 30 12
REMARK SMILES IDX 17 13 18 14 19 15 20 16 24 17 22 18 21 19 23 21 32 23 29 25
REMARK SMILES IDX 5 27 14 28 6 29 12 30 7 31 10 32 15 33 13 35 8 37 9 38 11 40
REMARK H PARENT 21 20 23 22 32 24 29 26 15 34 13 36 9 39 11 41
REMARK Flexibility Score: inf
ROOT
ATOM      1  O   UNL     1     -11.925   8.173   5.963  1.00  0.00    -0.454 OA
ENDROOT
BRANCH   1   2
ATOM      2  C   UNL     1     -10.549   8.389   6.108  1.00  0.00     0.214 A 
ATOM      3  C   UNL     1      -9.689   7.387   6.605  1.00  0.00     0.180 A 
ATOM      4  O   UNL     1      -8.379   7.609   6.655  1.00  0.00    -0.452 OA
ATOM      5  C   UNL     1     -10.006   9.624   5.741  1.00  0.00     0.239 A 
ATOM      6  C   UNL     1      -7.819   8.755   6.289  1.00  0.00     0.146 A 
ATOM      7  O   UNL     1     -10.775  10.533   5.324  1.00  0.00    -0.285 OA
ATOM      8  C   UNL     1      -8.614   9.828   5.821  1.00  0.00     0.111 A 
ATOM      9  C   UNL     1      -6.431   8.894   6.376  1.00  0.00     0.094 A 
ATOM     10  C   UNL     1      -7.986  11.041   5.449  1.00  0.00     0.134 A 
ATOM     11  C   UNL     1      -5.815  10.094   6.002  1.00  0.00     0.123 A 
ATOM     12  C   UNL     1      -6.592  11.161   5.544  1.00  0.00     0.093 A 
BRANCH   3  13
ATOM     13  C   UNL     1     -10.195   6.081   7.084  1.00  0.00     0.025 A 
ATOM     14  C   UNL     1     -10.257   5.827   8.461  1.00  0.00     0.016 A 
ATOM     15  C   UNL     1     -10.730   4.600   8.931  1.00  0.00     0.051 A 
ATOM     16  C   UNL     1     -11.160   3.611   8.041  1.00  0.00     0.157 A 
ATOM     17  C   UNL     1     -10.652   5.100   6.187  1.00  0.00     0.062 A 
ATOM     18  C   UNL     1     -11.124   3.866   6.650  1.00  0.00     0.158 A 
BRANCH  16  19
ATOM     19  O   UNL     1     -11.612   2.404   8.577  1.00  0.00    -0.504 OA
ATOM     20  H   UNL     1     -12.235   2.335   9.368  1.00  0.00     0.293 HD
ENDBRANCH  16  19
BRANCH  18  21
ATOM     21  O   UNL     1     -11.547   2.932   5.700  1.00  0.00    -0.504 OA
ATOM     22  H   UNL     1     -12.401   3.015   5.169  1.00  0.00     0.293 HD
ENDBRANCH  18  21
ENDBRANCH   3  13
BRANCH  10  23
ATOM     23  O   UNL     1      -8.734  12.125   4.985  1.00  0.00    -0.507 OA
ATOM     24  H   UNL     1      -8.801  12.989   5.509  1.00  0.00     0.293 HD
ENDBRANCH  10  23
BRANCH  11  25
ATOM     25  O   UNL     1      -4.432  10.237   6.083  1.00  0.00    -0.508 OA
ATOM     26  H   UNL     1      -4.006  11.107   6.377  1.00  0.00     0.293 HD
ENDBRANCH  11  25
ENDBRANCH   1   2
BRANCH   1  27
ATOM     27  C   UNL     1     -12.817   8.081   7.079  1.00  0.00     0.339 C 
ATOM     28  C   UNL     1     -14.287   8.040   6.614  1.00  0.00     0.214 C 
ATOM     29  O   UNL     1     -12.585   9.134   8.002  1.00  0.00    -0.332 OA
ATOM     30  C   UNL     1     -14.775   9.422   6.117  1.00  0.00     0.180 C 
ATOM     31  C   UNL     1     -12.820  10.402   7.414  1.00  0.00     0.179 C 
ATOM     32  C   UNL     1     -14.317  10.563   7.053  1.00  0.00     0.177 C 
BRANCH  28  33
ATOM     33  O   UNL     1     -15.084   7.617   7.691  1.00  0.00    -0.384 OA
ATOM     34  H   UNL     1     -16.028   7.781   7.434  1.00  0.00     0.211 HD
ENDBRANCH  28  33
BRANCH  30  35
ATOM     35  O   UNL     1     -14.395   9.656   4.783  1.00  0.00    -0.387 OA
ATOM     36  H   UNL     1     -14.478  10.624   4.595  1.00  0.00     0.211 HD
ENDBRANCH  30  35
BRANCH  31  37
ATOM     37  C   UNL     1     -12.345  11.483   8.393  1.00  0.00     0.191 C 
BRANCH  37  38
ATOM     38  O   UNL     1     -10.970  11.709   8.237  1.00  0.00    -0.394 OA
ATOM     39  H   UNL     1     -10.675  12.187   9.055  1.00  0.00     0.210 HD
ENDBRANCH  37  38
ENDBRANCH  31  37
BRANCH  32  40
ATOM     40  O   UNL     1     -15.103  10.533   8.219  1.00  0.00    -0.387 OA
ATOM     41  H   UNL     1     -14.876   9.697   8.706  1.00  0.00     0.211 HD
ENDBRANCH  32  40
ENDBRANCH   1  27
TORSDOF 12
ENDMDL
MODEL 2
REMARK VINA RESULT:    -4.812      1.920      6.253
REMARK INTER + INTRA:          -7.763
REMARK INTER:                  -6.913
REMARK INTRA:                  -0.849
REMARK UNBOUND:                -0.700
REMARK SMILES O=c1c(O[C@H]2O[C@H](CO)[C@H](O)[C@@H](O)[C@@H]2O)c(-c2ccc(O)c(O)c2)oc2cc(O)cc(O)c12
REMARK SMILES IDX 4 1 3 2 16 3 25 4 2 5 26 6 1 7 33 8 27 9 31 10 28 11 30 12
REMARK SMILES IDX 17 13 18 14 19 15 20 16 24 17 22 18 21 19 23 21 32 23 29 25
REMARK SMILES IDX 5 27 14 28 6 29 12 30 7 31 10 32 15 33 13 35 8 37 9 38 11 40
REMARK H PARENT 21 20 23 22 32 24 29 26 15 34 13 36 9 39 11 41
REMARK Flexibility Score: inf
ROOT
ATOM      1  O   UNL     1     -11.977   9.695   6.102  1.00  0.00    -0.454 OA
ENDROOT
BRANCH   1   2
ATOM      2  C   UNL     1     -11.618   8.393   6.469  1.00  0.00     0.214 A 
ATOM      3  C   UNL     1     -10.267   7.997   6.568  1.00  0.00     0.180 A 
ATOM      4  O   UNL     1      -9.969   6.773   6.994  1.00  0.00    -0.452 OA
ATOM      5  C   UNL     1     -12.618   7.460   6.758  1.00  0.00     0.239 A 
ATOM      6  C   UNL     1     -10.886   5.866   7.306  1.00  0.00     0.146 A 
ATOM      7  O   UNL     1     -13.826   7.801   6.642  1.00  0.00    -0.285 OA
ATOM      8  C   UNL     1     -12.265   6.167   7.192  1.00  0.00     0.111 A 
ATOM      9  C   UNL     1     -10.476   4.604   7.746  1.00  0.00     0.094 A 
ATOM     10  C   UNL     1     -13.217   5.173   7.524  1.00  0.00     0.134 A 
ATOM     11  C   UNL     1     -11.422   3.628   8.078  1.00  0.00     0.123 A 
ATOM     12  C   UNL     1     -12.785   3.913   7.963  1.00  0.00     0.093 A 
BRANCH   3  13
ATOM     13  C   UNL     1      -9.151   8.901   6.208  1.00  0.00     0.025 A 
ATOM     14  C   UNL     1      -8.317   8.574   5.132  1.00  0.00     0.016 A 
ATOM     15  C   UNL     1      -7.259   9.414   4.778  1.00  0.00     0.051 A 
ATOM     16  C   UNL     1      -7.021  10.599   5.482  1.00  0.00     0.157 A 
ATOM     17  C   UNL     1      -8.934  10.105   6.900  1.00  0.00     0.062 A 
ATOM     18  C   UNL     1      -7.874  10.952   6.554  1.00  0.00     0.158 A 
BRANCH  16  19
ATOM     19  O   UNL     1      -5.942  11.389   5.083  1.00  0.00    -0.504 OA
ATOM     20  H   UNL     1      -5.977  12.394   5.002  1.00  0.00     0.293 HD
ENDBRANCH  16  19
BRANCH  18  21
ATOM     21  O   UNL     1      -7.707  12.125   7.296  1.00  0.00    -0.504 OA
ATOM     22  H   UNL     1      -7.019  12.831   7.086  1.00  0.00     0.293 HD
ENDBRANCH  18  21
ENDBRANCH   3  13
BRANCH  10  23
ATOM     23  O   UNL     1     -14.586   5.428   7.422  1.00  0.00    -0.507 OA
ATOM     24  H   UNL     1     -15.277   4.765   7.749  1.00  0.00     0.293 HD
ENDBRANCH  10  23
BRANCH  11  25
ATOM     25  O   UNL     1     -11.019   2.371   8.521  1.00  0.00    -0.508 OA
ATOM     26  H   UNL     1     -10.573   1.707   7.898  1.00  0.00     0.293 HD
ENDBRANCH  11  25
ENDBRANCH   1   2
BRANCH   1  27
ATOM     27  C   UNL     1     -11.940  10.156   4.747  1.00  0.00     0.339 C 
ATOM     28  C   UNL     1     -12.163  11.681   4.673  1.00  0.00     0.214 C 
ATOM     29  O   UNL     1     -12.870   9.448   3.944  1.00  0.00    -0.332 OA
ATOM     30  C   UNL     1     -13.637  12.064   4.943  1.00  0.00     0.180 C 
ATOM     31  C   UNL     1     -14.200   9.647   4.390  1.00  0.00     0.179 C 
ATOM     32  C   UNL     1     -14.619  11.127   4.205  1.00  0.00     0.177 C 
BRANCH  28  33
ATOM     33  O   UNL     1     -11.787  12.125   3.394  1.00  0.00    -0.384 OA
ATOM     34  H   UNL     1     -12.604  12.110   2.831  1.00  0.00     0.211 HD
ENDBRANCH  28  33
BRANCH  30  35
ATOM     35  O   UNL     1     -13.911  12.125   6.323  1.00  0.00    -0.387 OA
ATOM     36  H   UNL     1     -14.680  12.731   6.466  1.00  0.00     0.211 HD
ENDBRANCH  30  35
BRANCH  31  37
ATOM     37  C   UNL     1     -15.116   8.690   3.618  1.00  0.00     0.191 C 
BRANCH  37  38
ATOM     38  O   UNL     1     -14.748   7.360   3.865  1.00  0.00    -0.394 OA
ATOM     39  H   UNL     1     -13.845   7.396   4.274  1.00  0.00     0.210 HD
ENDBRANCH  37  38
ENDBRANCH  31  37
BRANCH  32  40
ATOM     40  O   UNL     1     -14.621  11.463   2.839  1.00  0.00    -0.387 OA
ATOM     41  H   UNL     1     -13.882  12.111   2.693  1.00  0.00     0.211 HD
ENDBRANCH  32  40
ENDBRANCH   1  27
TORSDOF 12
ENDMDL
MODEL 3
REMARK VINA RESULT:    -4.132      1.825      6.614
REMARK INTER + INTRA:          -6.764
REMARK INTER:                  -8.313
REMARK INTRA:                   1.550
REMARK UNBOUND:                -0.700
REMARK SMILES O=c1c(O[C@H]2O[C@H](CO)[C@H](O)[C@@H](O)[C@@H]2O)c(-c2ccc(O)c(O)c2)oc2cc(O)cc(O)c12
REMARK SMILES IDX 4 1 3 2 16 3 25 4 2 5 26 6 1 7 33 8 27 9 31 10 28 11 30 12
REMARK SMILES IDX 17 13 18 14 19 15 20 16 24 17 22 18 21 19 23 21 32 23 29 25
REMARK SMILES IDX 5 27 14 28 6 29 12 30 7 31 10 32 15 33 13 35 8 37 9 38 11 40
REMARK H PARENT 21 20 23 22 32 24 29 26 15 34 13 36 9 39 11 41
REMARK Flexibility Score: inf
ROOT
ATOM      1  O   UNL     1     -10.300   7.462   7.333  1.00  0.00    -0.454 OA
ENDROOT
BRANCH   1   2
ATOM      2  C   UNL     1     -10.902   8.428   6.518  1.00  0.00     0.214 A 
ATOM      3  C   UNL     1     -10.151   9.454   5.907  1.00  0.00     0.180 A 
ATOM      4  O   UNL     1     -10.751  10.306   5.080  1.00  0.00    -0.452 OA
ATOM      5  C   UNL     1     -12.280   8.372   6.291  1.00  0.00     0.239 A 
ATOM      6  C   UNL     1     -12.051  10.270   4.814  1.00  0.00     0.146 A 
ATOM      7  O   UNL     1     -12.959   7.473   6.859  1.00  0.00    -0.285 OA
ATOM      8  C   UNL     1     -12.884   9.300   5.420  1.00  0.00     0.111 A 
ATOM      9  C   UNL     1     -12.592  11.208   3.929  1.00  0.00     0.094 A 
ATOM     10  C   UNL     1     -14.268   9.296   5.122  1.00  0.00     0.134 A 
ATOM     11  C   UNL     1     -13.960  11.196   3.635  1.00  0.00     0.123 A 
ATOM     12  C   UNL     1     -14.791  10.246   4.232  1.00  0.00     0.093 A 
BRANCH   3  13
ATOM     13  C   UNL     1      -8.702   9.627   6.156  1.00  0.00     0.025 A 
ATOM     14  C   UNL     1      -7.781   9.216   5.185  1.00  0.00     0.016 A 
ATOM     15  C   UNL     1      -6.410   9.370   5.403  1.00  0.00     0.051 A 
ATOM     16  C   UNL     1      -5.934   9.947   6.585  1.00  0.00     0.157 A 
ATOM     17  C   UNL     1      -8.230  10.233   7.334  1.00  0.00     0.062 A 
ATOM     18  C   UNL     1      -6.858  10.389   7.562  1.00  0.00     0.158 A 
BRANCH  16  19
ATOM     19  O   UNL     1      -4.552  10.063   6.743  1.00  0.00    -0.504 OA
ATOM     20  H   UNL     1      -3.921  10.340   6.006  1.00  0.00     0.293 HD
ENDBRANCH  16  19
BRANCH  18  21
ATOM     21  O   UNL     1      -6.459  10.985   8.761  1.00  0.00    -0.504 OA
ATOM     22  H   UNL     1      -6.672  10.611   9.674  1.00  0.00     0.293 HD
ENDBRANCH  18  21
ENDBRANCH   3  13
BRANCH  10  23
ATOM     23  O   UNL     1     -15.125   8.358   5.701  1.00  0.00    -0.507 OA
ATOM     24  H   UNL     1     -15.974   8.056   5.239  1.00  0.00     0.293 HD
ENDBRANCH  10  23
BRANCH  11  25
ATOM     25  O   UNL     1     -14.503  12.125   2.751  1.00  0.00    -0.508 OA
ATOM     26  H   UNL     1     -13.917  12.767   2.231  1.00  0.00     0.293 HD
ENDBRANCH  11  25
ENDBRANCH   1   2
BRANCH   1  27
ATOM     27  C   UNL     1      -9.519   6.382   6.808  1.00  0.00     0.339 C 
ATOM     28  C   UNL     1     -10.042   5.938   5.427  1.00  0.00     0.214 C 
ATOM     29  O   UNL     1      -9.468   5.300   7.725  1.00  0.00    -0.332 OA
ATOM     30  C   UNL     1     -11.370   5.151   5.536  1.00  0.00     0.180 C 
ATOM     31  C   UNL     1     -10.758   4.769   7.974  1.00  0.00     0.179 C 
ATOM     32  C   UNL     1     -11.336   4.124   6.690  1.00  0.00     0.177 C 
BRANCH  28  33
ATOM     33  O   UNL     1      -9.065   5.132   4.819  1.00  0.00    -0.384 OA
ATOM     34  H   UNL     1      -8.742   4.497   5.510  1.00  0.00     0.211 HD
ENDBRANCH  28  33
BRANCH  30  35
ATOM     35  O   UNL     1     -12.476   6.016   5.640  1.00  0.00    -0.387 OA
ATOM     36  H   UNL     1     -12.415   6.507   6.497  1.00  0.00     0.211 HD
ENDBRANCH  30  35
BRANCH  31  37
ATOM     37  C   UNL     1     -10.650   3.760   9.125  1.00  0.00     0.191 C 
BRANCH  37  38
ATOM     38  O   UNL     1     -11.621   2.759   8.986  1.00  0.00    -0.394 OA
ATOM     39  H   UNL     1     -11.549   2.191   9.796  1.00  0.00     0.210 HD
ENDBRANCH  37  38
ENDBRANCH  31  37
BRANCH  32  40
ATOM     40  O   UNL     1     -10.543   3.031   6.296  1.00  0.00    -0.387 OA
ATOM     41  H   UNL     1      -9.593   3.302   6.405  1.00  0.00     0.211 HD
ENDBRANCH  32  40
ENDBRANCH   1  27
TORSDOF 12
ENDMDL
MODEL 4
REMARK VINA RESULT:    -3.772      1.684      5.874
REMARK INTER + INTRA:          -6.236
REMARK INTER:                  -6.596
REMARK INTRA:                   0.360
REMARK UNBOUND:                -0.700
REMARK SMILES O=c1c(O[C@H]2O[C@H](CO)[C@H](O)[C@@H](O)[C@@H]2O)c(-c2ccc(O)c(O)c2)oc2cc(O)cc(O)c12
REMARK SMILES IDX 4 1 3 2 16 3 25 4 2 5 26 6 1 7 33 8 27 9 31 10 28 11 30 12
REMARK SMILES IDX 17 13 18 14 19 15 20 16 24 17 22 18 21 19 23 21 32 23 29 25
REMARK SMILES IDX 5 27 14 28 6 29 12 30 7 31 10 32 15 33 13 35 8 37 9 38 11 40
REMARK H PARENT 21 20 23 22 32 24 29 26 15 34 13 36 9 39 11 41
REMARK Flexibility Score: inf
ROOT
ATOM      1  O   UNL     1     -12.036   9.051   5.336  1.00  0.00    -0.454 OA
ENDROOT
BRANCH   1   2
ATOM      2  C   UNL     1     -11.608   7.894   5.996  1.00  0.00     0.214 A 
ATOM      3  C   UNL     1     -10.292   7.765   6.489  1.00  0.00     0.180 A 
ATOM      4  O   UNL     1      -9.949   6.679   7.176  1.00  0.00    -0.452 OA
ATOM      5  C   UNL     1     -12.506   6.839   6.185  1.00  0.00     0.239 A 
ATOM      6  C   UNL     1     -10.779   5.668   7.403  1.00  0.00     0.146 A 
ATOM      7  O   UNL     1     -13.674   6.938   5.721  1.00  0.00    -0.285 OA
ATOM      8  C   UNL     1     -12.103   5.697   6.905  1.00  0.00     0.111 A 
ATOM      9  C   UNL     1     -10.327   4.568   8.138  1.00  0.00     0.094 A 
ATOM     10  C   UNL     1     -12.959   4.598   7.158  1.00  0.00     0.134 A 
ATOM     11  C   UNL     1     -11.180   3.486   8.388  1.00  0.00     0.123 A 
ATOM     12  C   UNL     1     -12.487   3.503   7.896  1.00  0.00     0.093 A 
BRANCH   3  13
ATOM     13  C   UNL     1      -9.261   8.803   6.265  1.00  0.00     0.025 A 
ATOM     14  C   UNL     1      -8.296   8.615   5.267  1.00  0.00     0.016 A 
ATOM     15  C   UNL     1      -7.315   9.583   5.042  1.00  0.00     0.051 A 
ATOM     16  C   UNL     1      -7.285  10.759   5.798  1.00  0.00     0.157 A 
ATOM     17  C   UNL     1      -9.252   9.996   7.008  1.00  0.00     0.062 A 
ATOM     18  C   UNL     1      -8.270  10.971   6.791  1.00  0.00     0.158 A 
BRANCH  16  19
ATOM     19  O   UNL     1      -6.272  11.681   5.529  1.00  0.00    -0.504 OA
ATOM     20  H   UNL     1      -5.954  12.378   6.186  1.00  0.00     0.293 HD
ENDBRANCH  16  19
BRANCH  18  21
ATOM     21  O   UNL     1      -8.312  12.125   7.579  1.00  0.00    -0.504 OA
ATOM     22  H   UNL     1      -7.713  12.924   7.438  1.00  0.00     0.293 HD
ENDBRANCH  18  21
ENDBRANCH   3  13
BRANCH  10  23
ATOM     23  O   UNL     1     -14.272   4.585   6.682  1.00  0.00    -0.507 OA
ATOM     24  H   UNL     1     -14.829   3.741   6.678  1.00  0.00     0.293 HD
ENDBRANCH  10  23
BRANCH  11  25
ATOM     25  O   UNL     1     -10.737   2.390   9.123  1.00  0.00    -0.508 OA
ATOM     26  H   UNL     1     -11.336   1.591   9.297  1.00  0.00     0.293 HD
ENDBRANCH  11  25
ENDBRANCH   1   2
BRANCH   1  27
ATOM     27  C   UNL     1     -13.393   9.509   5.375  1.00  0.00     0.339 C 
ATOM     28  C   UNL     1     -13.516  10.931   4.790  1.00  0.00     0.214 C 
ATOM     29  O   UNL     1     -13.917   9.432   6.691  1.00  0.00    -0.332 OA
ATOM     30  C   UNL     1     -12.947  12.003   5.751  1.00  0.00     0.180 C 
ATOM     31  C   UNL     1     -13.196  10.261   7.587  1.00  0.00     0.179 C 
ATOM     32  C   UNL     1     -13.380  11.753   7.212  1.00  0.00     0.177 C 
BRANCH  28  33
ATOM     33  O   UNL     1     -14.874  11.194   4.542  1.00  0.00    -0.384 OA
ATOM     34  H   UNL     1     -15.304  10.324   4.336  1.00  0.00     0.211 HD
ENDBRANCH  28  33
BRANCH  30  35
ATOM     35  O   UNL     1     -11.549  12.112   5.632  1.00  0.00    -0.387 OA
ATOM     36  H   UNL     1     -11.176  11.215   5.444  1.00  0.00     0.211 HD
ENDBRANCH  30  35
BRANCH  31  37
ATOM     37  C   UNL     1     -13.676   9.963   9.012  1.00  0.00     0.191 C 
BRANCH  37  38
ATOM     38  O   UNL     1     -14.716   9.023   8.988  1.00  0.00    -0.394 OA
ATOM     39  H   UNL     1     -15.259   9.234   8.184  1.00  0.00     0.210 HD
ENDBRANCH  37  38
ENDBRANCH  31  37
BRANCH  32  40
ATOM     40  O   UNL     1     -14.730  12.125   7.351  1.00  0.00    -0.387 OA
ATOM     41  H   UNL     1     -15.279  11.400   6.949  1.00  0.00     0.211 HD
ENDBRANCH  32  40
ENDBRANCH   1  27
TORSDOF 12
ENDMDL
MODEL 5
REMARK VINA RESULT:    -3.513      1.724      5.901
REMARK INTER + INTRA:          -5.856
REMARK INTER:                  -5.702
REMARK INTRA:                  -0.153
REMARK UNBOUND:                -0.700
REMARK SMILES O=c1c(O[C@H]2O[C@H](CO)[C@H](O)[C@@H](O)[C@@H]2O)c(-c2ccc(O)c(O)c2)oc2cc(O)cc(O)c12
REMARK SMILES IDX 4 1 3 2 16 3 25 4 2 5 26 6 1 7 33 8 27 9 31 10 28 11 30 12
REMARK SMILES IDX 17 13 18 14 19 15 20 16 24 17 22 18 21 19 23 21 32 23 29 25
REMARK SMILES IDX 5 27 14 28 6 29 12 30 7 31 10 32 15 33 13 35 8 37 9 38 11 40
REMARK H PARENT 21 20 23 22 32 24 29 26 15 34 13 36 9 39 11 41
REMARK Flexibility Score: inf
ROOT
ATOM      1  O   UNL     1     -11.517   8.670   7.632  1.00  0.00    -0.454 OA
ENDROOT
BRANCH   1   2
ATOM      2  C   UNL     1     -11.159   7.603   6.800  1.00  0.00     0.214 A 
ATOM      3  C   UNL     1      -9.939   7.592   6.090  1.00  0.00     0.180 A 
ATOM      4  O   UNL     1      -9.605   6.525   5.371  1.00  0.00    -0.452 OA
ATOM      5  C   UNL     1     -12.023   6.511   6.675  1.00  0.00     0.239 A 
ATOM      6  C   UNL     1     -10.382   5.456   5.249  1.00  0.00     0.146 A 
ATOM      7  O   UNL     1     -13.126   6.529   7.285  1.00  0.00    -0.285 OA
ATOM      8  C   UNL     1     -11.642   5.403   5.892  1.00  0.00     0.111 A 
ATOM      9  C   UNL     1      -9.944   4.380   4.471  1.00  0.00     0.094 A 
ATOM     10  C   UNL     1     -12.450   4.251   5.733  1.00  0.00     0.134 A 
ATOM     11  C   UNL     1     -10.745   3.242   4.321  1.00  0.00     0.123 A 
ATOM     12  C   UNL     1     -11.993   3.183   4.948  1.00  0.00     0.093 A 
BRANCH   3  13
ATOM     13  C   UNL     1      -9.005   8.741   6.110  1.00  0.00     0.025 A 
ATOM     14  C   UNL     1      -7.817   8.652   6.847  1.00  0.00     0.016 A 
ATOM     15  C   UNL     1      -6.925   9.725   6.879  1.00  0.00     0.051 A 
ATOM     16  C   UNL     1      -7.193  10.899   6.168  1.00  0.00     0.157 A 
ATOM     17  C   UNL     1      -9.266   9.908   5.371  1.00  0.00     0.062 A 
ATOM     18  C   UNL     1      -8.378  10.990   5.399  1.00  0.00     0.158 A 
BRANCH  16  19
ATOM     19  O   UNL     1      -6.264  11.937   6.249  1.00  0.00    -0.504 OA
ATOM     20  H   UNL     1      -6.449  12.828   6.687  1.00  0.00     0.293 HD
ENDBRANCH  16  19
BRANCH  18  21
ATOM     21  O   UNL     1      -8.709  12.125   4.654  1.00  0.00    -0.504 OA
ATOM     22  H   UNL     1      -8.847  13.041   5.054  1.00  0.00     0.293 HD
ENDBRANCH  18  21
ENDBRANCH   3  13
BRANCH  10  23
ATOM     23  O   UNL     1     -13.700   4.161   6.348  1.00  0.00    -0.507 OA
ATOM     24  H   UNL     1     -14.170   4.976   6.722  1.00  0.00     0.293 HD
ENDBRANCH  10  23
BRANCH  11  25
ATOM     25  O   UNL     1     -10.312   2.165   3.552  1.00  0.00    -0.508 OA
ATOM     26  H   UNL     1      -9.560   2.263   2.880  1.00  0.00     0.293 HD
ENDBRANCH  11  25
ENDBRANCH   1   2
BRANCH   1  27
ATOM     27  C   UNL     1     -11.847   9.969   7.128  1.00  0.00     0.339 C 
ATOM     28  C   UNL     1     -12.683  10.766   8.150  1.00  0.00     0.214 C 
ATOM     29  O   UNL     1     -12.501   9.874   5.872  1.00  0.00    -0.332 OA
ATOM     30  C   UNL     1     -14.136  10.243   8.243  1.00  0.00     0.180 C 
ATOM     31  C   UNL     1     -13.725   9.169   5.975  1.00  0.00     0.179 C 
ATOM     32  C   UNL     1     -14.734   9.958   6.847  1.00  0.00     0.177 C 
BRANCH  28  33
ATOM     33  O   UNL     1     -12.691  12.117   7.763  1.00  0.00    -0.384 OA
ATOM     34  H   UNL     1     -11.746  12.379   7.607  1.00  0.00     0.211 HD
ENDBRANCH  28  33
BRANCH  30  35
ATOM     35  O   UNL     1     -14.230   9.123   9.090  1.00  0.00    -0.387 OA
ATOM     36  H   UNL     1     -14.946   9.287   9.753  1.00  0.00     0.211 HD
ENDBRANCH  30  35
BRANCH  31  37
ATOM     37  C   UNL     1     -14.260   8.922   4.559  1.00  0.00     0.191 C 
BRANCH  37  38
ATOM     38  O   UNL     1     -14.155  10.089   3.790  1.00  0.00    -0.394 OA
ATOM     39  H   UNL     1     -13.781   9.809   2.914  1.00  0.00     0.210 HD
ENDBRANCH  37  38
ENDBRANCH  31  37
BRANCH  32  40
ATOM     40  O   UNL     1     -15.050  11.184   6.234  1.00  0.00    -0.387 OA
ATOM     41  H   UNL     1     -14.529  11.235   5.389  1.00  0.00     0.211 HD
ENDBRANCH  32  40
ENDBRANCH   1  27
TORSDOF 12
ENDMDL
MODEL 6
REMARK VINA RESULT:    -2.973      2.032      5.254
REMARK INTER + INTRA:          -5.063
REMARK INTER:                  -4.229
REMARK INTRA:                  -0.834
REMARK UNBOUND:                -0.700
REMARK SMILES O=c1c(O[C@H]2O[C@H](CO)[C@H](O)[C@@H](O)[C@@H]2O)c(-c2ccc(O)c(O)c2)oc2cc(O)cc(O)c12
REMARK SMILES IDX 4 1 3 2 16 3 25 4 2 5 26 6 1 7 33 8 27 9 31 10 28 11 30 12
REMARK SMILES IDX 17 13 18 14 19 15 20 16 24 17 22 18 21 19 23 21 32 23 29 25
REMARK SMILES IDX 5 27 14 28 6 29 12 30 7 31 10 32 15 33 13 35 8 37 9 38 11 40
REMARK H PARENT 21 20 23 22 32 24 29 26 15 34 13 36 9 39 11 41
REMARK Flexibility Score: inf
ROOT
ATOM      1  O   UNL     1     -11.312   8.394   6.500  1.00  0.00    -0.454 OA
ENDROOT
BRANCH   1   2
ATOM      2  C   UNL     1     -10.173   9.122   6.135  1.00  0.00     0.214 A 
ATOM      3  C   UNL     1     -10.260  10.283   5.336  1.00  0.00     0.180 A 
ATOM      4  O   UNL     1      -9.162  10.986   5.076  1.00  0.00    -0.452 OA
ATOM      5  C   UNL     1      -8.917   8.700   6.579  1.00  0.00     0.239 A 
ATOM      6  C   UNL     1      -7.954  10.637   5.502  1.00  0.00     0.146 A 
ATOM      7  O   UNL     1      -8.832   7.648   7.268  1.00  0.00    -0.285 OA
ATOM      8  C   UNL     1      -7.773   9.463   6.271  1.00  0.00     0.111 A 
ATOM      9  C   UNL     1      -6.858  11.442   5.179  1.00  0.00     0.094 A 
ATOM     10  C   UNL     1      -6.470   9.115   6.702  1.00  0.00     0.134 A 
ATOM     11  C   UNL     1      -5.573  11.096   5.611  1.00  0.00     0.123 A 
ATOM     12  C   UNL     1      -5.383   9.935   6.366  1.00  0.00     0.093 A 
BRANCH   3  13
ATOM     13  C   UNL     1     -11.542  10.753   4.765  1.00  0.00     0.025 A 
ATOM     14  C   UNL     1     -11.571  11.261   3.460  1.00  0.00     0.016 A 
ATOM     15  C   UNL     1     -12.771  11.711   2.904  1.00  0.00     0.051 A 
ATOM     16  C   UNL     1     -13.963  11.651   3.633  1.00  0.00     0.157 A 
ATOM     17  C   UNL     1     -12.742  10.664   5.491  1.00  0.00     0.062 A 
ATOM     18  C   UNL     1     -13.949  11.115   4.943  1.00  0.00     0.158 A 
BRANCH  16  19
ATOM     19  O   UNL     1     -15.125  12.125   3.023  1.00  0.00    -0.504 OA
ATOM     20  H   UNL     1     -15.793  12.731   3.475  1.00  0.00     0.293 HD
ENDBRANCH  16  19
BRANCH  18  21
ATOM     21  O   UNL     1     -15.101  11.012   5.728  1.00  0.00    -0.504 OA
ATOM     22  H   UNL     1     -15.946  10.549   5.430  1.00  0.00     0.293 HD
ENDBRANCH  18  21
ENDBRANCH   3  13
BRANCH  10  23
ATOM     23  O   UNL     1      -6.247   7.964   7.459  1.00  0.00    -0.507 OA
ATOM     24  H   UNL     1      -7.012   7.404   7.815  1.00  0.00     0.293 HD
ENDBRANCH  10  23
BRANCH  11  25
ATOM     25  O   UNL     1      -4.478  11.896   5.296  1.00  0.00    -0.508 OA
ATOM     26  H   UNL     1      -3.610  11.497   4.958  1.00  0.00     0.293 HD
ENDBRANCH  11  25
ENDBRANCH   1   2
BRANCH   1  27
ATOM     27  C   UNL     1     -11.702   7.183   5.843  1.00  0.00     0.339 C 
ATOM     28  C   UNL     1     -13.225   7.149   5.600  1.00  0.00     0.214 C 
ATOM     29  O   UNL     1     -11.257   6.047   6.567  1.00  0.00    -0.332 OA
ATOM     30  C   UNL     1     -14.013   6.896   6.907  1.00  0.00     0.180 C 
ATOM     31  C   UNL     1     -11.834   5.997   7.860  1.00  0.00     0.179 C 
ATOM     32  C   UNL     1     -13.366   5.785   7.763  1.00  0.00     0.177 C 
BRANCH  28  33
ATOM     33  O   UNL     1     -13.505   6.129   4.675  1.00  0.00    -0.384 OA
ATOM     34  H   UNL     1     -14.311   5.652   5.006  1.00  0.00     0.211 HD
ENDBRANCH  28  33
BRANCH  30  35
ATOM     35  O   UNL     1     -14.191   8.083   7.641  1.00  0.00    -0.387 OA
ATOM     36  H   UNL     1     -15.031   8.011   8.161  1.00  0.00     0.211 HD
ENDBRANCH  30  35
BRANCH  31  37
ATOM     37  C   UNL     1     -11.148   4.876   8.651  1.00  0.00     0.191 C 
BRANCH  37  38
ATOM     38  O   UNL     1      -9.868   5.281   9.057  1.00  0.00    -0.394 OA
ATOM     39  H   UNL     1      -9.941   6.247   9.274  1.00  0.00     0.210 HD
ENDBRANCH  37  38
ENDBRANCH  31  37
BRANCH  32  40
ATOM     40  O   UNL     1     -13.646   4.539   7.172  1.00  0.00    -0.387 OA
ATOM     41  H   UNL     1     -14.583   4.573   6.842  1.00  0.00     0.211 HD
ENDBRANCH  32  40
ENDBRANCH   1  27
TORSDOF 12
ENDMDL
