MODEL 1
REMARK VINA RESULT:    -4.884      0.000      0.000
REMARK INTER + INTRA:          -5.834
REMARK INTER:                  -5.741
REMARK INTRA:                  -0.093
REMARK UNBOUND:                -0.093
REMARK SMILES O=c1c(O)c(-c2ccc(O)cc2)oc2cc(O)cc(O)c12
REMARK SMILES IDX 5 1 3 2 2 3 1 4 21 5 19 6 18 7 16 8 15 9 14 10 13 11 6 12
REMARK SMILES IDX 7 13 8 14 9 15 12 16 11 17 10 18 4 20 20 22 17 24
REMARK H PARENT 10 19 4 21 20 23 17 25
REMARK Flexibility Score: inf
ROOT
ATOM      1  C   UNL     1     -26.230  51.135  41.913  1.00  0.00     0.180 A 
ATOM      2  C   UNL     1     -25.352  51.871  41.093  1.00  0.00     0.208 A 
ATOM      3  C   UNL     1     -24.952  53.151  41.506  1.00  0.00     0.238 A 
ATOM      4  O   UNL     1     -24.158  53.815  40.786  1.00  0.00    -0.285 OA
ATOM      5  C   UNL     1     -25.449  53.680  42.715  1.00  0.00     0.111 A 
ATOM      6  C   UNL     1     -25.098  54.963  43.200  1.00  0.00     0.134 A 
ATOM      7  C   UNL     1     -25.642  55.422  44.409  1.00  0.00     0.093 A 
ATOM      8  C   UNL     1     -26.528  54.627  45.139  1.00  0.00     0.123 A 
ATOM      9  C   UNL     1     -26.878  53.359  44.665  1.00  0.00     0.094 A 
ATOM     10  C   UNL     1     -26.345  52.883  43.464  1.00  0.00     0.146 A 
ATOM     11  O   UNL     1     -26.689  51.673  43.038  1.00  0.00    -0.452 OA
ENDROOT
BRANCH   1  12
ATOM     12  C   UNL     1     -26.683  49.771  41.555  1.00  0.00     0.021 A 
ATOM     13  C   UNL     1     -27.447  49.580  40.392  1.00  0.00     0.016 A 
ATOM     14  C   UNL     1     -27.904  48.305  40.046  1.00  0.00     0.047 A 
ATOM     15  C   UNL     1     -27.615  47.207  40.867  1.00  0.00     0.115 A 
ATOM     16  C   UNL     1     -26.414  48.668  42.385  1.00  0.00     0.016 A 
ATOM     17  C   UNL     1     -26.873  47.393  42.037  1.00  0.00     0.047 A 
BRANCH  15  18
ATOM     18  O   UNL     1     -28.065  45.932  40.533  1.00  0.00    -0.508 OA
ATOM     19  H   UNL     1     -28.098  45.186  41.219  1.00  0.00     0.293 HD
ENDBRANCH  15  18
ENDBRANCH   1  12
BRANCH   2  20
ATOM     20  O   UNL     1     -24.914  51.343  39.876  1.00  0.00    -0.502 OA
ATOM     21  H   UNL     1     -25.548  51.142  39.112  1.00  0.00     0.293 HD
ENDBRANCH   2  20
BRANCH   6  22
ATOM     22  O   UNL     1     -24.216  55.783  42.494  1.00  0.00    -0.507 OA
ATOM     23  H   UNL     1     -23.293  55.464  42.223  1.00  0.00     0.293 HD
ENDBRANCH   6  22
BRANCH   8  24
ATOM     24  O   UNL     1     -27.055  55.108  46.336  1.00  0.00    -0.508 OA
ATOM     25  H   UNL     1     -28.046  55.044  46.542  1.00  0.00     0.293 HD
ENDBRANCH   8  24
TORSDOF 5
ENDMDL
MODEL 2
REMARK VINA RESULT:    -4.218      1.843      7.016
REMARK INTER + INTRA:          -5.051
REMARK INTER:                  -4.817
REMARK INTRA:                  -0.234
REMARK UNBOUND:                -0.093
REMARK SMILES O=c1c(O)c(-c2ccc(O)cc2)oc2cc(O)cc(O)c12
REMARK SMILES IDX 5 1 3 2 2 3 1 4 21 5 19 6 18 7 16 8 15 9 14 10 13 11 6 12
REMARK SMILES IDX 7 13 8 14 9 15 12 16 11 17 10 18 4 20 20 22 17 24
REMARK H PARENT 10 19 4 21 20 23 17 25
REMARK Flexibility Score: inf
ROOT
ATOM      1  C   UNL     1     -25.992  51.473  43.537  1.00  0.00     0.180 A 
ATOM      2  C   UNL     1     -25.717  50.348  44.339  1.00  0.00     0.208 A 
ATOM      3  C   UNL     1     -25.834  49.068  43.775  1.00  0.00     0.238 A 
ATOM      4  O   UNL     1     -25.579  48.054  44.479  1.00  0.00    -0.285 OA
ATOM      5  C   UNL     1     -26.242  48.933  42.432  1.00  0.00     0.111 A 
ATOM      6  C   UNL     1     -26.389  47.680  41.790  1.00  0.00     0.134 A 
ATOM      7  C   UNL     1     -26.809  47.629  40.452  1.00  0.00     0.093 A 
ATOM      8  C   UNL     1     -27.085  48.802  39.747  1.00  0.00     0.123 A 
ATOM      9  C   UNL     1     -26.941  50.043  40.375  1.00  0.00     0.094 A 
ATOM     10  C   UNL     1     -26.522  50.115  41.707  1.00  0.00     0.146 A 
ATOM     11  O   UNL     1     -26.389  51.306  42.279  1.00  0.00    -0.452 OA
ENDROOT
BRANCH   1  12
ATOM     12  C   UNL     1     -25.872  52.855  44.054  1.00  0.00     0.021 A 
ATOM     13  C   UNL     1     -26.879  53.370  44.887  1.00  0.00     0.016 A 
ATOM     14  C   UNL     1     -26.798  54.681  45.369  1.00  0.00     0.047 A 
ATOM     15  C   UNL     1     -25.717  55.497  45.011  1.00  0.00     0.115 A 
ATOM     16  C   UNL     1     -24.801  53.687  43.683  1.00  0.00     0.016 A 
ATOM     17  C   UNL     1     -24.723  54.997  44.165  1.00  0.00     0.047 A 
BRANCH  15  18
ATOM     18  O   UNL     1     -25.626  56.804  45.484  1.00  0.00    -0.508 OA
ATOM     19  H   UNL     1     -26.451  57.378  45.617  1.00  0.00     0.293 HD
ENDBRANCH  15  18
ENDBRANCH   1  12
BRANCH   2  20
ATOM     20  O   UNL     1     -25.362  50.507  45.681  1.00  0.00    -0.502 OA
ATOM     21  H   UNL     1     -24.926  49.767  46.218  1.00  0.00     0.293 HD
ENDBRANCH   2  20
BRANCH   6  22
ATOM     22  O   UNL     1     -26.122  46.489  42.467  1.00  0.00    -0.507 OA
ATOM     23  H   UNL     1     -26.186  45.589  42.008  1.00  0.00     0.293 HD
ENDBRANCH   6  22
BRANCH   8  24
ATOM     24  O   UNL     1     -27.501  48.723  38.419  1.00  0.00    -0.508 OA
ATOM     25  H   UNL     1     -28.422  49.036  38.133  1.00  0.00     0.293 HD
ENDBRANCH   8  24
TORSDOF 5
ENDMDL
MODEL 3
REMARK VINA RESULT:    -4.183      1.847      6.658
REMARK INTER + INTRA:          -5.010
REMARK INTER:                  -4.918
REMARK INTRA:                  -0.092
REMARK UNBOUND:                -0.093
REMARK SMILES O=c1c(O)c(-c2ccc(O)cc2)oc2cc(O)cc(O)c12
REMARK SMILES IDX 5 1 3 2 2 3 1 4 21 5 19 6 18 7 16 8 15 9 14 10 13 11 6 12
REMARK SMILES IDX 7 13 8 14 9 15 12 16 11 17 10 18 4 20 20 22 17 24
REMARK H PARENT 10 19 4 21 20 23 17 25
REMARK Flexibility Score: inf
ROOT
ATOM      1  C   UNL     1     -25.967  51.727  43.371  1.00  0.00     0.180 A 
ATOM      2  C   UNL     1     -26.178  51.540  41.991  1.00  0.00     0.208 A 
ATOM      3  C   UNL     1     -26.282  50.232  41.493  1.00  0.00     0.238 A 
ATOM      4  O   UNL     1     -26.481  50.052  40.261  1.00  0.00    -0.285 OA
ATOM      5  C   UNL     1     -26.153  49.138  42.373  1.00  0.00     0.111 A 
ATOM      6  C   UNL     1     -26.241  47.790  41.951  1.00  0.00     0.134 A 
ATOM      7  C   UNL     1     -26.094  46.756  42.888  1.00  0.00     0.093 A 
ATOM      8  C   UNL     1     -25.860  47.044  44.235  1.00  0.00     0.123 A 
ATOM      9  C   UNL     1     -25.773  48.373  44.658  1.00  0.00     0.094 A 
ATOM     10  C   UNL     1     -25.919  49.417  43.740  1.00  0.00     0.146 A 
ATOM     11  O   UNL     1     -25.836  50.672  44.169  1.00  0.00    -0.452 OA
ENDROOT
BRANCH   1  12
ATOM     12  C   UNL     1     -25.866  53.076  43.975  1.00  0.00     0.021 A 
ATOM     13  C   UNL     1     -26.831  53.488  44.909  1.00  0.00     0.016 A 
ATOM     14  C   UNL     1     -26.769  54.765  45.475  1.00  0.00     0.047 A 
ATOM     15  C   UNL     1     -25.750  55.651  45.103  1.00  0.00     0.115 A 
ATOM     16  C   UNL     1     -24.858  53.978  43.591  1.00  0.00     0.016 A 
ATOM     17  C   UNL     1     -24.798  55.255  44.158  1.00  0.00     0.047 A 
BRANCH  15  18
ATOM     18  O   UNL     1     -25.678  56.926  45.659  1.00  0.00    -0.508 OA
ATOM     19  H   UNL     1     -25.745  57.759  45.086  1.00  0.00     0.293 HD
ENDBRANCH  15  18
ENDBRANCH   1  12
BRANCH   2  20
ATOM     20  O   UNL     1     -26.252  52.639  41.132  1.00  0.00    -0.502 OA
ATOM     21  H   UNL     1     -25.446  52.989  40.627  1.00  0.00     0.293 HD
ENDBRANCH   2  20
BRANCH   6  22
ATOM     22  O   UNL     1     -26.473  47.469  40.612  1.00  0.00    -0.507 OA
ATOM     23  H   UNL     1     -25.838  47.759  39.878  1.00  0.00     0.293 HD
ENDBRANCH   6  22
BRANCH   8  24
ATOM     24  O   UNL     1     -25.716  45.998  45.145  1.00  0.00    -0.508 OA
ATOM     25  H   UNL     1     -24.880  45.898  45.709  1.00  0.00     0.293 HD
ENDBRANCH   8  24
TORSDOF 5
ENDMDL
MODEL 4
REMARK VINA RESULT:    -4.090      7.945      8.873
REMARK INTER + INTRA:          -4.900
REMARK INTER:                  -4.674
REMARK INTRA:                  -0.227
REMARK UNBOUND:                -0.093
REMARK SMILES O=c1c(O)c(-c2ccc(O)cc2)oc2cc(O)cc(O)c12
REMARK SMILES IDX 5 1 3 2 2 3 1 4 21 5 19 6 18 7 16 8 15 9 14 10 13 11 6 12
REMARK SMILES IDX 7 13 8 14 9 15 12 16 11 17 10 18 4 20 20 22 17 24
REMARK H PARENT 10 19 4 21 20 23 17 25
REMARK Flexibility Score: inf
ROOT
ATOM      1  C   UNL     1     -27.160  54.995  34.295  1.00  0.00     0.180 A 
ATOM      2  C   UNL     1     -27.454  55.756  33.147  1.00  0.00     0.208 A 
ATOM      3  C   UNL     1     -27.744  57.122  33.294  1.00  0.00     0.238 A 
ATOM      4  O   UNL     1     -27.998  57.816  32.273  1.00  0.00    -0.285 OA
ATOM      5  C   UNL     1     -27.755  57.697  34.582  1.00  0.00     0.111 A 
ATOM      6  C   UNL     1     -28.041  59.063  34.816  1.00  0.00     0.134 A 
ATOM      7  C   UNL     1     -28.041  59.558  36.129  1.00  0.00     0.093 A 
ATOM      8  C   UNL     1     -27.763  58.716  37.208  1.00  0.00     0.123 A 
ATOM      9  C   UNL     1     -27.479  57.366  36.982  1.00  0.00     0.094 A 
ATOM     10  C   UNL     1     -27.472  56.854  35.682  1.00  0.00     0.146 A 
ATOM     11  O   UNL     1     -27.195  55.569  35.494  1.00  0.00    -0.452 OA
ENDROOT
BRANCH   1  12
ATOM     12  C   UNL     1     -26.826  53.555  34.219  1.00  0.00     0.021 A 
ATOM     13  C   UNL     1     -27.852  52.618  34.010  1.00  0.00     0.016 A 
ATOM     14  C   UNL     1     -27.563  51.251  33.958  1.00  0.00     0.047 A 
ATOM     15  C   UNL     1     -26.247  50.803  34.129  1.00  0.00     0.115 A 
ATOM     16  C   UNL     1     -25.510  53.096  34.410  1.00  0.00     0.016 A 
ATOM     17  C   UNL     1     -25.224  51.728  34.358  1.00  0.00     0.047 A 
BRANCH  15  18
ATOM     18  O   UNL     1     -25.946  49.444  34.079  1.00  0.00    -0.508 OA
ATOM     19  H   UNL     1     -26.587  48.775  33.667  1.00  0.00     0.293 HD
ENDBRANCH  15  18
ENDBRANCH   1  12
BRANCH   2  20
ATOM     20  O   UNL     1     -27.485  55.151  31.888  1.00  0.00    -0.502 OA
ATOM     21  H   UNL     1     -27.827  55.631  31.064  1.00  0.00     0.293 HD
ENDBRANCH   2  20
BRANCH   6  22
ATOM     22  O   UNL     1     -28.325  59.930  33.760  1.00  0.00    -0.507 OA
ATOM     23  H   UNL     1     -28.608  59.587  32.850  1.00  0.00     0.293 HD
ENDBRANCH   6  22
BRANCH   8  24
ATOM     24  O   UNL     1     -27.771  59.233  38.502  1.00  0.00    -0.508 OA
ATOM     25  H   UNL     1     -28.253  60.097  38.725  1.00  0.00     0.293 HD
ENDBRANCH   8  24
TORSDOF 5
ENDMDL
MODEL 5
REMARK VINA RESULT:    -3.990      7.984      9.195
REMARK INTER + INTRA:          -4.783
REMARK INTER:                  -4.503
REMARK INTRA:                  -0.279
REMARK UNBOUND:                -0.093
REMARK SMILES O=c1c(O)c(-c2ccc(O)cc2)oc2cc(O)cc(O)c12
REMARK SMILES IDX 5 1 3 2 2 3 1 4 21 5 19 6 18 7 16 8 15 9 14 10 13 11 6 12
REMARK SMILES IDX 7 13 8 14 9 15 12 16 11 17 10 18 4 20 20 22 17 24
REMARK H PARENT 10 19 4 21 20 23 17 25
REMARK Flexibility Score: inf
ROOT
ATOM      1  C   UNL     1     -27.480  53.126  33.399  1.00  0.00     0.180 A 
ATOM      2  C   UNL     1     -27.091  53.613  32.136  1.00  0.00     0.208 A 
ATOM      3  C   UNL     1     -26.731  54.963  32.012  1.00  0.00     0.238 A 
ATOM      4  O   UNL     1     -26.371  55.409  30.889  1.00  0.00    -0.285 OA
ATOM      5  C   UNL     1     -26.785  55.806  33.142  1.00  0.00     0.111 A 
ATOM      6  C   UNL     1     -26.443  57.179  33.100  1.00  0.00     0.134 A 
ATOM      7  C   UNL     1     -26.531  57.953  34.267  1.00  0.00     0.093 A 
ATOM      8  C   UNL     1     -26.955  57.384  35.470  1.00  0.00     0.123 A 
ATOM      9  C   UNL     1     -27.293  56.028  35.517  1.00  0.00     0.094 A 
ATOM     10  C   UNL     1     -27.210  55.239  34.366  1.00  0.00     0.146 A 
ATOM     11  O   UNL     1     -27.533  53.953  34.439  1.00  0.00    -0.452 OA
ENDROOT
BRANCH   1  12
ATOM     12  C   UNL     1     -27.854  51.709  33.614  1.00  0.00     0.021 A 
ATOM     13  C   UNL     1     -26.878  50.794  34.041  1.00  0.00     0.016 A 
ATOM     14  C   UNL     1     -27.203  49.447  34.228  1.00  0.00     0.047 A 
ATOM     15  C   UNL     1     -28.505  48.996  33.977  1.00  0.00     0.115 A 
ATOM     16  C   UNL     1     -29.154  51.245  33.345  1.00  0.00     0.016 A 
ATOM     17  C   UNL     1     -29.477  49.898  33.532  1.00  0.00     0.047 A 
BRANCH  15  18
ATOM     18  O   UNL     1     -28.842  47.657  34.160  1.00  0.00    -0.508 OA
ATOM     19  H   UNL     1     -29.732  47.384  34.561  1.00  0.00     0.293 HD
ENDBRANCH  15  18
ENDBRANCH   1  12
BRANCH   2  20
ATOM     20  O   UNL     1     -27.093  52.769  31.023  1.00  0.00    -0.502 OA
ATOM     21  H   UNL     1     -27.673  51.940  30.972  1.00  0.00     0.293 HD
ENDBRANCH   2  20
BRANCH   6  22
ATOM     22  O   UNL     1     -26.018  57.779  31.914  1.00  0.00    -0.507 OA
ATOM     23  H   UNL     1     -25.040  57.976  31.737  1.00  0.00     0.293 HD
ENDBRANCH   6  22
BRANCH   8  24
ATOM     24  O   UNL     1     -27.035  58.175  36.614  1.00  0.00    -0.508 OA
ATOM     25  H   UNL     1     -27.471  59.090  36.596  1.00  0.00     0.293 HD
ENDBRANCH   8  24
TORSDOF 5
ENDMDL
MODEL 6
REMARK VINA RESULT:    -3.950      1.764      3.102
REMARK INTER + INTRA:          -4.735
REMARK INTER:                  -4.444
REMARK INTRA:                  -0.292
REMARK UNBOUND:                -0.093
REMARK SMILES O=c1c(O)c(-c2ccc(O)cc2)oc2cc(O)cc(O)c12
REMARK SMILES IDX 5 1 3 2 2 3 1 4 21 5 19 6 18 7 16 8 15 9 14 10 13 11 6 12
REMARK SMILES IDX 7 13 8 14 9 15 12 16 11 17 10 18 4 20 20 22 17 24
REMARK H PARENT 10 19 4 21 20 23 17 25
REMARK Flexibility Score: inf
ROOT
ATOM      1  C   UNL     1     -26.220  50.489  41.488  1.00  0.00     0.180 A 
ATOM      2  C   UNL     1     -26.248  50.116  42.846  1.00  0.00     0.208 A 
ATOM      3  C   UNL     1     -25.936  51.077  43.820  1.00  0.00     0.238 A 
ATOM      4  O   UNL     1     -25.968  50.758  45.039  1.00  0.00    -0.285 OA
ATOM      5  C   UNL     1     -25.582  52.383  43.422  1.00  0.00     0.111 A 
ATOM      6  C   UNL     1     -25.250  53.409  44.340  1.00  0.00     0.134 A 
ATOM      7  C   UNL     1     -24.900  54.681  43.864  1.00  0.00     0.093 A 
ATOM      8  C   UNL     1     -24.874  54.947  42.493  1.00  0.00     0.123 A 
ATOM      9  C   UNL     1     -25.203  53.939  41.582  1.00  0.00     0.094 A 
ATOM     10  C   UNL     1     -25.556  52.665  42.036  1.00  0.00     0.146 A 
ATOM     11  O   UNL     1     -25.867  51.726  41.150  1.00  0.00    -0.452 OA
ENDROOT
BRANCH   1  12
ATOM     12  C   UNL     1     -26.556  49.538  40.404  1.00  0.00     0.021 A 
ATOM     13  C   UNL     1     -25.520  48.898  39.702  1.00  0.00     0.016 A 
ATOM     14  C   UNL     1     -25.813  48.013  38.660  1.00  0.00     0.047 A 
ATOM     15  C   UNL     1     -27.144  47.768  38.297  1.00  0.00     0.115 A 
ATOM     16  C   UNL     1     -27.888  49.302  40.021  1.00  0.00     0.016 A 
ATOM     17  C   UNL     1     -28.178  48.418  38.978  1.00  0.00     0.047 A 
BRANCH  15  18
ATOM     18  O   UNL     1     -27.449  46.889  37.261  1.00  0.00    -0.508 OA
ATOM     19  H   UNL     1     -27.983  47.188  36.453  1.00  0.00     0.293 HD
ENDBRANCH  15  18
ENDBRANCH   1  12
BRANCH   2  20
ATOM     20  O   UNL     1     -26.553  48.803  43.211  1.00  0.00    -0.502 OA
ATOM     21  H   UNL     1     -25.880  48.050  43.141  1.00  0.00     0.293 HD
ENDBRANCH   2  20
BRANCH   6  22
ATOM     22  O   UNL     1     -25.264  53.175  45.716  1.00  0.00    -0.507 OA
ATOM     23  H   UNL     1     -25.102  53.918  46.384  1.00  0.00     0.293 HD
ENDBRANCH   6  22
BRANCH   8  24
ATOM     24  O   UNL     1     -24.522  56.220  42.047  1.00  0.00    -0.508 OA
ATOM     25  H   UNL     1     -23.791  56.356  41.358  1.00  0.00     0.293 HD
ENDBRANCH   8  24
TORSDOF 5
ENDMDL
MODEL 7
REMARK VINA RESULT:    -3.941      2.370      6.991
REMARK INTER + INTRA:          -4.725
REMARK INTER:                  -4.447
REMARK INTRA:                  -0.278
REMARK UNBOUND:                -0.093
REMARK SMILES O=c1c(O)c(-c2ccc(O)cc2)oc2cc(O)cc(O)c12
REMARK SMILES IDX 5 1 3 2 2 3 1 4 21 5 19 6 18 7 16 8 15 9 14 10 13 11 6 12
REMARK SMILES IDX 7 13 8 14 9 15 12 16 11 17 10 18 4 20 20 22 17 24
REMARK H PARENT 10 19 4 21 20 23 17 25
REMARK Flexibility Score: inf
ROOT
ATOM      1  C   UNL     1     -25.886  50.413  41.482  1.00  0.00     0.180 A 
ATOM      2  C   UNL     1     -25.661  49.661  42.652  1.00  0.00     0.208 A 
ATOM      3  C   UNL     1     -26.383  48.472  42.843  1.00  0.00     0.238 A 
ATOM      4  O   UNL     1     -26.183  47.785  43.881  1.00  0.00    -0.285 OA
ATOM      5  C   UNL     1     -27.328  48.068  41.878  1.00  0.00     0.111 A 
ATOM      6  C   UNL     1     -28.099  46.886  41.997  1.00  0.00     0.134 A 
ATOM      7  C   UNL     1     -29.026  46.557  40.997  1.00  0.00     0.093 A 
ATOM      8  C   UNL     1     -29.197  47.383  39.884  1.00  0.00     0.123 A 
ATOM      9  C   UNL     1     -28.437  48.550  39.760  1.00  0.00     0.094 A 
ATOM     10  C   UNL     1     -27.508  48.895  40.745  1.00  0.00     0.146 A 
ATOM     11  O   UNL     1     -26.796  50.007  40.601  1.00  0.00    -0.452 OA
ENDROOT
BRANCH   1  12
ATOM     12  C   UNL     1     -25.150  51.666  41.200  1.00  0.00     0.021 A 
ATOM     13  C   UNL     1     -25.621  52.878  41.731  1.00  0.00     0.016 A 
ATOM     14  C   UNL     1     -24.955  54.077  41.459  1.00  0.00     0.047 A 
ATOM     15  C   UNL     1     -23.819  54.081  40.639  1.00  0.00     0.115 A 
ATOM     16  C   UNL     1     -24.021  51.680  40.361  1.00  0.00     0.016 A 
ATOM     17  C   UNL     1     -23.357  52.881  40.090  1.00  0.00     0.047 A 
BRANCH  15  18
ATOM     18  O   UNL     1     -23.147  55.269  40.361  1.00  0.00    -0.508 OA
ATOM     19  H   UNL     1     -23.504  56.165  40.674  1.00  0.00     0.293 HD
ENDBRANCH  15  18
ENDBRANCH   1  12
BRANCH   2  20
ATOM     20  O   UNL     1     -24.756  50.109  43.616  1.00  0.00    -0.502 OA
ATOM     21  H   UNL     1     -23.932  50.648  43.378  1.00  0.00     0.293 HD
ENDBRANCH   2  20
BRANCH   6  22
ATOM     22  O   UNL     1     -27.953  46.040  43.098  1.00  0.00    -0.507 OA
ATOM     23  H   UNL     1     -28.161  46.350  44.039  1.00  0.00     0.293 HD
ENDBRANCH   6  22
BRANCH   8  24
ATOM     24  O   UNL     1     -30.125  47.033  38.905  1.00  0.00    -0.508 OA
ATOM     25  H   UNL     1     -31.023  47.498  38.836  1.00  0.00     0.293 HD
ENDBRANCH   8  24
TORSDOF 5
ENDMDL
MODEL 8
REMARK VINA RESULT:    -3.918      1.847      6.884
REMARK INTER + INTRA:          -4.698
REMARK INTER:                  -4.400
REMARK INTRA:                  -0.298
REMARK UNBOUND:                -0.093
REMARK SMILES O=c1c(O)c(-c2ccc(O)cc2)oc2cc(O)cc(O)c12
REMARK SMILES IDX 5 1 3 2 2 3 1 4 21 5 19 6 18 7 16 8 15 9 14 10 13 11 6 12
REMARK SMILES IDX 7 13 8 14 9 15 12 16 11 17 10 18 4 20 20 22 17 24
REMARK H PARENT 10 19 4 21 20 23 17 25
REMARK Flexibility Score: inf
ROOT
ATOM      1  C   UNL     1     -26.240  50.331  42.631  1.00  0.00     0.180 A 
ATOM      2  C   UNL     1     -26.476  50.251  41.245  1.00  0.00     0.208 A 
ATOM      3  C   UNL     1     -26.852  49.017  40.692  1.00  0.00     0.238 A 
ATOM      4  O   UNL     1     -27.076  48.934  39.454  1.00  0.00    -0.285 OA
ATOM      5  C   UNL     1     -26.965  47.885  41.525  1.00  0.00     0.111 A 
ATOM      6  C   UNL     1     -27.335  46.605  41.046  1.00  0.00     0.134 A 
ATOM      7  C   UNL     1     -27.417  45.526  41.939  1.00  0.00     0.093 A 
ATOM      8  C   UNL     1     -27.137  45.700  43.296  1.00  0.00     0.123 A 
ATOM      9  C   UNL     1     -26.773  46.962  43.775  1.00  0.00     0.094 A 
ATOM     10  C   UNL     1     -26.687  48.050  42.902  1.00  0.00     0.146 A 
ATOM     11  O   UNL     1     -26.343  49.240  43.383  1.00  0.00    -0.452 OA
ENDROOT
BRANCH   1  12
ATOM     12  C   UNL     1     -25.859  51.601  43.291  1.00  0.00     0.021 A 
ATOM     13  C   UNL     1     -24.500  51.907  43.467  1.00  0.00     0.016 A 
ATOM     14  C   UNL     1     -24.117  53.090  44.107  1.00  0.00     0.047 A 
ATOM     15  C   UNL     1     -25.089  53.973  44.594  1.00  0.00     0.115 A 
ATOM     16  C   UNL     1     -26.830  52.483  43.800  1.00  0.00     0.016 A 
ATOM     17  C   UNL     1     -26.444  53.664  44.441  1.00  0.00     0.047 A 
BRANCH  15  18
ATOM     18  O   UNL     1     -24.720  55.154  45.234  1.00  0.00    -0.508 OA
ATOM     19  H   UNL     1     -25.110  55.412  46.134  1.00  0.00     0.293 HD
ENDBRANCH  15  18
ENDBRANCH   1  12
BRANCH   2  20
ATOM     20  O   UNL     1     -26.308  51.375  40.434  1.00  0.00    -0.502 OA
ATOM     21  H   UNL     1     -25.400  51.791  40.263  1.00  0.00     0.293 HD
ENDBRANCH   2  20
BRANCH   6  22
ATOM     22  O   UNL     1     -27.619  46.397  39.696  1.00  0.00    -0.507 OA
ATOM     23  H   UNL     1     -28.514  46.651  39.295  1.00  0.00     0.293 HD
ENDBRANCH   6  22
BRANCH   8  24
ATOM     24  O   UNL     1     -27.226  44.611  44.161  1.00  0.00    -0.508 OA
ATOM     25  H   UNL     1     -26.773  43.729  43.950  1.00  0.00     0.293 HD
ENDBRANCH   8  24
TORSDOF 5
ENDMDL
MODEL 9
REMARK VINA RESULT:    -3.828      8.255     10.846
REMARK INTER + INTRA:          -4.592
REMARK INTER:                  -4.343
REMARK INTRA:                  -0.250
REMARK UNBOUND:                -0.093
REMARK SMILES O=c1c(O)c(-c2ccc(O)cc2)oc2cc(O)cc(O)c12
REMARK SMILES IDX 5 1 3 2 2 3 1 4 21 5 19 6 18 7 16 8 15 9 14 10 13 11 6 12
REMARK SMILES IDX 7 13 8 14 9 15 12 16 11 17 10 18 4 20 20 22 17 24
REMARK H PARENT 10 19 4 21 20 23 17 25
REMARK Flexibility Score: inf
ROOT
ATOM      1  C   UNL     1     -27.665  52.561  33.542  1.00  0.00     0.180 A 
ATOM      2  C   UNL     1     -28.878  51.903  33.258  1.00  0.00     0.208 A 
ATOM      3  C   UNL     1     -28.983  50.530  33.527  1.00  0.00     0.238 A 
ATOM      4  O   UNL     1     -30.067  49.932  33.286  1.00  0.00    -0.285 OA
ATOM      5  C   UNL     1     -27.875  49.835  34.053  1.00  0.00     0.111 A 
ATOM      6  C   UNL     1     -27.897  48.451  34.348  1.00  0.00     0.134 A 
ATOM      7  C   UNL     1     -26.749  47.831  34.863  1.00  0.00     0.093 A 
ATOM      8  C   UNL     1     -25.582  48.565  35.086  1.00  0.00     0.123 A 
ATOM      9  C   UNL     1     -25.554  49.933  34.798  1.00  0.00     0.094 A 
ATOM     10  C   UNL     1     -26.688  50.569  34.286  1.00  0.00     0.146 A 
ATOM     11  O   UNL     1     -26.636  51.871  34.025  1.00  0.00    -0.452 OA
ENDROOT
BRANCH   1  12
ATOM     12  C   UNL     1     -27.483  54.012  33.305  1.00  0.00     0.021 A 
ATOM     13  C   UNL     1     -27.224  54.470  32.003  1.00  0.00     0.016 A 
ATOM     14  C   UNL     1     -27.026  55.833  31.758  1.00  0.00     0.047 A 
ATOM     15  C   UNL     1     -27.069  56.751  32.815  1.00  0.00     0.115 A 
ATOM     16  C   UNL     1     -27.505  54.937  34.364  1.00  0.00     0.016 A 
ATOM     17  C   UNL     1     -27.306  56.298  34.117  1.00  0.00     0.047 A 
BRANCH  15  18
ATOM     18  O   UNL     1     -26.874  58.111  32.584  1.00  0.00    -0.508 OA
ATOM     19  H   UNL     1     -25.946  58.519  32.581  1.00  0.00     0.293 HD
ENDBRANCH  15  18
ENDBRANCH   1  12
BRANCH   2  20
ATOM     20  O   UNL     1     -29.944  52.604  32.690  1.00  0.00    -0.502 OA
ATOM     21  H   UNL     1     -30.202  53.537  32.990  1.00  0.00     0.293 HD
ENDBRANCH   2  20
BRANCH   6  22
ATOM     22  O   UNL     1     -29.047  47.689  34.135  1.00  0.00    -0.507 OA
ATOM     23  H   UNL     1     -29.962  48.117  34.053  1.00  0.00     0.293 HD
ENDBRANCH   6  22
BRANCH   8  24
ATOM     24  O   UNL     1     -24.455  47.924  35.597  1.00  0.00    -0.508 OA
ATOM     25  H   UNL     1     -24.079  47.087  35.164  1.00  0.00     0.293 HD
ENDBRANCH   8  24
TORSDOF 5
ENDMDL
