MODEL 1
REMARK VINA RESULT:    -1.803      0.000      0.000
REMARK INTER + INTRA:          -4.515
REMARK INTER:                  -3.385
REMARK INTRA:                  -1.130
REMARK UNBOUND:                -1.130
REMARK SMILES O=C([O-])CCCCCCCCCCCCCCC(=O)[O-]
REMARK SMILES IDX 10 1 9 2 8 3 7 4 6 5 5 6 4 7 2 8 1 9 3 10 11 11 12 12 13 13
REMARK SMILES IDX 14 14 15 15 16 16 17 17 18 18 19 19 20 20
REMARK H PARENT
REMARK Flexibility Score: inf
ROOT
ATOM      1  C   UNL     1     -51.702 120.420 -10.587  1.00  0.00     0.000 C 
ENDROOT
BRANCH   1   2
ATOM      2  C   UNL     1     -53.215 120.246 -10.811  1.00  0.00     0.000 C 
BRANCH   2   3
ATOM      3  C   UNL     1     -53.693 120.886 -12.124  1.00  0.00     0.000 C 
BRANCH   3   4
ATOM      4  C   UNL     1     -54.349 122.260 -11.904  1.00  0.00     0.000 C 
BRANCH   4   5
ATOM      5  C   UNL     1     -55.807 122.154 -11.423  1.00  0.00     0.000 C 
BRANCH   5   6
ATOM      6  C   UNL     1     -55.980 121.995  -9.899  1.00  0.00     0.006 C 
BRANCH   6   7
ATOM      7  C   UNL     1     -56.690 120.703  -9.467  1.00  0.00     0.053 C 
BRANCH   7   8
ATOM      8  C   UNL     1     -57.163 119.906 -10.644  1.00  0.00     0.041 C 
ATOM      9  O   UNL     1     -56.568 118.846 -10.972  1.00  0.00    -0.550 OA
ATOM     10  O   UNL     1     -58.241 120.351 -11.397  1.00  0.00    -0.550 OA
ENDBRANCH   7   8
ENDBRANCH   6   7
ENDBRANCH   5   6
ENDBRANCH   4   5
ENDBRANCH   3   4
ENDBRANCH   2   3
ENDBRANCH   1   2
BRANCH   1  11
ATOM     11  C   UNL     1     -50.996 121.074 -11.786  1.00  0.00     0.000 C 
BRANCH  11  12
ATOM     12  C   UNL     1     -49.507 121.353 -11.513  1.00  0.00     0.000 C 
BRANCH  12  13
ATOM     13  C   UNL     1     -49.061 122.731 -12.026  1.00  0.00     0.000 C 
BRANCH  13  14
ATOM     14  C   UNL     1     -49.234 123.840 -10.979  1.00  0.00     0.000 C 
BRANCH  14  15
ATOM     15  C   UNL     1     -49.131 123.271  -9.556  1.00  0.00     0.000 C 
BRANCH  15  16
ATOM     16  C   UNL     1     -50.360 123.603  -8.688  1.00  0.00     0.006 C 
BRANCH  16  17
ATOM     17  C   UNL     1     -51.692 123.609  -9.455  1.00  0.00     0.053 C 
BRANCH  17  18
ATOM     18  C   UNL     1     -52.842 123.202  -8.586  1.00  0.00     0.041 C 
ATOM     19  O   UNL     1     -52.876 122.050  -8.079  1.00  0.00    -0.550 OA
ATOM     20  O   UNL     1     -53.893 124.083  -8.366  1.00  0.00    -0.550 OA
ENDBRANCH  17  18
ENDBRANCH  16  17
ENDBRANCH  15  16
ENDBRANCH  14  15
ENDBRANCH  13  14
ENDBRANCH  12  13
ENDBRANCH  11  12
ENDBRANCH   1  11
TORSDOF 15
ENDMDL
MODEL 2
REMARK VINA RESULT:    -1.521      1.939      6.020
REMARK INTER + INTRA:          -3.985
REMARK INTER:                  -3.107
REMARK INTRA:                  -0.878
REMARK UNBOUND:                -1.130
REMARK SMILES O=C([O-])CCCCCCCCCCCCCCC(=O)[O-]
REMARK SMILES IDX 10 1 9 2 8 3 7 4 6 5 5 6 4 7 2 8 1 9 3 10 11 11 12 12 13 13
REMARK SMILES IDX 14 14 15 15 16 16 17 17 18 18 19 19 20 20
REMARK H PARENT
REMARK Flexibility Score: inf
ROOT
ATOM      1  C   UNL     1     -54.421 122.061  -8.581  1.00  0.00     0.000 C 
ENDROOT
BRANCH   1   2
ATOM      2  C   UNL     1     -53.400 123.145  -8.966  1.00  0.00     0.000 C 
BRANCH   2   3
ATOM      3  C   UNL     1     -52.672 123.729  -7.744  1.00  0.00     0.000 C 
BRANCH   3   4
ATOM      4  C   UNL     1     -51.191 124.032  -8.030  1.00  0.00     0.000 C 
BRANCH   4   5
ATOM      5  C   UNL     1     -50.792 123.730  -9.485  1.00  0.00     0.000 C 
BRANCH   5   6
ATOM      6  C   UNL     1     -49.272 123.681  -9.747  1.00  0.00     0.006 C 
BRANCH   6   7
ATOM      7  C   UNL     1     -48.875 123.045 -11.088  1.00  0.00     0.053 C 
BRANCH   7   8
ATOM      8  C   UNL     1     -49.019 121.554 -11.064  1.00  0.00     0.041 C 
ATOM      9  O   UNL     1     -49.269 120.924 -12.125  1.00  0.00    -0.550 OA
ATOM     10  O   UNL     1     -48.909 120.864  -9.864  1.00  0.00    -0.550 OA
ENDBRANCH   7   8
ENDBRANCH   6   7
ENDBRANCH   5   6
ENDBRANCH   4   5
ENDBRANCH   3   4
ENDBRANCH   2   3
ENDBRANCH   1   2
BRANCH   1  11
ATOM     11  C   UNL     1     -53.900 120.637  -8.835  1.00  0.00     0.000 C 
BRANCH  11  12
ATOM     12  C   UNL     1     -52.528 120.627  -9.531  1.00  0.00     0.000 C 
BRANCH  12  13
ATOM     13  C   UNL     1     -52.642 120.535 -11.061  1.00  0.00     0.000 C 
BRANCH  13  14
ATOM     14  C   UNL     1     -52.558 121.907 -11.747  1.00  0.00     0.000 C 
BRANCH  14  15
ATOM     15  C   UNL     1     -53.961 122.482 -11.993  1.00  0.00     0.000 C 
BRANCH  15  16
ATOM     16  C   UNL     1     -55.041 121.392 -12.124  1.00  0.00     0.006 C 
BRANCH  16  17
ATOM     17  C   UNL     1     -56.253 121.589 -11.200  1.00  0.00     0.053 C 
BRANCH  17  18
ATOM     18  C   UNL     1     -57.167 120.401 -11.211  1.00  0.00     0.041 C 
ATOM     19  O   UNL     1     -58.133 120.352 -12.017  1.00  0.00    -0.550 OA
ATOM     20  O   UNL     1     -56.972 119.366 -10.306  1.00  0.00    -0.550 OA
ENDBRANCH  17  18
ENDBRANCH  16  17
ENDBRANCH  15  16
ENDBRANCH  14  15
ENDBRANCH  13  14
ENDBRANCH  12  13
ENDBRANCH  11  12
ENDBRANCH   1  11
TORSDOF 15
ENDMDL
MODEL 3
REMARK VINA RESULT:    -1.351      1.968      6.111
REMARK INTER + INTRA:          -3.666
REMARK INTER:                  -4.404
REMARK INTRA:                   0.739
REMARK UNBOUND:                -1.130
REMARK SMILES O=C([O-])CCCCCCCCCCCCCCC(=O)[O-]
REMARK SMILES IDX 10 1 9 2 8 3 7 4 6 5 5 6 4 7 2 8 1 9 3 10 11 11 12 12 13 13
REMARK SMILES IDX 14 14 15 15 16 16 17 17 18 18 19 19 20 20
REMARK H PARENT
REMARK Flexibility Score: inf
ROOT
ATOM      1  C   UNL     1     -52.806 119.979 -10.756  1.00  0.00     0.000 C 
ENDROOT
BRANCH   1   2
ATOM      2  C   UNL     1     -52.372 120.600 -12.096  1.00  0.00     0.000 C 
BRANCH   2   3
ATOM      3  C   UNL     1     -51.178 121.555 -11.943  1.00  0.00     0.000 C 
BRANCH   3   4
ATOM      4  C   UNL     1     -50.249 121.154 -10.783  1.00  0.00     0.000 C 
BRANCH   4   5
ATOM      5  C   UNL     1     -48.882 121.859 -10.844  1.00  0.00     0.000 C 
BRANCH   5   6
ATOM      6  C   UNL     1     -48.928 123.330 -11.306  1.00  0.00     0.006 C 
BRANCH   6   7
ATOM      7  C   UNL     1     -48.877 124.360 -10.166  1.00  0.00     0.053 C 
BRANCH   7   8
ATOM      8  C   UNL     1     -49.903 124.078  -9.112  1.00  0.00     0.041 C 
ATOM      9  O   UNL     1     -50.859 123.294  -9.351  1.00  0.00    -0.550 OA
ATOM     10  O   UNL     1     -49.820 124.705  -7.876  1.00  0.00    -0.550 OA
ENDBRANCH   7   8
ENDBRANCH   6   7
ENDBRANCH   5   6
ENDBRANCH   4   5
ENDBRANCH   3   4
ENDBRANCH   2   3
ENDBRANCH   1   2
BRANCH   1  11
ATOM     11  C   UNL     1     -54.302 119.630 -10.719  1.00  0.00     0.000 C 
BRANCH  11  12
ATOM     12  C   UNL     1     -55.027 120.005 -12.024  1.00  0.00     0.000 C 
BRANCH  12  13
ATOM     13  C   UNL     1     -56.502 120.373 -11.795  1.00  0.00     0.000 C 
BRANCH  13  14
ATOM     14  C   UNL     1     -56.934 120.214 -10.330  1.00  0.00     0.000 C 
BRANCH  14  15
ATOM     15  C   UNL     1     -56.992 121.577  -9.625  1.00  0.00     0.000 C 
BRANCH  15  16
ATOM     16  C   UNL     1     -56.221 121.595  -8.292  1.00  0.00     0.006 C 
BRANCH  16  17
ATOM     17  C   UNL     1     -54.692 121.638  -8.446  1.00  0.00     0.053 C 
BRANCH  17  18
ATOM     18  C   UNL     1     -54.230 122.898  -9.111  1.00  0.00     0.041 C 
ATOM     19  O   UNL     1     -53.894 123.894  -8.417  1.00  0.00    -0.550 OA
ATOM     20  O   UNL     1     -54.203 122.984 -10.497  1.00  0.00    -0.550 OA
ENDBRANCH  17  18
ENDBRANCH  16  17
ENDBRANCH  15  16
ENDBRANCH  14  15
ENDBRANCH  13  14
ENDBRANCH  12  13
ENDBRANCH  11  12
ENDBRANCH   1  11
TORSDOF 15
ENDMDL
MODEL 4
REMARK VINA RESULT:    -1.344      2.121      3.747
REMARK INTER + INTRA:          -3.653
REMARK INTER:                  -2.865
REMARK INTRA:                  -0.788
REMARK UNBOUND:                -1.130
REMARK SMILES O=C([O-])CCCCCCCCCCCCCCC(=O)[O-]
REMARK SMILES IDX 10 1 9 2 8 3 7 4 6 5 5 6 4 7 2 8 1 9 3 10 11 11 12 12 13 13
REMARK SMILES IDX 14 14 15 15 16 16 17 17 18 18 19 19 20 20
REMARK H PARENT
REMARK Flexibility Score: inf
ROOT
ATOM      1  C   UNL     1     -54.860 121.740  -8.374  1.00  0.00     0.000 C 
ENDROOT
BRANCH   1   2
ATOM      2  C   UNL     1     -56.381 121.674  -8.597  1.00  0.00     0.000 C 
BRANCH   2   3
ATOM      3  C   UNL     1     -56.768 121.867 -10.072  1.00  0.00     0.000 C 
BRANCH   3   4
ATOM      4  C   UNL     1     -57.831 120.857 -10.538  1.00  0.00     0.000 C 
BRANCH   4   5
ATOM      5  C   UNL     1     -57.527 120.272 -11.929  1.00  0.00     0.000 C 
BRANCH   5   6
ATOM      6  C   UNL     1     -56.136 119.622 -12.072  1.00  0.00     0.006 C 
BRANCH   6   7
ATOM      7  C   UNL     1     -55.500 119.176 -10.746  1.00  0.00     0.053 C 
BRANCH   7   8
ATOM      8  C   UNL     1     -54.008 119.310 -10.769  1.00  0.00     0.041 C 
ATOM      9  O   UNL     1     -53.406 119.506 -11.857  1.00  0.00    -0.550 OA
ATOM     10  O   UNL     1     -53.281 119.186  -9.592  1.00  0.00    -0.550 OA
ENDBRANCH   7   8
ENDBRANCH   6   7
ENDBRANCH   5   6
ENDBRANCH   4   5
ENDBRANCH   3   4
ENDBRANCH   2   3
ENDBRANCH   1   2
BRANCH   1  11
ATOM     11  C   UNL     1     -54.208 122.942  -9.078  1.00  0.00     0.000 C 
BRANCH  11  12
ATOM     12  C   UNL     1     -52.842 122.594  -9.695  1.00  0.00     0.000 C 
BRANCH  12  13
ATOM     13  C   UNL     1     -52.810 122.806 -11.216  1.00  0.00     0.000 C 
BRANCH  13  14
ATOM     14  C   UNL     1     -51.525 122.270 -11.865  1.00  0.00     0.000 C 
BRANCH  14  15
ATOM     15  C   UNL     1     -50.826 121.260 -10.943  1.00  0.00     0.000 C 
BRANCH  15  16
ATOM     16  C   UNL     1     -49.310 121.504 -10.829  1.00  0.00     0.006 C 
BRANCH  16  17
ATOM     17  C   UNL     1     -48.875 122.188  -9.524  1.00  0.00     0.053 C 
BRANCH  17  18
ATOM     18  C   UNL     1     -49.308 123.620  -9.468  1.00  0.00     0.041 C 
ATOM     19  O   UNL     1     -48.888 124.443 -10.323  1.00  0.00    -0.550 OA
ATOM     20  O   UNL     1     -50.148 124.054  -8.450  1.00  0.00    -0.550 OA
ENDBRANCH  17  18
ENDBRANCH  16  17
ENDBRANCH  15  16
ENDBRANCH  14  15
ENDBRANCH  13  14
ENDBRANCH  12  13
ENDBRANCH  11  12
ENDBRANCH   1  11
TORSDOF 15
ENDMDL
MODEL 5
REMARK VINA RESULT:    -1.320      1.887      3.099
REMARK INTER + INTRA:          -3.608
REMARK INTER:                  -2.985
REMARK INTRA:                  -0.624
REMARK UNBOUND:                -1.130
REMARK SMILES O=C([O-])CCCCCCCCCCCCCCC(=O)[O-]
REMARK SMILES IDX 10 1 9 2 8 3 7 4 6 5 5 6 4 7 2 8 1 9 3 10 11 11 12 12 13 13
REMARK SMILES IDX 14 14 15 15 16 16 17 17 18 18 19 19 20 20
REMARK H PARENT
REMARK Flexibility Score: inf
ROOT
ATOM      1  C   UNL     1     -54.069 119.710 -10.647  1.00  0.00     0.000 C 
ENDROOT
BRANCH   1   2
ATOM      2  C   UNL     1     -54.540 120.135 -12.049  1.00  0.00     0.000 C 
BRANCH   2   3
ATOM      3  C   UNL     1     -55.894 120.862 -12.019  1.00  0.00     0.000 C 
BRANCH   3   4
ATOM      4  C   UNL     1     -57.033 119.965 -11.501  1.00  0.00     0.000 C 
BRANCH   4   5
ATOM      5  C   UNL     1     -57.668 120.498 -10.205  1.00  0.00     0.000 C 
BRANCH   5   6
ATOM      6  C   UNL     1     -56.951 121.712  -9.579  1.00  0.00     0.006 C 
BRANCH   6   7
ATOM      7  C   UNL     1     -55.821 121.351  -8.602  1.00  0.00     0.053 C 
BRANCH   7   8
ATOM      8  C   UNL     1     -54.620 122.227  -8.789  1.00  0.00     0.041 C 
ATOM      9  O   UNL     1     -54.607 123.099  -9.696  1.00  0.00    -0.550 OA
ATOM     10  O   UNL     1     -53.503 122.056  -7.982  1.00  0.00    -0.550 OA
ENDBRANCH   7   8
ENDBRANCH   6   7
ENDBRANCH   5   6
ENDBRANCH   4   5
ENDBRANCH   3   4
ENDBRANCH   2   3
ENDBRANCH   1   2
BRANCH   1  11
ATOM     11  C   UNL     1     -52.575 119.988 -10.413  1.00  0.00     0.000 C 
BRANCH  11  12
ATOM     12  C   UNL     1     -52.075 121.215 -11.194  1.00  0.00     0.000 C 
BRANCH  12  13
ATOM     13  C   UNL     1     -50.820 120.913 -12.029  1.00  0.00     0.000 C 
BRANCH  13  14
ATOM     14  C   UNL     1     -49.551 121.555 -11.449  1.00  0.00     0.000 C 
BRANCH  14  15
ATOM     15  C   UNL     1     -49.267 122.908 -12.118  1.00  0.00     0.000 C 
BRANCH  15  16
ATOM     16  C   UNL     1     -48.908 124.012 -11.107  1.00  0.00     0.006 C 
BRANCH  16  17
ATOM     17  C   UNL     1     -48.877 123.544  -9.644  1.00  0.00     0.053 C 
BRANCH  17  18
ATOM     18  C   UNL     1     -50.073 124.017  -8.877  1.00  0.00     0.041 C 
ATOM     19  O   UNL     1     -51.224 123.604  -9.178  1.00  0.00    -0.550 OA
ATOM     20  O   UNL     1     -49.921 124.942  -7.852  1.00  0.00    -0.550 OA
ENDBRANCH  17  18
ENDBRANCH  16  17
ENDBRANCH  15  16
ENDBRANCH  14  15
ENDBRANCH  13  14
ENDBRANCH  12  13
ENDBRANCH  11  12
ENDBRANCH   1  11
TORSDOF 15
ENDMDL
MODEL 6
REMARK VINA RESULT:    -1.018      2.020      6.003
REMARK INTER + INTRA:          -3.041
REMARK INTER:                  -1.810
REMARK INTRA:                  -1.231
REMARK UNBOUND:                -1.130
REMARK SMILES O=C([O-])CCCCCCCCCCCCCCC(=O)[O-]
REMARK SMILES IDX 10 1 9 2 8 3 7 4 6 5 5 6 4 7 2 8 1 9 3 10 11 11 12 12 13 13
REMARK SMILES IDX 14 14 15 15 16 16 17 17 18 18 19 19 20 20
REMARK H PARENT
REMARK Flexibility Score: inf
ROOT
ATOM      1  C   UNL     1     -56.649 120.617  -9.271  1.00  0.00     0.000 C 
ENDROOT
BRANCH   1   2
ATOM      2  C   UNL     1     -56.047 121.877  -8.623  1.00  0.00     0.000 C 
BRANCH   2   3
ATOM      3  C   UNL     1     -54.550 121.721  -8.312  1.00  0.00     0.000 C 
BRANCH   3   4
ATOM      4  C   UNL     1     -53.778 123.044  -8.455  1.00  0.00     0.000 C 
BRANCH   4   5
ATOM      5  C   UNL     1     -52.270 122.886  -8.188  1.00  0.00     0.000 C 
BRANCH   5   6
ATOM      6  C   UNL     1     -51.382 123.990  -8.798  1.00  0.00     0.006 C 
BRANCH   6   7
ATOM      7  C   UNL     1     -49.879 123.670  -8.803  1.00  0.00     0.053 C 
BRANCH   7   8
ATOM      8  C   UNL     1     -49.499 122.794  -9.957  1.00  0.00     0.041 C 
ATOM      9  O   UNL     1     -49.745 123.157 -11.137  1.00  0.00    -0.550 OA
ATOM     10  O   UNL     1     -48.901 121.562  -9.727  1.00  0.00    -0.550 OA
ENDBRANCH   7   8
ENDBRANCH   6   7
ENDBRANCH   5   6
ENDBRANCH   4   5
ENDBRANCH   3   4
ENDBRANCH   2   3
ENDBRANCH   1   2
BRANCH   1  11
ATOM     11  C   UNL     1     -57.671 120.946 -10.371  1.00  0.00     0.000 C 
BRANCH  11  12
ATOM     12  C   UNL     1     -57.280 120.351 -11.736  1.00  0.00     0.000 C 
BRANCH  12  13
ATOM     13  C   UNL     1     -55.827 120.669 -12.123  1.00  0.00     0.000 C 
BRANCH  13  14
ATOM     14  C   UNL     1     -55.507 122.169 -12.052  1.00  0.00     0.000 C 
BRANCH  14  15
ATOM     15  C   UNL     1     -53.994 122.400 -11.919  1.00  0.00     0.000 C 
BRANCH  15  16
ATOM     16  C   UNL     1     -53.172 121.114 -12.124  1.00  0.00     0.006 C 
BRANCH  16  17
ATOM     17  C   UNL     1     -52.234 120.770 -10.956  1.00  0.00     0.053 C 
BRANCH  17  18
ATOM     18  C   UNL     1     -52.823 119.736 -10.048  1.00  0.00     0.041 C 
ATOM     19  O   UNL     1     -53.815 119.056 -10.420  1.00  0.00    -0.550 OA
ATOM     20  O   UNL     1     -52.298 119.548  -8.775  1.00  0.00    -0.550 OA
ENDBRANCH  17  18
ENDBRANCH  16  17
ENDBRANCH  15  16
ENDBRANCH  14  15
ENDBRANCH  13  14
ENDBRANCH  12  13
ENDBRANCH  11  12
ENDBRANCH   1  11
TORSDOF 15
ENDMDL
MODEL 7
REMARK VINA RESULT:    -0.897      1.965      5.940
REMARK INTER + INTRA:          -2.813
REMARK INTER:                  -1.177
REMARK INTRA:                  -1.635
REMARK UNBOUND:                -1.130
REMARK SMILES O=C([O-])CCCCCCCCCCCCCCC(=O)[O-]
REMARK SMILES IDX 10 1 9 2 8 3 7 4 6 5 5 6 4 7 2 8 1 9 3 10 11 11 12 12 13 13
REMARK SMILES IDX 14 14 15 15 16 16 17 17 18 18 19 19 20 20
REMARK H PARENT
REMARK Flexibility Score: inf
ROOT
ATOM      1  C   UNL     1     -54.981 123.215 -10.882  1.00  0.00     0.000 C 
ENDROOT
BRANCH   1   2
ATOM      2  C   UNL     1     -53.968 123.911  -9.956  1.00  0.00     0.000 C 
BRANCH   2   3
ATOM      3  C   UNL     1     -53.891 123.253  -8.569  1.00  0.00     0.000 C 
BRANCH   3   4
ATOM      4  C   UNL     1     -52.457 123.226  -8.010  1.00  0.00     0.000 C 
BRANCH   4   5
ATOM      5  C   UNL     1     -51.437 123.887  -8.953  1.00  0.00     0.000 C 
BRANCH   5   6
ATOM      6  C   UNL     1     -50.092 124.262  -8.298  1.00  0.00     0.006 C 
BRANCH   6   7
ATOM      7  C   UNL     1     -48.875 124.155  -9.231  1.00  0.00     0.053 C 
BRANCH   7   8
ATOM      8  C   UNL     1     -48.978 122.977 -10.150  1.00  0.00     0.041 C 
ATOM      9  O   UNL     1     -48.882 121.807  -9.695  1.00  0.00    -0.550 OA
ATOM     10  O   UNL     1     -49.148 123.173 -11.514  1.00  0.00    -0.550 OA
ENDBRANCH   7   8
ENDBRANCH   6   7
ENDBRANCH   5   6
ENDBRANCH   4   5
ENDBRANCH   3   4
ENDBRANCH   2   3
ENDBRANCH   1   2
BRANCH   1  11
ATOM     11  C   UNL     1     -54.313 122.532 -12.086  1.00  0.00     0.000 C 
BRANCH  11  12
ATOM     12  C   UNL     1     -52.798 122.344 -11.892  1.00  0.00     0.000 C 
BRANCH  12  13
ATOM     13  C   UNL     1     -52.413 120.880 -11.630  1.00  0.00     0.000 C 
BRANCH  13  14
ATOM     14  C   UNL     1     -51.998 120.625 -10.173  1.00  0.00     0.000 C 
BRANCH  14  15
ATOM     15  C   UNL     1     -53.083 119.835  -9.425  1.00  0.00     0.000 C 
BRANCH  15  16
ATOM     16  C   UNL     1     -54.328 119.561 -10.290  1.00  0.00     0.006 C 
BRANCH  16  17
ATOM     17  C   UNL     1     -55.590 120.311  -9.835  1.00  0.00     0.053 C 
BRANCH  17  18
ATOM     18  C   UNL     1     -56.770 120.005 -10.706  1.00  0.00     0.041 C 
ATOM     19  O   UNL     1     -57.898 120.499 -10.442  1.00  0.00    -0.550 OA
ATOM     20  O   UNL     1     -56.630 119.147 -11.790  1.00  0.00    -0.550 OA
ENDBRANCH  17  18
ENDBRANCH  16  17
ENDBRANCH  15  16
ENDBRANCH  14  15
ENDBRANCH  13  14
ENDBRANCH  12  13
ENDBRANCH  11  12
ENDBRANCH   1  11
TORSDOF 15
ENDMDL
