MODEL 1
REMARK VINA RESULT:    -7.116      0.000      0.000
REMARK INTER + INTRA:          -8.875
REMARK INTER:                  -8.572
REMARK INTRA:                  -0.302
REMARK UNBOUND:                -0.302
REMARK SMILES O=c1c(O)c(-c2ccc(O)c(O)c2)oc2cc(O)cc(O)c12
REMARK SMILES IDX 5 1 3 2 2 3 1 4 22 5 20 6 19 7 17 8 16 9 15 10 14 11 6 12
REMARK SMILES IDX 7 13 8 14 9 15 13 16 11 17 10 18 12 20 4 22 21 24 18 26
REMARK H PARENT 10 19 12 21 4 23 21 25 18 27
REMARK Flexibility Score: inf
ROOT
ATOM      1  C   UNL     1     167.549 149.140 148.322  1.00  0.00     0.180 A 
ATOM      2  C   UNL     1     168.037 148.537 147.149  1.00  0.00     0.208 A 
ATOM      3  C   UNL     1     167.735 147.189 146.898  1.00  0.00     0.238 A 
ATOM      4  O   UNL     1     168.221 146.641 145.875  1.00  0.00    -0.285 OA
ATOM      5  C   UNL     1     166.935 146.465 147.814  1.00  0.00     0.111 A 
ATOM      6  C   UNL     1     166.533 145.106 147.641  1.00  0.00     0.134 A 
ATOM      7  C   UNL     1     165.852 144.451 148.675  1.00  0.00     0.093 A 
ATOM      8  C   UNL     1     165.499 145.125 149.846  1.00  0.00     0.123 A 
ATOM      9  C   UNL     1     165.835 146.468 150.000  1.00  0.00     0.094 A 
ATOM     10  C   UNL     1     166.547 147.139 149.003  1.00  0.00     0.146 A 
ATOM     11  O   UNL     1     166.857 148.415 149.193  1.00  0.00    -0.452 OA
ENDROOT
BRANCH   1  12
ATOM     12  C   UNL     1     167.804 150.563 148.642  1.00  0.00     0.025 A 
ATOM     13  C   UNL     1     166.836 151.551 148.402  1.00  0.00     0.016 A 
ATOM     14  C   UNL     1     167.091 152.883 148.734  1.00  0.00     0.051 A 
ATOM     15  C   UNL     1     168.305 153.253 149.321  1.00  0.00     0.157 A 
ATOM     16  C   UNL     1     169.015 150.928 149.250  1.00  0.00     0.062 A 
ATOM     17  C   UNL     1     169.279 152.262 149.586  1.00  0.00     0.158 A 
BRANCH  15  18
ATOM     18  O   UNL     1     168.500 154.602 149.625  1.00  0.00    -0.504 OA
ATOM     19  H   UNL     1     167.766 155.224 149.932  1.00  0.00     0.293 HD
ENDBRANCH  15  18
BRANCH  17  20
ATOM     20  O   UNL     1     170.511 152.553 150.177  1.00  0.00    -0.504 OA
ATOM     21  H   UNL     1     170.646 153.270 150.875  1.00  0.00     0.293 HD
ENDBRANCH  17  20
ENDBRANCH   1  12
BRANCH   2  22
ATOM     22  O   UNL     1     168.844 149.264 146.268  1.00  0.00    -0.502 OA
ATOM     23  H   UNL     1     168.762 149.183 145.263  1.00  0.00     0.293 HD
ENDBRANCH   2  22
BRANCH   6  24
ATOM     24  O   UNL     1     166.753 144.370 146.473  1.00  0.00    -0.507 OA
ATOM     25  H   UNL     1     166.632 144.727 145.538  1.00  0.00     0.293 HD
ENDBRANCH   6  24
BRANCH   8  26
ATOM     26  O   UNL     1     164.808 144.470 150.863  1.00  0.00    -0.508 OA
ATOM     27  H   UNL     1     165.282 144.122 151.688  1.00  0.00     0.293 HD
ENDBRANCH   8  26
TORSDOF 6
ENDMDL
MODEL 2
REMARK VINA RESULT:    -7.050      1.327      1.919
REMARK INTER + INTRA:          -8.795
REMARK INTER:                  -8.492
REMARK INTRA:                  -0.302
REMARK UNBOUND:                -0.302
REMARK SMILES O=c1c(O)c(-c2ccc(O)c(O)c2)oc2cc(O)cc(O)c12
REMARK SMILES IDX 5 1 3 2 2 3 1 4 22 5 20 6 19 7 17 8 16 9 15 10 14 11 6 12
REMARK SMILES IDX 7 13 8 14 9 15 13 16 11 17 10 18 12 20 4 22 21 24 18 26
REMARK H PARENT 10 19 12 21 4 23 21 25 18 27
REMARK Flexibility Score: inf
ROOT
ATOM      1  C   UNL     1     166.589 147.744 148.565  1.00  0.00     0.180 A 
ATOM      2  C   UNL     1     166.732 146.939 147.421  1.00  0.00     0.208 A 
ATOM      3  C   UNL     1     166.215 145.634 147.436  1.00  0.00     0.238 A 
ATOM      4  O   UNL     1     166.397 144.900 146.430  1.00  0.00    -0.285 OA
ATOM      5  C   UNL     1     165.547 145.155 148.587  1.00  0.00     0.111 A 
ATOM      6  C   UNL     1     164.948 143.863 148.699  1.00  0.00     0.134 A 
ATOM      7  C   UNL     1     164.428 143.448 149.931  1.00  0.00     0.093 A 
ATOM      8  C   UNL     1     164.424 144.302 151.037  1.00  0.00     0.123 A 
ATOM      9  C   UNL     1     164.952 145.586 150.921  1.00  0.00     0.094 A 
ATOM     10  C   UNL     1     165.512 146.016 149.716  1.00  0.00     0.146 A 
ATOM     11  O   UNL     1     166.014 147.242 149.652  1.00  0.00    -0.452 OA
ENDROOT
BRANCH   1  12
ATOM     12  C   UNL     1     167.084 149.138 148.615  1.00  0.00     0.025 A 
ATOM     13  C   UNL     1     166.220 150.229 148.432  1.00  0.00     0.016 A 
ATOM     14  C   UNL     1     166.707 151.535 148.508  1.00  0.00     0.051 A 
ATOM     15  C   UNL     1     168.056 151.780 148.778  1.00  0.00     0.157 A 
ATOM     16  C   UNL     1     168.435 149.381 148.908  1.00  0.00     0.062 A 
ATOM     17  C   UNL     1     168.933 150.688 148.984  1.00  0.00     0.158 A 
BRANCH  15  18
ATOM     18  O   UNL     1     168.481 153.109 148.836  1.00  0.00    -0.504 OA
ATOM     19  H   UNL     1     168.101 153.849 148.263  1.00  0.00     0.293 HD
ENDBRANCH  15  18
BRANCH  17  20
ATOM     20  O   UNL     1     170.290 150.853 149.267  1.00  0.00    -0.504 OA
ATOM     21  H   UNL     1     170.987 151.087 148.575  1.00  0.00     0.293 HD
ENDBRANCH  17  20
ENDBRANCH   1  12
BRANCH   2  22
ATOM     22  O   UNL     1     167.416 147.424 146.302  1.00  0.00    -0.502 OA
ATOM     23  H   UNL     1     168.298 147.915 146.374  1.00  0.00     0.293 HD
ENDBRANCH   2  22
BRANCH   6  24
ATOM     24  O   UNL     1     164.817 142.969 147.632  1.00  0.00    -0.507 OA
ATOM     25  H   UNL     1     165.445 142.203 147.445  1.00  0.00     0.293 HD
ENDBRANCH   6  24
BRANCH   8  26
ATOM     26  O   UNL     1     163.890 143.886 152.254  1.00  0.00    -0.508 OA
ATOM     27  H   UNL     1     163.330 144.507 152.827  1.00  0.00     0.293 HD
ENDBRANCH   8  26
TORSDOF 6
ENDMDL
MODEL 3
REMARK VINA RESULT:    -6.850      2.214      3.970
REMARK INTER + INTRA:          -8.554
REMARK INTER:                  -8.270
REMARK INTRA:                  -0.284
REMARK UNBOUND:                -0.302
REMARK SMILES O=c1c(O)c(-c2ccc(O)c(O)c2)oc2cc(O)cc(O)c12
REMARK SMILES IDX 5 1 3 2 2 3 1 4 22 5 20 6 19 7 17 8 16 9 15 10 14 11 6 12
REMARK SMILES IDX 7 13 8 14 9 15 13 16 11 17 10 18 12 20 4 22 21 24 18 26
REMARK H PARENT 10 19 12 21 4 23 21 25 18 27
REMARK Flexibility Score: inf
ROOT
ATOM      1  C   UNL     1     166.752 145.918 148.979  1.00  0.00     0.180 A 
ATOM      2  C   UNL     1     167.376 144.808 148.383  1.00  0.00     0.208 A 
ATOM      3  C   UNL     1     166.943 143.517 148.725  1.00  0.00     0.238 A 
ATOM      4  O   UNL     1     167.542 142.527 148.231  1.00  0.00    -0.285 OA
ATOM      5  C   UNL     1     165.880 143.353 149.646  1.00  0.00     0.111 A 
ATOM      6  C   UNL     1     165.333 142.092 150.035  1.00  0.00     0.134 A 
ATOM      7  C   UNL     1     164.371 142.042 151.052  1.00  0.00     0.093 A 
ATOM      8  C   UNL     1     163.889 143.210 151.647  1.00  0.00     0.123 A 
ATOM      9  C   UNL     1     164.374 144.449 151.232  1.00  0.00     0.094 A 
ATOM     10  C   UNL     1     165.361 144.530 150.246  1.00  0.00     0.146 A 
ATOM     11  O   UNL     1     165.803 145.728 149.888  1.00  0.00    -0.452 OA
ENDROOT
BRANCH   1  12
ATOM     12  C   UNL     1     167.137 147.310 148.649  1.00  0.00     0.025 A 
ATOM     13  C   UNL     1     167.974 148.057 149.492  1.00  0.00     0.016 A 
ATOM     14  C   UNL     1     168.341 149.359 149.148  1.00  0.00     0.051 A 
ATOM     15  C   UNL     1     167.894 149.936 147.955  1.00  0.00     0.157 A 
ATOM     16  C   UNL     1     166.704 147.878 147.441  1.00  0.00     0.062 A 
ATOM     17  C   UNL     1     167.067 149.184 147.087  1.00  0.00     0.158 A 
BRANCH  15  18
ATOM     18  O   UNL     1     168.294 151.243 147.671  1.00  0.00    -0.504 OA
ATOM     19  H   UNL     1     167.668 151.970 147.356  1.00  0.00     0.293 HD
ENDBRANCH  15  18
BRANCH  17  20
ATOM     20  O   UNL     1     166.589 149.687 145.876  1.00  0.00    -0.504 OA
ATOM     21  H   UNL     1     165.679 150.109 145.759  1.00  0.00     0.293 HD
ENDBRANCH  17  20
ENDBRANCH   1  12
BRANCH   2  22
ATOM     22  O   UNL     1     168.439 144.993 147.493  1.00  0.00    -0.502 OA
ATOM     23  H   UNL     1     168.802 144.244 146.917  1.00  0.00     0.293 HD
ENDBRANCH   2  22
BRANCH   6  24
ATOM     24  O   UNL     1     165.677 140.875 149.440  1.00  0.00    -0.507 OA
ATOM     25  H   UNL     1     166.615 140.604 149.188  1.00  0.00     0.293 HD
ENDBRANCH   6  24
BRANCH   8  26
ATOM     26  O   UNL     1     162.921 143.152 152.646  1.00  0.00    -0.508 OA
ATOM     27  H   UNL     1     162.972 142.471 153.394  1.00  0.00     0.293 HD
ENDBRANCH   8  26
TORSDOF 6
ENDMDL
MODEL 4
REMARK VINA RESULT:    -6.824      1.888      7.030
REMARK INTER + INTRA:          -8.523
REMARK INTER:                  -8.253
REMARK INTRA:                  -0.270
REMARK UNBOUND:                -0.302
REMARK SMILES O=c1c(O)c(-c2ccc(O)c(O)c2)oc2cc(O)cc(O)c12
REMARK SMILES IDX 5 1 3 2 2 3 1 4 22 5 20 6 19 7 17 8 16 9 15 10 14 11 6 12
REMARK SMILES IDX 7 13 8 14 9 15 13 16 11 17 10 18 12 20 4 22 21 24 18 26
REMARK H PARENT 10 19 12 21 4 23 21 25 18 27
REMARK Flexibility Score: inf
ROOT
ATOM      1  C   UNL     1     166.827 148.639 148.225  1.00  0.00     0.180 A 
ATOM      2  C   UNL     1     166.083 149.795 148.519  1.00  0.00     0.208 A 
ATOM      3  C   UNL     1     166.713 151.048 148.450  1.00  0.00     0.238 A 
ATOM      4  O   UNL     1     166.056 152.073 148.769  1.00  0.00    -0.285 OA
ATOM      5  C   UNL     1     168.074 151.131 148.073  1.00  0.00     0.111 A 
ATOM      6  C   UNL     1     168.803 152.351 147.932  1.00  0.00     0.134 A 
ATOM      7  C   UNL     1     170.180 152.307 147.681  1.00  0.00     0.093 A 
ATOM      8  C   UNL     1     170.842 151.090 147.500  1.00  0.00     0.123 A 
ATOM      9  C   UNL     1     170.127 149.896 147.577  1.00  0.00     0.094 A 
ATOM     10  C   UNL     1     168.760 149.906 147.863  1.00  0.00     0.146 A 
ATOM     11  O   UNL     1     168.120 148.746 147.937  1.00  0.00    -0.452 OA
ENDROOT
BRANCH   1  12
ATOM     12  C   UNL     1     166.226 147.286 148.250  1.00  0.00     0.025 A 
ATOM     13  C   UNL     1     165.914 146.602 147.065  1.00  0.00     0.016 A 
ATOM     14  C   UNL     1     165.369 145.318 147.114  1.00  0.00     0.051 A 
ATOM     15  C   UNL     1     165.137 144.687 148.340  1.00  0.00     0.157 A 
ATOM     16  C   UNL     1     166.014 146.647 149.481  1.00  0.00     0.062 A 
ATOM     17  C   UNL     1     165.468 145.359 149.541  1.00  0.00     0.158 A 
BRANCH  15  18
ATOM     18  O   UNL     1     164.586 143.404 148.321  1.00  0.00    -0.504 OA
ATOM     19  H   UNL     1     164.550 142.792 149.123  1.00  0.00     0.293 HD
ENDBRANCH  15  18
BRANCH  17  20
ATOM     20  O   UNL     1     165.274 144.791 150.801  1.00  0.00    -0.504 OA
ATOM     21  H   UNL     1     164.975 143.838 150.952  1.00  0.00     0.293 HD
ENDBRANCH  17  20
ENDBRANCH   1  12
BRANCH   2  22
ATOM     22  O   UNL     1     164.745 149.688 148.911  1.00  0.00    -0.502 OA
ATOM     23  H   UNL     1     164.263 148.800 148.965  1.00  0.00     0.293 HD
ENDBRANCH   2  22
BRANCH   6  24
ATOM     24  O   UNL     1     168.221 153.620 148.002  1.00  0.00    -0.507 OA
ATOM     25  H   UNL     1     168.238 154.302 147.258  1.00  0.00     0.293 HD
ENDBRANCH   6  24
BRANCH   8  26
ATOM     26  O   UNL     1     172.209 151.056 147.235  1.00  0.00    -0.508 OA
ATOM     27  H   UNL     1     172.821 151.814 147.513  1.00  0.00     0.293 HD
ENDBRANCH   8  26
TORSDOF 6
ENDMDL
MODEL 5
REMARK VINA RESULT:    -6.783      2.016      2.805
REMARK INTER + INTRA:          -8.473
REMARK INTER:                  -8.153
REMARK INTRA:                  -0.320
REMARK UNBOUND:                -0.302
REMARK SMILES O=c1c(O)c(-c2ccc(O)c(O)c2)oc2cc(O)cc(O)c12
REMARK SMILES IDX 5 1 3 2 2 3 1 4 22 5 20 6 19 7 17 8 16 9 15 10 14 11 6 12
REMARK SMILES IDX 7 13 8 14 9 15 13 16 11 17 10 18 12 20 4 22 21 24 18 26
REMARK H PARENT 10 19 12 21 4 23 21 25 18 27
REMARK Flexibility Score: inf
ROOT
ATOM      1  C   UNL     1     168.055 148.844 148.661  1.00  0.00     0.180 A 
ATOM      2  C   UNL     1     166.655 148.818 148.782  1.00  0.00     0.208 A 
ATOM      3  C   UNL     1     166.025 147.618 149.149  1.00  0.00     0.238 A 
ATOM      4  O   UNL     1     164.767 147.586 149.201  1.00  0.00    -0.285 OA
ATOM      5  C   UNL     1     166.803 146.464 149.407  1.00  0.00     0.111 A 
ATOM      6  C   UNL     1     166.274 145.205 149.825  1.00  0.00     0.134 A 
ATOM      7  C   UNL     1     167.125 144.097 149.924  1.00  0.00     0.093 A 
ATOM      8  C   UNL     1     168.496 144.218 149.685  1.00  0.00     0.123 A 
ATOM      9  C   UNL     1     169.031 145.456 149.335  1.00  0.00     0.094 A 
ATOM     10  C   UNL     1     168.203 146.571 149.192  1.00  0.00     0.146 A 
ATOM     11  O   UNL     1     168.751 147.728 148.846  1.00  0.00    -0.452 OA
ENDROOT
BRANCH   1  12
ATOM     12  C   UNL     1     168.792 150.078 148.304  1.00  0.00     0.025 A 
ATOM     13  C   UNL     1     169.000 150.444 146.965  1.00  0.00     0.016 A 
ATOM     14  C   UNL     1     169.677 151.624 146.653  1.00  0.00     0.051 A 
ATOM     15  C   UNL     1     170.148 152.466 147.665  1.00  0.00     0.157 A 
ATOM     16  C   UNL     1     169.245 150.931 149.321  1.00  0.00     0.062 A 
ATOM     17  C   UNL     1     169.926 152.117 149.018  1.00  0.00     0.158 A 
BRANCH  15  18
ATOM     18  O   UNL     1     170.822 153.629 147.287  1.00  0.00    -0.504 OA
ATOM     19  H   UNL     1     170.677 154.532 147.717  1.00  0.00     0.293 HD
ENDBRANCH  15  18
BRANCH  17  20
ATOM     20  O   UNL     1     170.358 152.910 150.083  1.00  0.00    -0.504 OA
ATOM     21  H   UNL     1     171.304 153.246 150.190  1.00  0.00     0.293 HD
ENDBRANCH  17  20
ENDBRANCH   1  12
BRANCH   2  22
ATOM     22  O   UNL     1     165.903 149.962 148.501  1.00  0.00    -0.502 OA
ATOM     23  H   UNL     1     165.975 150.809 149.050  1.00  0.00     0.293 HD
ENDBRANCH   2  22
BRANCH   6  24
ATOM     24  O   UNL     1     164.937 144.999 150.177  1.00  0.00    -0.507 OA
ATOM     25  H   UNL     1     164.420 144.152 149.999  1.00  0.00     0.293 HD
ENDBRANCH   6  24
BRANCH   8  26
ATOM     26  O   UNL     1     169.337 143.114 149.802  1.00  0.00    -0.508 OA
ATOM     27  H   UNL     1     169.576 142.722 150.705  1.00  0.00     0.293 HD
ENDBRANCH   8  26
TORSDOF 6
ENDMDL
MODEL 6
REMARK VINA RESULT:    -6.571      1.417      6.806
REMARK INTER + INTRA:          -8.218
REMARK INTER:                  -7.900
REMARK INTRA:                  -0.319
REMARK UNBOUND:                -0.302
REMARK SMILES O=c1c(O)c(-c2ccc(O)c(O)c2)oc2cc(O)cc(O)c12
REMARK SMILES IDX 5 1 3 2 2 3 1 4 22 5 20 6 19 7 17 8 16 9 15 10 14 11 6 12
REMARK SMILES IDX 7 13 8 14 9 15 13 16 11 17 10 18 12 20 4 22 21 24 18 26
REMARK H PARENT 10 19 12 21 4 23 21 25 18 27
REMARK Flexibility Score: inf
ROOT
ATOM      1  C   UNL     1     167.489 148.386 148.418  1.00  0.00     0.180 A 
ATOM      2  C   UNL     1     168.893 148.351 148.376  1.00  0.00     0.208 A 
ATOM      3  C   UNL     1     169.610 149.550 148.522  1.00  0.00     0.238 A 
ATOM      4  O   UNL     1     170.865 149.520 148.428  1.00  0.00    -0.285 OA
ATOM      5  C   UNL     1     168.914 150.766 148.723  1.00  0.00     0.111 A 
ATOM      6  C   UNL     1     169.539 152.034 148.922  1.00  0.00     0.134 A 
ATOM      7  C   UNL     1     168.750 153.190 148.981  1.00  0.00     0.093 A 
ATOM      8  C   UNL     1     167.357 153.117 148.915  1.00  0.00     0.123 A 
ATOM      9  C   UNL     1     166.735 151.877 148.780  1.00  0.00     0.094 A 
ATOM     10  C   UNL     1     167.496 150.710 148.681  1.00  0.00     0.146 A 
ATOM     11  O   UNL     1     166.864 149.551 148.543  1.00  0.00    -0.452 OA
ENDROOT
BRANCH   1  12
ATOM     12  C   UNL     1     166.666 147.160 148.298  1.00  0.00     0.025 A 
ATOM     13  C   UNL     1     166.299 146.645 147.045  1.00  0.00     0.016 A 
ATOM     14  C   UNL     1     165.543 145.475 146.958  1.00  0.00     0.051 A 
ATOM     15  C   UNL     1     165.150 144.791 148.112  1.00  0.00     0.157 A 
ATOM     16  C   UNL     1     166.291 146.465 149.458  1.00  0.00     0.062 A 
ATOM     17  C   UNL     1     165.532 145.290 149.380  1.00  0.00     0.158 A 
BRANCH  15  18
ATOM     18  O   UNL     1     164.391 143.629 147.957  1.00  0.00    -0.504 OA
ATOM     19  H   UNL     1     164.598 142.753 148.413  1.00  0.00     0.293 HD
ENDBRANCH  15  18
BRANCH  17  20
ATOM     20  O   UNL     1     165.185 144.658 150.576  1.00  0.00    -0.504 OA
ATOM     21  H   UNL     1     165.854 144.346 151.264  1.00  0.00     0.293 HD
ENDBRANCH  17  20
ENDBRANCH   1  12
BRANCH   2  22
ATOM     22  O   UNL     1     169.561 147.143 148.154  1.00  0.00    -0.502 OA
ATOM     23  H   UNL     1     170.138 146.702 148.859  1.00  0.00     0.293 HD
ENDBRANCH   2  22
BRANCH   6  24
ATOM     24  O   UNL     1     170.915 152.208 149.094  1.00  0.00    -0.507 OA
ATOM     25  H   UNL     1     171.605 152.082 148.369  1.00  0.00     0.293 HD
ENDBRANCH   6  24
BRANCH   8  26
ATOM     26  O   UNL     1     166.580 154.270 148.990  1.00  0.00    -0.508 OA
ATOM     27  H   UNL     1     166.907 155.099 149.472  1.00  0.00     0.293 HD
ENDBRANCH   8  26
TORSDOF 6
ENDMDL
MODEL 7
REMARK VINA RESULT:    -6.544      1.857      2.324
REMARK INTER + INTRA:          -8.185
REMARK INTER:                  -8.110
REMARK INTRA:                  -0.075
REMARK UNBOUND:                -0.302
REMARK SMILES O=c1c(O)c(-c2ccc(O)c(O)c2)oc2cc(O)cc(O)c12
REMARK SMILES IDX 5 1 3 2 2 3 1 4 22 5 20 6 19 7 17 8 16 9 15 10 14 11 6 12
REMARK SMILES IDX 7 13 8 14 9 15 13 16 11 17 10 18 12 20 4 22 21 24 18 26
REMARK H PARENT 10 19 12 21 4 23 21 25 18 27
REMARK Flexibility Score: inf
ROOT
ATOM      1  C   UNL     1     167.938 149.006 148.304  1.00  0.00     0.180 A 
ATOM      2  C   UNL     1     167.178 148.601 147.194  1.00  0.00     0.208 A 
ATOM      3  C   UNL     1     167.030 147.229 146.932  1.00  0.00     0.238 A 
ATOM      4  O   UNL     1     166.395 146.874 145.905  1.00  0.00    -0.285 OA
ATOM      5  C   UNL     1     167.629 146.280 147.793  1.00  0.00     0.111 A 
ATOM      6  C   UNL     1     167.512 144.864 147.648  1.00  0.00     0.134 A 
ATOM      7  C   UNL     1     168.255 144.020 148.482  1.00  0.00     0.093 A 
ATOM      8  C   UNL     1     169.060 144.538 149.499  1.00  0.00     0.123 A 
ATOM      9  C   UNL     1     169.135 145.917 149.688  1.00  0.00     0.094 A 
ATOM     10  C   UNL     1     168.434 146.786 148.848  1.00  0.00     0.146 A 
ATOM     11  O   UNL     1     168.542 148.092 149.055  1.00  0.00    -0.452 OA
ENDROOT
BRANCH   1  12
ATOM     12  C   UNL     1     168.117 150.432 148.659  1.00  0.00     0.025 A 
ATOM     13  C   UNL     1     169.392 151.016 148.723  1.00  0.00     0.016 A 
ATOM     14  C   UNL     1     169.534 152.369 149.036  1.00  0.00     0.051 A 
ATOM     15  C   UNL     1     168.412 153.167 149.279  1.00  0.00     0.157 A 
ATOM     16  C   UNL     1     166.988 151.236 148.880  1.00  0.00     0.062 A 
ATOM     17  C   UNL     1     167.121 152.594 149.196  1.00  0.00     0.158 A 
BRANCH  15  18
ATOM     18  O   UNL     1     168.622 154.512 149.592  1.00  0.00    -0.504 OA
ATOM     19  H   UNL     1     169.479 154.874 149.982  1.00  0.00     0.293 HD
ENDBRANCH  15  18
BRANCH  17  20
ATOM     20  O   UNL     1     165.954 153.329 149.416  1.00  0.00    -0.504 OA
ATOM     21  H   UNL     1     165.152 152.978 149.920  1.00  0.00     0.293 HD
ENDBRANCH  17  20
ENDBRANCH   1  12
BRANCH   2  22
ATOM     22  O   UNL     1     166.612 149.555 146.342  1.00  0.00    -0.502 OA
ATOM     23  H   UNL     1     165.651 149.505 146.032  1.00  0.00     0.293 HD
ENDBRANCH   2  22
BRANCH   6  24
ATOM     24  O   UNL     1     166.665 144.242 146.725  1.00  0.00    -0.507 OA
ATOM     25  H   UNL     1     166.151 144.724 146.002  1.00  0.00     0.293 HD
ENDBRANCH   6  24
BRANCH   8  26
ATOM     26  O   UNL     1     169.783 143.691 150.335  1.00  0.00    -0.508 OA
ATOM     27  H   UNL     1     169.793 143.819 151.340  1.00  0.00     0.293 HD
ENDBRANCH   8  26
TORSDOF 6
ENDMDL
MODEL 8
REMARK VINA RESULT:    -6.524      2.404      7.168
REMARK INTER + INTRA:          -8.161
REMARK INTER:                  -8.226
REMARK INTRA:                   0.064
REMARK UNBOUND:                -0.302
REMARK SMILES O=c1c(O)c(-c2ccc(O)c(O)c2)oc2cc(O)cc(O)c12
REMARK SMILES IDX 5 1 3 2 2 3 1 4 22 5 20 6 19 7 17 8 16 9 15 10 14 11 6 12
REMARK SMILES IDX 7 13 8 14 9 15 13 16 11 17 10 18 12 20 4 22 21 24 18 26
REMARK H PARENT 10 19 12 21 4 23 21 25 18 27
REMARK Flexibility Score: inf
ROOT
ATOM      1  C   UNL     1     166.759 146.159 149.771  1.00  0.00     0.180 A 
ATOM      2  C   UNL     1     168.157 146.028 149.712  1.00  0.00     0.208 A 
ATOM      3  C   UNL     1     168.927 147.122 149.285  1.00  0.00     0.238 A 
ATOM      4  O   UNL     1     170.173 146.980 149.180  1.00  0.00    -0.285 OA
ATOM      5  C   UNL     1     168.291 148.338 148.938  1.00  0.00     0.111 A 
ATOM      6  C   UNL     1     168.975 149.523 148.530  1.00  0.00     0.134 A 
ATOM      7  C   UNL     1     168.237 150.627 148.085  1.00  0.00     0.093 A 
ATOM      8  C   UNL     1     166.840 150.613 148.097  1.00  0.00     0.123 A 
ATOM      9  C   UNL     1     166.164 149.482 148.549  1.00  0.00     0.094 A 
ATOM     10  C   UNL     1     166.871 148.351 148.964  1.00  0.00     0.146 A 
ATOM     11  O   UNL     1     166.188 147.292 149.377  1.00  0.00    -0.452 OA
ENDROOT
BRANCH   1  12
ATOM     12  C   UNL     1     165.883 145.059 150.237  1.00  0.00     0.025 A 
ATOM     13  C   UNL     1     164.858 145.285 151.169  1.00  0.00     0.016 A 
ATOM     14  C   UNL     1     164.031 144.236 151.575  1.00  0.00     0.051 A 
ATOM     15  C   UNL     1     164.198 142.951 151.052  1.00  0.00     0.157 A 
ATOM     16  C   UNL     1     166.040 143.775 149.694  1.00  0.00     0.062 A 
ATOM     17  C   UNL     1     165.214 142.717 150.095  1.00  0.00     0.158 A 
BRANCH  15  18
ATOM     18  O   UNL     1     163.340 141.945 151.502  1.00  0.00    -0.504 OA
ATOM     19  H   UNL     1     163.577 140.964 151.515  1.00  0.00     0.293 HD
ENDBRANCH  15  18
BRANCH  17  20
ATOM     20  O   UNL     1     165.437 141.463 149.522  1.00  0.00    -0.504 OA
ATOM     21  H   UNL     1     166.256 141.227 148.981  1.00  0.00     0.293 HD
ENDBRANCH  17  20
ENDBRANCH   1  12
BRANCH   2  22
ATOM     22  O   UNL     1     168.764 144.811 150.037  1.00  0.00    -0.502 OA
ATOM     23  H   UNL     1     168.365 144.166 150.708  1.00  0.00     0.293 HD
ENDBRANCH   2  22
BRANCH   6  24
ATOM     24  O   UNL     1     170.364 149.675 148.569  1.00  0.00    -0.507 OA
ATOM     25  H   UNL     1     170.933 149.550 149.393  1.00  0.00     0.293 HD
ENDBRANCH   6  24
BRANCH   8  26
ATOM     26  O   UNL     1     166.115 151.721 147.667  1.00  0.00    -0.508 OA
ATOM     27  H   UNL     1     166.287 152.151 146.766  1.00  0.00     0.293 HD
ENDBRANCH   8  26
TORSDOF 6
ENDMDL
MODEL 9
REMARK VINA RESULT:    -6.522      1.737      6.820
REMARK INTER + INTRA:          -8.159
REMARK INTER:                  -7.891
REMARK INTRA:                  -0.267
REMARK UNBOUND:                -0.302
REMARK SMILES O=c1c(O)c(-c2ccc(O)c(O)c2)oc2cc(O)cc(O)c12
REMARK SMILES IDX 5 1 3 2 2 3 1 4 22 5 20 6 19 7 17 8 16 9 15 10 14 11 6 12
REMARK SMILES IDX 7 13 8 14 9 15 13 16 11 17 10 18 12 20 4 22 21 24 18 26
REMARK H PARENT 10 19 12 21 4 23 21 25 18 27
REMARK Flexibility Score: inf
ROOT
ATOM      1  C   UNL     1     168.326 148.385 148.052  1.00  0.00     0.180 A 
ATOM      2  C   UNL     1     169.496 148.782 147.380  1.00  0.00     0.208 A 
ATOM      3  C   UNL     1     169.781 150.152 147.260  1.00  0.00     0.238 A 
ATOM      4  O   UNL     1     170.799 150.503 146.609  1.00  0.00    -0.285 OA
ATOM      5  C   UNL     1     168.902 151.106 147.826  1.00  0.00     0.111 A 
ATOM      6  C   UNL     1     169.112 152.518 147.799  1.00  0.00     0.134 A 
ATOM      7  C   UNL     1     168.112 153.374 148.277  1.00  0.00     0.093 A 
ATOM      8  C   UNL     1     166.938 152.868 148.841  1.00  0.00     0.123 A 
ATOM      9  C   UNL     1     166.750 151.490 148.926  1.00  0.00     0.094 A 
ATOM     10  C   UNL     1     167.713 150.611 148.424  1.00  0.00     0.146 A 
ATOM     11  O   UNL     1     167.490 149.306 148.516  1.00  0.00    -0.452 OA
ENDROOT
BRANCH   1  12
ATOM     12  C   UNL     1     167.972 146.959 148.242  1.00  0.00     0.025 A 
ATOM     13  C   UNL     1     168.117 146.329 149.488  1.00  0.00     0.016 A 
ATOM     14  C   UNL     1     167.754 144.991 149.648  1.00  0.00     0.051 A 
ATOM     15  C   UNL     1     167.230 144.260 148.577  1.00  0.00     0.157 A 
ATOM     16  C   UNL     1     167.427 146.235 147.171  1.00  0.00     0.062 A 
ATOM     17  C   UNL     1     167.061 144.891 147.322  1.00  0.00     0.158 A 
BRANCH  15  18
ATOM     18  O   UNL     1     166.891 142.924 148.801  1.00  0.00    -0.504 OA
ATOM     19  H   UNL     1     166.999 142.190 148.116  1.00  0.00     0.293 HD
ENDBRANCH  15  18
BRANCH  17  20
ATOM     20  O   UNL     1     166.536 144.230 146.210  1.00  0.00    -0.504 OA
ATOM     21  H   UNL     1     165.720 144.539 145.702  1.00  0.00     0.293 HD
ENDBRANCH  17  20
ENDBRANCH   1  12
BRANCH   2  22
ATOM     22  O   UNL     1     170.338 147.824 146.808  1.00  0.00    -0.502 OA
ATOM     23  H   UNL     1     170.358 146.862 147.120  1.00  0.00     0.293 HD
ENDBRANCH   2  22
BRANCH   6  24
ATOM     24  O   UNL     1     170.287 153.124 147.343  1.00  0.00    -0.507 OA
ATOM     25  H   UNL     1     170.775 152.866 146.499  1.00  0.00     0.293 HD
ENDBRANCH   6  24
BRANCH   8  26
ATOM     26  O   UNL     1     165.956 153.726 149.328  1.00  0.00    -0.508 OA
ATOM     27  H   UNL     1     165.247 153.406 149.978  1.00  0.00     0.293 HD
ENDBRANCH   8  26
TORSDOF 6
ENDMDL
