MODEL 1
REMARK VINA RESULT:    -4.665      0.000      0.000
REMARK INTER + INTRA:          -6.609
REMARK INTER:                  -5.755
REMARK INTRA:                  -0.854
REMARK UNBOUND:                -0.854
REMARK SMILES CC(C)=CCC[C@@H](C)c1ccc(C)cc1
REMARK SMILES IDX 6 1 7 2 8 3 9 4 13 5 12 6 11 7 14 8 10 9 15 10 5 11 4 12
REMARK SMILES IDX 2 13 1 14 3 15
REMARK H PARENT
REMARK Flexibility Score: inf
ROOT
ATOM      1  C   UNL     1      22.393  -9.837   3.245  1.00  0.00     0.012 C 
ENDROOT
BRANCH   1   2
ATOM      2  C   UNL     1      22.612  -8.478   2.544  1.00  0.00     0.016 C 
ATOM      3  C   UNL     1      23.043  -7.377   3.525  1.00  0.00     0.013 C 
BRANCH   2   4
ATOM      4  C   UNL     1      23.629  -8.619   1.425  1.00  0.00    -0.045 A 
ATOM      5  C   UNL     1      26.484  -8.999  -1.795  1.00  0.00     0.044 C 
ATOM      6  C   UNL     1      25.515  -8.861  -0.658  1.00  0.00    -0.051 A 
ATOM      7  C   UNL     1      24.911  -7.624  -0.390  1.00  0.00     0.004 A 
ATOM      8  C   UNL     1      25.153  -9.982   0.103  1.00  0.00     0.004 A 
ATOM      9  C   UNL     1      23.980  -7.503   0.646  1.00  0.00     0.004 A 
ATOM     10  C   UNL     1      24.224  -9.863   1.139  1.00  0.00     0.004 A 
ENDBRANCH   2   4
ENDBRANCH   1   2
BRANCH   1  11
ATOM     11  C   UNL     1      22.693  -9.781   4.751  1.00  0.00     0.028 C 
BRANCH  11  12
ATOM     12  C   UNL     1      23.923 -10.592   5.080  1.00  0.00    -0.028 C 
ATOM     13  C   UNL     1      24.899 -10.190   5.923  1.00  0.00    -0.080 C 
ATOM     14  C   UNL     1      24.874  -8.832   6.587  1.00  0.00     0.039 C 
ATOM     15  C   UNL     1      26.050 -11.125   6.188  1.00  0.00     0.039 C 
ENDBRANCH  11  12
ENDBRANCH   1  11
TORSDOF 4
ENDMDL
MODEL 2
REMARK VINA RESULT:    -4.655      0.134      1.258
REMARK INTER + INTRA:          -6.598
REMARK INTER:                  -5.734
REMARK INTRA:                  -0.864
REMARK UNBOUND:                -0.854
REMARK SMILES CC(C)=CCC[C@@H](C)c1ccc(C)cc1
REMARK SMILES IDX 6 1 7 2 8 3 9 4 13 5 12 6 11 7 14 8 10 9 15 10 5 11 4 12
REMARK SMILES IDX 2 13 1 14 3 15
REMARK H PARENT
REMARK Flexibility Score: inf
ROOT
ATOM      1  C   UNL     1      22.350  -9.790   3.375  1.00  0.00     0.012 C 
ENDROOT
BRANCH   1   2
ATOM      2  C   UNL     1      22.581  -8.419   2.700  1.00  0.00     0.016 C 
ATOM      3  C   UNL     1      23.064  -7.352   3.695  1.00  0.00     0.013 C 
BRANCH   2   4
ATOM      4  C   UNL     1      23.563  -8.555   1.550  1.00  0.00    -0.045 A 
ATOM      5  C   UNL     1      26.399  -8.963  -1.683  1.00  0.00     0.044 C 
ATOM      6  C   UNL     1      25.392  -8.827  -0.580  1.00  0.00    -0.051 A 
ATOM      7  C   UNL     1      25.061  -9.934   0.216  1.00  0.00     0.004 A 
ATOM      8  C   UNL     1      24.825  -7.578  -0.289  1.00  0.00     0.004 A 
ATOM      9  C   UNL     1      24.151  -9.800   1.268  1.00  0.00     0.004 A 
ATOM     10  C   UNL     1      23.915  -7.442   0.762  1.00  0.00     0.004 A 
ENDBRANCH   2   4
ENDBRANCH   1   2
BRANCH   1  11
ATOM     11  C   UNL     1      22.680  -9.774   4.875  1.00  0.00     0.028 C 
BRANCH  11  12
ATOM     12  C   UNL     1      23.921 -10.585   5.156  1.00  0.00    -0.028 C 
ATOM     13  C   UNL     1      24.922 -10.190   5.974  1.00  0.00    -0.080 C 
ATOM     14  C   UNL     1      24.914  -8.841   6.655  1.00  0.00     0.039 C 
ATOM     15  C   UNL     1      26.083 -11.125   6.191  1.00  0.00     0.039 C 
ENDBRANCH  11  12
ENDBRANCH   1  11
TORSDOF 4
ENDMDL
MODEL 3
REMARK VINA RESULT:    -4.538      1.092      1.421
REMARK INTER + INTRA:          -6.453
REMARK INTER:                  -5.733
REMARK INTRA:                  -0.720
REMARK UNBOUND:                -0.854
REMARK SMILES CC(C)=CCC[C@@H](C)c1ccc(C)cc1
REMARK SMILES IDX 6 1 7 2 8 3 9 4 13 5 12 6 11 7 14 8 10 9 15 10 5 11 4 12
REMARK SMILES IDX 2 13 1 14 3 15
REMARK H PARENT
REMARK Flexibility Score: inf
ROOT
ATOM      1  C   UNL     1      22.742  -8.066   3.118  1.00  0.00     0.012 C 
ENDROOT
BRANCH   1   2
ATOM      2  C   UNL     1      22.863  -9.324   2.228  1.00  0.00     0.016 C 
ATOM      3  C   UNL     1      21.500  -9.978   1.953  1.00  0.00     0.013 C 
BRANCH   2   4
ATOM      4  C   UNL     1      23.560  -8.982   0.923  1.00  0.00    -0.045 A 
ATOM      5  C   UNL     1      25.511  -7.963  -2.794  1.00  0.00     0.044 C 
ATOM      6  C   UNL     1      24.859  -8.329  -1.494  1.00  0.00    -0.051 A 
ATOM      7  C   UNL     1      24.858  -7.424  -0.423  1.00  0.00     0.004 A 
ATOM      8  C   UNL     1      24.185  -9.552  -1.361  1.00  0.00     0.004 A 
ATOM      9  C   UNL     1      24.219  -7.749   0.777  1.00  0.00     0.004 A 
ATOM     10  C   UNL     1      23.546  -9.880  -0.162  1.00  0.00     0.004 A 
ENDBRANCH   2   4
ENDBRANCH   1   2
BRANCH   1  11
ATOM     11  C   UNL     1      22.980  -8.368   4.605  1.00  0.00     0.028 C 
BRANCH  11  12
ATOM     12  C   UNL     1      23.937  -9.524   4.768  1.00  0.00    -0.028 C 
ATOM     13  C   UNL     1      24.803  -9.659   5.797  1.00  0.00    -0.080 C 
ATOM     14  C   UNL     1      24.935  -8.608   6.875  1.00  0.00     0.039 C 
ATOM     15  C   UNL     1      25.670 -10.889   5.848  1.00  0.00     0.039 C 
ENDBRANCH  11  12
ENDBRANCH   1  11
TORSDOF 4
ENDMDL
MODEL 4
REMARK VINA RESULT:    -4.234      1.175      5.818
REMARK INTER + INTRA:          -6.078
REMARK INTER:                  -5.515
REMARK INTRA:                  -0.563
REMARK UNBOUND:                -0.854
REMARK SMILES CC(C)=CCC[C@@H](C)c1ccc(C)cc1
REMARK SMILES IDX 6 1 7 2 8 3 9 4 13 5 12 6 11 7 14 8 10 9 15 10 5 11 4 12
REMARK SMILES IDX 2 13 1 14 3 15
REMARK H PARENT
REMARK Flexibility Score: inf
ROOT
ATOM      1  C   UNL     1      23.392  -9.470   0.918  1.00  0.00     0.012 C 
ENDROOT
BRANCH   1   2
ATOM      2  C   UNL     1      22.337  -9.276   2.030  1.00  0.00     0.016 C 
ATOM      3  C   UNL     1      21.323 -10.429   2.081  1.00  0.00     0.013 C 
BRANCH   2   4
ATOM      4  C   UNL     1      23.016  -9.107   3.378  1.00  0.00    -0.045 A 
ATOM      5  C   UNL     1      24.970  -8.577   7.194  1.00  0.00     0.044 C 
ATOM      6  C   UNL     1      24.268  -8.774   5.883  1.00  0.00    -0.051 A 
ATOM      7  C   UNL     1      23.422  -7.777   5.376  1.00  0.00     0.004 A 
ATOM      8  C   UNL     1      24.506  -9.927   5.120  1.00  0.00     0.004 A 
ATOM      9  C   UNL     1      22.798  -7.944   4.137  1.00  0.00     0.004 A 
ATOM     10  C   UNL     1      23.882 -10.096   3.882  1.00  0.00     0.004 A 
ENDBRANCH   2   4
ENDBRANCH   1   2
BRANCH   1  11
ATOM     11  C   UNL     1      24.474  -8.379   0.931  1.00  0.00     0.028 C 
BRANCH  11  12
ATOM     12  C   UNL     1      24.618  -7.753  -0.434  1.00  0.00    -0.028 C 
ATOM     13  C   UNL     1      25.498  -8.164  -1.373  1.00  0.00    -0.080 C 
ATOM     14  C   UNL     1      26.483  -9.281  -1.113  1.00  0.00     0.039 C 
ATOM     15  C   UNL     1      25.500  -7.469  -2.709  1.00  0.00     0.039 C 
ENDBRANCH  11  12
ENDBRANCH   1  11
TORSDOF 4
ENDMDL
MODEL 5
REMARK VINA RESULT:    -4.141      1.323      2.095
REMARK INTER + INTRA:          -5.963
REMARK INTER:                  -5.138
REMARK INTRA:                  -0.825
REMARK UNBOUND:                -0.854
REMARK SMILES CC(C)=CCC[C@@H](C)c1ccc(C)cc1
REMARK SMILES IDX 6 1 7 2 8 3 9 4 13 5 12 6 11 7 14 8 10 9 15 10 5 11 4 12
REMARK SMILES IDX 2 13 1 14 3 15
REMARK H PARENT
REMARK Flexibility Score: inf
ROOT
ATOM      1  C   UNL     1      23.796 -10.768   2.724  1.00  0.00     0.012 C 
ENDROOT
BRANCH   1   2
ATOM      2  C   UNL     1      22.849 -10.400   1.558  1.00  0.00     0.016 C 
ATOM      3  C   UNL     1      21.598  -9.649   2.038  1.00  0.00     0.013 C 
BRANCH   2   4
ATOM      4  C   UNL     1      23.590  -9.583   0.515  1.00  0.00    -0.045 A 
ATOM      5  C   UNL     1      25.736  -7.303  -2.461  1.00  0.00     0.044 C 
ATOM      6  C   UNL     1      24.966  -8.082  -1.437  1.00  0.00    -0.051 A 
ATOM      7  C   UNL     1      24.491  -9.368  -1.736  1.00  0.00     0.004 A 
ATOM      8  C   UNL     1      24.773  -7.560  -0.150  1.00  0.00     0.004 A 
ATOM      9  C   UNL     1      23.805 -10.110  -0.771  1.00  0.00     0.004 A 
ATOM     10  C   UNL     1      24.086  -8.300   0.816  1.00  0.00     0.004 A 
ENDBRANCH   2   4
ENDBRANCH   1   2
BRANCH   1  11
ATOM     11  C   UNL     1      23.084 -10.772   4.085  1.00  0.00     0.028 C 
BRANCH  11  12
ATOM     12  C   UNL     1      23.992 -10.233   5.163  1.00  0.00    -0.028 C 
ATOM     13  C   UNL     1      23.969  -8.960   5.614  1.00  0.00    -0.080 C 
ATOM     14  C   UNL     1      23.045  -7.918   5.025  1.00  0.00     0.039 C 
ATOM     15  C   UNL     1      24.909  -8.575   6.726  1.00  0.00     0.039 C 
ENDBRANCH  11  12
ENDBRANCH   1  11
TORSDOF 4
ENDMDL
MODEL 6
REMARK VINA RESULT:    -4.134      1.296      5.578
REMARK INTER + INTRA:          -5.955
REMARK INTER:                  -5.016
REMARK INTRA:                  -0.938
REMARK UNBOUND:                -0.854
REMARK SMILES CC(C)=CCC[C@@H](C)c1ccc(C)cc1
REMARK SMILES IDX 6 1 7 2 8 3 9 4 13 5 12 6 11 7 14 8 10 9 15 10 5 11 4 12
REMARK SMILES IDX 2 13 1 14 3 15
REMARK H PARENT
REMARK Flexibility Score: inf
ROOT
ATOM      1  C   UNL     1      23.833  -7.549   0.928  1.00  0.00     0.012 C 
ENDROOT
BRANCH   1   2
ATOM      2  C   UNL     1      22.786  -8.307   1.774  1.00  0.00     0.016 C 
ATOM      3  C   UNL     1      22.326  -9.611   1.104  1.00  0.00     0.013 C 
BRANCH   2   4
ATOM      4  C   UNL     1      23.333  -8.590   3.162  1.00  0.00    -0.045 A 
ATOM      5  C   UNL     1      24.863  -9.444   7.110  1.00  0.00     0.044 C 
ATOM      6  C   UNL     1      24.356  -9.131   5.734  1.00  0.00    -0.051 A 
ATOM      7  C   UNL     1      24.636  -9.993   4.664  1.00  0.00     0.004 A 
ATOM      8  C   UNL     1      23.541  -8.011   5.519  1.00  0.00     0.004 A 
ATOM      9  C   UNL     1      24.134  -9.722   3.388  1.00  0.00     0.004 A 
ATOM     10  C   UNL     1      23.038  -7.738   4.244  1.00  0.00     0.004 A 
ENDBRANCH   2   4
ENDBRANCH   1   2
BRANCH   1  11
ATOM     11  C   UNL     1      24.173  -8.275  -0.383  1.00  0.00     0.028 C 
BRANCH  11  12
ATOM     12  C   UNL     1      25.660  -8.509  -0.494  1.00  0.00    -0.028 C 
ATOM     13  C   UNL     1      26.239  -9.729  -0.546  1.00  0.00    -0.080 C 
ATOM     14  C   UNL     1      25.433 -11.003  -0.439  1.00  0.00     0.039 C 
ATOM     15  C   UNL     1      27.735  -9.807  -0.698  1.00  0.00     0.039 C 
ENDBRANCH  11  12
ENDBRANCH   1  11
TORSDOF 4
ENDMDL
MODEL 7
REMARK VINA RESULT:    -4.077      1.281      2.087
REMARK INTER + INTRA:          -5.885
REMARK INTER:                  -5.205
REMARK INTRA:                  -0.680
REMARK UNBOUND:                -0.854
REMARK SMILES CC(C)=CCC[C@@H](C)c1ccc(C)cc1
REMARK SMILES IDX 6 1 7 2 8 3 9 4 13 5 12 6 11 7 14 8 10 9 15 10 5 11 4 12
REMARK SMILES IDX 2 13 1 14 3 15
REMARK H PARENT
REMARK Flexibility Score: inf
ROOT
ATOM      1  C   UNL     1      23.666  -9.852   2.425  1.00  0.00     0.012 C 
ENDROOT
BRANCH   1   2
ATOM      2  C   UNL     1      23.382  -8.732   1.398  1.00  0.00     0.016 C 
ATOM      3  C   UNL     1      23.351  -7.340   2.046  1.00  0.00     0.013 C 
BRANCH   2   4
ATOM      4  C   UNL     1      24.405  -8.773   0.277  1.00  0.00    -0.045 A 
ATOM      5  C   UNL     1      27.359  -8.897  -2.873  1.00  0.00     0.044 C 
ATOM      6  C   UNL     1      26.313  -8.866  -1.798  1.00  0.00    -0.051 A 
ATOM      7  C   UNL     1      26.174  -9.946  -0.915  1.00  0.00     0.004 A 
ATOM      8  C   UNL     1      25.513  -7.727  -1.623  1.00  0.00     0.004 A 
ATOM      9  C   UNL     1      25.225  -9.902   0.111  1.00  0.00     0.004 A 
ATOM     10  C   UNL     1      24.563  -7.682  -0.600  1.00  0.00     0.004 A 
ENDBRANCH   2   4
ENDBRANCH   1   2
BRANCH   1  11
ATOM     11  C   UNL     1      22.933  -9.632   3.758  1.00  0.00     0.028 C 
BRANCH  11  12
ATOM     12  C   UNL     1      23.920  -9.477   4.889  1.00  0.00    -0.028 C 
ATOM     13  C   UNL     1      23.882  -8.485   5.806  1.00  0.00    -0.080 C 
ATOM     14  C   UNL     1      22.853  -7.379   5.745  1.00  0.00     0.039 C 
ATOM     15  C   UNL     1      24.911  -8.482   6.905  1.00  0.00     0.039 C 
ENDBRANCH  11  12
ENDBRANCH   1  11
TORSDOF 4
ENDMDL
MODEL 8
REMARK VINA RESULT:    -4.065      2.835      6.106
REMARK INTER + INTRA:          -5.869
REMARK INTER:                  -5.264
REMARK INTRA:                  -0.605
REMARK UNBOUND:                -0.854
REMARK SMILES CC(C)=CCC[C@@H](C)c1ccc(C)cc1
REMARK SMILES IDX 6 1 7 2 8 3 9 4 13 5 12 6 11 7 14 8 10 9 15 10 5 11 4 12
REMARK SMILES IDX 2 13 1 14 3 15
REMARK H PARENT
REMARK Flexibility Score: inf
ROOT
ATOM      1  C   UNL     1      21.531  -9.604   1.703  1.00  0.00     0.012 C 
ENDROOT
BRANCH   1   2
ATOM      2  C   UNL     1      23.070  -9.495   1.784  1.00  0.00     0.016 C 
ATOM      3  C   UNL     1      23.627  -8.397   0.864  1.00  0.00     0.013 C 
BRANCH   2   4
ATOM      4  C   UNL     1      23.509  -9.257   3.218  1.00  0.00    -0.045 A 
ATOM      5  C   UNL     1      24.775  -8.528   7.283  1.00  0.00     0.044 C 
ATOM      6  C   UNL     1      24.313  -8.797   5.882  1.00  0.00    -0.051 A 
ATOM      7  C   UNL     1      23.433  -7.910   5.244  1.00  0.00     0.004 A 
ATOM      8  C   UNL     1      24.809  -9.902   5.174  1.00  0.00     0.004 A 
ATOM      9  C   UNL     1      23.031  -8.140   3.926  1.00  0.00     0.004 A 
ATOM     10  C   UNL     1      24.407 -10.134   3.856  1.00  0.00     0.004 A 
ENDBRANCH   2   4
ENDBRANCH   1   2
BRANCH   1  11
ATOM     11  C   UNL     1      21.060 -10.979   1.205  1.00  0.00     0.028 C 
BRANCH  11  12
ATOM     12  C   UNL     1      21.029 -11.017  -0.303  1.00  0.00    -0.028 C 
ATOM     13  C   UNL     1      19.914 -10.844  -1.048  1.00  0.00    -0.080 C 
ATOM     14  C   UNL     1      18.554 -10.648  -0.419  1.00  0.00     0.039 C 
ATOM     15  C   UNL     1      20.043 -10.868  -2.549  1.00  0.00     0.039 C 
ENDBRANCH  11  12
ENDBRANCH   1  11
TORSDOF 4
ENDMDL
