MODEL 1
REMARK VINA RESULT:    -3.714      0.000      0.000
REMARK INTER + INTRA:          -5.609
REMARK INTER:                  -5.669
REMARK INTRA:                   0.059
REMARK UNBOUND:                 0.059
REMARK SMILES CC1=CCC[C@H](C)C(=O)C[C@H](C(C)C)C(=O)C1
REMARK SMILES IDX 8 1 9 2 6 3 7 4 5 5 4 6 3 7 2 8 1 9 10 11 11 12 15 13 16 14
REMARK SMILES IDX 17 15 12 17 13 18 14 19
REMARK H PARENT
REMARK Flexibility Score: 70.00
ROOT
ATOM      1  C   UNL     1      17.591  22.622  35.171  1.00  0.00     0.136 C 
ATOM      2  O   UNL     1      17.575  23.499  34.318  1.00  0.00    -0.299 OA
ENDROOT
BRANCH   1   3
ATOM      3  C   UNL     1      18.267  21.292  34.882  1.00  0.00     0.053 C 
ATOM      4  C   UNL     1      19.083  21.318  33.580  1.00  0.00     0.016 C 
BRANCH   3   5
ATOM      5  C   UNL     1      19.090  20.761  36.081  1.00  0.00     0.015 C 
BRANCH   5   6
ATOM      6  C   UNL     1      18.725  19.376  36.658  1.00  0.00     0.028 C 
BRANCH   6   7
ATOM      7  C   UNL     1      18.629  19.254  38.162  1.00  0.00    -0.028 C 
ATOM      8  C   UNL     1      17.499  19.297  38.906  1.00  0.00    -0.070 CG0
ATOM      9  C   UNL     1      17.613  18.972  40.375  1.00  0.00     0.039 C 
ATOM     10  G   UNL     1      16.148  19.727  38.369  1.00  0.00     0.000 G0
ENDBRANCH   6   7
ENDBRANCH   5   6
ENDBRANCH   3   5
ENDBRANCH   1   3
BRANCH   1  11
ATOM     11  C   UNL     1      16.917  22.890  36.503  1.00  0.00     0.087 C 
BRANCH  11  12
ATOM     12  C   UNL     1      15.798  21.874  36.859  1.00  0.00     0.066 C 
BRANCH  12  13
ATOM     13  C   UNL     1      16.077  21.238  38.209  1.00  0.00     0.140 C 
ATOM     14  O   UNL     1      16.293  21.955  39.176  1.00  0.00    -0.299 OA
BRANCH  13  15
ATOM     15  C   UNL     1      16.123  19.736  38.380  1.00  0.00     0.106 CG0
ATOM     16  G   UNL     1      17.481  19.318  38.907  1.00  0.00     0.000 G0
ENDBRANCH  13  15
ENDBRANCH  12  13
BRANCH  12  17
ATOM     17  C   UNL     1      14.379  22.527  36.834  1.00  0.00    -0.006 C 
ATOM     18  C   UNL     1      13.332  21.610  37.492  1.00  0.00     0.008 C 
ATOM     19  C   UNL     1      13.922  22.860  35.403  1.00  0.00     0.008 C 
ENDBRANCH  12  17
ENDBRANCH  11  12
ENDBRANCH   1  11
TORSDOF 1
ENDMDL
MODEL 2
REMARK VINA RESULT:    -3.701      2.305      3.417
REMARK INTER + INTRA:          -5.589
REMARK INTER:                  -5.113
REMARK INTRA:                  -0.476
REMARK UNBOUND:                 0.059
REMARK SMILES CC1=CCC[C@H](C)C(=O)C[C@H](C(C)C)C(=O)C1
REMARK SMILES IDX 8 1 9 2 6 3 7 4 5 5 4 6 3 7 2 8 1 9 10 11 11 12 15 13 16 14
REMARK SMILES IDX 17 15 12 17 13 18 14 19
REMARK H PARENT
REMARK Flexibility Score: 70.00
ROOT
ATOM      1  C   UNL     1      15.752  23.740  37.248  1.00  0.00     0.136 C 
ATOM      2  O   UNL     1      16.621  24.507  37.639  1.00  0.00    -0.299 OA
ENDROOT
BRANCH   1   3
ATOM      3  C   UNL     1      16.124  22.549  36.380  1.00  0.00     0.053 C 
ATOM      4  C   UNL     1      16.937  22.955  35.141  1.00  0.00     0.016 C 
BRANCH   3   5
ATOM      5  C   UNL     1      16.801  21.409  37.179  1.00  0.00     0.015 C 
BRANCH   5   6
ATOM      6  C   UNL     1      16.411  21.229  38.663  1.00  0.00     0.028 C 
BRANCH   6   7
ATOM      7  C   UNL     1      15.359  20.190  38.982  1.00  0.00    -0.028 C 
ATOM      8  C   UNL     1      14.065  20.424  39.306  1.00  0.00    -0.070 CG0
ATOM      9  C   UNL     1      13.141  19.235  39.407  1.00  0.00     0.039 C 
ATOM     10  G   UNL     1      13.512  21.793  39.647  1.00  0.00     0.000 G0
ENDBRANCH   6   7
ENDBRANCH   5   6
ENDBRANCH   3   5
ENDBRANCH   1   3
BRANCH   1  11
ATOM     11  C   UNL     1      14.312  24.012  37.637  1.00  0.00     0.087 C 
BRANCH  11  12
ATOM     12  C   UNL     1      13.329  22.872  37.253  1.00  0.00     0.066 C 
BRANCH  12  13
ATOM     13  C   UNL     1      12.668  22.307  38.498  1.00  0.00     0.140 C 
ATOM     14  O   UNL     1      11.448  22.296  38.575  1.00  0.00    -0.299 OA
BRANCH  13  15
ATOM     15  C   UNL     1      13.485  21.786  39.658  1.00  0.00     0.106 CG0
ATOM     16  G   UNL     1      14.071  20.432  39.310  1.00  0.00     0.000 G0
ENDBRANCH  13  15
ENDBRANCH  12  13
BRANCH  12  17
ATOM     17  C   UNL     1      12.258  23.341  36.217  1.00  0.00    -0.006 C 
ATOM     18  C   UNL     1      12.676  22.977  34.780  1.00  0.00     0.008 C 
ATOM     19  C   UNL     1      12.004  24.857  36.295  1.00  0.00     0.008 C 
ENDBRANCH  12  17
ENDBRANCH  11  12
ENDBRANCH   1  11
TORSDOF 1
ENDMDL
MODEL 3
REMARK VINA RESULT:    -3.470     12.500     15.777
REMARK INTER + INTRA:          -5.237
REMARK INTER:                  -5.201
REMARK INTRA:                  -0.035
REMARK UNBOUND:                 0.059
REMARK SMILES CC1=CCC[C@H](C)C(=O)C[C@H](C(C)C)C(=O)C1
REMARK SMILES IDX 8 1 9 2 6 3 7 4 5 5 4 6 3 7 2 8 1 9 10 11 11 12 15 13 16 14
REMARK SMILES IDX 17 15 12 17 13 18 14 19
REMARK H PARENT
REMARK Flexibility Score: 70.00
ROOT
ATOM      1  C   UNL     1      18.101  12.620  50.342  1.00  0.00     0.136 C 
ATOM      2  O   UNL     1      18.929  12.513  49.449  1.00  0.00    -0.299 OA
ENDROOT
BRANCH   1   3
ATOM      3  C   UNL     1      18.250  11.810  51.619  1.00  0.00     0.053 C 
ATOM      4  C   UNL     1      18.558  12.690  52.841  1.00  0.00     0.016 C 
BRANCH   3   5
ATOM      5  C   UNL     1      17.059  10.853  51.869  1.00  0.00     0.015 C 
BRANCH   5   6
ATOM      6  C   UNL     1      16.432  10.138  50.652  1.00  0.00     0.028 C 
BRANCH   6   7
ATOM      7  C   UNL     1      14.923  10.116  50.561  1.00  0.00    -0.028 C 
ATOM      8  C   UNL     1      14.169  10.562  49.529  1.00  0.00    -0.070 CG0
ATOM      9  C   UNL     1      12.687  10.277  49.568  1.00  0.00     0.039 C 
ATOM     10  G   UNL     1      14.709  11.394  48.384  1.00  0.00     0.000 G0
ENDBRANCH   6   7
ENDBRANCH   5   6
ENDBRANCH   3   5
ENDBRANCH   1   3
BRANCH   1  11
ATOM     11  C   UNL     1      16.930  13.561  50.140  1.00  0.00     0.087 C 
BRANCH  11  12
ATOM     12  C   UNL     1      16.292  13.481  48.725  1.00  0.00     0.066 C 
BRANCH  12  13
ATOM     13  C   UNL     1      14.920  12.836  48.803  1.00  0.00     0.140 C 
ATOM     14  O   UNL     1      13.979  13.483  49.241  1.00  0.00    -0.299 OA
BRANCH  13  15
ATOM     15  C   UNL     1      14.695  11.403  48.378  1.00  0.00     0.106 CG0
ATOM     16  G   UNL     1      14.184  10.591  49.551  1.00  0.00     0.000 G0
ENDBRANCH  13  15
ENDBRANCH  12  13
BRANCH  12  17
ATOM     17  C   UNL     1      16.213  14.879  48.034  1.00  0.00    -0.006 C 
ATOM     18  C   UNL     1      16.911  14.863  46.661  1.00  0.00     0.008 C 
ATOM     19  C   UNL     1      16.839  15.988  48.899  1.00  0.00     0.008 C 
ENDBRANCH  12  17
ENDBRANCH  11  12
ENDBRANCH   1  11
TORSDOF 1
ENDMDL
MODEL 4
REMARK VINA RESULT:    -3.447     11.266     12.592
REMARK INTER + INTRA:          -5.201
REMARK INTER:                  -5.001
REMARK INTRA:                  -0.200
REMARK UNBOUND:                 0.059
REMARK SMILES CC1=CCC[C@H](C)C(=O)C[C@H](C(C)C)C(=O)C1
REMARK SMILES IDX 8 1 9 2 6 3 7 4 5 5 4 6 3 7 2 8 1 9 10 11 11 12 15 13 16 14
REMARK SMILES IDX 17 15 12 17 13 18 14 19
REMARK H PARENT
REMARK Flexibility Score: 70.00
ROOT
ATOM      1  C   UNL     1      14.439   9.028  34.145  1.00  0.00     0.136 C 
ATOM      2  O   UNL     1      14.973   8.222  33.396  1.00  0.00    -0.299 OA
ENDROOT
BRANCH   1   3
ATOM      3  C   UNL     1      14.448  10.508  33.800  1.00  0.00     0.053 C 
ATOM      4  C   UNL     1      15.712  10.925  33.030  1.00  0.00     0.016 C 
BRANCH   3   5
ATOM      5  C   UNL     1      13.151  10.971  33.095  1.00  0.00     0.015 C 
BRANCH   5   6
ATOM      6  C   UNL     1      12.121  11.775  33.919  1.00  0.00     0.028 C 
BRANCH   6   7
ATOM      7  C   UNL     1      10.779  11.128  34.174  1.00  0.00    -0.028 C 
ATOM      8  C   UNL     1      10.255  10.802  35.379  1.00  0.00    -0.070 CG0
ATOM      9  C   UNL     1       8.822  10.331  35.418  1.00  0.00     0.039 C 
ATOM     10  G   UNL     1      11.043  10.807  36.674  1.00  0.00     0.000 G0
ENDBRANCH   6   7
ENDBRANCH   5   6
ENDBRANCH   3   5
ENDBRANCH   1   3
BRANCH   1  11
ATOM     11  C   UNL     1      13.785   8.519  35.414  1.00  0.00     0.087 C 
BRANCH  11  12
ATOM     12  C   UNL     1      13.409   9.640  36.423  1.00  0.00     0.066 C 
BRANCH  12  13
ATOM     13  C   UNL     1      11.930   9.569  36.758  1.00  0.00     0.140 C 
ATOM     14  O   UNL     1      11.437   8.493  37.068  1.00  0.00    -0.299 OA
BRANCH  13  15
ATOM     15  C   UNL     1      11.045  10.793  36.690  1.00  0.00     0.106 CG0
ATOM     16  G   UNL     1      10.265  10.795  35.391  1.00  0.00     0.000 G0
ENDBRANCH  13  15
ENDBRANCH  12  13
BRANCH  12  17
ATOM     17  C   UNL     1      14.278   9.581  37.720  1.00  0.00    -0.006 C 
ATOM     18  C   UNL     1      15.616  10.319  37.527  1.00  0.00     0.008 C 
ATOM     19  C   UNL     1      14.564   8.135  38.159  1.00  0.00     0.008 C 
ENDBRANCH  12  17
ENDBRANCH  11  12
ENDBRANCH   1  11
TORSDOF 1
ENDMDL
MODEL 5
REMARK VINA RESULT:    -3.366      2.376      3.504
REMARK INTER + INTRA:          -5.078
REMARK INTER:                  -4.982
REMARK INTRA:                  -0.095
REMARK UNBOUND:                 0.059
REMARK SMILES CC1=CCC[C@H](C)C(=O)C[C@H](C(C)C)C(=O)C1
REMARK SMILES IDX 8 1 9 2 6 3 7 4 5 5 4 6 3 7 2 8 1 9 10 11 11 12 15 13 16 14
REMARK SMILES IDX 17 15 12 17 13 18 14 19
REMARK H PARENT
REMARK Flexibility Score: 70.00
ROOT
ATOM      1  C   UNL     1      14.060  23.723  37.591  1.00  0.00     0.136 C 
ATOM      2  O   UNL     1      13.125  24.437  37.257  1.00  0.00    -0.299 OA
ENDROOT
BRANCH   1   3
ATOM      3  C   UNL     1      15.432  23.927  36.970  1.00  0.00     0.053 C 
ATOM      4  C   UNL     1      16.437  24.547  37.954  1.00  0.00     0.016 C 
BRANCH   3   5
ATOM      5  C   UNL     1      15.984  22.649  36.294  1.00  0.00     0.015 C 
BRANCH   5   6
ATOM      6  C   UNL     1      17.228  21.976  36.915  1.00  0.00     0.028 C 
BRANCH   6   7
ATOM      7  C   UNL     1      17.226  20.466  37.008  1.00  0.00    -0.028 C 
ATOM      8  C   UNL     1      16.436  19.707  37.803  1.00  0.00    -0.070 CG0
ATOM      9  C   UNL     1      16.471  18.211  37.604  1.00  0.00     0.039 C 
ATOM     10  G   UNL     1      15.582  20.261  38.925  1.00  0.00     0.000 G0
ENDBRANCH   6   7
ENDBRANCH   5   6
ENDBRANCH   3   5
ENDBRANCH   1   3
BRANCH   1  11
ATOM     11  C   UNL     1      13.815  22.637  38.619  1.00  0.00     0.087 C 
BRANCH  11  12
ATOM     12  C   UNL     1      13.311  21.297  38.015  1.00  0.00     0.066 C 
BRANCH  12  13
ATOM     13  C   UNL     1      14.105  20.134  38.580  1.00  0.00     0.140 C 
ATOM     14  O   UNL     1      13.544  19.065  38.776  1.00  0.00    -0.299 OA
BRANCH  13  15
ATOM     15  C   UNL     1      15.568  20.275  38.935  1.00  0.00     0.106 CG0
ATOM     16  G   UNL     1      16.426  19.686  37.834  1.00  0.00     0.000 G0
ENDBRANCH  13  15
ENDBRANCH  12  13
BRANCH  12  17
ATOM     17  C   UNL     1      11.780  21.089  38.240  1.00  0.00    -0.006 C 
ATOM     18  C   UNL     1      10.962  21.641  37.057  1.00  0.00     0.008 C 
ATOM     19  C   UNL     1      11.290  21.754  39.538  1.00  0.00     0.008 C 
ENDBRANCH  12  17
ENDBRANCH  11  12
ENDBRANCH   1  11
TORSDOF 1
ENDMDL
MODEL 6
REMARK VINA RESULT:    -3.348     12.713     15.605
REMARK INTER + INTRA:          -5.051
REMARK INTER:                  -4.751
REMARK INTRA:                  -0.300
REMARK UNBOUND:                 0.059
REMARK SMILES CC1=CCC[C@H](C)C(=O)C[C@H](C(C)C)C(=O)C1
REMARK SMILES IDX 8 1 9 2 6 3 7 4 5 5 4 6 3 7 2 8 1 9 10 11 11 12 15 13 16 14
REMARK SMILES IDX 17 15 12 17 13 18 14 19
REMARK H PARENT
REMARK Flexibility Score: 70.00
ROOT
ATOM      1  C   UNL     1      16.695  13.282  49.034  1.00  0.00     0.136 C 
ATOM      2  O   UNL     1      17.011  14.463  48.986  1.00  0.00    -0.299 OA
ENDROOT
BRANCH   1   3
ATOM      3  C   UNL     1      17.582  12.286  49.762  1.00  0.00     0.053 C 
ATOM      4  C   UNL     1      18.954  12.877  50.125  1.00  0.00     0.016 C 
BRANCH   3   5
ATOM      5  C   UNL     1      16.883  11.632  50.977  1.00  0.00     0.015 C 
BRANCH   5   6
ATOM      6  C   UNL     1      16.366  10.184  50.827  1.00  0.00     0.028 C 
BRANCH   6   7
ATOM      7  C   UNL     1      14.870   9.971  50.891  1.00  0.00    -0.028 C 
ATOM      8  C   UNL     1      14.079   9.494  49.902  1.00  0.00    -0.070 CG0
ATOM      9  C   UNL     1      12.640   9.189  50.239  1.00  0.00     0.039 C 
ATOM     10  G   UNL     1      14.529   9.325  48.465  1.00  0.00     0.000 G0
ENDBRANCH   6   7
ENDBRANCH   5   6
ENDBRANCH   3   5
ENDBRANCH   1   3
BRANCH   1  11
ATOM     11  C   UNL     1      15.418  12.843  48.346  1.00  0.00     0.087 C 
BRANCH  11  12
ATOM     12  C   UNL     1      15.571  11.555  47.491  1.00  0.00     0.066 C 
BRANCH  12  13
ATOM     13  C   UNL     1      14.385  10.634  47.711  1.00  0.00     0.140 C 
ATOM     14  O   UNL     1      13.281  10.974  47.309  1.00  0.00    -0.299 OA
BRANCH  13  15
ATOM     15  C   UNL     1      14.530   9.319  48.443  1.00  0.00     0.106 CG0
ATOM     16  G   UNL     1      14.073   9.474  49.880  1.00  0.00     0.000 G0
ENDBRANCH  13  15
ENDBRANCH  12  13
BRANCH  12  17
ATOM     17  C   UNL     1      15.756  11.873  45.973  1.00  0.00    -0.006 C 
ATOM     18  C   UNL     1      17.242  11.821  45.570  1.00  0.00     0.008 C 
ATOM     19  C   UNL     1      15.185  13.251  45.598  1.00  0.00     0.008 C 
ENDBRANCH  12  17
ENDBRANCH  11  12
ENDBRANCH   1  11
TORSDOF 1
ENDMDL
MODEL 7
REMARK VINA RESULT:    -3.341     13.719     16.010
REMARK INTER + INTRA:          -5.040
REMARK INTER:                  -4.637
REMARK INTRA:                  -0.403
REMARK UNBOUND:                 0.059
REMARK SMILES CC1=CCC[C@H](C)C(=O)C[C@H](C(C)C)C(=O)C1
REMARK SMILES IDX 8 1 9 2 6 3 7 4 5 5 4 6 3 7 2 8 1 9 10 11 11 12 15 13 16 14
REMARK SMILES IDX 17 15 12 17 13 18 14 19
REMARK H PARENT
REMARK Flexibility Score: 70.00
ROOT
ATOM      1  C   UNL     1      15.578   9.597  49.173  1.00  0.00     0.136 C 
ATOM      2  O   UNL     1      16.529   8.871  48.917  1.00  0.00    -0.299 OA
ENDROOT
BRANCH   1   3
ATOM      3  C   UNL     1      15.774  10.829  50.040  1.00  0.00     0.053 C 
ATOM      4  C   UNL     1      16.097  10.475  51.501  1.00  0.00     0.016 C 
BRANCH   3   5
ATOM      5  C   UNL     1      16.788  11.833  49.441  1.00  0.00     0.015 C 
BRANCH   5   6
ATOM      6  C   UNL     1      16.491  12.422  48.044  1.00  0.00     0.028 C 
BRANCH   6   7
ATOM      7  C   UNL     1      15.307  13.356  47.923  1.00  0.00    -0.028 C 
ATOM      8  C   UNL     1      14.088  13.054  47.418  1.00  0.00    -0.070 CG0
ATOM      9  C   UNL     1      12.995  14.085  47.560  1.00  0.00     0.039 C 
ATOM     10  G   UNL     1      13.780  11.782  46.654  1.00  0.00     0.000 G0
ENDBRANCH   6   7
ENDBRANCH   5   6
ENDBRANCH   3   5
ENDBRANCH   1   3
BRANCH   1  11
ATOM     11  C   UNL     1      14.215   9.232  48.620  1.00  0.00     0.087 C 
BRANCH  11  12
ATOM     12  C   UNL     1      13.148  10.350  48.782  1.00  0.00     0.066 C 
BRANCH  12  13
ATOM     13  C   UNL     1      12.790  10.935  47.428  1.00  0.00     0.140 C 
ATOM     14  O   UNL     1      11.691  10.699  46.945  1.00  0.00    -0.299 OA
BRANCH  13  15
ATOM     15  C   UNL     1      13.772  11.780  46.648  1.00  0.00     0.106 CG0
ATOM     16  G   UNL     1      14.080  13.052  47.412  1.00  0.00     0.000 G0
ENDBRANCH  13  15
ENDBRANCH  12  13
BRANCH  12  17
ATOM     17  C   UNL     1      11.871   9.843  49.526  1.00  0.00    -0.006 C 
ATOM     18  C   UNL     1      11.173  10.990  50.280  1.00  0.00     0.008 C 
ATOM     19  C   UNL     1      12.192   8.714  50.520  1.00  0.00     0.008 C 
ENDBRANCH  12  17
ENDBRANCH  11  12
ENDBRANCH   1  11
TORSDOF 1
ENDMDL
MODEL 8
REMARK VINA RESULT:    -3.209     13.649     16.190
REMARK INTER + INTRA:          -4.839
REMARK INTER:                  -4.866
REMARK INTRA:                   0.027
REMARK UNBOUND:                 0.059
REMARK SMILES CC1=CCC[C@H](C)C(=O)C[C@H](C(C)C)C(=O)C1
REMARK SMILES IDX 8 1 9 2 6 3 7 4 5 5 4 6 3 7 2 8 1 9 10 11 11 12 15 13 16 14
REMARK SMILES IDX 17 15 12 17 13 18 14 19
REMARK H PARENT
REMARK Flexibility Score: 70.00
ROOT
ATOM      1  C   UNL     1      17.763  13.453  49.177  1.00  0.00     0.136 C 
ATOM      2  O   UNL     1      18.713  13.981  48.617  1.00  0.00    -0.299 OA
ENDROOT
BRANCH   1   3
ATOM      3  C   UNL     1      16.375  14.060  49.057  1.00  0.00     0.053 C 
ATOM      4  C   UNL     1      16.368  15.571  49.338  1.00  0.00     0.016 C 
BRANCH   3   5
ATOM      5  C   UNL     1      15.676  13.707  47.722  1.00  0.00     0.015 C 
BRANCH   5   6
ATOM      6  C   UNL     1      15.775  12.252  47.212  1.00  0.00     0.028 C 
BRANCH   6   7
ATOM      7  C   UNL     1      14.724  11.276  47.690  1.00  0.00    -0.028 C 
ATOM      8  C   UNL     1      14.837  10.410  48.725  1.00  0.00    -0.070 CG0
ATOM      9  C   UNL     1      13.600   9.654  49.145  1.00  0.00     0.039 C 
ATOM     10  G   UNL     1      16.141  10.099  49.429  1.00  0.00     0.000 G0
ENDBRANCH   6   7
ENDBRANCH   5   6
ENDBRANCH   3   5
ENDBRANCH   1   3
BRANCH   1  11
ATOM     11  C   UNL     1      18.006  12.199  49.994  1.00  0.00     0.087 C 
BRANCH  11  12
ATOM     12  C   UNL     1      16.966  11.971  51.125  1.00  0.00     0.066 C 
BRANCH  12  13
ATOM     13  C   UNL     1      16.126  10.742  50.826  1.00  0.00     0.140 C 
ATOM     14  O   UNL     1      15.446  10.251  51.716  1.00  0.00    -0.299 OA
BRANCH  13  15
ATOM     15  C   UNL     1      16.134  10.093  49.461  1.00  0.00     0.106 CG0
ATOM     16  G   UNL     1      14.841  10.403  48.734  1.00  0.00     0.000 G0
ENDBRANCH  13  15
ENDBRANCH  12  13
BRANCH  12  17
ATOM     17  C   UNL     1      17.638  11.859  52.530  1.00  0.00    -0.006 C 
ATOM     18  C   UNL     1      18.688  12.967  52.736  1.00  0.00     0.008 C 
ATOM     19  C   UNL     1      18.309  10.490  52.743  1.00  0.00     0.008 C 
ENDBRANCH  12  17
ENDBRANCH  11  12
ENDBRANCH   1  11
TORSDOF 1
ENDMDL
MODEL 9
REMARK VINA RESULT:    -3.057     12.682     14.718
REMARK INTER + INTRA:          -4.606
REMARK INTER:                  -4.074
REMARK INTRA:                  -0.533
REMARK UNBOUND:                 0.059
REMARK SMILES CC1=CCC[C@H](C)C(=O)C[C@H](C(C)C)C(=O)C1
REMARK SMILES IDX 8 1 9 2 6 3 7 4 5 5 4 6 3 7 2 8 1 9 10 11 11 12 15 13 16 14
REMARK SMILES IDX 17 15 12 17 13 18 14 19
REMARK H PARENT
REMARK Flexibility Score: 70.00
ROOT
ATOM      1  C   UNL     1       5.114  22.850  39.892  1.00  0.00     0.136 C 
ATOM      2  O   UNL     1       6.226  22.889  39.384  1.00  0.00    -0.299 OA
ENDROOT
BRANCH   1   3
ATOM      3  C   UNL     1       4.931  22.249  41.276  1.00  0.00     0.053 C 
ATOM      4  C   UNL     1       5.425  20.796  41.356  1.00  0.00     0.016 C 
BRANCH   3   5
ATOM      5  C   UNL     1       5.523  23.133  42.400  1.00  0.00     0.015 C 
BRANCH   5   6
ATOM      6  C   UNL     1       5.193  24.642  42.388  1.00  0.00     0.028 C 
BRANCH   6   7
ATOM      7  C   UNL     1       3.868  25.068  42.980  1.00  0.00    -0.028 C 
ATOM      8  C   UNL     1       2.743  25.385  42.297  1.00  0.00    -0.070 CG0
ATOM      9  C   UNL     1       1.479  25.606  43.091  1.00  0.00     0.039 C 
ATOM     10  G   UNL     1       2.696  25.608  40.799  1.00  0.00     0.000 G0
ENDBRANCH   6   7
ENDBRANCH   5   6
ENDBRANCH   3   5
ENDBRANCH   1   3
BRANCH   1  11
ATOM     11  C   UNL     1       3.937  23.398  39.110  1.00  0.00     0.087 C 
BRANCH  11  12
ATOM     12  C   UNL     1       2.562  23.173  39.798  1.00  0.00     0.066 C 
BRANCH  12  13
ATOM     13  C   UNL     1       1.914  24.506  40.124  1.00  0.00     0.140 C 
ATOM     14  O   UNL     1       0.745  24.695  39.817  1.00  0.00    -0.299 OA
BRANCH  13  15
ATOM     15  C   UNL     1       2.688  25.618  40.796  1.00  0.00     0.106 CG0
ATOM     16  G   UNL     1       2.745  25.378  42.291  1.00  0.00     0.000 G0
ENDBRANCH  13  15
ENDBRANCH  12  13
BRANCH  12  17
ATOM     17  C   UNL     1       1.610  22.287  38.934  1.00  0.00    -0.006 C 
ATOM     18  C   UNL     1       1.558  20.842  39.466  1.00  0.00     0.008 C 
ATOM     19  C   UNL     1       2.030  22.258  37.454  1.00  0.00     0.008 C 
ENDBRANCH  12  17
ENDBRANCH  11  12
ENDBRANCH   1  11
TORSDOF 1
ENDMDL
