MODEL 1
REMARK VINA RESULT:    -5.093      0.000      0.000
REMARK INTER + INTRA:          -9.222
REMARK INTER:                  -8.071
REMARK INTRA:                  -1.151
REMARK UNBOUND:                -1.151
REMARK SMILES CCCCCCCCCCCC(=O)[O-]
REMARK SMILES IDX 7 1 8 2 9 3 10 4 11 5 12 6 13 7 14 8 6 9 5 10 4 11 3 12 2 13
REMARK SMILES IDX 1 14
REMARK H PARENT
REMARK Flexibility Score: inf
ROOT
ATOM      1  C   UNL     1      19.475  22.711   6.086  1.00  0.00     0.000 C 
ENDROOT
BRANCH   1   2
ATOM      2  C   UNL     1      20.686  22.162   6.862  1.00  0.00     0.000 C 
BRANCH   2   3
ATOM      3  C   UNL     1      21.254  23.178   7.866  1.00  0.00     0.000 C 
BRANCH   3   4
ATOM      4  C   UNL     1      21.374  22.600   9.284  1.00  0.00     0.006 C 
BRANCH   4   5
ATOM      5  C   UNL     1      20.393  23.286  10.239  1.00  0.00     0.053 C 
BRANCH   5   6
ATOM      6  C   UNL     1      19.149  22.467  10.390  1.00  0.00     0.041 C 
ATOM      7  O   UNL     1      19.114  21.286   9.957  1.00  0.00    -0.550 OA
ATOM      8  O   UNL     1      18.014  23.025  10.964  1.00  0.00    -0.550 OA
ENDBRANCH   5   6
ENDBRANCH   4   5
ENDBRANCH   3   4
ENDBRANCH   2   3
ENDBRANCH   1   2
BRANCH   1   9
ATOM      9  C   UNL     1      18.161  22.569   6.871  1.00  0.00     0.000 C 
BRANCH   9  10
ATOM     10  C   UNL     1      17.392  23.898   6.978  1.00  0.00    -0.000 C 
BRANCH  10  11
ATOM     11  C   UNL     1      18.118  24.929   7.856  1.00  0.00    -0.000 C 
BRANCH  11  12
ATOM     12  C   UNL     1      17.156  25.700   8.777  1.00  0.00    -0.000 C 
BRANCH  12  13
ATOM     13  C   UNL     1      17.614  27.146   9.029  1.00  0.00    -0.003 C 
ATOM     14  C   UNL     1      19.130  27.311   8.925  1.00  0.00     0.004 C 
ENDBRANCH  12  13
ENDBRANCH  11  12
ENDBRANCH  10  11
ENDBRANCH   9  10
ENDBRANCH   1   9
TORSDOF 10
ENDMDL
MODEL 2
REMARK VINA RESULT:    -4.953      1.752      4.281
REMARK INTER + INTRA:          -9.000
REMARK INTER:                  -7.518
REMARK INTRA:                  -1.482
REMARK UNBOUND:                -1.151
REMARK SMILES CCCCCCCCCCCC(=O)[O-]
REMARK SMILES IDX 7 1 8 2 9 3 10 4 11 5 12 6 13 7 14 8 6 9 5 10 4 11 3 12 2 13
REMARK SMILES IDX 1 14
REMARK H PARENT
REMARK Flexibility Score: inf
ROOT
ATOM      1  C   UNL     1      19.302  22.225   6.898  1.00  0.00     0.000 C 
ENDROOT
BRANCH   1   2
ATOM      2  C   UNL     1      18.355  23.031   5.991  1.00  0.00     0.000 C 
BRANCH   2   3
ATOM      3  C   UNL     1      16.950  23.188   6.596  1.00  0.00     0.000 C 
BRANCH   3   4
ATOM      4  C   UNL     1      16.982  23.777   8.014  1.00  0.00     0.006 C 
BRANCH   4   5
ATOM      5  C   UNL     1      17.613  25.173   8.012  1.00  0.00     0.053 C 
BRANCH   5   6
ATOM      6  C   UNL     1      17.186  25.942   9.223  1.00  0.00     0.041 C 
ATOM      7  O   UNL     1      16.876  25.336  10.281  1.00  0.00    -0.550 OA
ATOM      8  O   UNL     1      17.085  27.327   9.167  1.00  0.00    -0.550 OA
ENDBRANCH   5   6
ENDBRANCH   4   5
ENDBRANCH   3   4
ENDBRANCH   2   3
ENDBRANCH   1   2
BRANCH   1   9
ATOM      9  C   UNL     1      20.669  22.907   7.075  1.00  0.00     0.000 C 
BRANCH   9  10
ATOM     10  C   UNL     1      21.007  23.173   8.552  1.00  0.00    -0.000 C 
BRANCH  10  11
ATOM     11  C   UNL     1      20.312  22.186   9.503  1.00  0.00    -0.000 C 
BRANCH  11  12
ATOM     12  C   UNL     1      19.510  22.897  10.608  1.00  0.00    -0.000 C 
BRANCH  12  13
ATOM     13  C   UNL     1      18.325  22.056  11.109  1.00  0.00    -0.003 C 
ATOM     14  C   UNL     1      17.950  20.931  10.145  1.00  0.00     0.004 C 
ENDBRANCH  12  13
ENDBRANCH  11  12
ENDBRANCH  10  11
ENDBRANCH   9  10
ENDBRANCH   1   9
TORSDOF 10
ENDMDL
MODEL 3
REMARK VINA RESULT:    -4.892      1.601      3.123
REMARK INTER + INTRA:          -8.903
REMARK INTER:                  -7.342
REMARK INTRA:                  -1.561
REMARK UNBOUND:                -1.151
REMARK SMILES CCCCCCCCCCCC(=O)[O-]
REMARK SMILES IDX 7 1 8 2 9 3 10 4 11 5 12 6 13 7 14 8 6 9 5 10 4 11 3 12 2 13
REMARK SMILES IDX 1 14
REMARK H PARENT
REMARK Flexibility Score: inf
ROOT
ATOM      1  C   UNL     1      20.426  23.180  10.519  1.00  0.00     0.000 C 
ENDROOT
BRANCH   1   2
ATOM      2  C   UNL     1      21.378  22.897   9.344  1.00  0.00     0.000 C 
BRANCH   2   3
ATOM      3  C   UNL     1      20.923  23.571   8.039  1.00  0.00     0.000 C 
BRANCH   3   4
ATOM      4  C   UNL     1      20.811  22.579   6.871  1.00  0.00     0.006 C 
BRANCH   4   5
ATOM      5  C   UNL     1      19.438  22.680   6.198  1.00  0.00     0.053 C 
BRANCH   5   6
ATOM      6  C   UNL     1      18.612  21.473   6.510  1.00  0.00     0.041 C 
ATOM      7  O   UNL     1      17.463  21.346   6.012  1.00  0.00    -0.550 OA
ATOM      8  O   UNL     1      19.091  20.511   7.391  1.00  0.00    -0.550 OA
ENDBRANCH   5   6
ENDBRANCH   4   5
ENDBRANCH   3   4
ENDBRANCH   2   3
ENDBRANCH   1   2
BRANCH   1   9
ATOM      9  C   UNL     1      19.034  22.563  10.310  1.00  0.00     0.000 C 
BRANCH   9  10
ATOM     10  C   UNL     1      17.911  23.615  10.342  1.00  0.00    -0.000 C 
BRANCH  10  11
ATOM     11  C   UNL     1      17.185  23.744   8.994  1.00  0.00    -0.000 C 
BRANCH  11  12
ATOM     12  C   UNL     1      17.470  25.086   8.297  1.00  0.00    -0.000 C 
BRANCH  12  13
ATOM     13  C   UNL     1      17.870  26.190   9.288  1.00  0.00    -0.003 C 
ATOM     14  C   UNL     1      19.063  27.015   8.804  1.00  0.00     0.004 C 
ENDBRANCH  12  13
ENDBRANCH  11  12
ENDBRANCH  10  11
ENDBRANCH   9  10
ENDBRANCH   1   9
TORSDOF 10
ENDMDL
MODEL 4
REMARK VINA RESULT:    -4.874      1.972      4.651
REMARK INTER + INTRA:          -8.875
REMARK INTER:                  -7.623
REMARK INTRA:                  -1.252
REMARK UNBOUND:                -1.151
REMARK SMILES CCCCCCCCCCCC(=O)[O-]
REMARK SMILES IDX 7 1 8 2 9 3 10 4 11 5 12 6 13 7 14 8 6 9 5 10 4 11 3 12 2 13
REMARK SMILES IDX 1 14
REMARK H PARENT
REMARK Flexibility Score: inf
ROOT
ATOM      1  C   UNL     1      20.383  23.173  10.446  1.00  0.00     0.000 C 
ENDROOT
BRANCH   1   2
ATOM      2  C   UNL     1      19.118  22.298  10.408  1.00  0.00     0.000 C 
BRANCH   2   3
ATOM      3  C   UNL     1      17.879  23.071   9.928  1.00  0.00     0.000 C 
BRANCH   3   4
ATOM      4  C   UNL     1      17.831  24.506  10.474  1.00  0.00     0.006 C 
BRANCH   4   5
ATOM      5  C   UNL     1      17.049  25.425   9.530  1.00  0.00     0.053 C 
BRANCH   5   6
ATOM      6  C   UNL     1      17.946  26.480   8.964  1.00  0.00     0.041 C 
ATOM      7  O   UNL     1      17.496  27.631   8.724  1.00  0.00    -0.550 OA
ATOM      8  O   UNL     1      19.267  26.178   8.657  1.00  0.00    -0.550 OA
ENDBRANCH   5   6
ENDBRANCH   4   5
ENDBRANCH   3   4
ENDBRANCH   2   3
ENDBRANCH   1   2
BRANCH   1   9
ATOM      9  C   UNL     1      21.428  22.743   9.404  1.00  0.00     0.000 C 
BRANCH   9  10
ATOM     10  C   UNL     1      21.089  23.242   7.989  1.00  0.00    -0.000 C 
BRANCH  10  11
ATOM     11  C   UNL     1      21.219  22.137   6.928  1.00  0.00    -0.000 C 
BRANCH  11  12
ATOM     12  C   UNL     1      20.125  22.226   5.848  1.00  0.00    -0.000 C 
BRANCH  12  13
ATOM     13  C   UNL     1      18.709  22.105   6.434  1.00  0.00    -0.003 C 
ATOM     14  C   UNL     1      17.885  23.379   6.253  1.00  0.00     0.004 C 
ENDBRANCH  12  13
ENDBRANCH  11  12
ENDBRANCH  10  11
ENDBRANCH   9  10
ENDBRANCH   1   9
TORSDOF 10
ENDMDL
MODEL 5
REMARK VINA RESULT:    -4.829      2.464      4.493
REMARK INTER + INTRA:          -8.803
REMARK INTER:                  -7.629
REMARK INTRA:                  -1.174
REMARK UNBOUND:                -1.151
REMARK SMILES CCCCCCCCCCCC(=O)[O-]
REMARK SMILES IDX 7 1 8 2 9 3 10 4 11 5 12 6 13 7 14 8 6 9 5 10 4 11 3 12 2 13
REMARK SMILES IDX 1 14
REMARK H PARENT
REMARK Flexibility Score: inf
ROOT
ATOM      1  C   UNL     1      17.249  22.138   6.927  1.00  0.00     0.000 C 
ENDROOT
BRANCH   1   2
ATOM      2  C   UNL     1      17.245  23.602   6.454  1.00  0.00     0.000 C 
BRANCH   2   3
ATOM      3  C   UNL     1      17.152  24.600   7.620  1.00  0.00     0.000 C 
BRANCH   3   4
ATOM      4  C   UNL     1      18.470  24.717   8.401  1.00  0.00     0.006 C 
BRANCH   4   5
ATOM      5  C   UNL     1      18.318  25.674   9.589  1.00  0.00     0.053 C 
BRANCH   5   6
ATOM      6  C   UNL     1      18.337  27.095   9.122  1.00  0.00     0.041 C 
ATOM      7  O   UNL     1      19.424  27.641   8.799  1.00  0.00    -0.550 OA
ATOM      8  O   UNL     1      17.160  27.833   9.091  1.00  0.00    -0.550 OA
ENDBRANCH   5   6
ENDBRANCH   4   5
ENDBRANCH   3   4
ENDBRANCH   2   3
ENDBRANCH   1   2
BRANCH   1   9
ATOM      9  C   UNL     1      18.223  21.262   6.123  1.00  0.00     0.000 C 
BRANCH   9  10
ATOM     10  C   UNL     1      19.263  22.092   5.352  1.00  0.00    -0.000 C 
BRANCH  10  11
ATOM     11  C   UNL     1      20.701  21.812   5.814  1.00  0.00    -0.000 C 
BRANCH  11  12
ATOM     12  C   UNL     1      21.122  22.698   7.000  1.00  0.00    -0.000 C 
BRANCH  12  13
ATOM     13  C   UNL     1      21.179  21.920   8.324  1.00  0.00    -0.003 C 
ATOM     14  C   UNL     1      21.468  22.819   9.526  1.00  0.00     0.004 C 
ENDBRANCH  12  13
ENDBRANCH  11  12
ENDBRANCH  10  11
ENDBRANCH   9  10
ENDBRANCH   1   9
TORSDOF 10
ENDMDL
MODEL 6
REMARK VINA RESULT:    -4.828      1.694      2.782
REMARK INTER + INTRA:          -8.801
REMARK INTER:                  -7.937
REMARK INTRA:                  -0.865
REMARK UNBOUND:                -1.151
REMARK SMILES CCCCCCCCCCCC(=O)[O-]
REMARK SMILES IDX 7 1 8 2 9 3 10 4 11 5 12 6 13 7 14 8 6 9 5 10 4 11 3 12 2 13
REMARK SMILES IDX 1 14
REMARK H PARENT
REMARK Flexibility Score: inf
ROOT
ATOM      1  C   UNL     1      17.429  23.226   6.300  1.00  0.00     0.000 C 
ENDROOT
BRANCH   1   2
ATOM      2  C   UNL     1      18.964  23.130   6.327  1.00  0.00     0.000 C 
BRANCH   2   3
ATOM      3  C   UNL     1      19.493  21.899   5.572  1.00  0.00     0.000 C 
BRANCH   3   4
ATOM      4  C   UNL     1      20.951  21.571   5.928  1.00  0.00     0.006 C 
BRANCH   4   5
ATOM      5  C   UNL     1      21.464  22.495   7.036  1.00  0.00     0.053 C 
BRANCH   5   6
ATOM      6  C   UNL     1      21.596  21.745   8.324  1.00  0.00     0.041 C 
ATOM      7  O   UNL     1      20.601  21.613   9.084  1.00  0.00    -0.550 OA
ATOM      8  O   UNL     1      22.830  21.235   8.709  1.00  0.00    -0.550 OA
ENDBRANCH   5   6
ENDBRANCH   4   5
ENDBRANCH   3   4
ENDBRANCH   2   3
ENDBRANCH   1   2
BRANCH   1   9
ATOM      9  C   UNL     1      16.875  24.112   7.427  1.00  0.00     0.000 C 
BRANCH   9  10
ATOM     10  C   UNL     1      17.448  23.739   8.805  1.00  0.00    -0.000 C 
BRANCH  10  11
ATOM     11  C   UNL     1      17.731  24.971   9.679  1.00  0.00    -0.000 C 
BRANCH  11  12
ATOM     12  C   UNL     1      19.108  25.595   9.391  1.00  0.00    -0.000 C 
BRANCH  12  13
ATOM     13  C   UNL     1      19.033  27.116   9.184  1.00  0.00    -0.003 C 
ATOM     14  C   UNL     1      17.628  27.593   8.815  1.00  0.00     0.004 C 
ENDBRANCH  12  13
ENDBRANCH  11  12
ENDBRANCH  10  11
ENDBRANCH   9  10
ENDBRANCH   1   9
TORSDOF 10
ENDMDL
MODEL 7
REMARK VINA RESULT:    -4.815      1.938      3.956
REMARK INTER + INTRA:          -8.781
REMARK INTER:                  -7.289
REMARK INTRA:                  -1.492
REMARK UNBOUND:                -1.151
REMARK SMILES CCCCCCCCCCCC(=O)[O-]
REMARK SMILES IDX 7 1 8 2 9 3 10 4 11 5 12 6 13 7 14 8 6 9 5 10 4 11 3 12 2 13
REMARK SMILES IDX 1 14
REMARK H PARENT
REMARK Flexibility Score: inf
ROOT
ATOM      1  C   UNL     1      21.929  21.715   8.759  1.00  0.00     0.000 C 
ENDROOT
BRANCH   1   2
ATOM      2  C   UNL     1      21.576  23.143   9.210  1.00  0.00     0.000 C 
BRANCH   2   3
ATOM      3  C   UNL     1      20.426  23.174  10.231  1.00  0.00     0.000 C 
BRANCH   3   4
ATOM      4  C   UNL     1      19.134  23.763   9.645  1.00  0.00     0.006 C 
BRANCH   4   5
ATOM      5  C   UNL     1      19.439  24.972   8.754  1.00  0.00     0.053 C 
BRANCH   5   6
ATOM      6  C   UNL     1      18.576  26.133   9.134  1.00  0.00     0.041 C 
ATOM      7  O   UNL     1      19.087  27.269   9.318  1.00  0.00    -0.550 OA
ATOM      8  O   UNL     1      17.213  25.950   9.333  1.00  0.00    -0.550 OA
ENDBRANCH   5   6
ENDBRANCH   4   5
ENDBRANCH   3   4
ENDBRANCH   2   3
ENDBRANCH   1   2
BRANCH   1   9
ATOM      9  C   UNL     1      21.097  21.258   7.550  1.00  0.00     0.000 C 
BRANCH   9  10
ATOM     10  C   UNL     1      20.965  22.353   6.477  1.00  0.00    -0.000 C 
BRANCH  10  11
ATOM     11  C   UNL     1      19.537  22.464   5.920  1.00  0.00    -0.000 C 
BRANCH  11  12
ATOM     12  C   UNL     1      18.534  21.587   6.690  1.00  0.00    -0.000 C 
BRANCH  12  13
ATOM     13  C   UNL     1      17.110  22.164   6.666  1.00  0.00    -0.003 C 
ATOM     14  C   UNL     1      17.088  23.673   6.426  1.00  0.00     0.004 C 
ENDBRANCH  12  13
ENDBRANCH  11  12
ENDBRANCH  10  11
ENDBRANCH   9  10
ENDBRANCH   1   9
TORSDOF 10
ENDMDL
MODEL 8
REMARK VINA RESULT:    -4.786      2.570      3.689
REMARK INTER + INTRA:          -8.735
REMARK INTER:                  -7.306
REMARK INTRA:                  -1.430
REMARK UNBOUND:                -1.151
REMARK SMILES CCCCCCCCCCCC(=O)[O-]
REMARK SMILES IDX 7 1 8 2 9 3 10 4 11 5 12 6 13 7 14 8 6 9 5 10 4 11 3 12 2 13
REMARK SMILES IDX 1 14
REMARK H PARENT
REMARK Flexibility Score: inf
ROOT
ATOM      1  C   UNL     1      20.498  23.238  10.443  1.00  0.00     0.000 C 
ENDROOT
BRANCH   1   2
ATOM      2  C   UNL     1      21.438  22.741   9.331  1.00  0.00     0.000 C 
BRANCH   2   3
ATOM      3  C   UNL     1      21.254  23.513   8.014  1.00  0.00     0.000 C 
BRANCH   3   4
ATOM      4  C   UNL     1      20.499  22.697   6.953  1.00  0.00     0.006 C 
BRANCH   4   5
ATOM      5  C   UNL     1      20.736  21.196   7.147  1.00  0.00     0.053 C 
BRANCH   5   6
ATOM      6  C   UNL     1      21.690  20.679   6.116  1.00  0.00     0.041 C 
ATOM      7  O   UNL     1      21.777  21.244   4.995  1.00  0.00    -0.550 OA
ATOM      8  O   UNL     1      22.446  19.543   6.376  1.00  0.00    -0.550 OA
ENDBRANCH   5   6
ENDBRANCH   4   5
ENDBRANCH   3   4
ENDBRANCH   2   3
ENDBRANCH   1   2
BRANCH   1   9
ATOM      9  C   UNL     1      19.135  22.528  10.422  1.00  0.00     0.000 C 
BRANCH   9  10
ATOM     10  C   UNL     1      17.963  23.509  10.237  1.00  0.00    -0.000 C 
BRANCH  10  11
ATOM     11  C   UNL     1      17.456  23.554   8.787  1.00  0.00    -0.000 C 
BRANCH  11  12
ATOM     12  C   UNL     1      17.558  24.960   8.170  1.00  0.00    -0.000 C 
BRANCH  12  13
ATOM     13  C   UNL     1      17.822  26.047   9.225  1.00  0.00    -0.003 C 
ATOM     14  C   UNL     1      19.028  26.922   8.882  1.00  0.00     0.004 C 
ENDBRANCH  12  13
ENDBRANCH  11  12
ENDBRANCH  10  11
ENDBRANCH   9  10
ENDBRANCH   1   9
TORSDOF 10
ENDMDL
MODEL 9
REMARK VINA RESULT:    -4.707      1.925      3.600
REMARK INTER + INTRA:          -8.610
REMARK INTER:                  -7.411
REMARK INTRA:                  -1.200
REMARK UNBOUND:                -1.151
REMARK SMILES CCCCCCCCCCCC(=O)[O-]
REMARK SMILES IDX 7 1 8 2 9 3 10 4 11 5 12 6 13 7 14 8 6 9 5 10 4 11 3 12 2 13
REMARK SMILES IDX 1 14
REMARK H PARENT
REMARK Flexibility Score: inf
ROOT
ATOM      1  C   UNL     1      17.553  23.496   6.558  1.00  0.00     0.000 C 
ENDROOT
BRANCH   1   2
ATOM      2  C   UNL     1      19.027  23.195   6.878  1.00  0.00     0.000 C 
BRANCH   2   3
ATOM      3  C   UNL     1      19.708  22.349   5.789  1.00  0.00     0.000 C 
BRANCH   3   4
ATOM      4  C   UNL     1      21.162  21.997   6.140  1.00  0.00     0.006 C 
BRANCH   4   5
ATOM      5  C   UNL     1      21.219  21.038   7.334  1.00  0.00     0.053 C 
BRANCH   5   6
ATOM      6  C   UNL     1      22.088  21.599   8.415  1.00  0.00     0.041 C 
ATOM      7  O   UNL     1      21.776  22.679   8.980  1.00  0.00    -0.550 OA
ATOM      8  O   UNL     1      23.268  20.953   8.764  1.00  0.00    -0.550 OA
ENDBRANCH   5   6
ENDBRANCH   4   5
ENDBRANCH   3   4
ENDBRANCH   2   3
ENDBRANCH   1   2
BRANCH   1   9
ATOM      9  C   UNL     1      16.875  24.344   7.646  1.00  0.00     0.000 C 
BRANCH   9  10
ATOM     10  C   UNL     1      17.871  25.246   8.396  1.00  0.00    -0.000 C 
BRANCH  10  11
ATOM     11  C   UNL     1      17.787  25.076   9.921  1.00  0.00    -0.000 C 
BRANCH  11  12
ATOM     12  C   UNL     1      17.401  23.645  10.334  1.00  0.00    -0.000 C 
BRANCH  12  13
ATOM     13  C   UNL     1      18.627  22.742  10.543  1.00  0.00    -0.003 C 
ATOM     14  C   UNL     1      18.389  21.306  10.077  1.00  0.00     0.004 C 
ENDBRANCH  12  13
ENDBRANCH  11  12
ENDBRANCH  10  11
ENDBRANCH   9  10
ENDBRANCH   1   9
TORSDOF 10
ENDMDL
