MODEL 1
REMARK VINA RESULT:    -4.706      0.000      0.000
REMARK INTER + INTRA:          -5.347
REMARK INTER:                  -5.119
REMARK INTRA:                  -0.228
REMARK UNBOUND:                -0.228
REMARK SMILES O=C([O-])c1ccccc1O
REMARK SMILES IDX 4 1 9 2 5 3 8 4 6 5 7 6 2 7 1 8 3 9 10 10
REMARK H PARENT 10 11
REMARK Flexibility Score: inf
ROOT
ATOM      1  C   UNL     1      20.710   0.013 -20.482  1.00  0.00     0.039 A 
ATOM      2  C   UNL     1      21.159  -0.019 -19.141  1.00  0.00     0.124 A 
ATOM      3  C   UNL     1      19.516  -0.661 -20.814  1.00  0.00     0.014 A 
ATOM      4  C   UNL     1      20.419  -0.711 -18.170  1.00  0.00     0.047 A 
ATOM      5  C   UNL     1      18.790  -1.346 -19.838  1.00  0.00     0.001 A 
ATOM      6  C   UNL     1      19.240  -1.372 -18.518  1.00  0.00     0.004 A 
ENDROOT
BRANCH   1   7
ATOM      7  C   UNL     1      21.463   0.732 -21.542  1.00  0.00     0.075 C 
ATOM      8  O   UNL     1      21.616   1.981 -21.478  1.00  0.00    -0.545 OA
ATOM      9  O   UNL     1      22.013   0.050 -22.620  1.00  0.00    -0.545 OA
ENDBRANCH   1   7
BRANCH   2  10
ATOM     10  O   UNL     1      22.334   0.632 -18.766  1.00  0.00    -0.507 OA
ATOM     11  H   UNL     1      22.322   1.450 -18.168  1.00  0.00     0.293 HD
ENDBRANCH   2  10
TORSDOF 2
ENDMDL
MODEL 2
REMARK VINA RESULT:    -4.499      1.426      2.267
REMARK INTER + INTRA:          -5.122
REMARK INTER:                  -4.869
REMARK INTRA:                  -0.253
REMARK UNBOUND:                -0.228
REMARK SMILES O=C([O-])c1ccccc1O
REMARK SMILES IDX 4 1 9 2 5 3 8 4 6 5 7 6 2 7 1 8 3 9 10 10
REMARK H PARENT 10 11
REMARK Flexibility Score: inf
ROOT
ATOM      1  C   UNL     1      21.135   0.093 -21.033  1.00  0.00     0.039 A 
ATOM      2  C   UNL     1      20.470  -1.104 -21.390  1.00  0.00     0.124 A 
ATOM      3  C   UNL     1      21.223   0.438 -19.668  1.00  0.00     0.014 A 
ATOM      4  C   UNL     1      19.915  -1.921 -20.393  1.00  0.00     0.047 A 
ATOM      5  C   UNL     1      20.665  -0.384 -18.687  1.00  0.00     0.001 A 
ATOM      6  C   UNL     1      20.012  -1.562 -19.048  1.00  0.00     0.004 A 
ENDROOT
BRANCH   1   7
ATOM      7  C   UNL     1      21.737   0.988 -22.054  1.00  0.00     0.075 C 
ATOM      8  O   UNL     1      21.604   2.237 -21.963  1.00  0.00    -0.545 OA
ATOM      9  O   UNL     1      22.457   0.472 -23.125  1.00  0.00    -0.545 OA
ENDBRANCH   1   7
BRANCH   2  10
ATOM     10  O   UNL     1      20.358  -1.487 -22.726  1.00  0.00    -0.507 OA
ATOM     11  H   UNL     1      20.912  -2.243 -23.112  1.00  0.00     0.293 HD
ENDBRANCH   2  10
TORSDOF 2
ENDMDL
MODEL 3
REMARK VINA RESULT:    -4.284     17.301     19.032
REMARK INTER + INTRA:          -4.888
REMARK INTER:                  -4.638
REMARK INTRA:                  -0.251
REMARK UNBOUND:                -0.228
REMARK SMILES O=C([O-])c1ccccc1O
REMARK SMILES IDX 4 1 9 2 5 3 8 4 6 5 7 6 2 7 1 8 3 9 10 10
REMARK H PARENT 10 11
REMARK Flexibility Score: inf
ROOT
ATOM      1  C   UNL     1       8.668  -6.603  -6.857  1.00  0.00     0.039 A 
ATOM      2  C   UNL     1       9.901  -5.997  -7.194  1.00  0.00     0.124 A 
ATOM      3  C   UNL     1       7.999  -7.370  -7.834  1.00  0.00     0.014 A 
ATOM      4  C   UNL     1      10.436  -6.166  -8.480  1.00  0.00     0.047 A 
ATOM      5  C   UNL     1       8.544  -7.530  -9.110  1.00  0.00     0.001 A 
ATOM      6  C   UNL     1       9.760  -6.929  -9.433  1.00  0.00     0.004 A 
ENDROOT
BRANCH   1   7
ATOM      7  C   UNL     1       8.064  -6.450  -5.508  1.00  0.00     0.075 C 
ATOM      8  O   UNL     1       7.983  -5.312  -4.972  1.00  0.00    -0.545 OA
ATOM      9  O   UNL     1       7.576  -7.548  -4.812  1.00  0.00    -0.545 OA
ENDBRANCH   1   7
BRANCH   2  10
ATOM     10  O   UNL     1      10.597  -5.229  -6.261  1.00  0.00    -0.507 OA
ATOM     11  H   UNL     1      11.382  -5.605  -5.741  1.00  0.00     0.293 HD
ENDBRANCH   2  10
TORSDOF 2
ENDMDL
MODEL 4
REMARK VINA RESULT:    -4.265     16.266     17.715
REMARK INTER + INTRA:          -4.867
REMARK INTER:                  -4.617
REMARK INTRA:                  -0.251
REMARK UNBOUND:                -0.228
REMARK SMILES O=C([O-])c1ccccc1O
REMARK SMILES IDX 4 1 9 2 5 3 8 4 6 5 7 6 2 7 1 8 3 9 10 10
REMARK H PARENT 10 11
REMARK Flexibility Score: inf
ROOT
ATOM      1  C   UNL     1      12.859   3.030  -4.811  1.00  0.00     0.039 A 
ATOM      2  C   UNL     1      12.155   2.992  -6.038  1.00  0.00     0.124 A 
ATOM      3  C   UNL     1      14.042   3.794  -4.731  1.00  0.00     0.014 A 
ATOM      4  C   UNL     1      12.638   3.707  -7.145  1.00  0.00     0.047 A 
ATOM      5  C   UNL     1      14.511   4.500  -5.841  1.00  0.00     0.001 A 
ATOM      6  C   UNL     1      13.811   4.457  -7.046  1.00  0.00     0.004 A 
ENDROOT
BRANCH   1   7
ATOM      7  C   UNL     1      12.385   2.288  -3.614  1.00  0.00     0.075 C 
ATOM      8  O   UNL     1      11.182   2.370  -3.250  1.00  0.00    -0.545 OA
ATOM      9  O   UNL     1      13.250   1.491  -2.875  1.00  0.00    -0.545 OA
ENDBRANCH   1   7
BRANCH   2  10
ATOM     10  O   UNL     1      10.981   2.250  -6.164  1.00  0.00    -0.507 OA
ATOM     11  H   UNL     1      10.372   2.350  -6.968  1.00  0.00     0.293 HD
ENDBRANCH   2  10
TORSDOF 2
ENDMDL
MODEL 5
REMARK VINA RESULT:    -4.161     11.429     13.193
REMARK INTER + INTRA:          -4.755
REMARK INTER:                  -4.502
REMARK INTRA:                  -0.252
REMARK UNBOUND:                -0.228
REMARK SMILES O=C([O-])c1ccccc1O
REMARK SMILES IDX 4 1 9 2 5 3 8 4 6 5 7 6 2 7 1 8 3 9 10 10
REMARK H PARENT 10 11
REMARK Flexibility Score: inf
ROOT
ATOM      1  C   UNL     1      19.508  -2.457  -7.904  1.00  0.00     0.039 A 
ATOM      2  C   UNL     1      19.130  -2.906  -6.616  1.00  0.00     0.124 A 
ATOM      3  C   UNL     1      20.877  -2.250  -8.175  1.00  0.00     0.014 A 
ATOM      4  C   UNL     1      20.110  -3.138  -5.639  1.00  0.00     0.047 A 
ATOM      5  C   UNL     1      21.841  -2.484  -7.192  1.00  0.00     0.001 A 
ATOM      6  C   UNL     1      21.460  -2.927  -5.927  1.00  0.00     0.004 A 
ENDROOT
BRANCH   1   7
ATOM      7  C   UNL     1      18.504  -2.199  -8.967  1.00  0.00     0.075 C 
ATOM      8  O   UNL     1      18.731  -2.551 -10.156  1.00  0.00    -0.545 OA
ATOM      9  O   UNL     1      17.300  -1.569  -8.680  1.00  0.00    -0.545 OA
ENDBRANCH   1   7
BRANCH   2  10
ATOM     10  O   UNL     1      17.789  -3.125  -6.302  1.00  0.00    -0.507 OA
ATOM     11  H   UNL     1      17.503  -3.459  -5.389  1.00  0.00     0.293 HD
ENDBRANCH   2  10
TORSDOF 2
ENDMDL
MODEL 6
REMARK VINA RESULT:    -4.133     14.404     15.313
REMARK INTER + INTRA:          -4.724
REMARK INTER:                  -4.483
REMARK INTRA:                  -0.242
REMARK UNBOUND:                -0.228
REMARK SMILES O=C([O-])c1ccccc1O
REMARK SMILES IDX 4 1 9 2 5 3 8 4 6 5 7 6 2 7 1 8 3 9 10 10
REMARK H PARENT 10 11
REMARK Flexibility Score: inf
ROOT
ATOM      1  C   UNL     1       5.819   1.759 -18.718  1.00  0.00     0.039 A 
ATOM      2  C   UNL     1       5.432   0.586 -18.028  1.00  0.00     0.124 A 
ATOM      3  C   UNL     1       6.743   2.632 -18.106  1.00  0.00     0.014 A 
ATOM      4  C   UNL     1       5.967   0.309 -16.761  1.00  0.00     0.047 A 
ATOM      5  C   UNL     1       7.266   2.344 -16.843  1.00  0.00     0.001 A 
ATOM      6  C   UNL     1       6.880   1.186 -16.172  1.00  0.00     0.004 A 
ENDROOT
BRANCH   1   7
ATOM      7  C   UNL     1       5.278   2.092 -20.061  1.00  0.00     0.075 C 
ATOM      8  O   UNL     1       4.037   2.222 -20.232  1.00  0.00    -0.545 OA
ATOM      9  O   UNL     1       6.122   2.268 -21.151  1.00  0.00    -0.545 OA
ENDBRANCH   1   7
BRANCH   2  10
ATOM     10  O   UNL     1       4.521  -0.306 -18.594  1.00  0.00    -0.507 OA
ATOM     11  H   UNL     1       4.032  -0.094 -19.455  1.00  0.00     0.293 HD
ENDBRANCH   2  10
TORSDOF 2
ENDMDL
MODEL 7
REMARK VINA RESULT:    -4.096     12.513     13.425
REMARK INTER + INTRA:          -4.683
REMARK INTER:                  -4.429
REMARK INTRA:                  -0.254
REMARK UNBOUND:                -0.228
REMARK SMILES O=C([O-])c1ccccc1O
REMARK SMILES IDX 4 1 9 2 5 3 8 4 6 5 7 6 2 7 1 8 3 9 10 10
REMARK H PARENT 10 11
REMARK Flexibility Score: inf
ROOT
ATOM      1  C   UNL     1      19.302  -1.950  -7.245  1.00  0.00     0.039 A 
ATOM      2  C   UNL     1      18.203  -2.700  -7.725  1.00  0.00     0.124 A 
ATOM      3  C   UNL     1      19.412  -0.594  -7.616  1.00  0.00     0.014 A 
ATOM      4  C   UNL     1      17.248  -2.092  -8.553  1.00  0.00     0.047 A 
ATOM      5  C   UNL     1      18.454  -0.001  -8.441  1.00  0.00     0.001 A 
ATOM      6  C   UNL     1      17.374  -0.748  -8.909  1.00  0.00     0.004 A 
ENDROOT
BRANCH   1   7
ATOM      7  C   UNL     1      20.337  -2.554  -6.366  1.00  0.00     0.075 C 
ATOM      8  O   UNL     1      21.558  -2.314  -6.563  1.00  0.00    -0.545 OA
ATOM      9  O   UNL     1      19.986  -3.390  -5.314  1.00  0.00    -0.545 OA
ENDBRANCH   1   7
BRANCH   2  10
ATOM     10  O   UNL     1      18.053  -4.045  -7.385  1.00  0.00    -0.507 OA
ATOM     11  H   UNL     1      17.690  -4.329  -6.483  1.00  0.00     0.293 HD
ENDBRANCH   2  10
TORSDOF 2
ENDMDL
MODEL 8
REMARK VINA RESULT:    -4.084     16.225     17.922
REMARK INTER + INTRA:          -4.671
REMARK INTER:                  -4.420
REMARK INTRA:                  -0.251
REMARK UNBOUND:                -0.228
REMARK SMILES O=C([O-])c1ccccc1O
REMARK SMILES IDX 4 1 9 2 5 3 8 4 6 5 7 6 2 7 1 8 3 9 10 10
REMARK H PARENT 10 11
REMARK Flexibility Score: inf
ROOT
ATOM      1  C   UNL     1       8.925  -5.712  -7.890  1.00  0.00     0.039 A 
ATOM      2  C   UNL     1      10.179  -5.998  -8.480  1.00  0.00     0.124 A 
ATOM      3  C   UNL     1       7.854  -5.334  -8.726  1.00  0.00     0.014 A 
ATOM      4  C   UNL     1      10.338  -5.903  -9.871  1.00  0.00     0.047 A 
ATOM      5  C   UNL     1       8.026  -5.242 -10.109  1.00  0.00     0.001 A 
ATOM      6  C   UNL     1       9.265  -5.526 -10.681  1.00  0.00     0.004 A 
ENDROOT
BRANCH   1   7
ATOM      7  C   UNL     1       8.713  -5.800  -6.423  1.00  0.00     0.075 C 
ATOM      8  O   UNL     1       7.753  -6.470  -5.957  1.00  0.00    -0.545 OA
ATOM      9  O   UNL     1       9.562  -5.152  -5.535  1.00  0.00    -0.545 OA
ENDBRANCH   1   7
BRANCH   2  10
ATOM     10  O   UNL     1      11.268  -6.377  -7.694  1.00  0.00    -0.507 OA
ATOM     11  H   UNL     1      12.200  -6.022  -7.869  1.00  0.00     0.293 HD
ENDBRANCH   2  10
TORSDOF 2
ENDMDL
MODEL 9
REMARK VINA RESULT:    -4.018     16.364     17.666
REMARK INTER + INTRA:          -4.598
REMARK INTER:                  -4.355
REMARK INTRA:                  -0.243
REMARK UNBOUND:                -0.228
REMARK SMILES O=C([O-])c1ccccc1O
REMARK SMILES IDX 4 1 9 2 5 3 8 4 6 5 7 6 2 7 1 8 3 9 10 10
REMARK H PARENT 10 11
REMARK Flexibility Score: inf
ROOT
ATOM      1  C   UNL     1      12.483   2.995  -4.976  1.00  0.00     0.039 A 
ATOM      2  C   UNL     1      13.525   3.944  -5.093  1.00  0.00     0.124 A 
ATOM      3  C   UNL     1      11.738   2.660  -6.126  1.00  0.00     0.014 A 
ATOM      4  C   UNL     1      13.801   4.533  -6.337  1.00  0.00     0.047 A 
ATOM      5  C   UNL     1      12.023   3.254  -7.358  1.00  0.00     0.001 A 
ATOM      6  C   UNL     1      13.052   4.189  -7.464  1.00  0.00     0.004 A 
ENDROOT
BRANCH   1   7
ATOM      7  C   UNL     1      12.157   2.348  -3.680  1.00  0.00     0.075 C 
ATOM      8  O   UNL     1      10.989   2.415  -3.211  1.00  0.00    -0.545 OA
ATOM      9  O   UNL     1      13.123   1.656  -2.959  1.00  0.00    -0.545 OA
ENDBRANCH   1   7
BRANCH   2  10
ATOM     10  O   UNL     1      14.289   4.306  -3.983  1.00  0.00    -0.507 OA
ATOM     11  H   UNL     1      14.593   5.261  -3.834  1.00  0.00     0.293 HD
ENDBRANCH   2  10
TORSDOF 2
ENDMDL
