MODEL 1
REMARK VINA RESULT:    -4.128      0.000      0.000
REMARK INTER + INTRA:          -4.803
REMARK INTER:                  -4.732
REMARK INTRA:                  -0.071
REMARK UNBOUND:                -0.071
REMARK SMILES CC(C)[C@H]([NH3+])C(=O)[O-]
REMARK SMILES IDX 4 1 5 2 6 6 7 7 8 8 2 9 1 10 3 11
REMARK H PARENT 5 3 5 4 5 5
REMARK Flexibility Score: inf
ROOT
ATOM      1  C   UNL     1       3.161  -7.254   7.911  1.00  0.00     0.230 C 
ENDROOT
BRANCH   1   2
ATOM      2  N   UNL     1       4.499  -6.762   7.545  1.00  0.00    -0.350 N 
ATOM      3  H   UNL     1       4.786  -5.989   8.189  1.00  0.00     0.345 HD
ATOM      4  H   UNL     1       5.205  -7.532   7.601  1.00  0.00     0.345 HD
ATOM      5  H   UNL     1       4.486  -6.366   6.579  1.00  0.00     0.345 HD
ENDBRANCH   1   2
BRANCH   1   6
ATOM      6  C   UNL     1       2.769  -8.378   6.985  1.00  0.00     0.099 C 
ATOM      7  O   UNL     1       2.850  -9.577   7.366  1.00  0.00    -0.544 OA
ATOM      8  O   UNL     1       2.321  -8.096   5.701  1.00  0.00    -0.544 OA
ENDBRANCH   1   6
BRANCH   1   9
ATOM      9  C   UNL     1       2.095  -6.115   7.884  1.00  0.00     0.047 C 
ATOM     10  C   UNL     1       2.587  -4.853   8.613  1.00  0.00     0.014 C 
ATOM     11  C   UNL     1       0.770  -6.577   8.517  1.00  0.00     0.014 C 
ENDBRANCH   1   9
TORSDOF 3
ENDMDL
MODEL 2
REMARK VINA RESULT:    -4.048      2.120      2.645
REMARK INTER + INTRA:          -4.711
REMARK INTER:                  -4.650
REMARK INTRA:                  -0.062
REMARK UNBOUND:                -0.071
REMARK SMILES CC(C)[C@H]([NH3+])C(=O)[O-]
REMARK SMILES IDX 4 1 5 2 6 6 7 7 8 8 2 9 1 10 3 11
REMARK H PARENT 5 3 5 4 5 5
REMARK Flexibility Score: inf
ROOT
ATOM      1  C   UNL     1       1.754  -5.751   8.258  1.00  0.00     0.230 C 
ENDROOT
BRANCH   1   2
ATOM      2  N   UNL     1       0.596  -6.463   8.824  1.00  0.00    -0.350 N 
ATOM      3  H   UNL     1       0.893  -7.032   9.650  1.00  0.00     0.345 HD
ATOM      4  H   UNL     1      -0.144  -5.787   9.123  1.00  0.00     0.345 HD
ATOM      5  H   UNL     1       0.202  -7.127   8.120  1.00  0.00     0.345 HD
ENDBRANCH   1   2
BRANCH   1   6
ATOM      6  C   UNL     1       2.650  -6.735   7.548  1.00  0.00     0.099 C 
ATOM      7  O   UNL     1       3.891  -6.745   7.770  1.00  0.00    -0.544 OA
ATOM      8  O   UNL     1       2.111  -7.634   6.636  1.00  0.00    -0.544 OA
ENDBRANCH   1   6
BRANCH   1   9
ATOM      9  C   UNL     1       2.545  -4.967   9.350  1.00  0.00     0.047 C 
ATOM     10  C   UNL     1       2.245  -5.495  10.763  1.00  0.00     0.014 C 
ATOM     11  C   UNL     1       2.225  -3.463   9.296  1.00  0.00     0.014 C 
ENDBRANCH   1   9
TORSDOF 3
ENDMDL
MODEL 3
REMARK VINA RESULT:    -3.951      3.716      4.492
REMARK INTER + INTRA:          -4.600
REMARK INTER:                  -4.539
REMARK INTRA:                  -0.061
REMARK UNBOUND:                -0.071
REMARK SMILES CC(C)[C@H]([NH3+])C(=O)[O-]
REMARK SMILES IDX 4 1 5 2 6 6 7 7 8 8 2 9 1 10 3 11
REMARK H PARENT 5 3 5 4 5 5
REMARK Flexibility Score: inf
ROOT
ATOM      1  C   UNL     1       2.413  -5.153   9.754  1.00  0.00     0.230 C 
ENDROOT
BRANCH   1   2
ATOM      2  N   UNL     1       1.288  -5.565  10.610  1.00  0.00    -0.350 N 
ATOM      3  H   UNL     1       0.706  -6.281  10.118  1.00  0.00     0.345 HD
ATOM      4  H   UNL     1       1.637  -5.968  11.510  1.00  0.00     0.345 HD
ATOM      5  H   UNL     1       0.668  -4.748  10.808  1.00  0.00     0.345 HD
ENDBRANCH   1   2
BRANCH   1   6
ATOM      6  C   UNL     1       2.434  -3.649   9.641  1.00  0.00     0.099 C 
ATOM      7  O   UNL     1       2.534  -2.933  10.673  1.00  0.00    -0.544 OA
ATOM      8  O   UNL     1       2.335  -3.045   8.394  1.00  0.00    -0.544 OA
ENDBRANCH   1   6
BRANCH   1   9
ATOM      9  C   UNL     1       2.343  -5.816   8.344  1.00  0.00     0.047 C 
ATOM     10  C   UNL     1       1.107  -6.719   8.196  1.00  0.00     0.014 C 
ATOM     11  C   UNL     1       3.608  -6.643   8.053  1.00  0.00     0.014 C 
ENDBRANCH   1   9
TORSDOF 3
ENDMDL
MODEL 4
REMARK VINA RESULT:    -3.897      3.232      4.124
REMARK INTER + INTRA:          -4.538
REMARK INTER:                  -4.482
REMARK INTRA:                  -0.056
REMARK UNBOUND:                -0.071
REMARK SMILES CC(C)[C@H]([NH3+])C(=O)[O-]
REMARK SMILES IDX 4 1 5 2 6 6 7 7 8 8 2 9 1 10 3 11
REMARK H PARENT 5 3 5 4 5 5
REMARK Flexibility Score: inf
ROOT
ATOM      1  C   UNL     1       1.963  -6.235   8.979  1.00  0.00     0.230 C 
ENDROOT
BRANCH   1   2
ATOM      2  N   UNL     1       0.499  -6.379   8.942  1.00  0.00    -0.350 N 
ATOM      3  H   UNL     1       0.237  -7.264   8.449  1.00  0.00     0.345 HD
ATOM      4  H   UNL     1       0.104  -6.398   9.911  1.00  0.00     0.345 HD
ATOM      5  H   UNL     1       0.072  -5.591   8.405  1.00  0.00     0.345 HD
ENDBRANCH   1   2
BRANCH   1   6
ATOM      6  C   UNL     1       2.319  -4.803   9.291  1.00  0.00     0.099 C 
ATOM      7  O   UNL     1       2.165  -3.903   8.422  1.00  0.00    -0.544 OA
ATOM      8  O   UNL     1       2.828  -4.469  10.540  1.00  0.00    -0.544 OA
ENDBRANCH   1   6
BRANCH   1   9
ATOM      9  C   UNL     1       2.627  -6.695   7.645  1.00  0.00     0.047 C 
ATOM     10  C   UNL     1       2.193  -8.116   7.249  1.00  0.00     0.014 C 
ATOM     11  C   UNL     1       4.162  -6.645   7.740  1.00  0.00     0.014 C 
ENDBRANCH   1   9
TORSDOF 3
ENDMDL
MODEL 5
REMARK VINA RESULT:    -3.867      2.161      3.427
REMARK INTER + INTRA:          -4.504
REMARK INTER:                  -4.432
REMARK INTRA:                  -0.072
REMARK UNBOUND:                -0.071
REMARK SMILES CC(C)[C@H]([NH3+])C(=O)[O-]
REMARK SMILES IDX 4 1 5 2 6 6 7 7 8 8 2 9 1 10 3 11
REMARK H PARENT 5 3 5 4 5 5
REMARK Flexibility Score: inf
ROOT
ATOM      1  C   UNL     1       3.151  -6.668   7.838  1.00  0.00     0.230 C 
ENDROOT
BRANCH   1   2
ATOM      2  N   UNL     1       3.971  -7.174   8.951  1.00  0.00    -0.350 N 
ATOM      3  H   UNL     1       3.475  -7.958   9.435  1.00  0.00     0.345 HD
ATOM      4  H   UNL     1       4.895  -7.519   8.603  1.00  0.00     0.345 HD
ATOM      5  H   UNL     1       4.121  -6.422   9.660  1.00  0.00     0.345 HD
ENDBRANCH   1   2
BRANCH   1   6
ATOM      6  C   UNL     1       1.836  -6.159   8.375  1.00  0.00     0.099 C 
ATOM      7  O   UNL     1       0.952  -5.723   7.590  1.00  0.00    -0.544 OA
ATOM      8  O   UNL     1       1.596  -6.162   9.743  1.00  0.00    -0.544 OA
ENDBRANCH   1   6
BRANCH   1   9
ATOM      9  C   UNL     1       2.921  -7.755   6.744  1.00  0.00     0.047 C 
ATOM     10  C   UNL     1       2.251  -9.015   7.319  1.00  0.00     0.014 C 
ATOM     11  C   UNL     1       4.245  -8.154   6.068  1.00  0.00     0.014 C 
ENDBRANCH   1   9
TORSDOF 3
ENDMDL
MODEL 6
REMARK VINA RESULT:    -3.627      3.309      4.645
REMARK INTER + INTRA:          -4.228
REMARK INTER:                  -4.375
REMARK INTRA:                   0.147
REMARK UNBOUND:                -0.071
REMARK SMILES CC(C)[C@H]([NH3+])C(=O)[O-]
REMARK SMILES IDX 4 1 5 2 6 6 7 7 8 8 2 9 1 10 3 11
REMARK H PARENT 5 3 5 4 5 5
REMARK Flexibility Score: inf
ROOT
ATOM      1  C   UNL     1       2.478  -8.995   4.312  1.00  0.00     0.230 C 
ENDROOT
BRANCH   1   2
ATOM      2  N   UNL     1       3.634  -9.388   3.490  1.00  0.00    -0.350 N 
ATOM      3  H   UNL     1       3.312  -9.908   2.641  1.00  0.00     0.345 HD
ATOM      4  H   UNL     1       4.178  -8.546   3.190  1.00  0.00     0.345 HD
ATOM      5  H   UNL     1       4.256 -10.034   4.027  1.00  0.00     0.345 HD
ENDBRANCH   1   2
BRANCH   1   6
ATOM      6  C   UNL     1       2.961  -8.452   5.633  1.00  0.00     0.099 C 
ATOM      7  O   UNL     1       2.177  -7.815   6.387  1.00  0.00    -0.544 OA
ATOM      8  O   UNL     1       4.281  -8.646   6.023  1.00  0.00    -0.544 OA
ENDBRANCH   1   6
BRANCH   1   9
ATOM      9  C   UNL     1       1.489 -10.182   4.527  1.00  0.00     0.047 C 
ATOM     10  C   UNL     1       1.733 -10.895   5.868  1.00  0.00     0.014 C 
ATOM     11  C   UNL     1       1.594 -11.209   3.386  1.00  0.00     0.014 C 
ENDBRANCH   1   9
TORSDOF 3
ENDMDL
MODEL 7
REMARK VINA RESULT:    -3.515      1.995      3.379
REMARK INTER + INTRA:          -4.100
REMARK INTER:                  -4.032
REMARK INTRA:                  -0.068
REMARK UNBOUND:                -0.071
REMARK SMILES CC(C)[C@H]([NH3+])C(=O)[O-]
REMARK SMILES IDX 4 1 5 2 6 6 7 7 8 8 2 9 1 10 3 11
REMARK H PARENT 5 3 5 4 5 5
REMARK Flexibility Score: inf
ROOT
ATOM      1  C   UNL     1       3.090  -7.769   6.371  1.00  0.00     0.230 C 
ENDROOT
BRANCH   1   2
ATOM      2  N   UNL     1       4.479  -8.233   6.515  1.00  0.00    -0.350 N 
ATOM      3  H   UNL     1       4.595  -8.747   7.419  1.00  0.00     0.345 HD
ATOM      4  H   UNL     1       4.740  -8.869   5.725  1.00  0.00     0.345 HD
ATOM      5  H   UNL     1       5.132  -7.418   6.539  1.00  0.00     0.345 HD
ENDBRANCH   1   2
BRANCH   1   6
ATOM      6  C   UNL     1       2.658  -7.078   7.641  1.00  0.00     0.099 C 
ATOM      7  O   UNL     1       3.367  -7.151   8.680  1.00  0.00    -0.544 OA
ATOM      8  O   UNL     1       1.467  -6.363   7.672  1.00  0.00    -0.544 OA
ENDBRANCH   1   6
BRANCH   1   9
ATOM      9  C   UNL     1       2.120  -8.938   6.016  1.00  0.00     0.047 C 
ATOM     10  C   UNL     1       2.198 -10.079   7.044  1.00  0.00     0.014 C 
ATOM     11  C   UNL     1       2.417  -9.501   4.615  1.00  0.00     0.014 C 
ENDBRANCH   1   9
TORSDOF 3
ENDMDL
MODEL 8
REMARK VINA RESULT:    -3.490      6.968      8.084
REMARK INTER + INTRA:          -4.071
REMARK INTER:                  -4.010
REMARK INTRA:                  -0.061
REMARK UNBOUND:                -0.071
REMARK SMILES CC(C)[C@H]([NH3+])C(=O)[O-]
REMARK SMILES IDX 4 1 5 2 6 6 7 7 8 8 2 9 1 10 3 11
REMARK H PARENT 5 3 5 4 5 5
REMARK Flexibility Score: inf
ROOT
ATOM      1  C   UNL     1       1.670   0.828   8.824  1.00  0.00     0.230 C 
ENDROOT
BRANCH   1   2
ATOM      2  N   UNL     1       1.213   1.121   7.455  1.00  0.00    -0.350 N 
ATOM      3  H   UNL     1       0.805   2.083   7.411  1.00  0.00     0.345 HD
ATOM      4  H   UNL     1       2.008   1.055   6.778  1.00  0.00     0.345 HD
ATOM      5  H   UNL     1       0.459   0.454   7.177  1.00  0.00     0.345 HD
ENDBRANCH   1   2
BRANCH   1   6
ATOM      6  C   UNL     1       2.091  -0.617   8.914  1.00  0.00     0.099 C 
ATOM      7  O   UNL     1       2.245  -1.168  10.038  1.00  0.00    -0.544 OA
ATOM      8  O   UNL     1       2.319  -1.349   7.755  1.00  0.00    -0.544 OA
ENDBRANCH   1   6
BRANCH   1   9
ATOM      9  C   UNL     1       0.574   1.156   9.884  1.00  0.00     0.047 C 
ATOM     10  C   UNL     1      -0.797   0.583   9.487  1.00  0.00     0.014 C 
ATOM     11  C   UNL     1       0.443   2.674  10.099  1.00  0.00     0.014 C 
ENDBRANCH   1   9
TORSDOF 3
ENDMDL
MODEL 9
REMARK VINA RESULT:    -3.486      2.729      4.250
REMARK INTER + INTRA:          -4.067
REMARK INTER:                  -4.015
REMARK INTRA:                  -0.052
REMARK UNBOUND:                -0.071
REMARK SMILES CC(C)[C@H]([NH3+])C(=O)[O-]
REMARK SMILES IDX 4 1 5 2 6 6 7 7 8 8 2 9 1 10 3 11
REMARK H PARENT 5 3 5 4 5 5
REMARK Flexibility Score: inf
ROOT
ATOM      1  C   UNL     1       2.772  -9.167   6.106  1.00  0.00     0.230 C 
ENDROOT
BRANCH   1   2
ATOM      2  N   UNL     1       1.748  -9.849   6.914  1.00  0.00    -0.350 N 
ATOM      3  H   UNL     1       1.015 -10.262   6.292  1.00  0.00     0.345 HD
ATOM      4  H   UNL     1       2.177 -10.611   7.489  1.00  0.00     0.345 HD
ATOM      5  H   UNL     1       1.268  -9.165   7.541  1.00  0.00     0.345 HD
ENDBRANCH   1   2
BRANCH   1   6
ATOM      6  C   UNL     1       3.029  -7.795   6.676  1.00  0.00     0.099 C 
ATOM      7  O   UNL     1       2.073  -7.087   7.092  1.00  0.00    -0.544 OA
ATOM      8  O   UNL     1       4.326  -7.300   6.738  1.00  0.00    -0.544 OA
ENDBRANCH   1   6
BRANCH   1   9
ATOM      9  C   UNL     1       2.362  -9.078   4.604  1.00  0.00     0.047 C 
ATOM     10  C   UNL     1       1.348 -10.169   4.221  1.00  0.00     0.014 C 
ATOM     11  C   UNL     1       3.591  -9.188   3.684  1.00  0.00     0.014 C 
ENDBRANCH   1   9
TORSDOF 3
ENDMDL
