MODEL 1
REMARK VINA RESULT:    -4.131      0.000      0.000
REMARK INTER + INTRA:          -4.889
REMARK INTER:                  -4.856
REMARK INTRA:                  -0.033
REMARK UNBOUND:                -0.033
REMARK SMILES O=C([O-])CCC(=O)[O-]
REMARK SMILES IDX 4 1 2 2 1 3 3 4 5 5 6 6 7 7 8 8
REMARK H PARENT
REMARK Flexibility Score: inf
ROOT
ATOM      1  C   UNL     1       1.633   0.762  -1.619  1.00  0.00     0.059 C 
ENDROOT
BRANCH   1   2
ATOM      2  C   UNL     1       2.624   1.663  -0.949  1.00  0.00     0.042 C 
ATOM      3  O   UNL     1       3.641   1.178  -0.385  1.00  0.00    -0.550 OA
ATOM      4  O   UNL     1       2.446   3.040  -0.982  1.00  0.00    -0.550 OA
ENDBRANCH   1   2
BRANCH   1   5
ATOM      5  C   UNL     1       0.279   0.775  -0.900  1.00  0.00     0.059 C 
BRANCH   5   6
ATOM      6  C   UNL     1      -0.487  -0.489  -1.139  1.00  0.00     0.042 C 
ATOM      7  O   UNL     1      -0.003  -1.599  -0.793  1.00  0.00    -0.550 OA
ATOM      8  O   UNL     1      -1.754  -0.438  -1.707  1.00  0.00    -0.550 OA
ENDBRANCH   5   6
ENDBRANCH   1   5
TORSDOF 3
ENDMDL
MODEL 2
REMARK VINA RESULT:    -4.127      2.225      3.157
REMARK INTER + INTRA:          -4.884
REMARK INTER:                  -4.848
REMARK INTRA:                  -0.036
REMARK UNBOUND:                -0.033
REMARK SMILES O=C([O-])CCC(=O)[O-]
REMARK SMILES IDX 4 1 2 2 1 3 3 4 5 5 6 6 7 7 8 8
REMARK H PARENT
REMARK Flexibility Score: inf
ROOT
ATOM      1  C   UNL     1      -0.450  -1.077  -0.982  1.00  0.00     0.059 C 
ENDROOT
BRANCH   1   2
ATOM      2  C   UNL     1       0.300   0.211  -1.125  1.00  0.00     0.042 C 
ATOM      3  O   UNL     1      -0.239   1.300  -0.791  1.00  0.00    -0.550 OA
ATOM      4  O   UNL     1       1.610   0.207  -1.589  1.00  0.00    -0.550 OA
ENDBRANCH   1   2
BRANCH   1   5
ATOM      5  C   UNL     1      -1.828  -1.005  -1.651  1.00  0.00     0.059 C 
BRANCH   5   6
ATOM      6  C   UNL     1      -2.809  -1.930  -0.997  1.00  0.00     0.042 C 
ATOM      7  O   UNL     1      -3.812  -1.466  -0.395  1.00  0.00    -0.550 OA
ATOM      8  O   UNL     1      -2.636  -3.305  -1.089  1.00  0.00    -0.550 OA
ENDBRANCH   5   6
ENDBRANCH   1   5
TORSDOF 3
ENDMDL
MODEL 3
REMARK VINA RESULT:    -4.125      2.229      5.147
REMARK INTER + INTRA:          -4.881
REMARK INTER:                  -4.845
REMARK INTRA:                  -0.036
REMARK UNBOUND:                -0.033
REMARK SMILES O=C([O-])CCC(=O)[O-]
REMARK SMILES IDX 4 1 2 2 1 3 3 4 5 5 6 6 7 7 8 8
REMARK H PARENT
REMARK Flexibility Score: inf
ROOT
ATOM      1  C   UNL     1      -1.860  -0.979  -1.650  1.00  0.00     0.059 C 
ENDROOT
BRANCH   1   2
ATOM      2  C   UNL     1      -2.837  -1.906  -0.996  1.00  0.00     0.042 C 
ATOM      3  O   UNL     1      -3.836  -1.444  -0.382  1.00  0.00    -0.550 OA
ATOM      4  O   UNL     1      -2.668  -3.282  -1.099  1.00  0.00    -0.550 OA
ENDBRANCH   1   2
BRANCH   1   5
ATOM      5  C   UNL     1      -0.491  -1.025  -0.963  1.00  0.00     0.059 C 
BRANCH   5   6
ATOM      6  C   UNL     1       0.247   0.271  -1.112  1.00  0.00     0.042 C 
ATOM      7  O   UNL     1      -0.298   1.353  -0.769  1.00  0.00    -0.550 OA
ATOM      8  O   UNL     1       1.550   0.278  -1.592  1.00  0.00    -0.550 OA
ENDBRANCH   5   6
ENDBRANCH   1   5
TORSDOF 3
ENDMDL
MODEL 4
REMARK VINA RESULT:    -4.098      0.072      4.268
REMARK INTER + INTRA:          -4.850
REMARK INTER:                  -4.818
REMARK INTRA:                  -0.032
REMARK UNBOUND:                -0.033
REMARK SMILES O=C([O-])CCC(=O)[O-]
REMARK SMILES IDX 4 1 2 2 1 3 3 4 5 5 6 6 7 7 8 8
REMARK H PARENT
REMARK Flexibility Score: inf
ROOT
ATOM      1  C   UNL     1       0.302   0.751  -0.884  1.00  0.00     0.059 C 
ENDROOT
BRANCH   1   2
ATOM      2  C   UNL     1      -0.466  -0.513  -1.123  1.00  0.00     0.042 C 
ATOM      3  O   UNL     1       0.020  -1.624  -0.779  1.00  0.00    -0.550 OA
ATOM      4  O   UNL     1      -1.735  -0.462  -1.686  1.00  0.00    -0.550 OA
ENDBRANCH   1   2
BRANCH   1   5
ATOM      5  C   UNL     1       1.631   0.757  -1.647  1.00  0.00     0.059 C 
BRANCH   5   6
ATOM      6  C   UNL     1       2.631   1.673  -1.009  1.00  0.00     0.042 C 
ATOM      7  O   UNL     1       2.470   2.921  -1.061  1.00  0.00    -0.550 OA
ATOM      8  O   UNL     1       3.717   1.147  -0.322  1.00  0.00    -0.550 OA
ENDBRANCH   5   6
ENDBRANCH   1   5
TORSDOF 3
ENDMDL
MODEL 5
REMARK VINA RESULT:    -3.680      1.401      2.037
REMARK INTER + INTRA:          -4.359
REMARK INTER:                  -4.246
REMARK INTRA:                  -0.113
REMARK UNBOUND:                -0.033
REMARK SMILES O=C([O-])CCC(=O)[O-]
REMARK SMILES IDX 4 1 2 2 1 3 3 4 5 5 6 6 7 7 8 8
REMARK H PARENT
REMARK Flexibility Score: inf
ROOT
ATOM      1  C   UNL     1      -0.023   0.626  -0.738  1.00  0.00     0.059 C 
ENDROOT
BRANCH   1   2
ATOM      2  C   UNL     1       1.337   0.705  -1.361  1.00  0.00     0.042 C 
ATOM      3  O   UNL     1       1.763  -0.243  -2.073  1.00  0.00    -0.550 OA
ATOM      4  O   UNL     1       2.117   1.842  -1.191  1.00  0.00    -0.550 OA
ENDBRANCH   1   2
BRANCH   1   5
ATOM      5  C   UNL     1      -0.499  -0.824  -0.601  1.00  0.00     0.059 C 
BRANCH   5   6
ATOM      6  C   UNL     1      -1.718  -1.088  -1.431  1.00  0.00     0.042 C 
ATOM      7  O   UNL     1      -1.907  -0.449  -2.499  1.00  0.00    -0.550 OA
ATOM      8  O   UNL     1      -2.624  -2.067  -1.044  1.00  0.00    -0.550 OA
ENDBRANCH   5   6
ENDBRANCH   1   5
TORSDOF 3
ENDMDL
MODEL 6
REMARK VINA RESULT:    -3.633      1.359      4.358
REMARK INTER + INTRA:          -4.303
REMARK INTER:                  -4.189
REMARK INTRA:                  -0.115
REMARK UNBOUND:                -0.033
REMARK SMILES O=C([O-])CCC(=O)[O-]
REMARK SMILES IDX 4 1 2 2 1 3 3 4 5 5 6 6 7 7 8 8
REMARK H PARENT
REMARK Flexibility Score: inf
ROOT
ATOM      1  C   UNL     1      -0.390  -0.557  -0.485  1.00  0.00     0.059 C 
ENDROOT
BRANCH   1   2
ATOM      2  C   UNL     1      -1.584  -0.864  -1.336  1.00  0.00     0.042 C 
ATOM      3  O   UNL     1      -1.891  -0.105  -2.294  1.00  0.00    -0.550 OA
ATOM      4  O   UNL     1      -2.333  -2.009  -1.098  1.00  0.00    -0.550 OA
ENDBRANCH   1   2
BRANCH   1   5
ATOM      5  C   UNL     1       0.128   0.865  -0.730  1.00  0.00     0.059 C 
BRANCH   5   6
ATOM      6  C   UNL     1       1.473   0.858  -1.389  1.00  0.00     0.042 C 
ATOM      7  O   UNL     1       1.751  -0.016  -2.252  1.00  0.00    -0.550 OA
ATOM      8  O   UNL     1       2.404   1.841  -1.081  1.00  0.00    -0.550 OA
ENDBRANCH   5   6
ENDBRANCH   1   5
TORSDOF 3
ENDMDL
MODEL 7
REMARK VINA RESULT:    -2.964     12.217     13.195
REMARK INTER + INTRA:          -3.517
REMARK INTER:                  -3.477
REMARK INTRA:                  -0.040
REMARK UNBOUND:                -0.033
REMARK SMILES O=C([O-])CCC(=O)[O-]
REMARK SMILES IDX 4 1 2 2 1 3 3 4 5 5 6 6 7 7 8 8
REMARK H PARENT
REMARK Flexibility Score: inf
ROOT
ATOM      1  C   UNL     1       8.938   4.196   8.071  1.00  0.00     0.059 C 
ENDROOT
BRANCH   1   2
ATOM      2  C   UNL     1       8.991   5.473   8.850  1.00  0.00     0.042 C 
ATOM      3  O   UNL     1      10.101   5.960   9.194  1.00  0.00    -0.550 OA
ATOM      4  O   UNL     1       7.817   6.149   9.162  1.00  0.00    -0.550 OA
ENDBRANCH   1   2
BRANCH   1   5
ATOM      5  C   UNL     1       9.818   3.111   8.703  1.00  0.00     0.059 C 
BRANCH   5   6
ATOM      6  C   UNL     1       9.236   1.744   8.510  1.00  0.00     0.042 C 
ATOM      7  O   UNL     1       8.168   1.597   7.861  1.00  0.00    -0.550 OA
ATOM      8  O   UNL     1       9.896   0.630   9.013  1.00  0.00    -0.550 OA
ENDBRANCH   5   6
ENDBRANCH   1   5
TORSDOF 3
ENDMDL
MODEL 8
REMARK VINA RESULT:    -2.938     12.143     13.725
REMARK INTER + INTRA:          -3.486
REMARK INTER:                  -3.453
REMARK INTRA:                  -0.033
REMARK UNBOUND:                -0.033
REMARK SMILES O=C([O-])CCC(=O)[O-]
REMARK SMILES IDX 4 1 2 2 1 3 3 4 5 5 6 6 7 7 8 8
REMARK H PARENT
REMARK Flexibility Score: inf
ROOT
ATOM      1  C   UNL     1       8.933   3.843   8.024  1.00  0.00     0.059 C 
ENDROOT
BRANCH   1   2
ATOM      2  C   UNL     1       9.029   2.380   8.331  1.00  0.00     0.042 C 
ATOM      3  O   UNL     1       8.225   1.568   7.800  1.00  0.00    -0.550 OA
ATOM      4  O   UNL     1      10.030   1.908   9.171  1.00  0.00    -0.550 OA
ENDBRANCH   1   2
BRANCH   1   5
ATOM      5  C   UNL     1       9.699   4.686   9.050  1.00  0.00     0.059 C 
BRANCH   5   6
ATOM      6  C   UNL     1       9.225   6.108   9.062  1.00  0.00     0.042 C 
ATOM      7  O   UNL     1      10.032   7.046   8.828  1.00  0.00    -0.550 OA
ATOM      8  O   UNL     1       7.886   6.393   9.291  1.00  0.00    -0.550 OA
ENDBRANCH   5   6
ENDBRANCH   1   5
TORSDOF 3
ENDMDL
MODEL 9
REMARK VINA RESULT:    -2.876     14.311     15.526
REMARK INTER + INTRA:          -3.414
REMARK INTER:                  -3.383
REMARK INTRA:                  -0.031
REMARK UNBOUND:                -0.033
REMARK SMILES O=C([O-])CCC(=O)[O-]
REMARK SMILES IDX 4 1 2 2 1 3 3 4 5 5 6 6 7 7 8 8
REMARK H PARENT
REMARK Flexibility Score: inf
ROOT
ATOM      1  C   UNL     1      -9.895  -4.587   8.884  1.00  0.00     0.059 C 
ENDROOT
BRANCH   1   2
ATOM      2  C   UNL     1      -9.450  -3.199   8.543  1.00  0.00     0.042 C 
ATOM      3  O   UNL     1      -8.775  -2.988   7.500  1.00  0.00    -0.550 OA
ATOM      4  O   UNL     1      -9.815  -2.131   9.353  1.00  0.00    -0.550 OA
ENDBRANCH   1   2
BRANCH   1   5
ATOM      5  C   UNL     1      -8.992  -5.645   8.239  1.00  0.00     0.059 C 
BRANCH   5   6
ATOM      6  C   UNL     1      -9.142  -6.980   8.903  1.00  0.00     0.042 C 
ATOM      7  O   UNL     1     -10.123  -7.718   8.626  1.00  0.00    -0.550 OA
ATOM      8  O   UNL     1      -8.175  -7.425   9.796  1.00  0.00    -0.550 OA
ENDBRANCH   5   6
ENDBRANCH   1   5
TORSDOF 3
ENDMDL
