MODEL 1
REMARK VINA RESULT:    -0.966      0.000      0.000
REMARK INTER + INTRA:          -3.089
REMARK INTER:                  -1.305
REMARK INTRA:                  -1.783
REMARK UNBOUND:                -1.783
REMARK SMILES CC(=O)CCC=C(C)CCC=C(C)C
REMARK SMILES IDX 7 1 6 2 8 3 9 4 10 5 11 6 13 7 12 8 14 9 5 10 4 11 2 12 3 13
REMARK SMILES IDX 1 14
REMARK H PARENT
REMARK Flexibility Score: inf
ROOT
ATOM      1  C   UNL     1      92.638  27.276  11.078  1.00  0.00    -0.077 C 
ATOM      2  C   UNL     1      92.258  26.083  11.590  1.00  0.00    -0.028 C 
ATOM      3  C   UNL     1      93.128  27.316   9.653  1.00  0.00     0.039 C 
ENDROOT
BRANCH   1   4
ATOM      4  C   UNL     1      92.623  28.563  11.883  1.00  0.00     0.034 C 
BRANCH   4   5
ATOM      5  C   UNL     1      91.772  29.652  11.214  1.00  0.00     0.032 C 
BRANCH   5   6
ATOM      6  C   UNL     1      90.353  29.636  11.733  1.00  0.00    -0.028 C 
ATOM      7  C   UNL     1      89.445  28.417   9.741  1.00  0.00     0.039 C 
ATOM      8  C   UNL     1      89.306  29.064  11.099  1.00  0.00    -0.080 C 
ATOM      9  C   UNL     1      87.962  29.076  11.780  1.00  0.00     0.039 C 
ENDBRANCH   5   6
ENDBRANCH   4   5
ENDBRANCH   1   4
BRANCH   2  10
ATOM     10  C   UNL     1      91.694  25.877  12.974  1.00  0.00     0.035 C 
BRANCH  10  11
ATOM     11  C   UNL     1      90.165  25.954  12.952  1.00  0.00     0.079 C 
BRANCH  11  12
ATOM     12  C   UNL     1      89.656  26.759  14.118  1.00  0.00     0.130 C 
ATOM     13  O   UNL     1      88.481  26.670  14.443  1.00  0.00    -0.300 OA
ATOM     14  C   UNL     1      90.563  27.662  14.901  1.00  0.00     0.087 C 
ENDBRANCH  11  12
ENDBRANCH  10  11
ENDBRANCH   2  10
TORSDOF 6
ENDMDL
MODEL 2
REMARK VINA RESULT:    -0.937      2.947      4.551
REMARK INTER + INTRA:          -3.049
REMARK INTER:                  -1.255
REMARK INTRA:                  -1.793
REMARK UNBOUND:                -1.783
REMARK SMILES CC(=O)CCC=C(C)CCC=C(C)C
REMARK SMILES IDX 7 1 6 2 8 3 9 4 10 5 11 6 13 7 12 8 14 9 5 10 4 11 2 12 3 13
REMARK SMILES IDX 1 14
REMARK H PARENT
REMARK Flexibility Score: inf
ROOT
ATOM      1  C   UNL     1      92.411  26.888  11.392  1.00  0.00    -0.077 C 
ATOM      2  C   UNL     1      92.890  26.354  10.244  1.00  0.00    -0.028 C 
ATOM      3  C   UNL     1      91.627  25.995  12.319  1.00  0.00     0.039 C 
ENDROOT
BRANCH   1   4
ATOM      4  C   UNL     1      92.601  28.347  11.767  1.00  0.00     0.034 C 
BRANCH   4   5
ATOM      5  C   UNL     1      91.262  29.090  11.883  1.00  0.00     0.032 C 
BRANCH   5   6
ATOM      6  C   UNL     1      90.919  29.807  10.598  1.00  0.00    -0.028 C 
ATOM      7  C   UNL     1      89.341  28.025   9.814  1.00  0.00     0.039 C 
ATOM      8  C   UNL     1      90.041  29.356   9.674  1.00  0.00    -0.080 C 
ATOM      9  C   UNL     1      89.757  30.220   8.473  1.00  0.00     0.039 C 
ENDBRANCH   5   6
ENDBRANCH   4   5
ENDBRANCH   1   4
BRANCH   2  10
ATOM     10  C   UNL     1      93.737  27.091   9.237  1.00  0.00     0.035 C 
BRANCH  10  11
ATOM     11  C   UNL     1      92.879  27.596   8.074  1.00  0.00     0.079 C 
BRANCH  11  12
ATOM     12  C   UNL     1      93.229  29.021   7.734  1.00  0.00     0.130 C 
ATOM     13  O   UNL     1      92.807  29.513   6.698  1.00  0.00    -0.300 OA
ATOM     14  C   UNL     1      94.078  29.857   8.645  1.00  0.00     0.087 C 
ENDBRANCH  11  12
ENDBRANCH  10  11
ENDBRANCH   2  10
TORSDOF 6
ENDMDL
MODEL 3
REMARK VINA RESULT:    -0.937      4.451      6.365
REMARK INTER + INTRA:          -3.049
REMARK INTER:                  -1.277
REMARK INTRA:                  -1.772
REMARK UNBOUND:                -1.783
REMARK SMILES CC(=O)CCC=C(C)CCC=C(C)C
REMARK SMILES IDX 7 1 6 2 8 3 9 4 10 5 11 6 13 7 12 8 14 9 5 10 4 11 2 12 3 13
REMARK SMILES IDX 1 14
REMARK H PARENT
REMARK Flexibility Score: inf
ROOT
ATOM      1  C   UNL     1      93.660  30.001  16.619  1.00  0.00    -0.077 C 
ATOM      2  C   UNL     1      94.712  30.552  15.970  1.00  0.00    -0.028 C 
ATOM      3  C   UNL     1      93.646  30.048  18.125  1.00  0.00     0.039 C 
ENDROOT
BRANCH   1   4
ATOM      4  C   UNL     1      92.516  29.310  15.898  1.00  0.00     0.034 C 
BRANCH   4   5
ATOM      5  C   UNL     1      91.156  29.929  16.249  1.00  0.00     0.032 C 
BRANCH   5   6
ATOM      6  C   UNL     1      90.719  30.925  15.201  1.00  0.00    -0.028 C 
ATOM      7  C   UNL     1      91.532  32.914  16.493  1.00  0.00     0.039 C 
ATOM      8  C   UNL     1      90.904  32.262  15.283  1.00  0.00    -0.080 C 
ATOM      9  C   UNL     1      90.469  33.118  14.122  1.00  0.00     0.039 C 
ENDBRANCH   5   6
ENDBRANCH   4   5
ENDBRANCH   1   4
BRANCH   2  10
ATOM     10  C   UNL     1      94.854  30.639  14.472  1.00  0.00     0.035 C 
BRANCH  10  11
ATOM     11  C   UNL     1      94.296  31.966  13.950  1.00  0.00     0.079 C 
BRANCH  11  12
ATOM     12  C   UNL     1      93.542  31.757  12.664  1.00  0.00     0.130 C 
ATOM     13  O   UNL     1      93.391  32.695  11.896  1.00  0.00    -0.300 OA
ATOM     14  C   UNL     1      92.979  30.416  12.296  1.00  0.00     0.087 C 
ENDBRANCH  11  12
ENDBRANCH  10  11
ENDBRANCH   2  10
TORSDOF 6
ENDMDL
MODEL 4
REMARK VINA RESULT:    -0.904      2.420      4.420
REMARK INTER + INTRA:          -3.004
REMARK INTER:                  -1.281
REMARK INTRA:                  -1.723
REMARK UNBOUND:                -1.783
REMARK SMILES CC(=O)CCC=C(C)CCC=C(C)C
REMARK SMILES IDX 7 1 6 2 8 3 9 4 10 5 11 6 13 7 12 8 14 9 5 10 4 11 2 12 3 13
REMARK SMILES IDX 1 14
REMARK H PARENT
REMARK Flexibility Score: inf
ROOT
ATOM      1  C   UNL     1      91.750  27.277  11.761  1.00  0.00    -0.077 C 
ATOM      2  C   UNL     1      92.806  28.049  11.412  1.00  0.00    -0.028 C 
ATOM      3  C   UNL     1      92.022  25.880  12.256  1.00  0.00     0.039 C 
ENDROOT
BRANCH   1   4
ATOM      4  C   UNL     1      90.311  27.745  11.643  1.00  0.00     0.034 C 
BRANCH   4   5
ATOM      5  C   UNL     1      89.587  27.727  12.997  1.00  0.00     0.032 C 
BRANCH   5   6
ATOM      6  C   UNL     1      89.940  28.941  13.824  1.00  0.00    -0.028 C 
ATOM      7  C   UNL     1      91.290  27.639  15.487  1.00  0.00     0.039 C 
ATOM      8  C   UNL     1      90.723  28.922  14.925  1.00  0.00    -0.080 C 
ATOM      9  C   UNL     1      91.037  30.230  15.604  1.00  0.00     0.039 C 
ENDBRANCH   5   6
ENDBRANCH   4   5
ENDBRANCH   1   4
BRANCH   2  10
ATOM     10  C   UNL     1      92.713  29.482  10.952  1.00  0.00     0.035 C 
BRANCH  10  11
ATOM     11  C   UNL     1      93.073  30.441  12.090  1.00  0.00     0.079 C 
BRANCH  11  12
ATOM     12  C   UNL     1      92.040  31.528  12.217  1.00  0.00     0.130 C 
ATOM     13  O   UNL     1      92.194  32.411  13.048  1.00  0.00    -0.300 OA
ATOM     14  C   UNL     1      90.827  31.561  11.335  1.00  0.00     0.087 C 
ENDBRANCH  11  12
ENDBRANCH  10  11
ENDBRANCH   2  10
TORSDOF 6
ENDMDL
MODEL 5
REMARK VINA RESULT:    -0.894      2.582      4.621
REMARK INTER + INTRA:          -2.991
REMARK INTER:                  -1.214
REMARK INTRA:                  -1.778
REMARK UNBOUND:                -1.783
REMARK SMILES CC(=O)CCC=C(C)CCC=C(C)C
REMARK SMILES IDX 7 1 6 2 8 3 9 4 10 5 11 6 13 7 12 8 14 9 5 10 4 11 2 12 3 13
REMARK SMILES IDX 1 14
REMARK H PARENT
REMARK Flexibility Score: inf
ROOT
ATOM      1  C   UNL     1      90.859  28.185  13.793  1.00  0.00    -0.077 C 
ATOM      2  C   UNL     1      91.372  27.111  13.149  1.00  0.00    -0.028 C 
ATOM      3  C   UNL     1      91.003  28.253  15.292  1.00  0.00     0.039 C 
ENDROOT
BRANCH   1   4
ATOM      4  C   UNL     1      90.118  29.301  13.078  1.00  0.00     0.034 C 
BRANCH   4   5
ATOM      5  C   UNL     1      90.760  30.673  13.330  1.00  0.00     0.032 C 
BRANCH   5   6
ATOM      6  C   UNL     1      91.719  31.042  12.222  1.00  0.00    -0.028 C 
ATOM      7  C   UNL     1      93.763  30.466  13.554  1.00  0.00     0.039 C 
ATOM      8  C   UNL     1      93.064  30.930  12.297  1.00  0.00    -0.080 C 
ATOM      9  C   UNL     1      93.881  31.279  11.080  1.00  0.00     0.039 C 
ENDBRANCH   5   6
ENDBRANCH   4   5
ENDBRANCH   1   4
BRANCH   2  10
ATOM     10  C   UNL     1      91.362  26.915  11.654  1.00  0.00     0.035 C 
BRANCH  10  11
ATOM     11  C   UNL     1      92.657  27.442  11.030  1.00  0.00     0.079 C 
BRANCH  11  12
ATOM     12  C   UNL     1      92.367  28.204   9.765  1.00  0.00     0.130 C 
ATOM     13  O   UNL     1      93.275  28.439   8.982  1.00  0.00    -0.300 OA
ATOM     14  C   UNL     1      90.981  28.674   9.435  1.00  0.00     0.087 C 
ENDBRANCH  11  12
ENDBRANCH  10  11
ENDBRANCH   2  10
TORSDOF 6
ENDMDL
MODEL 6
REMARK VINA RESULT:    -0.866      3.332      5.251
REMARK INTER + INTRA:          -2.954
REMARK INTER:                  -1.214
REMARK INTRA:                  -1.740
REMARK UNBOUND:                -1.783
REMARK SMILES CC(=O)CCC=C(C)CCC=C(C)C
REMARK SMILES IDX 7 1 6 2 8 3 9 4 10 5 11 6 13 7 12 8 14 9 5 10 4 11 2 12 3 13
REMARK SMILES IDX 1 14
REMARK H PARENT
REMARK Flexibility Score: inf
ROOT
ATOM      1  C   UNL     1      92.035  28.518  11.365  1.00  0.00    -0.077 C 
ATOM      2  C   UNL     1      92.629  27.303  11.377  1.00  0.00    -0.028 C 
ATOM      3  C   UNL     1      92.407  29.503  12.443  1.00  0.00     0.039 C 
ENDROOT
BRANCH   1   4
ATOM      4  C   UNL     1      90.990  28.917  10.338  1.00  0.00     0.034 C 
BRANCH   4   5
ATOM      5  C   UNL     1      91.448  30.108   9.483  1.00  0.00     0.032 C 
BRANCH   5   6
ATOM      6  C   UNL     1      92.424  29.673   8.414  1.00  0.00    -0.028 C 
ATOM      7  C   UNL     1      94.385  30.804   9.491  1.00  0.00     0.039 C 
ATOM      8  C   UNL     1      93.746  29.954   8.417  1.00  0.00    -0.080 C 
ATOM      9  C   UNL     1      94.600  29.392   7.311  1.00  0.00     0.039 C 
ENDBRANCH   5   6
ENDBRANCH   4   5
ENDBRANCH   1   4
BRANCH   2  10
ATOM     10  C   UNL     1      92.413  26.226  10.344  1.00  0.00     0.035 C 
BRANCH  10  11
ATOM     11  C   UNL     1      93.576  26.187   9.349  1.00  0.00     0.079 C 
BRANCH  11  12
ATOM     12  C   UNL     1      93.066  26.054   7.939  1.00  0.00     0.130 C 
ATOM     13  O   UNL     1      93.860  25.875   7.027  1.00  0.00    -0.300 OA
ATOM     14  C   UNL     1      91.601  26.127   7.627  1.00  0.00     0.087 C 
ENDBRANCH  11  12
ENDBRANCH  10  11
ENDBRANCH   2  10
TORSDOF 6
ENDMDL
MODEL 7
REMARK VINA RESULT:    -0.859      2.626      4.124
REMARK INTER + INTRA:          -2.944
REMARK INTER:                  -1.197
REMARK INTRA:                  -1.747
REMARK UNBOUND:                -1.783
REMARK SMILES CC(=O)CCC=C(C)CCC=C(C)C
REMARK SMILES IDX 7 1 6 2 8 3 9 4 10 5 11 6 13 7 12 8 14 9 5 10 4 11 2 12 3 13
REMARK SMILES IDX 1 14
REMARK H PARENT
REMARK Flexibility Score: inf
ROOT
ATOM      1  C   UNL     1      91.727  28.548  12.718  1.00  0.00    -0.077 C 
ATOM      2  C   UNL     1      91.476  27.264  12.370  1.00  0.00    -0.028 C 
ATOM      3  C   UNL     1      90.814  29.206  13.720  1.00  0.00     0.039 C 
ENDROOT
BRANCH   1   4
ATOM      4  C   UNL     1      92.864  29.358  12.120  1.00  0.00     0.034 C 
BRANCH   4   5
ATOM      5  C   UNL     1      92.351  30.490  11.218  1.00  0.00     0.032 C 
BRANCH   5   6
ATOM      6  C   UNL     1      92.448  30.115   9.758  1.00  0.00    -0.028 C 
ATOM      7  C   UNL     1      90.009  29.576   9.549  1.00  0.00     0.039 C 
ATOM      8  C   UNL     1      91.404  29.729   8.990  1.00  0.00    -0.080 C 
ATOM      9  C   UNL     1      91.652  29.451   7.530  1.00  0.00     0.039 C 
ENDBRANCH   5   6
ENDBRANCH   4   5
ENDBRANCH   1   4
BRANCH   2  10
ATOM     10  C   UNL     1      92.320  26.444  11.428  1.00  0.00     0.035 C 
BRANCH  10  11
ATOM     11  C   UNL     1      91.570  26.182  10.118  1.00  0.00     0.079 C 
BRANCH  11  12
ATOM     12  C   UNL     1      92.516  26.218   8.948  1.00  0.00     0.130 C 
ATOM     13  O   UNL     1      92.120  25.877   7.844  1.00  0.00    -0.300 OA
ATOM     14  C   UNL     1      93.936  26.675   9.103  1.00  0.00     0.087 C 
ENDBRANCH  11  12
ENDBRANCH  10  11
ENDBRANCH   2  10
TORSDOF 6
ENDMDL
MODEL 8
REMARK VINA RESULT:    -0.852      2.610      4.842
REMARK INTER + INTRA:          -2.934
REMARK INTER:                  -1.250
REMARK INTRA:                  -1.684
REMARK UNBOUND:                -1.783
REMARK SMILES CC(=O)CCC=C(C)CCC=C(C)C
REMARK SMILES IDX 7 1 6 2 8 3 9 4 10 5 11 6 13 7 12 8 14 9 5 10 4 11 2 12 3 13
REMARK SMILES IDX 1 14
REMARK H PARENT
REMARK Flexibility Score: inf
ROOT
ATOM      1  C   UNL     1      90.427  28.796  13.968  1.00  0.00    -0.077 C 
ATOM      2  C   UNL     1      91.090  29.975  13.979  1.00  0.00    -0.028 C 
ATOM      3  C   UNL     1      88.949  28.813  13.674  1.00  0.00     0.039 C 
ENDROOT
BRANCH   1   4
ATOM      4  C   UNL     1      91.098  27.468  14.271  1.00  0.00     0.034 C 
BRANCH   4   5
ATOM      5  C   UNL     1      90.997  26.490  13.091  1.00  0.00     0.032 C 
BRANCH   5   6
ATOM      6  C   UNL     1      92.105  26.721  12.091  1.00  0.00    -0.028 C 
ATOM      7  C   UNL     1      90.597  27.787  10.396  1.00  0.00     0.039 C 
ATOM      8  C   UNL     1      91.947  27.324  10.891  1.00  0.00    -0.080 C 
ATOM      9  C   UNL     1      93.166  27.540  10.031  1.00  0.00     0.039 C 
ENDBRANCH   5   6
ENDBRANCH   4   5
ENDBRANCH   1   4
BRANCH   2  10
ATOM     10  C   UNL     1      92.574  30.129  14.201  1.00  0.00     0.035 C 
BRANCH  10  11
ATOM     11  C   UNL     1      93.320  30.166  12.864  1.00  0.00     0.079 C 
BRANCH  11  12
ATOM     12  C   UNL     1      92.871  31.340  12.036  1.00  0.00     0.130 C 
ATOM     13  O   UNL     1      93.039  32.474  12.459  1.00  0.00    -0.300 OA
ATOM     14  C   UNL     1      92.230  31.151  10.693  1.00  0.00     0.087 C 
ENDBRANCH  11  12
ENDBRANCH  10  11
ENDBRANCH   2  10
TORSDOF 6
ENDMDL
MODEL 9
REMARK VINA RESULT:    -0.836      2.063      4.105
REMARK INTER + INTRA:          -2.912
REMARK INTER:                  -1.232
REMARK INTRA:                  -1.680
REMARK UNBOUND:                -1.783
REMARK SMILES CC(=O)CCC=C(C)CCC=C(C)C
REMARK SMILES IDX 7 1 6 2 8 3 9 4 10 5 11 6 13 7 12 8 14 9 5 10 4 11 2 12 3 13
REMARK SMILES IDX 1 14
REMARK H PARENT
REMARK Flexibility Score: inf
ROOT
ATOM      1  C   UNL     1      90.173  27.076  13.681  1.00  0.00    -0.077 C 
ATOM      2  C   UNL     1      90.245  28.234  14.378  1.00  0.00    -0.028 C 
ATOM      3  C   UNL     1      88.832  26.656  13.135  1.00  0.00     0.039 C 
ENDROOT
BRANCH   1   4
ATOM      4  C   UNL     1      91.371  26.171  13.457  1.00  0.00     0.034 C 
BRANCH   4   5
ATOM      5  C   UNL     1      91.696  26.006  11.966  1.00  0.00     0.032 C 
BRANCH   5   6
ATOM      6  C   UNL     1      92.511  27.168  11.449  1.00  0.00    -0.028 C 
ATOM      7  C   UNL     1      90.607  28.161  10.155  1.00  0.00     0.039 C 
ATOM      8  C   UNL     1      92.031  28.155  10.659  1.00  0.00    -0.080 C 
ATOM      9  C   UNL     1      92.955  29.283  10.281  1.00  0.00     0.039 C 
ENDBRANCH   5   6
ENDBRANCH   4   5
ENDBRANCH   1   4
BRANCH   2  10
ATOM     10  C   UNL     1      91.512  28.824  14.943  1.00  0.00     0.035 C 
BRANCH  10  11
ATOM     11  C   UNL     1      92.122  29.833  13.966  1.00  0.00     0.079 C 
BRANCH  11  12
ATOM     12  C   UNL     1      91.188  30.993  13.746  1.00  0.00     0.130 C 
ATOM     13  O   UNL     1      90.911  31.728  14.681  1.00  0.00    -0.300 OA
ATOM     14  C   UNL     1      90.595  31.274  12.397  1.00  0.00     0.087 C 
ENDBRANCH  11  12
ENDBRANCH  10  11
ENDBRANCH   2  10
TORSDOF 6
ENDMDL
