MODEL 1
REMARK VINA RESULT:    -3.443      0.000      0.000
REMARK INTER + INTRA:          -3.321
REMARK INTER:                  -3.745
REMARK INTRA:                   0.424
REMARK UNBOUND:                 0.424
REMARK SMILES CC(=O)[C@@H]1CC[C@H]2[C@@H]3CC=C4C[C@@H](O)CC[C@@]4(C)[C@@H]3CC[C@]12C
REMARK SMILES IDX 4 1 5 2 6 3 7 4 22 5 21 6 20 7 19 8 8 9 9 10 10 11 11 12
REMARK SMILES IDX 17 13 16 14 15 15 13 16 12 17 18 18 23 19 2 20 1 21 3 22
REMARK SMILES IDX 14 23
REMARK H PARENT 14 24
REMARK Flexibility Score: inf
ROOT
ATOM      1  C   UNL     1       5.648   1.148  16.221  1.00  0.00     0.062 C 
ATOM      2  C   UNL     1       4.421   0.752  17.074  1.00  0.00     0.012 C 
ATOM      3  C   UNL     1       4.591  -0.729  17.448  1.00  0.00     0.005 C 
ATOM      4  C   UNL     1       5.982  -1.119  16.943  1.00  0.00    -0.001 C 
ATOM      5  C   UNL     1       6.242  -0.212  15.727  1.00  0.00    -0.020 C 
ATOM      6  C   UNL     1       7.773  -0.243  15.394  1.00  0.00     0.008 C 
ATOM      7  C   UNL     1       8.458  -1.587  15.778  1.00  0.00     0.005 C 
ATOM      8  C   UNL     1       7.516  -2.835  15.773  1.00  0.00     0.003 C 
ATOM      9  C   UNL     1       6.215  -2.618  16.635  1.00  0.00     0.000 C 
ATOM     10  C   UNL     1       6.235  -3.441  17.926  1.00  0.00     0.031 C 
ATOM     11  C   UNL     1       6.429  -4.884  17.586  1.00  0.00    -0.027 C 
ATOM     12  C   UNL     1       7.340  -5.263  16.668  1.00  0.00    -0.065 C 
ATOM     13  C   UNL     1       8.279  -4.217  16.033  1.00  0.00    -0.008 C 
ATOM     14  C   UNL     1       8.816  -4.748  14.663  1.00  0.00     0.014 C 
ATOM     15  C   UNL     1       9.264  -6.216  14.694  1.00  0.00     0.033 C 
ATOM     16  C   UNL     1       8.106  -7.125  15.108  1.00  0.00     0.118 C 
ATOM     17  C   UNL     1       7.603  -6.751  16.511  1.00  0.00     0.063 C 
ATOM     18  C   UNL     1       9.484  -4.045  17.002  1.00  0.00     0.016 C 
ATOM     19  C   UNL     1       5.433  -0.677  14.461  1.00  0.00     0.012 C 
ENDROOT
BRANCH   1  20
ATOM     20  C   UNL     1       6.622   2.051  16.974  1.00  0.00     0.133 C 
ATOM     21  C   UNL     1       8.027   2.346  16.511  1.00  0.00     0.088 C 
ATOM     22  O   UNL     1       6.231   2.607  17.992  1.00  0.00    -0.300 OA
ENDBRANCH   1  20
BRANCH  16  23
ATOM     23  O   UNL     1       7.064  -7.023  14.168  1.00  0.00    -0.393 OA
ATOM     24  H   UNL     1       6.224  -6.868  14.674  1.00  0.00     0.210 HD
ENDBRANCH  16  23
TORSDOF 2
ENDMDL
MODEL 2
REMARK VINA RESULT:    -2.154      1.320      6.574
REMARK INTER + INTRA:          -1.919
REMARK INTER:                  -1.810
REMARK INTRA:                  -0.109
REMARK UNBOUND:                 0.424
REMARK SMILES CC(=O)[C@@H]1CC[C@H]2[C@@H]3CC=C4C[C@@H](O)CC[C@@]4(C)[C@@H]3CC[C@]12C
REMARK SMILES IDX 4 1 5 2 6 3 7 4 22 5 21 6 20 7 19 8 8 9 9 10 10 11 11 12
REMARK SMILES IDX 17 13 16 14 15 15 13 16 12 17 18 18 23 19 2 20 1 21 3 22
REMARK SMILES IDX 14 23
REMARK H PARENT 14 24
REMARK Flexibility Score: inf
ROOT
ATOM      1  C   UNL     1       6.967  -6.323  16.470  1.00  0.00     0.062 C 
ATOM      2  C   UNL     1       6.353  -6.497  17.878  1.00  0.00     0.012 C 
ATOM      3  C   UNL     1       5.893  -5.106  18.344  1.00  0.00     0.005 C 
ATOM      4  C   UNL     1       6.103  -4.184  17.140  1.00  0.00    -0.001 C 
ATOM      5  C   UNL     1       7.280  -4.796  16.360  1.00  0.00    -0.020 C 
ATOM      6  C   UNL     1       7.308  -4.174  14.922  1.00  0.00     0.008 C 
ATOM      7  C   UNL     1       6.744  -2.724  14.868  1.00  0.00     0.005 C 
ATOM      8  C   UNL     1       6.882  -1.911  16.197  1.00  0.00     0.003 C 
ATOM      9  C   UNL     1       6.299  -2.679  17.442  1.00  0.00     0.000 C 
ATOM     10  C   UNL     1       4.996  -2.052  17.948  1.00  0.00     0.031 C 
ATOM     11  C   UNL     1       5.234  -0.609  18.259  1.00  0.00    -0.027 C 
ATOM     12  C   UNL     1       5.940   0.173  17.421  1.00  0.00    -0.065 C 
ATOM     13  C   UNL     1       6.423  -0.383  16.066  1.00  0.00    -0.008 C 
ATOM     14  C   UNL     1       7.640   0.453  15.550  1.00  0.00     0.014 C 
ATOM     15  C   UNL     1       7.463   1.971  15.701  1.00  0.00     0.033 C 
ATOM     16  C   UNL     1       7.246   2.346  17.168  1.00  0.00     0.118 C 
ATOM     17  C   UNL     1       5.984   1.663  17.717  1.00  0.00     0.063 C 
ATOM     18  C   UNL     1       5.246  -0.212  15.063  1.00  0.00     0.016 C 
ATOM     19  C   UNL     1       8.660  -4.520  17.064  1.00  0.00     0.012 C 
ENDROOT
BRANCH   1  20
ATOM     20  C   UNL     1       6.075  -6.888  15.366  1.00  0.00     0.133 C 
ATOM     21  C   UNL     1       4.593  -7.121  15.517  1.00  0.00     0.088 C 
ATOM     22  O   UNL     1       6.579  -7.124  14.276  1.00  0.00    -0.300 OA
ENDBRANCH   1  20
BRANCH  16  23
ATOM     23  O   UNL     1       8.373   1.977  17.923  1.00  0.00    -0.393 OA
ATOM     24  H   UNL     1       8.058   1.387  18.657  1.00  0.00     0.210 HD
ENDBRANCH  16  23
TORSDOF 2
ENDMDL
MODEL 3
REMARK VINA RESULT:    -1.427      1.405      1.564
REMARK INTER + INTRA:          -1.128
REMARK INTER:                  -1.825
REMARK INTRA:                   0.696
REMARK UNBOUND:                 0.424
REMARK SMILES CC(=O)[C@@H]1CC[C@H]2[C@@H]3CC=C4C[C@@H](O)CC[C@@]4(C)[C@@H]3CC[C@]12C
REMARK SMILES IDX 4 1 5 2 6 3 7 4 22 5 21 6 20 7 19 8 8 9 9 10 10 11 11 12
REMARK SMILES IDX 17 13 16 14 15 15 13 16 12 17 18 18 23 19 2 20 1 21 3 22
REMARK SMILES IDX 14 23
REMARK H PARENT 14 24
REMARK Flexibility Score: inf
ROOT
ATOM      1  C   UNL     1       6.786   1.504  16.051  1.00  0.00     0.062 C 
ATOM      2  C   UNL     1       5.757   1.650  17.195  1.00  0.00     0.012 C 
ATOM      3  C   UNL     1       5.472   0.237  17.729  1.00  0.00     0.005 C 
ATOM      4  C   UNL     1       6.455  -0.680  16.996  1.00  0.00    -0.001 C 
ATOM      5  C   UNL     1       6.708  -0.002  15.638  1.00  0.00    -0.020 C 
ATOM      6  C   UNL     1       7.989  -0.632  14.992  1.00  0.00     0.008 C 
ATOM      7  C   UNL     1       8.219  -2.114  15.404  1.00  0.00     0.005 C 
ATOM      8  C   UNL     1       6.924  -2.907  15.777  1.00  0.00     0.003 C 
ATOM      9  C   UNL     1       6.050  -2.167  16.859  1.00  0.00     0.000 C 
ATOM     10  C   UNL     1       6.098  -2.871  18.219  1.00  0.00     0.031 C 
ATOM     11  C   UNL     1       5.670  -4.293  18.051  1.00  0.00    -0.027 C 
ATOM     12  C   UNL     1       6.121  -5.036  17.022  1.00  0.00    -0.065 C 
ATOM     13  C   UNL     1       7.180  -4.461  16.059  1.00  0.00    -0.008 C 
ATOM     14  C   UNL     1       7.127  -5.224  14.694  1.00  0.00     0.014 C 
ATOM     15  C   UNL     1       7.011  -6.748  14.834  1.00  0.00     0.033 C 
ATOM     16  C   UNL     1       5.748  -7.124  15.611  1.00  0.00     0.118 C 
ATOM     17  C   UNL     1       5.784  -6.517  17.022  1.00  0.00     0.063 C 
ATOM     18  C   UNL     1       8.569  -4.715  16.712  1.00  0.00     0.016 C 
ATOM     19  C   UNL     1       5.495  -0.184  14.653  1.00  0.00     0.012 C 
ENDROOT
BRANCH   1  20
ATOM     20  C   UNL     1       8.175   2.002  16.443  1.00  0.00     0.133 C 
ATOM     21  C   UNL     1       8.436   3.324  17.120  1.00  0.00     0.088 C 
ATOM     22  O   UNL     1       9.135   1.270  16.239  1.00  0.00    -0.300 OA
ENDBRANCH   1  20
BRANCH  16  23
ATOM     23  O   UNL     1       4.612  -6.678  14.912  1.00  0.00    -0.393 OA
ATOM     24  H   UNL     1       4.493  -5.716  15.124  1.00  0.00     0.210 HD
ENDBRANCH  16  23
TORSDOF 2
ENDMDL
