MODEL 1
REMARK VINA RESULT:    -4.149      0.000      0.000
REMARK INTER + INTRA:          -9.160
REMARK INTER:                  -6.332
REMARK INTRA:                  -2.828
REMARK UNBOUND:                -2.828
REMARK SMILES CC(=O)CCC=C(C)CCC=C(C)CCC=C(C)C
REMARK SMILES IDX 10 1 11 2 12 3 13 4 14 5 15 6 16 7 18 8 17 9 19 10 9 11 7 12
REMARK SMILES IDX 6 13 8 14 5 15 4 16 2 17 3 18 1 19
REMARK H PARENT
REMARK Flexibility Score: inf
ROOT
ATOM      1  C   UNL     1      45.158  59.441  25.602  1.00  0.00     0.032 C 
ENDROOT
BRANCH   1   2
ATOM      2  C   UNL     1      44.601  58.707  26.795  1.00  0.00    -0.028 C 
ATOM      3  C   UNL     1      45.356  58.192  27.793  1.00  0.00    -0.077 C 
ATOM      4  C   UNL     1      46.853  58.388  27.843  1.00  0.00     0.039 C 
BRANCH   3   5
ATOM      5  C   UNL     1      44.679  57.403  28.895  1.00  0.00     0.034 C 
BRANCH   5   6
ATOM      6  C   UNL     1      43.197  57.143  28.587  1.00  0.00     0.032 C 
BRANCH   6   7
ATOM      7  C   UNL     1      42.944  55.698  28.222  1.00  0.00    -0.028 C 
ATOM      8  C   UNL     1      42.125  56.243  25.919  1.00  0.00     0.039 C 
ATOM      9  C   UNL     1      42.425  55.285  27.045  1.00  0.00    -0.080 C 
ATOM     10  C   UNL     1      42.188  53.816  26.807  1.00  0.00     0.039 C 
ENDBRANCH   6   7
ENDBRANCH   5   6
ENDBRANCH   3   5
ENDBRANCH   1   2
BRANCH   1  11
ATOM     11  C   UNL     1      45.217  58.517  24.380  1.00  0.00     0.034 C 
BRANCH  11  12
ATOM     12  C   UNL     1      46.568  57.835  24.293  1.00  0.00    -0.077 C 
ATOM     13  C   UNL     1      46.746  56.518  24.544  1.00  0.00    -0.028 C 
ATOM     14  C   UNL     1      47.754  58.643  23.836  1.00  0.00     0.039 C 
BRANCH  13  15
ATOM     15  C   UNL     1      45.668  55.574  25.021  1.00  0.00     0.035 C 
BRANCH  15  16
ATOM     16  C   UNL     1      46.041  54.908  26.351  1.00  0.00     0.079 C 
BRANCH  16  17
ATOM     17  C   UNL     1      47.370  54.205  26.263  1.00  0.00     0.130 C 
ATOM     18  O   UNL     1      47.489  53.225  25.543  1.00  0.00    -0.300 OA
ATOM     19  C   UNL     1      48.543  54.666  27.076  1.00  0.00     0.087 C 
ENDBRANCH  16  17
ENDBRANCH  15  16
ENDBRANCH  13  15
ENDBRANCH  11  12
ENDBRANCH   1  11
TORSDOF 9
ENDMDL
MODEL 2
REMARK VINA RESULT:    -4.046      1.301      4.504
REMARK INTER + INTRA:          -9.003
REMARK INTER:                  -6.300
REMARK INTRA:                  -2.703
REMARK UNBOUND:                -2.828
REMARK SMILES CC(=O)CCC=C(C)CCC=C(C)CCC=C(C)C
REMARK SMILES IDX 10 1 11 2 12 3 13 4 14 5 15 6 16 7 18 8 17 9 19 10 9 11 7 12
REMARK SMILES IDX 6 13 8 14 5 15 4 16 2 17 3 18 1 19
REMARK H PARENT
REMARK Flexibility Score: inf
ROOT
ATOM      1  C   UNL     1      43.321  57.115  28.674  1.00  0.00     0.032 C 
ENDROOT
BRANCH   1   2
ATOM      2  C   UNL     1      44.807  57.361  28.634  1.00  0.00    -0.028 C 
ATOM      3  C   UNL     1      45.415  58.228  27.792  1.00  0.00    -0.077 C 
ATOM      4  C   UNL     1      44.627  59.112  26.854  1.00  0.00     0.039 C 
BRANCH   3   5
ATOM      5  C   UNL     1      46.927  58.321  27.796  1.00  0.00     0.034 C 
BRANCH   5   6
ATOM      6  C   UNL     1      47.473  58.835  26.455  1.00  0.00     0.032 C 
BRANCH   6   7
ATOM      7  C   UNL     1      47.775  57.704  25.500  1.00  0.00    -0.028 C 
ATOM      8  C   UNL     1      46.344  58.638  23.669  1.00  0.00     0.039 C 
ATOM      9  C   UNL     1      47.244  57.583  24.263  1.00  0.00    -0.080 C 
ATOM     10  C   UNL     1      47.598  56.391  23.411  1.00  0.00     0.039 C 
ENDBRANCH   6   7
ENDBRANCH   5   6
ENDBRANCH   3   5
ENDBRANCH   1   2
BRANCH   1  11
ATOM     11  C   UNL     1      42.976  55.781  28.003  1.00  0.00     0.034 C 
BRANCH  11  12
ATOM     12  C   UNL     1      42.023  55.997  26.845  1.00  0.00    -0.077 C 
ATOM     13  C   UNL     1      42.437  56.126  25.564  1.00  0.00    -0.028 C 
ATOM     14  C   UNL     1      40.543  55.996  27.122  1.00  0.00     0.039 C 
BRANCH  13  15
ATOM     15  C   UNL     1      43.880  56.160  25.120  1.00  0.00     0.035 C 
BRANCH  15  16
ATOM     16  C   UNL     1      44.357  54.787  24.630  1.00  0.00     0.079 C 
BRANCH  16  17
ATOM     17  C   UNL     1      45.032  54.011  25.730  1.00  0.00     0.130 C 
ATOM     18  O   UNL     1      44.514  52.989  26.154  1.00  0.00    -0.300 OA
ATOM     19  C   UNL     1      46.314  54.494  26.342  1.00  0.00     0.087 C 
ENDBRANCH  16  17
ENDBRANCH  15  16
ENDBRANCH  13  15
ENDBRANCH  11  12
ENDBRANCH   1  11
TORSDOF 9
ENDMDL
MODEL 3
REMARK VINA RESULT:    -4.021      1.934      4.971
REMARK INTER + INTRA:          -8.964
REMARK INTER:                  -6.568
REMARK INTRA:                  -2.396
REMARK UNBOUND:                -2.828
REMARK SMILES CC(=O)CCC=C(C)CCC=C(C)CCC=C(C)C
REMARK SMILES IDX 10 1 11 2 12 3 13 4 14 5 15 6 16 7 18 8 17 9 19 10 9 11 7 12
REMARK SMILES IDX 6 13 8 14 5 15 4 16 2 17 3 18 1 19
REMARK H PARENT
REMARK Flexibility Score: inf
ROOT
ATOM      1  C   UNL     1      45.409  59.428  25.584  1.00  0.00     0.032 C 
ENDROOT
BRANCH   1   2
ATOM      2  C   UNL     1      45.752  58.370  24.568  1.00  0.00    -0.028 C 
ATOM      3  C   UNL     1      46.964  58.239  23.982  1.00  0.00    -0.077 C 
ATOM      4  C   UNL     1      48.135  59.111  24.370  1.00  0.00     0.039 C 
BRANCH   3   5
ATOM      5  C   UNL     1      47.155  57.183  22.912  1.00  0.00     0.034 C 
BRANCH   5   6
ATOM      6  C   UNL     1      46.942  55.765  23.462  1.00  0.00     0.032 C 
BRANCH   6   7
ATOM      7  C   UNL     1      47.811  55.492  24.666  1.00  0.00    -0.028 C 
ATOM      8  C   UNL     1      45.876  54.926  26.152  1.00  0.00     0.039 C 
ATOM      9  C   UNL     1      47.343  55.154  25.889  1.00  0.00    -0.080 C 
ATOM     10  C   UNL     1      48.309  54.936  27.025  1.00  0.00     0.039 C 
ENDBRANCH   6   7
ENDBRANCH   5   6
ENDBRANCH   3   5
ENDBRANCH   1   2
BRANCH   1  11
ATOM     11  C   UNL     1      44.507  58.850  26.681  1.00  0.00     0.034 C 
BRANCH  11  12
ATOM     12  C   UNL     1      45.340  58.209  27.772  1.00  0.00    -0.077 C 
ATOM     13  C   UNL     1      44.814  57.405  28.725  1.00  0.00    -0.028 C 
ATOM     14  C   UNL     1      46.832  58.416  27.755  1.00  0.00     0.039 C 
BRANCH  13  15
ATOM     15  C   UNL     1      43.343  57.105  28.888  1.00  0.00     0.035 C 
BRANCH  15  16
ATOM     16  C   UNL     1      42.942  55.812  28.167  1.00  0.00     0.079 C 
BRANCH  16  17
ATOM     17  C   UNL     1      41.880  56.064  27.128  1.00  0.00     0.130 C 
ATOM     18  O   UNL     1      40.714  56.177  27.473  1.00  0.00    -0.300 OA
ATOM     19  C   UNL     1      42.228  56.143  25.672  1.00  0.00     0.087 C 
ENDBRANCH  16  17
ENDBRANCH  15  16
ENDBRANCH  13  15
ENDBRANCH  11  12
ENDBRANCH   1  11
TORSDOF 9
ENDMDL
MODEL 4
REMARK VINA RESULT:    -4.014      2.035      3.495
REMARK INTER + INTRA:          -8.955
REMARK INTER:                  -6.422
REMARK INTRA:                  -2.533
REMARK UNBOUND:                -2.828
REMARK SMILES CC(=O)CCC=C(C)CCC=C(C)CCC=C(C)C
REMARK SMILES IDX 10 1 11 2 12 3 13 4 14 5 15 6 16 7 18 8 17 9 19 10 9 11 7 12
REMARK SMILES IDX 6 13 8 14 5 15 4 16 2 17 3 18 1 19
REMARK H PARENT
REMARK Flexibility Score: inf
ROOT
ATOM      1  C   UNL     1      47.364  57.548  26.860  1.00  0.00     0.032 C 
ENDROOT
BRANCH   1   2
ATOM      2  C   UNL     1      46.312  57.113  27.848  1.00  0.00    -0.028 C 
ATOM      3  C   UNL     1      45.116  57.723  28.007  1.00  0.00    -0.077 C 
ATOM      4  C   UNL     1      44.683  58.871  27.125  1.00  0.00     0.039 C 
BRANCH   3   5
ATOM      5  C   UNL     1      44.180  57.237  29.095  1.00  0.00     0.034 C 
BRANCH   5   6
ATOM      6  C   UNL     1      42.859  56.705  28.520  1.00  0.00     0.032 C 
BRANCH   6   7
ATOM      7  C   UNL     1      43.060  55.427  27.739  1.00  0.00    -0.028 C 
ATOM      8  C   UNL     1      42.429  56.463  25.547  1.00  0.00     0.039 C 
ATOM      9  C   UNL     1      42.831  55.295  26.413  1.00  0.00    -0.080 C 
ATOM     10  C   UNL     1      43.038  53.959  25.749  1.00  0.00     0.039 C 
ENDBRANCH   6   7
ENDBRANCH   5   6
ENDBRANCH   3   5
ENDBRANCH   1   2
BRANCH   1  11
ATOM     11  C   UNL     1      47.997  56.331  26.176  1.00  0.00     0.034 C 
BRANCH  11  12
ATOM     12  C   UNL     1      46.926  55.404  25.640  1.00  0.00    -0.077 C 
ATOM     13  C   UNL     1      46.281  55.619  24.471  1.00  0.00    -0.028 C 
ATOM     14  C   UNL     1      46.616  54.144  26.406  1.00  0.00     0.039 C 
BRANCH  13  15
ATOM     15  C   UNL     1      46.466  56.833  23.592  1.00  0.00     0.035 C 
BRANCH  15  16
ATOM     16  C   UNL     1      45.309  57.828  23.744  1.00  0.00     0.079 C 
BRANCH  16  17
ATOM     17  C   UNL     1      45.735  59.230  23.392  1.00  0.00     0.130 C 
ATOM     18  O   UNL     1      45.436  59.696  22.303  1.00  0.00    -0.300 OA
ATOM     19  C   UNL     1      46.552  60.050  24.344  1.00  0.00     0.087 C 
ENDBRANCH  16  17
ENDBRANCH  15  16
ENDBRANCH  13  15
ENDBRANCH  11  12
ENDBRANCH   1  11
TORSDOF 9
ENDMDL
MODEL 5
REMARK VINA RESULT:    -3.997      1.807      2.570
REMARK INTER + INTRA:          -8.928
REMARK INTER:                  -6.371
REMARK INTRA:                  -2.556
REMARK UNBOUND:                -2.828
REMARK SMILES CC(=O)CCC=C(C)CCC=C(C)CCC=C(C)C
REMARK SMILES IDX 10 1 11 2 12 3 13 4 14 5 15 6 16 7 18 8 17 9 19 10 9 11 7 12
REMARK SMILES IDX 6 13 8 14 5 15 4 16 2 17 3 18 1 19
REMARK H PARENT
REMARK Flexibility Score: inf
ROOT
ATOM      1  C   UNL     1      45.233  59.349  25.556  1.00  0.00     0.032 C 
ENDROOT
BRANCH   1   2
ATOM      2  C   UNL     1      44.618  58.672  26.754  1.00  0.00    -0.028 C 
ATOM      3  C   UNL     1      45.325  58.182  27.799  1.00  0.00    -0.077 C 
ATOM      4  C   UNL     1      46.823  58.351  27.898  1.00  0.00     0.039 C 
BRANCH   3   5
ATOM      5  C   UNL     1      44.592  57.449  28.904  1.00  0.00     0.034 C 
BRANCH   5   6
ATOM      6  C   UNL     1      43.150  57.103  28.504  1.00  0.00     0.032 C 
BRANCH   6   7
ATOM      7  C   UNL     1      42.984  55.631  28.211  1.00  0.00    -0.028 C 
ATOM      8  C   UNL     1      40.667  55.895  27.300  1.00  0.00     0.039 C 
ATOM      9  C   UNL     1      41.862  55.070  27.709  1.00  0.00    -0.080 C 
ATOM     10  C   UNL     1      41.804  53.581  27.488  1.00  0.00     0.039 C 
ENDBRANCH   6   7
ENDBRANCH   5   6
ENDBRANCH   3   5
ENDBRANCH   1   2
BRANCH   1  11
ATOM     11  C   UNL     1      45.207  58.418  24.339  1.00  0.00     0.034 C 
BRANCH  11  12
ATOM     12  C   UNL     1      46.391  57.473  24.364  1.00  0.00    -0.077 C 
ATOM     13  C   UNL     1      46.286  56.167  24.700  1.00  0.00    -0.028 C 
ATOM     14  C   UNL     1      47.735  57.993  23.926  1.00  0.00     0.039 C 
BRANCH  13  15
ATOM     15  C   UNL     1      45.019  55.495  25.171  1.00  0.00     0.035 C 
BRANCH  15  16
ATOM     16  C   UNL     1      44.305  54.760  24.030  1.00  0.00     0.079 C 
BRANCH  16  17
ATOM     17  C   UNL     1      42.818  54.997  24.064  1.00  0.00     0.130 C 
ATOM     18  O   UNL     1      42.054  54.043  24.036  1.00  0.00    -0.300 OA
ATOM     19  C   UNL     1      42.258  56.387  24.096  1.00  0.00     0.087 C 
ENDBRANCH  16  17
ENDBRANCH  15  16
ENDBRANCH  13  15
ENDBRANCH  11  12
ENDBRANCH   1  11
TORSDOF 9
ENDMDL
MODEL 6
REMARK VINA RESULT:    -3.961      3.419      6.417
REMARK INTER + INTRA:          -8.874
REMARK INTER:                  -7.012
REMARK INTRA:                  -1.861
REMARK UNBOUND:                -2.828
REMARK SMILES CC(=O)CCC=C(C)CCC=C(C)CCC=C(C)C
REMARK SMILES IDX 10 1 11 2 12 3 13 4 14 5 15 6 16 7 18 8 17 9 19 10 9 11 7 12
REMARK SMILES IDX 6 13 8 14 5 15 4 16 2 17 3 18 1 19
REMARK H PARENT
REMARK Flexibility Score: inf
ROOT
ATOM      1  C   UNL     1      42.499  56.373  24.218  1.00  0.00     0.032 C 
ENDROOT
BRANCH   1   2
ATOM      2  C   UNL     1      42.388  56.428  25.721  1.00  0.00    -0.028 C 
ATOM      3  C   UNL     1      43.005  55.568  26.563  1.00  0.00    -0.077 C 
ATOM      4  C   UNL     1      43.951  54.502  26.062  1.00  0.00     0.039 C 
BRANCH   3   5
ATOM      5  C   UNL     1      42.745  55.681  28.051  1.00  0.00     0.034 C 
BRANCH   5   6
ATOM      6  C   UNL     1      43.192  57.040  28.610  1.00  0.00     0.032 C 
BRANCH   6   7
ATOM      7  C   UNL     1      44.694  57.192  28.584  1.00  0.00    -0.028 C 
ATOM      8  C   UNL     1      44.661  58.931  26.781  1.00  0.00     0.039 C 
ATOM      9  C   UNL     1      45.368  58.006  27.741  1.00  0.00    -0.080 C 
ATOM     10  C   UNL     1      46.873  58.051  27.788  1.00  0.00     0.039 C 
ENDBRANCH   6   7
ENDBRANCH   5   6
ENDBRANCH   3   5
ENDBRANCH   1   2
BRANCH   1  11
ATOM     11  C   UNL     1      41.359  55.538  23.624  1.00  0.00     0.034 C 
BRANCH  11  12
ATOM     12  C   UNL     1      40.022  56.202  23.883  1.00  0.00    -0.077 C 
ATOM     13  C   UNL     1      39.091  55.684  24.716  1.00  0.00    -0.028 C 
ATOM     14  C   UNL     1      39.744  57.536  23.241  1.00  0.00     0.039 C 
BRANCH  13  15
ATOM     15  C   UNL     1      39.208  54.355  25.425  1.00  0.00     0.035 C 
BRANCH  15  16
ATOM     16  C   UNL     1      39.007  54.499  26.939  1.00  0.00     0.079 C 
BRANCH  16  17
ATOM     17  C   UNL     1      37.803  53.726  27.412  1.00  0.00     0.130 C 
ATOM     18  O   UNL     1      37.911  52.961  28.359  1.00  0.00    -0.300 OA
ATOM     19  C   UNL     1      36.481  53.853  26.715  1.00  0.00     0.087 C 
ENDBRANCH  16  17
ENDBRANCH  15  16
ENDBRANCH  13  15
ENDBRANCH  11  12
ENDBRANCH   1  11
TORSDOF 9
ENDMDL
MODEL 7
REMARK VINA RESULT:    -3.956      1.825      4.744
REMARK INTER + INTRA:          -8.866
REMARK INTER:                  -6.444
REMARK INTRA:                  -2.423
REMARK UNBOUND:                -2.828
REMARK SMILES CC(=O)CCC=C(C)CCC=C(C)CCC=C(C)C
REMARK SMILES IDX 10 1 11 2 12 3 13 4 14 5 15 6 16 7 18 8 17 9 19 10 9 11 7 12
REMARK SMILES IDX 6 13 8 14 5 15 4 16 2 17 3 18 1 19
REMARK H PARENT
REMARK Flexibility Score: inf
ROOT
ATOM      1  C   UNL     1      43.286  57.143  28.813  1.00  0.00     0.032 C 
ENDROOT
BRANCH   1   2
ATOM      2  C   UNL     1      44.763  57.442  28.759  1.00  0.00    -0.028 C 
ATOM      3  C   UNL     1      45.356  58.185  27.797  1.00  0.00    -0.077 C 
ATOM      4  C   UNL     1      44.557  58.871  26.713  1.00  0.00     0.039 C 
BRANCH   3   5
ATOM      5  C   UNL     1      46.863  58.341  27.812  1.00  0.00     0.034 C 
BRANCH   5   6
ATOM      6  C   UNL     1      47.537  57.492  26.724  1.00  0.00     0.032 C 
BRANCH   6   7
ATOM      7  C   UNL     1      47.528  56.022  27.071  1.00  0.00    -0.028 C 
ATOM      8  C   UNL     1      48.467  55.316  24.859  1.00  0.00     0.039 C 
ATOM      9  C   UNL     1      47.904  55.033  26.230  1.00  0.00    -0.080 C 
ATOM     10  C   UNL     1      47.822  53.597  26.679  1.00  0.00     0.039 C 
ENDBRANCH   6   7
ENDBRANCH   5   6
ENDBRANCH   3   5
ENDBRANCH   1   2
BRANCH   1  11
ATOM     11  C   UNL     1      43.002  55.732  28.286  1.00  0.00     0.034 C 
BRANCH  11  12
ATOM     12  C   UNL     1      42.228  55.795  26.985  1.00  0.00    -0.077 C 
ATOM     13  C   UNL     1      42.807  55.630  25.774  1.00  0.00    -0.028 C 
ATOM     14  C   UNL     1      40.734  55.977  27.045  1.00  0.00     0.039 C 
BRANCH  13  15
ATOM     15  C   UNL     1      44.289  55.450  25.541  1.00  0.00     0.035 C 
BRANCH  15  16
ATOM     16  C   UNL     1      44.622  55.346  24.048  1.00  0.00     0.079 C 
BRANCH  16  17
ATOM     17  C   UNL     1      44.651  56.702  23.392  1.00  0.00     0.130 C 
ATOM     18  O   UNL     1      43.695  57.071  22.726  1.00  0.00    -0.300 OA
ATOM     19  C   UNL     1      45.851  57.593  23.513  1.00  0.00     0.087 C 
ENDBRANCH  16  17
ENDBRANCH  15  16
ENDBRANCH  13  15
ENDBRANCH  11  12
ENDBRANCH   1  11
TORSDOF 9
ENDMDL
MODEL 8
REMARK VINA RESULT:    -3.900      2.962      6.025
REMARK INTER + INTRA:          -8.780
REMARK INTER:                  -7.211
REMARK INTRA:                  -1.569
REMARK UNBOUND:                -2.828
REMARK SMILES CC(=O)CCC=C(C)CCC=C(C)CCC=C(C)C
REMARK SMILES IDX 10 1 11 2 12 3 13 4 14 5 15 6 16 7 18 8 17 9 19 10 9 11 7 12
REMARK SMILES IDX 6 13 8 14 5 15 4 16 2 17 3 18 1 19
REMARK H PARENT
REMARK Flexibility Score: inf
ROOT
ATOM      1  C   UNL     1      43.168  57.117  28.570  1.00  0.00     0.032 C 
ENDROOT
BRANCH   1   2
ATOM      2  C   UNL     1      44.653  57.369  28.620  1.00  0.00    -0.028 C 
ATOM      3  C   UNL     1      45.327  58.135  27.732  1.00  0.00    -0.077 C 
ATOM      4  C   UNL     1      44.619  58.894  26.634  1.00  0.00     0.039 C 
BRANCH   3   5
ATOM      5  C   UNL     1      46.834  58.241  27.845  1.00  0.00     0.034 C 
BRANCH   5   6
ATOM      6  C   UNL     1      47.549  57.466  26.728  1.00  0.00     0.032 C 
BRANCH   6   7
ATOM      7  C   UNL     1      47.844  56.041  27.131  1.00  0.00    -0.028 C 
ATOM      8  C   UNL     1      47.521  55.137  24.817  1.00  0.00     0.039 C 
ATOM      9  C   UNL     1      47.795  54.982  26.293  1.00  0.00    -0.080 C 
ATOM     10  C   UNL     1      48.079  53.598  26.818  1.00  0.00     0.039 C 
ENDBRANCH   6   7
ENDBRANCH   5   6
ENDBRANCH   3   5
ENDBRANCH   1   2
BRANCH   1  11
ATOM     11  C   UNL     1      42.881  55.625  28.372  1.00  0.00     0.034 C 
BRANCH  11  12
ATOM     12  C   UNL     1      42.842  55.280  26.897  1.00  0.00    -0.077 C 
ATOM     13  C   UNL     1      41.756  55.489  26.119  1.00  0.00    -0.028 C 
ATOM     14  C   UNL     1      44.093  54.746  26.250  1.00  0.00     0.039 C 
BRANCH  13  15
ATOM     15  C   UNL     1      40.425  56.005  26.613  1.00  0.00     0.035 C 
BRANCH  15  16
ATOM     16  C   UNL     1      39.467  54.861  26.967  1.00  0.00     0.079 C 
BRANCH  16  17
ATOM     17  C   UNL     1      38.145  55.007  26.259  1.00  0.00     0.130 C 
ATOM     18  O   UNL     1      38.081  55.662  25.230  1.00  0.00    -0.300 OA
ATOM     19  C   UNL     1      36.898  54.391  26.819  1.00  0.00     0.087 C 
ENDBRANCH  16  17
ENDBRANCH  15  16
ENDBRANCH  13  15
ENDBRANCH  11  12
ENDBRANCH   1  11
TORSDOF 9
ENDMDL
MODEL 9
REMARK VINA RESULT:    -3.892      4.166      7.301
REMARK INTER + INTRA:          -8.769
REMARK INTER:                  -7.272
REMARK INTRA:                  -1.496
REMARK UNBOUND:                -2.828
REMARK SMILES CC(=O)CCC=C(C)CCC=C(C)CCC=C(C)C
REMARK SMILES IDX 10 1 11 2 12 3 13 4 14 5 15 6 16 7 18 8 17 9 19 10 9 11 7 12
REMARK SMILES IDX 6 13 8 14 5 15 4 16 2 17 3 18 1 19
REMARK H PARENT
REMARK Flexibility Score: inf
ROOT
ATOM      1  C   UNL     1      39.531  55.900  25.950  1.00  0.00     0.032 C 
ENDROOT
BRANCH   1   2
ATOM      2  C   UNL     1      40.870  56.006  26.633  1.00  0.00    -0.028 C 
ATOM      3  C   UNL     1      41.424  55.024  27.382  1.00  0.00    -0.077 C 
ATOM      4  C   UNL     1      40.770  53.670  27.531  1.00  0.00     0.039 C 
BRANCH   3   5
ATOM      5  C   UNL     1      42.740  55.288  28.084  1.00  0.00     0.034 C 
BRANCH   5   6
ATOM      6  C   UNL     1      42.849  56.740  28.572  1.00  0.00     0.032 C 
BRANCH   6   7
ATOM      7  C   UNL     1      44.286  57.196  28.665  1.00  0.00    -0.028 C 
ATOM      8  C   UNL     1      44.300  58.190  26.365  1.00  0.00     0.039 C 
ATOM      9  C   UNL     1      44.961  57.811  27.668  1.00  0.00    -0.080 C 
ATOM     10  C   UNL     1      46.405  58.193  27.867  1.00  0.00     0.039 C 
ENDBRANCH   6   7
ENDBRANCH   5   6
ENDBRANCH   3   5
ENDBRANCH   1   2
BRANCH   1  11
ATOM     11  C   UNL     1      39.710  55.632  24.451  1.00  0.00     0.034 C 
BRANCH  11  12
ATOM     12  C   UNL     1      38.672  56.387  23.647  1.00  0.00    -0.077 C 
ATOM     13  C   UNL     1      37.512  55.829  23.232  1.00  0.00    -0.028 C 
ATOM     14  C   UNL     1      38.907  57.846  23.357  1.00  0.00     0.039 C 
BRANCH  13  15
ATOM     15  C   UNL     1      37.129  54.382  23.430  1.00  0.00     0.035 C 
BRANCH  15  16
ATOM     16  C   UNL     1      36.367  54.169  24.744  1.00  0.00     0.079 C 
BRANCH  16  17
ATOM     17  C   UNL     1      37.028  53.124  25.604  1.00  0.00     0.130 C 
ATOM     18  O   UNL     1      36.690  53.000  26.771  1.00  0.00    -0.300 OA
ATOM     19  C   UNL     1      38.123  52.256  25.059  1.00  0.00     0.087 C 
ENDBRANCH  16  17
ENDBRANCH  15  16
ENDBRANCH  13  15
ENDBRANCH  11  12
ENDBRANCH   1  11
TORSDOF 9
ENDMDL
