MODEL 1
REMARK VINA RESULT:    -4.282      0.000      0.000
REMARK INTER + INTRA:         -11.307
REMARK INTER:                  -8.287
REMARK INTRA:                  -3.020
REMARK UNBOUND:                -3.020
REMARK SMILES CCCCCCCCCCCCCCCCCC(=O)[O-]
REMARK SMILES IDX 10 1 11 2 12 3 13 4 14 5 15 6 16 7 17 8 18 9 19 10 20 11
REMARK SMILES IDX 9 12 8 13 7 14 6 15 5 16 4 17 3 18 2 19 1 20
REMARK H PARENT
REMARK Flexibility Score: inf
ROOT
ATOM      1  C   UNL     1     206.030 203.980 159.323  1.00  0.00     0.000 C 
ENDROOT
BRANCH   1   2
ATOM      2  C   UNL     1     204.937 204.140 158.259  1.00  0.00     0.000 C 
BRANCH   2   3
ATOM      3  C   UNL     1     204.773 205.609 157.854  1.00  0.00     0.000 C 
BRANCH   3   4
ATOM      4  C   UNL     1     203.829 205.745 156.650  1.00  0.00     0.000 C 
BRANCH   4   5
ATOM      5  C   UNL     1     203.996 207.083 155.913  1.00  0.00     0.000 C 
BRANCH   5   6
ATOM      6  C   UNL     1     205.414 207.659 156.044  1.00  0.00     0.000 C 
BRANCH   6   7
ATOM      7  C   UNL     1     205.369 209.140 156.450  1.00  0.00     0.006 C 
BRANCH   7   8
ATOM      8  C   UNL     1     205.953 209.377 157.848  1.00  0.00     0.053 C 
BRANCH   8   9
ATOM      9  C   UNL     1     204.878 209.528 158.880  1.00  0.00     0.041 C 
ATOM     10  O   UNL     1     204.264 210.620 159.002  1.00  0.00    -0.550 OA
ATOM     11  O   UNL     1     204.579 208.471 159.731  1.00  0.00    -0.550 OA
ENDBRANCH   8   9
ENDBRANCH   7   8
ENDBRANCH   6   7
ENDBRANCH   5   6
ENDBRANCH   4   5
ENDBRANCH   3   4
ENDBRANCH   2   3
ENDBRANCH   1   2
BRANCH   1  12
ATOM     12  C   UNL     1     206.698 205.325 159.634  1.00  0.00     0.000 C 
BRANCH  12  13
ATOM     13  C   UNL     1     208.128 205.371 159.077  1.00  0.00    -0.000 C 
BRANCH  13  14
ATOM     14  C   UNL     1     208.396 206.633 158.242  1.00  0.00    -0.000 C 
BRANCH  14  15
ATOM     15  C   UNL     1     208.589 206.324 156.748  1.00  0.00    -0.000 C 
BRANCH  15  16
ATOM     16  C   UNL     1     208.193 204.883 156.382  1.00  0.00    -0.000 C 
BRANCH  16  17
ATOM     17  C   UNL     1     207.133 204.761 155.270  1.00  0.00    -0.000 C 
BRANCH  17  18
ATOM     18  C   UNL     1     206.577 203.342 155.051  1.00  0.00    -0.000 C 
BRANCH  18  19
ATOM     19  C   UNL     1     207.467 202.253 155.667  1.00  0.00    -0.003 C 
ATOM     20  C   UNL     1     206.702 201.442 156.709  1.00  0.00     0.004 C 
ENDBRANCH  18  19
ENDBRANCH  17  18
ENDBRANCH  16  17
ENDBRANCH  15  16
ENDBRANCH  14  15
ENDBRANCH  13  14
ENDBRANCH  12  13
ENDBRANCH   1  12
TORSDOF 16
ENDMDL
MODEL 2
REMARK VINA RESULT:    -4.252      3.129      6.025
REMARK INTER + INTRA:         -11.249
REMARK INTER:                  -8.206
REMARK INTRA:                  -3.043
REMARK UNBOUND:                -3.020
REMARK SMILES CCCCCCCCCCCCCCCCCC(=O)[O-]
REMARK SMILES IDX 10 1 11 2 12 3 13 4 14 5 15 6 16 7 17 8 18 9 19 10 20 11
REMARK SMILES IDX 9 12 8 13 7 14 6 15 5 16 4 17 3 18 2 19 1 20
REMARK H PARENT
REMARK Flexibility Score: inf
ROOT
ATOM      1  C   UNL     1     208.509 206.597 158.405  1.00  0.00     0.000 C 
ENDROOT
BRANCH   1   2
ATOM      2  C   UNL     1     208.233 205.494 159.433  1.00  0.00     0.000 C 
BRANCH   2   3
ATOM      3  C   UNL     1     206.733 205.380 159.732  1.00  0.00     0.000 C 
BRANCH   3   4
ATOM      4  C   UNL     1     206.198 203.995 159.339  1.00  0.00     0.000 C 
BRANCH   4   5
ATOM      5  C   UNL     1     205.241 204.048 158.137  1.00  0.00     0.000 C 
BRANCH   5   6
ATOM      6  C   UNL     1     205.774 203.273 156.923  1.00  0.00     0.000 C 
BRANCH   6   7
ATOM      7  C   UNL     1     206.884 202.296 157.338  1.00  0.00     0.006 C 
BRANCH   7   8
ATOM      8  C   UNL     1     206.426 200.834 157.273  1.00  0.00     0.053 C 
BRANCH   8   9
ATOM      9  C   UNL     1     206.615 200.134 158.584  1.00  0.00     0.041 C 
ATOM     10  O   UNL     1     207.360 199.122 158.662  1.00  0.00    -0.550 OA
ATOM     11  O   UNL     1     205.941 200.582 159.714  1.00  0.00    -0.550 OA
ENDBRANCH   8   9
ENDBRANCH   7   8
ENDBRANCH   6   7
ENDBRANCH   5   6
ENDBRANCH   4   5
ENDBRANCH   3   4
ENDBRANCH   2   3
ENDBRANCH   1   2
BRANCH   1  12
ATOM     12  C   UNL     1     208.613 206.018 156.989  1.00  0.00     0.000 C 
BRANCH  12  13
ATOM     13  C   UNL     1     208.930 207.119 155.966  1.00  0.00    -0.000 C 
BRANCH  13  14
ATOM     14  C   UNL     1     207.959 207.117 154.776  1.00  0.00    -0.000 C 
BRANCH  14  15
ATOM     15  C   UNL     1     206.837 206.076 154.930  1.00  0.00    -0.000 C 
BRANCH  15  16
ATOM     16  C   UNL     1     205.435 206.709 154.930  1.00  0.00    -0.000 C 
BRANCH  16  17
ATOM     17  C   UNL     1     205.288 207.969 155.806  1.00  0.00    -0.000 C 
BRANCH  17  18
ATOM     18  C   UNL     1     205.109 207.701 157.311  1.00  0.00    -0.000 C 
BRANCH  18  19
ATOM     19  C   UNL     1     205.720 208.802 158.189  1.00  0.00    -0.003 C 
ATOM     20  C   UNL     1     206.620 209.722 157.369  1.00  0.00     0.004 C 
ENDBRANCH  18  19
ENDBRANCH  17  18
ENDBRANCH  16  17
ENDBRANCH  15  16
ENDBRANCH  14  15
ENDBRANCH  13  14
ENDBRANCH  12  13
ENDBRANCH   1  12
TORSDOF 16
ENDMDL
MODEL 3
REMARK VINA RESULT:    -4.245      2.856      6.176
REMARK INTER + INTRA:         -11.236
REMARK INTER:                  -8.279
REMARK INTRA:                  -2.957
REMARK UNBOUND:                -3.020
REMARK SMILES CCCCCCCCCCCCCCCCCC(=O)[O-]
REMARK SMILES IDX 10 1 11 2 12 3 13 4 14 5 15 6 16 7 17 8 18 9 19 10 20 11
REMARK SMILES IDX 9 12 8 13 7 14 6 15 5 16 4 17 3 18 2 19 1 20
REMARK H PARENT
REMARK Flexibility Score: inf
ROOT
ATOM      1  C   UNL     1     208.484 206.303 156.219  1.00  0.00     0.000 C 
ENDROOT
BRANCH   1   2
ATOM      2  C   UNL     1     208.732 207.389 157.273  1.00  0.00     0.000 C 
BRANCH   2   3
ATOM      3  C   UNL     1     208.555 206.833 158.691  1.00  0.00     0.000 C 
BRANCH   3   4
ATOM      4  C   UNL     1     208.216 205.336 158.655  1.00  0.00     0.000 C 
BRANCH   4   5
ATOM      5  C   UNL     1     207.185 204.935 159.722  1.00  0.00     0.000 C 
BRANCH   5   6
ATOM      6  C   UNL     1     206.296 203.765 159.277  1.00  0.00     0.000 C 
BRANCH   6   7
ATOM      7  C   UNL     1     206.037 203.817 157.763  1.00  0.00     0.006 C 
BRANCH   7   8
ATOM      8  C   UNL     1     206.358 202.486 157.073  1.00  0.00     0.053 C 
BRANCH   8   9
ATOM      9  C   UNL     1     207.230 202.680 155.870  1.00  0.00     0.041 C 
ATOM     10  O   UNL     1     206.717 202.922 154.746  1.00  0.00    -0.550 OA
ATOM     11  O   UNL     1     208.610 202.561 155.986  1.00  0.00    -0.550 OA
ENDBRANCH   8   9
ENDBRANCH   7   8
ENDBRANCH   6   7
ENDBRANCH   5   6
ENDBRANCH   4   5
ENDBRANCH   3   4
ENDBRANCH   2   3
ENDBRANCH   1   2
BRANCH   1  12
ATOM     12  C   UNL     1     207.714 206.864 155.018  1.00  0.00     0.000 C 
BRANCH  12  13
ATOM     13  C   UNL     1     206.292 206.289 154.958  1.00  0.00    -0.000 C 
BRANCH  13  14
ATOM     14  C   UNL     1     205.248 207.230 155.578  1.00  0.00    -0.000 C 
BRANCH  14  15
ATOM     15  C   UNL     1     204.086 206.470 156.240  1.00  0.00    -0.000 C 
BRANCH  15  16
ATOM     16  C   UNL     1     204.065 206.630 157.770  1.00  0.00    -0.000 C 
BRANCH  16  17
ATOM     17  C   UNL     1     205.092 207.632 158.335  1.00  0.00    -0.000 C 
BRANCH  17  18
ATOM     18  C   UNL     1     204.500 208.741 159.222  1.00  0.00    -0.000 C 
BRANCH  18  19
ATOM     19  C   UNL     1     205.220 210.087 159.052  1.00  0.00    -0.003 C 
ATOM     20  C   UNL     1     206.319 209.992 157.997  1.00  0.00     0.004 C 
ENDBRANCH  18  19
ENDBRANCH  17  18
ENDBRANCH  16  17
ENDBRANCH  15  16
ENDBRANCH  14  15
ENDBRANCH  13  14
ENDBRANCH  12  13
ENDBRANCH   1  12
TORSDOF 16
ENDMDL
MODEL 4
REMARK VINA RESULT:    -4.212      1.307      3.013
REMARK INTER + INTRA:         -11.171
REMARK INTER:                  -8.346
REMARK INTRA:                  -2.825
REMARK UNBOUND:                -3.020
REMARK SMILES CCCCCCCCCCCCCCCCCC(=O)[O-]
REMARK SMILES IDX 10 1 11 2 12 3 13 4 14 5 15 6 16 7 17 8 18 9 19 10 20 11
REMARK SMILES IDX 9 12 8 13 7 14 6 15 5 16 4 17 3 18 2 19 1 20
REMARK H PARENT
REMARK Flexibility Score: inf
ROOT
ATOM      1  C   UNL     1     208.562 207.169 158.334  1.00  0.00     0.000 C 
ENDROOT
BRANCH   1   2
ATOM      2  C   UNL     1     208.899 207.513 156.878  1.00  0.00     0.000 C 
BRANCH   2   3
ATOM      3  C   UNL     1     208.648 206.313 155.956  1.00  0.00     0.000 C 
BRANCH   3   4
ATOM      4  C   UNL     1     207.524 206.616 154.955  1.00  0.00     0.000 C 
BRANCH   4   5
ATOM      5  C   UNL     1     206.168 206.038 155.392  1.00  0.00     0.000 C 
BRANCH   5   6
ATOM      6  C   UNL     1     205.087 207.117 155.548  1.00  0.00     0.000 C 
BRANCH   6   7
ATOM      7  C   UNL     1     205.208 207.825 156.906  1.00  0.00     0.006 C 
BRANCH   7   8
ATOM      8  C   UNL     1     205.607 209.299 156.759  1.00  0.00     0.053 C 
BRANCH   8   9
ATOM      9  C   UNL     1     205.954 209.914 158.080  1.00  0.00     0.041 C 
ATOM     10  O   UNL     1     205.138 209.864 159.038  1.00  0.00    -0.550 OA
ATOM     11  O   UNL     1     207.167 210.572 158.242  1.00  0.00    -0.550 OA
ENDBRANCH   8   9
ENDBRANCH   7   8
ENDBRANCH   6   7
ENDBRANCH   5   6
ENDBRANCH   4   5
ENDBRANCH   3   4
ENDBRANCH   2   3
ENDBRANCH   1   2
BRANCH   1  12
ATOM     12  C   UNL     1     208.173 205.692 158.476  1.00  0.00     0.000 C 
BRANCH  12  13
ATOM     13  C   UNL     1     206.841 205.543 159.225  1.00  0.00    -0.000 C 
BRANCH  13  14
ATOM     14  C   UNL     1     206.369 204.083 159.304  1.00  0.00    -0.000 C 
BRANCH  14  15
ATOM     15  C   UNL     1     205.810 203.569 157.966  1.00  0.00    -0.000 C 
BRANCH  15  16
ATOM     16  C   UNL     1     206.367 202.188 157.580  1.00  0.00    -0.000 C 
BRANCH  16  17
ATOM     17  C   UNL     1     206.390 201.894 156.067  1.00  0.00    -0.000 C 
BRANCH  17  18
ATOM     18  C   UNL     1     207.507 202.603 155.281  1.00  0.00    -0.000 C 
BRANCH  18  19
ATOM     19  C   UNL     1     208.772 202.832 156.120  1.00  0.00    -0.003 C 
ATOM     20  C   UNL     1     209.992 202.195 155.460  1.00  0.00     0.004 C 
ENDBRANCH  18  19
ENDBRANCH  17  18
ENDBRANCH  16  17
ENDBRANCH  15  16
ENDBRANCH  14  15
ENDBRANCH  13  14
ENDBRANCH  12  13
ENDBRANCH   1  12
TORSDOF 16
ENDMDL
MODEL 5
REMARK VINA RESULT:    -4.211      3.830      5.985
REMARK INTER + INTRA:         -11.170
REMARK INTER:                  -8.078
REMARK INTRA:                  -3.093
REMARK UNBOUND:                -3.020
REMARK SMILES CCCCCCCCCCCCCCCCCC(=O)[O-]
REMARK SMILES IDX 10 1 11 2 12 3 13 4 14 5 15 6 16 7 17 8 18 9 19 10 20 11
REMARK SMILES IDX 9 12 8 13 7 14 6 15 5 16 4 17 3 18 2 19 1 20
REMARK H PARENT
REMARK Flexibility Score: inf
ROOT
ATOM      1  C   UNL     1     206.375 204.811 159.161  1.00  0.00     0.000 C 
ENDROOT
BRANCH   1   2
ATOM      2  C   UNL     1     205.488 203.789 158.439  1.00  0.00     0.000 C 
BRANCH   2   3
ATOM      3  C   UNL     1     206.006 202.361 158.653  1.00  0.00     0.000 C 
BRANCH   3   4
ATOM      4  C   UNL     1     206.388 201.710 157.315  1.00  0.00     0.000 C 
BRANCH   4   5
ATOM      5  C   UNL     1     206.225 202.665 156.122  1.00  0.00     0.000 C 
BRANCH   5   6
ATOM      6  C   UNL     1     207.534 202.873 155.346  1.00  0.00     0.000 C 
BRANCH   6   7
ATOM      7  C   UNL     1     208.694 202.119 156.014  1.00  0.00     0.006 C 
BRANCH   7   8
ATOM      8  C   UNL     1     210.046 202.802 155.775  1.00  0.00     0.053 C 
BRANCH   8   9
ATOM      9  C   UNL     1     210.826 202.125 154.690  1.00  0.00     0.041 C 
ATOM     10  O   UNL     1     210.301 201.205 154.010  1.00  0.00    -0.550 OA
ATOM     11  O   UNL     1     212.146 202.490 154.453  1.00  0.00    -0.550 OA
ENDBRANCH   8   9
ENDBRANCH   7   8
ENDBRANCH   6   7
ENDBRANCH   5   6
ENDBRANCH   4   5
ENDBRANCH   3   4
ENDBRANCH   2   3
ENDBRANCH   1   2
BRANCH   1  12
ATOM     12  C   UNL     1     207.714 204.988 158.436  1.00  0.00     0.000 C 
BRANCH  12  13
ATOM     13  C   UNL     1     208.375 206.321 158.818  1.00  0.00    -0.000 C 
BRANCH  13  14
ATOM     14  C   UNL     1     208.742 207.170 157.592  1.00  0.00    -0.000 C 
BRANCH  14  15
ATOM     15  C   UNL     1     208.456 206.448 156.264  1.00  0.00    -0.000 C 
BRANCH  15  16
ATOM     16  C   UNL     1     207.308 207.095 155.471  1.00  0.00    -0.000 C 
BRANCH  16  17
ATOM     17  C   UNL     1     205.992 206.292 155.457  1.00  0.00    -0.000 C 
BRANCH  17  18
ATOM     18  C   UNL     1     204.906 206.802 156.421  1.00  0.00    -0.000 C 
BRANCH  18  19
ATOM     19  C   UNL     1     205.313 208.092 157.147  1.00  0.00    -0.003 C 
ATOM     20  C   UNL     1     204.868 208.064 158.607  1.00  0.00     0.004 C 
ENDBRANCH  18  19
ENDBRANCH  17  18
ENDBRANCH  16  17
ENDBRANCH  15  16
ENDBRANCH  14  15
ENDBRANCH  13  14
ENDBRANCH  12  13
ENDBRANCH   1  12
TORSDOF 16
ENDMDL
MODEL 6
REMARK VINA RESULT:    -4.211      1.284      2.804
REMARK INTER + INTRA:         -11.169
REMARK INTER:                  -8.291
REMARK INTRA:                  -2.878
REMARK UNBOUND:                -3.020
REMARK SMILES CCCCCCCCCCCCCCCCCC(=O)[O-]
REMARK SMILES IDX 10 1 11 2 12 3 13 4 14 5 15 6 16 7 17 8 18 9 19 10 20 11
REMARK SMILES IDX 9 12 8 13 7 14 6 15 5 16 4 17 3 18 2 19 1 20
REMARK H PARENT
REMARK Flexibility Score: inf
ROOT
ATOM      1  C   UNL     1     208.385 207.603 156.664  1.00  0.00     0.000 C 
ENDROOT
BRANCH   1   2
ATOM      2  C   UNL     1     208.253 206.380 155.748  1.00  0.00     0.000 C 
BRANCH   2   3
ATOM      3  C   UNL     1     206.903 206.380 155.020  1.00  0.00     0.000 C 
BRANCH   3   4
ATOM      4  C   UNL     1     205.889 207.281 155.742  1.00  0.00     0.000 C 
BRANCH   4   5
ATOM      5  C   UNL     1     204.573 206.555 156.062  1.00  0.00     0.000 C 
BRANCH   5   6
ATOM      6  C   UNL     1     204.104 206.787 157.506  1.00  0.00     0.000 C 
BRANCH   6   7
ATOM      7  C   UNL     1     205.081 207.702 158.260  1.00  0.00     0.006 C 
BRANCH   7   8
ATOM      8  C   UNL     1     204.396 208.474 159.394  1.00  0.00     0.053 C 
BRANCH   8   9
ATOM      9  C   UNL     1     204.502 209.955 159.200  1.00  0.00     0.041 C 
ATOM     10  O   UNL     1     205.613 210.483 158.931  1.00  0.00    -0.550 OA
ATOM     11  O   UNL     1     203.377 210.757 159.350  1.00  0.00    -0.550 OA
ENDBRANCH   8   9
ENDBRANCH   7   8
ENDBRANCH   6   7
ENDBRANCH   5   6
ENDBRANCH   4   5
ENDBRANCH   3   4
ENDBRANCH   2   3
ENDBRANCH   1   2
BRANCH   1  12
ATOM     12  C   UNL     1     208.662 207.180 158.111  1.00  0.00     0.000 C 
BRANCH  12  13
ATOM     13  C   UNL     1     208.249 205.721 158.348  1.00  0.00    -0.000 C 
BRANCH  13  14
ATOM     14  C   UNL     1     207.452 205.536 159.648  1.00  0.00    -0.000 C 
BRANCH  14  15
ATOM     15  C   UNL     1     206.770 204.160 159.734  1.00  0.00    -0.000 C 
BRANCH  15  16
ATOM     16  C   UNL     1     205.694 203.961 158.654  1.00  0.00    -0.000 C 
BRANCH  16  17
ATOM     17  C   UNL     1     205.923 202.756 157.719  1.00  0.00    -0.000 C 
BRANCH  17  18
ATOM     18  C   UNL     1     206.250 203.117 156.259  1.00  0.00    -0.000 C 
BRANCH  18  19
ATOM     19  C   UNL     1     207.349 202.229 155.658  1.00  0.00    -0.003 C 
ATOM     20  C   UNL     1     208.735 202.806 155.936  1.00  0.00     0.004 C 
ENDBRANCH  18  19
ENDBRANCH  17  18
ENDBRANCH  16  17
ENDBRANCH  15  16
ENDBRANCH  14  15
ENDBRANCH  13  14
ENDBRANCH  12  13
ENDBRANCH   1  12
TORSDOF 16
ENDMDL
MODEL 7
REMARK VINA RESULT:    -4.173      3.015      5.899
REMARK INTER + INTRA:         -11.096
REMARK INTER:                  -8.318
REMARK INTRA:                  -2.778
REMARK UNBOUND:                -3.020
REMARK SMILES CCCCCCCCCCCCCCCCCC(=O)[O-]
REMARK SMILES IDX 10 1 11 2 12 3 13 4 14 5 15 6 16 7 17 8 18 9 19 10 20 11
REMARK SMILES IDX 9 12 8 13 7 14 6 15 5 16 4 17 3 18 2 19 1 20
REMARK H PARENT
REMARK Flexibility Score: inf
ROOT
ATOM      1  C   UNL     1     208.918 207.132 158.377  1.00  0.00     0.000 C 
ENDROOT
BRANCH   1   2
ATOM      2  C   UNL     1     208.217 205.772 158.266  1.00  0.00     0.000 C 
BRANCH   2   3
ATOM      3  C   UNL     1     206.830 205.813 158.919  1.00  0.00     0.000 C 
BRANCH   3   4
ATOM      4  C   UNL     1     206.533 204.500 159.658  1.00  0.00     0.000 C 
BRANCH   4   5
ATOM      5  C   UNL     1     206.000 203.401 158.725  1.00  0.00     0.000 C 
BRANCH   5   6
ATOM      6  C   UNL     1     205.376 203.966 157.441  1.00  0.00     0.000 C 
BRANCH   6   7
ATOM      7  C   UNL     1     205.926 203.245 156.200  1.00  0.00     0.006 C 
BRANCH   7   8
ATOM      8  C   UNL     1     207.069 202.283 156.546  1.00  0.00     0.053 C 
BRANCH   8   9
ATOM      9  C   UNL     1     208.237 202.454 155.624  1.00  0.00     0.041 C 
ATOM     10  O   UNL     1     208.253 201.876 154.506  1.00  0.00    -0.550 OA
ATOM     11  O   UNL     1     209.323 203.228 156.015  1.00  0.00    -0.550 OA
ENDBRANCH   8   9
ENDBRANCH   7   8
ENDBRANCH   6   7
ENDBRANCH   5   6
ENDBRANCH   4   5
ENDBRANCH   3   4
ENDBRANCH   2   3
ENDBRANCH   1   2
BRANCH   1  12
ATOM     12  C   UNL     1     209.074 207.785 156.998  1.00  0.00     0.000 C 
BRANCH  12  13
ATOM     13  C   UNL     1     209.086 206.728 155.885  1.00  0.00    -0.000 C 
BRANCH  13  14
ATOM     14  C   UNL     1     208.114 207.062 154.743  1.00  0.00    -0.000 C 
BRANCH  14  15
ATOM     15  C   UNL     1     206.797 206.273 154.836  1.00  0.00    -0.000 C 
BRANCH  15  16
ATOM     16  C   UNL     1     205.570 207.183 155.020  1.00  0.00    -0.000 C 
BRANCH  16  17
ATOM     17  C   UNL     1     205.346 207.693 156.457  1.00  0.00    -0.000 C 
BRANCH  17  18
ATOM     18  C   UNL     1     205.626 209.191 156.670  1.00  0.00    -0.000 C 
BRANCH  18  19
ATOM     19  C   UNL     1     205.914 209.541 158.137  1.00  0.00    -0.003 C 
ATOM     20  C   UNL     1     207.096 210.501 158.250  1.00  0.00     0.004 C 
ENDBRANCH  18  19
ENDBRANCH  17  18
ENDBRANCH  16  17
ENDBRANCH  15  16
ENDBRANCH  14  15
ENDBRANCH  13  14
ENDBRANCH  12  13
ENDBRANCH   1  12
TORSDOF 16
ENDMDL
MODEL 8
REMARK VINA RESULT:    -4.163      1.156      3.493
REMARK INTER + INTRA:         -11.078
REMARK INTER:                  -8.359
REMARK INTRA:                  -2.719
REMARK UNBOUND:                -3.020
REMARK SMILES CCCCCCCCCCCCCCCCCC(=O)[O-]
REMARK SMILES IDX 10 1 11 2 12 3 13 4 14 5 15 6 16 7 17 8 18 9 19 10 20 11
REMARK SMILES IDX 9 12 8 13 7 14 6 15 5 16 4 17 3 18 2 19 1 20
REMARK H PARENT
REMARK Flexibility Score: inf
ROOT
ATOM      1  C   UNL     1     206.004 206.086 154.801  1.00  0.00     0.000 C 
ENDROOT
BRANCH   1   2
ATOM      2  C   UNL     1     207.320 206.797 155.137  1.00  0.00     0.000 C 
BRANCH   2   3
ATOM      3  C   UNL     1     208.224 205.905 155.998  1.00  0.00     0.000 C 
BRANCH   3   4
ATOM      4  C   UNL     1     208.608 206.613 157.306  1.00  0.00     0.000 C 
BRANCH   4   5
ATOM      5  C   UNL     1     207.559 207.644 157.752  1.00  0.00     0.000 C 
BRANCH   5   6
ATOM      6  C   UNL     1     208.136 209.063 157.870  1.00  0.00     0.000 C 
BRANCH   6   7
ATOM      7  C   UNL     1     207.015 210.114 157.859  1.00  0.00     0.006 C 
BRANCH   7   8
ATOM      8  C   UNL     1     205.633 209.487 157.641  1.00  0.00     0.053 C 
BRANCH   8   9
ATOM      9  C   UNL     1     204.762 209.628 158.852  1.00  0.00     0.041 C 
ATOM     10  O   UNL     1     204.163 210.711 159.080  1.00  0.00    -0.550 OA
ATOM     11  O   UNL     1     204.640 208.571 159.745  1.00  0.00    -0.550 OA
ENDBRANCH   8   9
ENDBRANCH   7   8
ENDBRANCH   6   7
ENDBRANCH   5   6
ENDBRANCH   4   5
ENDBRANCH   3   4
ENDBRANCH   2   3
ENDBRANCH   1   2
BRANCH   1  12
ATOM     12  C   UNL     1     204.797 206.929 155.232  1.00  0.00     0.000 C 
BRANCH  12  13
ATOM     13  C   UNL     1     204.134 206.341 156.485  1.00  0.00    -0.000 C 
BRANCH  13  14
ATOM     14  C   UNL     1     204.520 204.874 156.724  1.00  0.00    -0.000 C 
BRANCH  14  15
ATOM     15  C   UNL     1     205.079 204.631 158.137  1.00  0.00    -0.000 C 
BRANCH  15  16
ATOM     16  C   UNL     1     206.350 203.764 158.133  1.00  0.00    -0.000 C 
BRANCH  16  17
ATOM     17  C   UNL     1     206.101 202.243 158.136  1.00  0.00    -0.000 C 
BRANCH  17  18
ATOM     18  C   UNL     1     206.507 201.513 156.843  1.00  0.00    -0.000 C 
BRANCH  18  19
ATOM     19  C   UNL     1     207.102 202.457 155.788  1.00  0.00    -0.003 C 
ATOM     20  C   UNL     1     208.608 202.249 155.653  1.00  0.00     0.004 C 
ENDBRANCH  18  19
ENDBRANCH  17  18
ENDBRANCH  16  17
ENDBRANCH  15  16
ENDBRANCH  14  15
ENDBRANCH  13  14
ENDBRANCH  12  13
ENDBRANCH   1  12
TORSDOF 16
ENDMDL
MODEL 9
REMARK VINA RESULT:    -4.080      1.591      3.350
REMARK INTER + INTRA:         -10.915
REMARK INTER:                  -7.998
REMARK INTRA:                  -2.917
REMARK UNBOUND:                -3.020
REMARK SMILES CCCCCCCCCCCCCCCCCC(=O)[O-]
REMARK SMILES IDX 10 1 11 2 12 3 13 4 14 5 15 6 16 7 17 8 18 9 19 10 20 11
REMARK SMILES IDX 9 12 8 13 7 14 6 15 5 16 4 17 3 18 2 19 1 20
REMARK H PARENT
REMARK Flexibility Score: inf
ROOT
ATOM      1  C   UNL     1     208.058 205.513 158.349  1.00  0.00     0.000 C 
ENDROOT
BRANCH   1   2
ATOM      2  C   UNL     1     208.670 206.915 158.240  1.00  0.00     0.000 C 
BRANCH   2   3
ATOM      3  C   UNL     1     208.970 207.273 156.780  1.00  0.00     0.000 C 
BRANCH   3   4
ATOM      4  C   UNL     1     208.388 206.221 155.825  1.00  0.00     0.000 C 
BRANCH   4   5
ATOM      5  C   UNL     1     207.808 206.839 154.543  1.00  0.00     0.000 C 
BRANCH   5   6
ATOM      6  C   UNL     1     206.341 206.451 154.309  1.00  0.00     0.000 C 
BRANCH   6   7
ATOM      7  C   UNL     1     205.689 205.957 155.609  1.00  0.00     0.006 C 
BRANCH   7   8
ATOM      8  C   UNL     1     204.649 206.945 156.150  1.00  0.00     0.053 C 
BRANCH   8   9
ATOM      9  C   UNL     1     205.235 207.858 157.183  1.00  0.00     0.041 C 
ATOM     10  O   UNL     1     205.841 208.905 156.833  1.00  0.00    -0.550 OA
ATOM     11  O   UNL     1     205.141 207.534 158.531  1.00  0.00    -0.550 OA
ENDBRANCH   8   9
ENDBRANCH   7   8
ENDBRANCH   6   7
ENDBRANCH   5   6
ENDBRANCH   4   5
ENDBRANCH   3   4
ENDBRANCH   2   3
ENDBRANCH   1   2
BRANCH   1  12
ATOM     12  C   UNL     1     207.550 205.242 159.770  1.00  0.00     0.000 C 
BRANCH  12  13
ATOM     13  C   UNL     1     206.450 204.170 159.767  1.00  0.00    -0.000 C 
BRANCH  13  14
ATOM     14  C   UNL     1     206.112 203.677 158.352  1.00  0.00    -0.000 C 
BRANCH  14  15
ATOM     15  C   UNL     1     205.956 202.148 158.280  1.00  0.00    -0.000 C 
BRANCH  15  16
ATOM     16  C   UNL     1     206.665 201.534 157.061  1.00  0.00    -0.000 C 
BRANCH  16  17
ATOM     17  C   UNL     1     206.715 202.437 155.812  1.00  0.00    -0.000 C 
BRANCH  17  18
ATOM     18  C   UNL     1     208.056 202.433 155.057  1.00  0.00    -0.000 C 
BRANCH  18  19
ATOM     19  C   UNL     1     209.268 202.512 155.995  1.00  0.00    -0.003 C 
ATOM     20  C   UNL     1     210.570 202.295 155.230  1.00  0.00     0.004 C 
ENDBRANCH  18  19
ENDBRANCH  17  18
ENDBRANCH  16  17
ENDBRANCH  15  16
ENDBRANCH  14  15
ENDBRANCH  13  14
ENDBRANCH  12  13
ENDBRANCH   1  12
TORSDOF 16
ENDMDL
