MODEL 1
REMARK VINA RESULT:    -3.059      0.000      0.000
REMARK INTER + INTRA:          -9.976
REMARK INTER:                  -6.635
REMARK INTRA:                  -3.341
REMARK UNBOUND:                -3.341
REMARK SMILES CCCCCCCCCCCCCCCCCCCCCC(=O)[O-]
REMARK SMILES IDX 12 1 11 2 10 3 9 4 8 5 7 6 6 7 5 8 4 9 3 10 2 11 1 12 13 13
REMARK SMILES IDX 14 14 15 15 16 16 17 17 18 18 19 19 20 20 21 21 22 22 23 23
REMARK SMILES IDX 24 24
REMARK H PARENT
REMARK Flexibility Score: inf
ROOT
ATOM      1  C   UNL     1       5.334  -0.333  15.931  1.00  0.00     0.000 C 
ENDROOT
BRANCH   1   2
ATOM      2  C   UNL     1       5.175  -1.652  16.707  1.00  0.00     0.000 C 
BRANCH   2   3
ATOM      3  C   UNL     1       5.043  -1.500  18.234  1.00  0.00     0.000 C 
BRANCH   3   4
ATOM      4  C   UNL     1       6.178  -2.189  19.007  1.00  0.00    -0.000 C 
BRANCH   4   5
ATOM      5  C   UNL     1       7.177  -1.156  19.551  1.00  0.00    -0.000 C 
BRANCH   5   6
ATOM      6  C   UNL     1       8.552  -1.768  19.868  1.00  0.00    -0.000 C 
BRANCH   6   7
ATOM      7  C   UNL     1       8.457  -3.246  20.288  1.00  0.00    -0.000 C 
BRANCH   7   8
ATOM      8  C   UNL     1       9.407  -4.148  19.483  1.00  0.00    -0.000 C 
BRANCH   8   9
ATOM      9  C   UNL     1       8.711  -4.836  18.299  1.00  0.00    -0.000 C 
BRANCH   9  10
ATOM     10  C   UNL     1       9.272  -4.330  16.964  1.00  0.00    -0.000 C 
BRANCH  10  11
ATOM     11  C   UNL     1       8.271  -3.405  16.261  1.00  0.00    -0.003 C 
ATOM     12  C   UNL     1       8.825  -1.989  16.135  1.00  0.00     0.004 C 
ENDBRANCH  10  11
ENDBRANCH   9  10
ENDBRANCH   8   9
ENDBRANCH   7   8
ENDBRANCH   6   7
ENDBRANCH   5   6
ENDBRANCH   4   5
ENDBRANCH   3   4
ENDBRANCH   2   3
ENDBRANCH   1   2
BRANCH   1  13
ATOM     13  C   UNL     1       5.846   0.822  16.811  1.00  0.00     0.000 C 
BRANCH  13  14
ATOM     14  C   UNL     1       5.000   2.097  16.668  1.00  0.00     0.000 C 
BRANCH  14  15
ATOM     15  C   UNL     1       4.280   2.487  17.971  1.00  0.00     0.000 C 
BRANCH  15  16
ATOM     16  C   UNL     1       3.012   1.649  18.206  1.00  0.00     0.000 C 
BRANCH  16  17
ATOM     17  C   UNL     1       1.724   2.446  17.927  1.00  0.00     0.000 C 
BRANCH  17  18
ATOM     18  C   UNL     1       1.158   2.185  16.523  1.00  0.00     0.000 C 
BRANCH  18  19
ATOM     19  C   UNL     1       1.603   3.237  15.495  1.00  0.00     0.000 C 
BRANCH  19  20
ATOM     20  C   UNL     1       2.107   2.570  14.211  1.00  0.00     0.006 C 
BRANCH  20  21
ATOM     21  C   UNL     1       2.315   1.067  14.419  1.00  0.00     0.053 C 
BRANCH  21  22
ATOM     22  C   UNL     1       2.551   0.383  13.109  1.00  0.00     0.041 C 
ATOM     23  O   UNL     1       2.838  -0.842  13.074  1.00  0.00    -0.550 OA
ATOM     24  O   UNL     1       2.488   1.110  11.926  1.00  0.00    -0.550 OA
ENDBRANCH  21  22
ENDBRANCH  20  21
ENDBRANCH  19  20
ENDBRANCH  18  19
ENDBRANCH  17  18
ENDBRANCH  16  17
ENDBRANCH  15  16
ENDBRANCH  14  15
ENDBRANCH  13  14
ENDBRANCH   1  13
TORSDOF 20
ENDMDL
MODEL 2
REMARK VINA RESULT:    -3.043      5.684      8.177
REMARK INTER + INTRA:          -9.942
REMARK INTER:                  -5.961
REMARK INTRA:                  -3.981
REMARK UNBOUND:                -3.341
REMARK SMILES CCCCCCCCCCCCCCCCCCCCCC(=O)[O-]
REMARK SMILES IDX 12 1 11 2 10 3 9 4 8 5 7 6 6 7 5 8 4 9 3 10 2 11 1 12 13 13
REMARK SMILES IDX 14 14 15 15 16 16 17 17 18 18 19 19 20 20 21 21 22 22 23 23
REMARK SMILES IDX 24 24
REMARK H PARENT
REMARK Flexibility Score: inf
ROOT
ATOM      1  C   UNL     1       7.021  -1.866  19.725  1.00  0.00     0.000 C 
ENDROOT
BRANCH   1   2
ATOM      2  C   UNL     1       6.659  -2.943  18.687  1.00  0.00     0.000 C 
BRANCH   2   3
ATOM      3  C   UNL     1       7.209  -2.697  17.270  1.00  0.00     0.000 C 
BRANCH   3   4
ATOM      4  C   UNL     1       8.191  -3.785  16.808  1.00  0.00    -0.000 C 
BRANCH   4   5
ATOM      5  C   UNL     1       8.216  -4.958  17.801  1.00  0.00    -0.000 C 
BRANCH   5   6
ATOM      6  C   UNL     1       9.619  -5.224  18.372  1.00  0.00    -0.000 C 
BRANCH   6   7
ATOM      7  C   UNL     1       9.651  -5.162  19.909  1.00  0.00    -0.000 C 
BRANCH   7   8
ATOM      8  C   UNL     1      10.080  -3.781  20.433  1.00  0.00    -0.000 C 
BRANCH   8   9
ATOM      9  C   UNL     1      11.021  -3.046  19.466  1.00  0.00    -0.000 C 
BRANCH   9  10
ATOM     10  C   UNL     1      10.596  -1.582  19.295  1.00  0.00    -0.000 C 
BRANCH  10  11
ATOM     11  C   UNL     1      10.608  -1.175  17.817  1.00  0.00    -0.003 C 
ATOM     12  C   UNL     1       9.738   0.055  17.578  1.00  0.00     0.004 C 
ENDBRANCH  10  11
ENDBRANCH   9  10
ENDBRANCH   8   9
ENDBRANCH   7   8
ENDBRANCH   6   7
ENDBRANCH   5   6
ENDBRANCH   4   5
ENDBRANCH   3   4
ENDBRANCH   2   3
ENDBRANCH   1   2
BRANCH   1  13
ATOM     13  C   UNL     1       6.478  -0.474  19.357  1.00  0.00     0.000 C 
BRANCH  13  14
ATOM     14  C   UNL     1       7.104   0.649  20.200  1.00  0.00     0.000 C 
BRANCH  14  15
ATOM     15  C   UNL     1       7.883   0.121  21.417  1.00  0.00     0.000 C 
BRANCH  15  16
ATOM     16  C   UNL     1       9.223   0.852  21.609  1.00  0.00     0.000 C 
BRANCH  16  17
ATOM     17  C   UNL     1       9.851   0.569  22.986  1.00  0.00     0.000 C 
BRANCH  17  18
ATOM     18  C   UNL     1      10.676  -0.727  23.006  1.00  0.00     0.000 C 
BRANCH  18  19
ATOM     19  C   UNL     1       9.986  -1.863  23.778  1.00  0.00     0.000 C 
BRANCH  19  20
ATOM     20  C   UNL     1       9.201  -1.312  24.974  1.00  0.00     0.006 C 
BRANCH  20  21
ATOM     21  C   UNL     1       7.710  -1.639  24.847  1.00  0.00     0.053 C 
BRANCH  21  22
ATOM     22  C   UNL     1       7.314  -2.680  25.847  1.00  0.00     0.041 C 
ATOM     23  O   UNL     1       8.176  -3.187  26.612  1.00  0.00    -0.550 OA
ATOM     24  O   UNL     1       5.996  -3.117  25.909  1.00  0.00    -0.550 OA
ENDBRANCH  21  22
ENDBRANCH  20  21
ENDBRANCH  19  20
ENDBRANCH  18  19
ENDBRANCH  17  18
ENDBRANCH  16  17
ENDBRANCH  15  16
ENDBRANCH  14  15
ENDBRANCH  13  14
ENDBRANCH   1  13
TORSDOF 20
ENDMDL
MODEL 3
REMARK VINA RESULT:    -3.028      3.699      7.391
REMARK INTER + INTRA:          -9.910
REMARK INTER:                  -7.209
REMARK INTRA:                  -2.701
REMARK UNBOUND:                -3.341
REMARK SMILES CCCCCCCCCCCCCCCCCCCCCC(=O)[O-]
REMARK SMILES IDX 12 1 11 2 10 3 9 4 8 5 7 6 6 7 5 8 4 9 3 10 2 11 1 12 13 13
REMARK SMILES IDX 14 14 15 15 16 16 17 17 18 18 19 19 20 20 21 21 22 22 23 23
REMARK SMILES IDX 24 24
REMARK H PARENT
REMARK Flexibility Score: inf
ROOT
ATOM      1  C   UNL     1       8.504  -6.085  18.358  1.00  0.00     0.000 C 
ENDROOT
BRANCH   1   2
ATOM      2  C   UNL     1       8.969  -5.451  17.035  1.00  0.00     0.000 C 
BRANCH   2   3
ATOM      3  C   UNL     1       9.444  -6.450  15.963  1.00  0.00     0.000 C 
BRANCH   3   4
ATOM      4  C   UNL     1      10.894  -6.913  16.173  1.00  0.00    -0.000 C 
BRANCH   4   5
ATOM      5  C   UNL     1      10.986  -8.447  16.172  1.00  0.00    -0.000 C 
BRANCH   5   6
ATOM      6  C   UNL     1      10.107  -9.097  17.253  1.00  0.00    -0.000 C 
BRANCH   6   7
ATOM      7  C   UNL     1       9.267 -10.265  16.706  1.00  0.00    -0.000 C 
BRANCH   7   8
ATOM      8  C   UNL     1       7.799 -10.196  17.157  1.00  0.00    -0.000 C 
BRANCH   8   9
ATOM      9  C   UNL     1       7.073  -8.951  16.627  1.00  0.00    -0.000 C 
BRANCH   9  10
ATOM     10  C   UNL     1       6.913  -9.016  15.103  1.00  0.00    -0.000 C 
BRANCH  10  11
ATOM     11  C   UNL     1       5.698  -9.867  14.714  1.00  0.00    -0.003 C 
ATOM     12  C   UNL     1       4.906  -9.212  13.586  1.00  0.00     0.004 C 
ENDBRANCH  10  11
ENDBRANCH   9  10
ENDBRANCH   8   9
ENDBRANCH   7   8
ENDBRANCH   6   7
ENDBRANCH   5   6
ENDBRANCH   4   5
ENDBRANCH   3   4
ENDBRANCH   2   3
ENDBRANCH   1   2
BRANCH   1  13
ATOM     13  C   UNL     1       9.600  -6.090  19.438  1.00  0.00     0.000 C 
BRANCH  13  14
ATOM     14  C   UNL     1      10.491  -4.838  19.386  1.00  0.00     0.000 C 
BRANCH  14  15
ATOM     15  C   UNL     1      10.659  -4.164  20.759  1.00  0.00     0.000 C 
BRANCH  15  16
ATOM     16  C   UNL     1       9.954  -2.799  20.826  1.00  0.00     0.000 C 
BRANCH  16  17
ATOM     17  C   UNL     1       9.054  -2.545  19.602  1.00  0.00     0.000 C 
BRANCH  17  18
ATOM     18  C   UNL     1       7.584  -2.317  19.985  1.00  0.00     0.000 C 
BRANCH  18  19
ATOM     19  C   UNL     1       6.603  -3.001  19.020  1.00  0.00     0.000 C 
BRANCH  19  20
ATOM     20  C   UNL     1       5.684  -1.972  18.352  1.00  0.00     0.006 C 
BRANCH  20  21
ATOM     21  C   UNL     1       6.481  -1.035  17.441  1.00  0.00     0.053 C 
BRANCH  21  22
ATOM     22  C   UNL     1       6.100  -1.246  16.009  1.00  0.00     0.041 C 
ATOM     23  O   UNL     1       5.055  -1.884  15.717  1.00  0.00    -0.550 OA
ATOM     24  O   UNL     1       6.920  -0.766  14.995  1.00  0.00    -0.550 OA
ENDBRANCH  21  22
ENDBRANCH  20  21
ENDBRANCH  19  20
ENDBRANCH  18  19
ENDBRANCH  17  18
ENDBRANCH  16  17
ENDBRANCH  15  16
ENDBRANCH  14  15
ENDBRANCH  13  14
ENDBRANCH   1  13
TORSDOF 20
ENDMDL
MODEL 4
REMARK VINA RESULT:    -3.025      8.486     12.722
REMARK INTER + INTRA:          -9.903
REMARK INTER:                  -6.540
REMARK INTRA:                  -3.363
REMARK UNBOUND:                -3.341
REMARK SMILES CCCCCCCCCCCCCCCCCCCCCC(=O)[O-]
REMARK SMILES IDX 12 1 11 2 10 3 9 4 8 5 7 6 6 7 5 8 4 9 3 10 2 11 1 12 13 13
REMARK SMILES IDX 14 14 15 15 16 16 17 17 18 18 19 19 20 20 21 21 22 22 23 23
REMARK SMILES IDX 24 24
REMARK H PARENT
REMARK Flexibility Score: inf
ROOT
ATOM      1  C   UNL     1      -3.741  -2.463  22.357  1.00  0.00     0.000 C 
ENDROOT
BRANCH   1   2
ATOM      2  C   UNL     1      -5.045  -3.049  21.787  1.00  0.00     0.000 C 
BRANCH   2   3
ATOM      3  C   UNL     1      -5.228  -2.881  20.267  1.00  0.00     0.000 C 
BRANCH   3   4
ATOM      4  C   UNL     1      -6.571  -2.235  19.891  1.00  0.00    -0.000 C 
BRANCH   4   5
ATOM      5  C   UNL     1      -6.626  -0.772  20.357  1.00  0.00    -0.000 C 
BRANCH   5   6
ATOM      6  C   UNL     1      -5.727   0.154  19.520  1.00  0.00    -0.000 C 
BRANCH   6   7
ATOM      7  C   UNL     1      -6.517   1.287  18.842  1.00  0.00    -0.000 C 
BRANCH   7   8
ATOM      8  C   UNL     1      -6.063   2.681  19.307  1.00  0.00    -0.000 C 
BRANCH   8   9
ATOM      9  C   UNL     1      -4.918   2.622  20.329  1.00  0.00    -0.000 C 
BRANCH   9  10
ATOM     10  C   UNL     1      -5.278   3.396  21.603  1.00  0.00    -0.000 C 
BRANCH  10  11
ATOM     11  C   UNL     1      -5.546   2.440  22.771  1.00  0.00    -0.003 C 
ATOM     12  C   UNL     1      -7.009   2.009  22.805  1.00  0.00     0.004 C 
ENDBRANCH  10  11
ENDBRANCH   9  10
ENDBRANCH   8   9
ENDBRANCH   7   8
ENDBRANCH   6   7
ENDBRANCH   5   6
ENDBRANCH   4   5
ENDBRANCH   3   4
ENDBRANCH   2   3
ENDBRANCH   1   2
BRANCH   1  13
ATOM     13  C   UNL     1      -3.890  -0.998  22.804  1.00  0.00     0.000 C 
BRANCH  13  14
ATOM     14  C   UNL     1      -2.947  -0.048  22.048  1.00  0.00     0.000 C 
BRANCH  14  15
ATOM     15  C   UNL     1      -2.365  -0.674  20.768  1.00  0.00     0.000 C 
BRANCH  15  16
ATOM     16  C   UNL     1      -0.835  -0.541  20.701  1.00  0.00     0.000 C 
BRANCH  16  17
ATOM     17  C   UNL     1      -0.118  -1.577  21.587  1.00  0.00     0.000 C 
BRANCH  17  18
ATOM     18  C   UNL     1       0.402  -0.974  22.902  1.00  0.00     0.000 C 
BRANCH  18  19
ATOM     19  C   UNL     1      -0.185  -1.660  24.145  1.00  0.00     0.000 C 
BRANCH  19  20
ATOM     20  C   UNL     1      -0.409  -3.155  23.893  1.00  0.00     0.006 C 
BRANCH  20  21
ATOM     21  C   UNL     1       0.893  -3.942  24.073  1.00  0.00     0.053 C 
BRANCH  21  22
ATOM     22  C   UNL     1       0.600  -5.384  24.347  1.00  0.00     0.041 C 
ATOM     23  O   UNL     1       1.131  -6.285  23.647  1.00  0.00    -0.550 OA
ATOM     24  O   UNL     1      -0.289  -5.731  25.358  1.00  0.00    -0.550 OA
ENDBRANCH  21  22
ENDBRANCH  20  21
ENDBRANCH  19  20
ENDBRANCH  18  19
ENDBRANCH  17  18
ENDBRANCH  16  17
ENDBRANCH  15  16
ENDBRANCH  14  15
ENDBRANCH  13  14
ENDBRANCH   1  13
TORSDOF 20
ENDMDL
MODEL 5
REMARK VINA RESULT:    -3.009      6.084      8.762
REMARK INTER + INTRA:          -9.869
REMARK INTER:                  -6.902
REMARK INTRA:                  -2.966
REMARK UNBOUND:                -3.341
REMARK SMILES CCCCCCCCCCCCCCCCCCCCCC(=O)[O-]
REMARK SMILES IDX 12 1 11 2 10 3 9 4 8 5 7 6 6 7 5 8 4 9 3 10 2 11 1 12 13 13
REMARK SMILES IDX 14 14 15 15 16 16 17 17 18 18 19 19 20 20 21 21 22 22 23 23
REMARK SMILES IDX 24 24
REMARK H PARENT
REMARK Flexibility Score: inf
ROOT
ATOM      1  C   UNL     1       7.401  -1.472  20.049  1.00  0.00     0.000 C 
ENDROOT
BRANCH   1   2
ATOM      2  C   UNL     1       7.335  -2.799  19.272  1.00  0.00     0.000 C 
BRANCH   2   3
ATOM      3  C   UNL     1       7.200  -2.655  17.744  1.00  0.00     0.000 C 
BRANCH   3   4
ATOM      4  C   UNL     1       8.444  -3.139  16.983  1.00  0.00    -0.000 C 
BRANCH   4   5
ATOM      5  C   UNL     1       9.728  -2.798  17.755  1.00  0.00    -0.000 C 
BRANCH   5   6
ATOM      6  C   UNL     1      10.714  -3.976  17.820  1.00  0.00    -0.000 C 
BRANCH   6   7
ATOM      7  C   UNL     1      10.926  -4.489  19.256  1.00  0.00    -0.000 C 
BRANCH   7   8
ATOM      8  C   UNL     1       9.711  -5.264  19.789  1.00  0.00    -0.000 C 
BRANCH   8   9
ATOM      9  C   UNL     1       9.491  -6.598  19.060  1.00  0.00    -0.000 C 
BRANCH   9  10
ATOM     10  C   UNL     1       8.205  -6.562  18.226  1.00  0.00    -0.000 C 
BRANCH  10  11
ATOM     11  C   UNL     1       8.328  -7.452  16.984  1.00  0.00    -0.003 C 
ATOM     12  C   UNL     1       9.203  -6.795  15.921  1.00  0.00     0.004 C 
ENDBRANCH  10  11
ENDBRANCH   9  10
ENDBRANCH   8   9
ENDBRANCH   7   8
ENDBRANCH   6   7
ENDBRANCH   5   6
ENDBRANCH   4   5
ENDBRANCH   3   4
ENDBRANCH   2   3
ENDBRANCH   1   2
BRANCH   1  13
ATOM     13  C   UNL     1       8.242  -1.573  21.334  1.00  0.00     0.000 C 
BRANCH  13  14
ATOM     14  C   UNL     1       9.733  -1.293  21.091  1.00  0.00     0.000 C 
BRANCH  14  15
ATOM     15  C   UNL     1      10.651  -2.041  22.074  1.00  0.00     0.000 C 
BRANCH  15  16
ATOM     16  C   UNL     1      10.005  -2.209  23.459  1.00  0.00     0.000 C 
BRANCH  16  17
ATOM     17  C   UNL     1      10.258  -0.996  24.374  1.00  0.00     0.000 C 
BRANCH  17  18
ATOM     18  C   UNL     1       8.997  -0.147  24.596  1.00  0.00     0.000 C 
BRANCH  18  19
ATOM     19  C   UNL     1       7.813  -0.966  25.131  1.00  0.00     0.000 C 
BRANCH  19  20
ATOM     20  C   UNL     1       8.041  -1.369  26.592  1.00  0.00     0.006 C 
BRANCH  20  21
ATOM     21  C   UNL     1       6.805  -2.065  27.169  1.00  0.00     0.053 C 
BRANCH  21  22
ATOM     22  C   UNL     1       6.569  -3.372  26.480  1.00  0.00     0.041 C 
ATOM     23  O   UNL     1       7.384  -4.320  26.620  1.00  0.00    -0.550 OA
ATOM     24  O   UNL     1       5.463  -3.530  25.653  1.00  0.00    -0.550 OA
ENDBRANCH  21  22
ENDBRANCH  20  21
ENDBRANCH  19  20
ENDBRANCH  18  19
ENDBRANCH  17  18
ENDBRANCH  16  17
ENDBRANCH  15  16
ENDBRANCH  14  15
ENDBRANCH  13  14
ENDBRANCH   1  13
TORSDOF 20
ENDMDL
MODEL 6
REMARK VINA RESULT:    -2.955      2.718      8.376
REMARK INTER + INTRA:          -9.751
REMARK INTER:                  -7.040
REMARK INTRA:                  -2.711
REMARK UNBOUND:                -3.341
REMARK SMILES CCCCCCCCCCCCCCCCCCCCCC(=O)[O-]
REMARK SMILES IDX 12 1 11 2 10 3 9 4 8 5 7 6 6 7 5 8 4 9 3 10 2 11 1 12 13 13
REMARK SMILES IDX 14 14 15 15 16 16 17 17 18 18 19 19 20 20 21 21 22 22 23 23
REMARK SMILES IDX 24 24
REMARK H PARENT
REMARK Flexibility Score: inf
ROOT
ATOM      1  C   UNL     1       7.966  -2.543  20.390  1.00  0.00     0.000 C 
ENDROOT
BRANCH   1   2
ATOM      2  C   UNL     1       6.666  -2.668  19.576  1.00  0.00     0.000 C 
BRANCH   2   3
ATOM      3  C   UNL     1       6.165  -1.358  18.939  1.00  0.00     0.000 C 
BRANCH   3   4
ATOM      4  C   UNL     1       5.098  -1.586  17.858  1.00  0.00    -0.000 C 
BRANCH   4   5
ATOM      5  C   UNL     1       5.738  -1.669  16.463  1.00  0.00    -0.000 C 
BRANCH   5   6
ATOM      6  C   UNL     1       6.222  -0.303  15.949  1.00  0.00    -0.000 C 
BRANCH   6   7
ATOM      7  C   UNL     1       5.060   0.619  15.538  1.00  0.00    -0.000 C 
BRANCH   7   8
ATOM      8  C   UNL     1       4.208   0.022  14.405  1.00  0.00    -0.000 C 
BRANCH   8   9
ATOM      9  C   UNL     1       3.181   1.019  13.848  1.00  0.00    -0.000 C 
BRANCH   9  10
ATOM     10  C   UNL     1       3.072   2.256  14.747  1.00  0.00    -0.000 C 
BRANCH  10  11
ATOM     11  C   UNL     1       1.632   2.459  15.233  1.00  0.00    -0.003 C 
ATOM     12  C   UNL     1       1.482   2.057  16.697  1.00  0.00     0.004 C 
ENDBRANCH  10  11
ENDBRANCH   9  10
ENDBRANCH   8   9
ENDBRANCH   7   8
ENDBRANCH   6   7
ENDBRANCH   5   6
ENDBRANCH   4   5
ENDBRANCH   3   4
ENDBRANCH   2   3
ENDBRANCH   1   2
BRANCH   1  13
ATOM     13  C   UNL     1       9.087  -1.823  19.620  1.00  0.00     0.000 C 
BRANCH  13  14
ATOM     14  C   UNL     1      10.427  -2.572  19.685  1.00  0.00     0.000 C 
BRANCH  14  15
ATOM     15  C   UNL     1      10.430  -3.707  20.725  1.00  0.00     0.000 C 
BRANCH  15  16
ATOM     16  C   UNL     1      10.977  -5.023  20.147  1.00  0.00     0.000 C 
BRANCH  16  17
ATOM     17  C   UNL     1       9.891  -6.109  20.036  1.00  0.00     0.000 C 
BRANCH  17  18
ATOM     18  C   UNL     1       9.503  -6.412  18.581  1.00  0.00     0.000 C 
BRANCH  18  19
ATOM     19  C   UNL     1       8.210  -5.703  18.148  1.00  0.00     0.000 C 
BRANCH  19  20
ATOM     20  C   UNL     1       8.510  -4.576  17.153  1.00  0.00     0.006 C 
BRANCH  20  21
ATOM     21  C   UNL     1       9.885  -4.767  16.507  1.00  0.00     0.053 C 
BRANCH  21  22
ATOM     22  C   UNL     1       9.742  -5.081  15.051  1.00  0.00     0.041 C 
ATOM     23  O   UNL     1       9.141  -4.284  14.285  1.00  0.00    -0.550 OA
ATOM     24  O   UNL     1      10.244  -6.275  14.547  1.00  0.00    -0.550 OA
ENDBRANCH  21  22
ENDBRANCH  20  21
ENDBRANCH  19  20
ENDBRANCH  18  19
ENDBRANCH  17  18
ENDBRANCH  16  17
ENDBRANCH  15  16
ENDBRANCH  14  15
ENDBRANCH  13  14
ENDBRANCH   1  13
TORSDOF 20
ENDMDL
MODEL 7
REMARK VINA RESULT:    -2.943      2.069      4.260
REMARK INTER + INTRA:          -9.725
REMARK INTER:                  -6.444
REMARK INTRA:                  -3.281
REMARK UNBOUND:                -3.341
REMARK SMILES CCCCCCCCCCCCCCCCCCCCCC(=O)[O-]
REMARK SMILES IDX 12 1 11 2 10 3 9 4 8 5 7 6 6 7 5 8 4 9 3 10 2 11 1 12 13 13
REMARK SMILES IDX 14 14 15 15 16 16 17 17 18 18 19 19 20 20 21 21 22 22 23 23
REMARK SMILES IDX 24 24
REMARK H PARENT
REMARK Flexibility Score: inf
ROOT
ATOM      1  C   UNL     1       7.867  -2.749  20.692  1.00  0.00     0.000 C 
ENDROOT
BRANCH   1   2
ATOM      2  C   UNL     1       9.200  -2.106  20.272  1.00  0.00     0.000 C 
BRANCH   2   3
ATOM      3  C   UNL     1      10.235  -1.949  21.402  1.00  0.00     0.000 C 
BRANCH   3   4
ATOM      4  C   UNL     1      11.125  -3.188  21.578  1.00  0.00    -0.000 C 
BRANCH   4   5
ATOM      5  C   UNL     1      11.110  -4.060  20.313  1.00  0.00    -0.000 C 
BRANCH   5   6
ATOM      6  C   UNL     1      10.643  -5.499  20.587  1.00  0.00    -0.000 C 
BRANCH   6   7
ATOM      7  C   UNL     1       9.632  -6.000  19.540  1.00  0.00    -0.000 C 
BRANCH   7   8
ATOM      8  C   UNL     1       9.797  -5.302  18.181  1.00  0.00    -0.000 C 
BRANCH   8   9
ATOM      9  C   UNL     1       8.468  -5.147  17.427  1.00  0.00    -0.000 C 
BRANCH   9  10
ATOM     10  C   UNL     1       8.465  -3.872  16.575  1.00  0.00    -0.000 C 
BRANCH  10  11
ATOM     11  C   UNL     1       9.785  -3.108  16.723  1.00  0.00    -0.003 C 
ATOM     12  C   UNL     1       9.569  -1.604  16.588  1.00  0.00     0.004 C 
ENDBRANCH  10  11
ENDBRANCH   9  10
ENDBRANCH   8   9
ENDBRANCH   7   8
ENDBRANCH   6   7
ENDBRANCH   5   6
ENDBRANCH   4   5
ENDBRANCH   3   4
ENDBRANCH   2   3
ENDBRANCH   1   2
BRANCH   1  13
ATOM     13  C   UNL     1       6.816  -2.738  19.567  1.00  0.00     0.000 C 
BRANCH  13  14
ATOM     14  C   UNL     1       6.416  -1.316  19.143  1.00  0.00     0.000 C 
BRANCH  14  15
ATOM     15  C   UNL     1       5.157  -1.286  18.258  1.00  0.00     0.000 C 
BRANCH  15  16
ATOM     16  C   UNL     1       5.488  -1.493  16.771  1.00  0.00     0.000 C 
BRANCH  16  17
ATOM     17  C   UNL     1       6.157  -0.256  16.143  1.00  0.00     0.000 C 
BRANCH  17  18
ATOM     18  C   UNL     1       5.853  -0.115  14.643  1.00  0.00     0.000 C 
BRANCH  18  19
ATOM     19  C   UNL     1       4.347  -0.051  14.343  1.00  0.00     0.000 C 
BRANCH  19  20
ATOM     20  C   UNL     1       3.858   1.402  14.303  1.00  0.00     0.006 C 
BRANCH  20  21
ATOM     21  C   UNL     1       2.719   1.625  15.300  1.00  0.00     0.053 C 
BRANCH  21  22
ATOM     22  C   UNL     1       3.256   2.107  16.611  1.00  0.00     0.041 C 
ATOM     23  O   UNL     1       3.975   3.139  16.663  1.00  0.00    -0.550 OA
ATOM     24  O   UNL     1       2.990   1.394  17.774  1.00  0.00    -0.550 OA
ENDBRANCH  21  22
ENDBRANCH  20  21
ENDBRANCH  19  20
ENDBRANCH  18  19
ENDBRANCH  17  18
ENDBRANCH  16  17
ENDBRANCH  15  16
ENDBRANCH  14  15
ENDBRANCH  13  14
ENDBRANCH   1  13
TORSDOF 20
ENDMDL
MODEL 8
REMARK VINA RESULT:    -2.879      1.877      3.718
REMARK INTER + INTRA:          -9.587
REMARK INTER:                  -5.455
REMARK INTRA:                  -4.133
REMARK UNBOUND:                -3.341
REMARK SMILES CCCCCCCCCCCCCCCCCCCCCC(=O)[O-]
REMARK SMILES IDX 12 1 11 2 10 3 9 4 8 5 7 6 6 7 5 8 4 9 3 10 2 11 1 12 13 13
REMARK SMILES IDX 14 14 15 15 16 16 17 17 18 18 19 19 20 20 21 21 22 22 23 23
REMARK SMILES IDX 24 24
REMARK H PARENT
REMARK Flexibility Score: inf
ROOT
ATOM      1  C   UNL     1       5.148  -1.632  18.465  1.00  0.00     0.000 C 
ENDROOT
BRANCH   1   2
ATOM      2  C   UNL     1       6.454  -2.438  18.353  1.00  0.00     0.000 C 
BRANCH   2   3
ATOM      3  C   UNL     1       6.951  -2.680  16.915  1.00  0.00     0.000 C 
BRANCH   3   4
ATOM      4  C   UNL     1       8.422  -2.287  16.714  1.00  0.00    -0.000 C 
BRANCH   4   5
ATOM      5  C   UNL     1       9.110  -3.230  15.714  1.00  0.00    -0.000 C 
BRANCH   5   6
ATOM      6  C   UNL     1       9.163  -4.685  16.207  1.00  0.00    -0.000 C 
BRANCH   6   7
ATOM      7  C   UNL     1      10.261  -4.911  17.261  1.00  0.00    -0.000 C 
BRANCH   7   8
ATOM      8  C   UNL     1       9.730  -5.611  18.523  1.00  0.00    -0.000 C 
BRANCH   8   9
ATOM      9  C   UNL     1       9.227  -4.621  19.584  1.00  0.00    -0.000 C 
BRANCH   9  10
ATOM     10  C   UNL     1      10.312  -3.596  19.937  1.00  0.00    -0.000 C 
BRANCH  10  11
ATOM     11  C   UNL     1       9.697  -2.227  20.245  1.00  0.00    -0.003 C 
ATOM     12  C   UNL     1      10.465  -1.108  19.547  1.00  0.00     0.004 C 
ENDBRANCH  10  11
ENDBRANCH   9  10
ENDBRANCH   8   9
ENDBRANCH   7   8
ENDBRANCH   6   7
ENDBRANCH   5   6
ENDBRANCH   4   5
ENDBRANCH   3   4
ENDBRANCH   2   3
ENDBRANCH   1   2
BRANCH   1  13
ATOM     13  C   UNL     1       5.386  -0.155  18.830  1.00  0.00     0.000 C 
BRANCH  13  14
ATOM     14  C   UNL     1       6.735   0.073  19.531  1.00  0.00     0.000 C 
BRANCH  14  15
ATOM     15  C   UNL     1       7.570   1.187  18.875  1.00  0.00     0.000 C 
BRANCH  15  16
ATOM     16  C   UNL     1       6.916   1.723  17.591  1.00  0.00     0.000 C 
BRANCH  16  17
ATOM     17  C   UNL     1       7.635   1.233  16.320  1.00  0.00     0.000 C 
BRANCH  17  18
ATOM     18  C   UNL     1       6.787   1.416  15.052  1.00  0.00     0.000 C 
BRANCH  18  19
ATOM     19  C   UNL     1       6.304   0.083  14.459  1.00  0.00     0.000 C 
BRANCH  19  20
ATOM     20  C   UNL     1       4.942  -0.313  15.042  1.00  0.00     0.006 C 
BRANCH  20  21
ATOM     21  C   UNL     1       4.035   0.911  15.198  1.00  0.00     0.053 C 
BRANCH  21  22
ATOM     22  C   UNL     1       3.027   0.960  14.094  1.00  0.00     0.041 C 
ATOM     23  O   UNL     1       2.549   2.063  13.718  1.00  0.00    -0.550 OA
ATOM     24  O   UNL     1       2.587  -0.218  13.502  1.00  0.00    -0.550 OA
ENDBRANCH  21  22
ENDBRANCH  20  21
ENDBRANCH  19  20
ENDBRANCH  18  19
ENDBRANCH  17  18
ENDBRANCH  16  17
ENDBRANCH  15  16
ENDBRANCH  14  15
ENDBRANCH  13  14
ENDBRANCH   1  13
TORSDOF 20
ENDMDL
MODEL 9
REMARK VINA RESULT:    -2.866      3.650      7.824
REMARK INTER + INTRA:          -9.559
REMARK INTER:                  -6.936
REMARK INTRA:                  -2.622
REMARK UNBOUND:                -3.341
REMARK SMILES CCCCCCCCCCCCCCCCCCCCCC(=O)[O-]
REMARK SMILES IDX 12 1 11 2 10 3 9 4 8 5 7 6 6 7 5 8 4 9 3 10 2 11 1 12 13 13
REMARK SMILES IDX 14 14 15 15 16 16 17 17 18 18 19 19 20 20 21 21 22 22 23 23
REMARK SMILES IDX 24 24
REMARK H PARENT
REMARK Flexibility Score: inf
ROOT
ATOM      1  C   UNL     1       9.053  -2.507  20.785  1.00  0.00     0.000 C 
ENDROOT
BRANCH   1   2
ATOM      2  C   UNL     1       9.424  -1.163  20.135  1.00  0.00     0.000 C 
BRANCH   2   3
ATOM      3  C   UNL     1       8.635   0.054  20.653  1.00  0.00     0.000 C 
BRANCH   3   4
ATOM      4  C   UNL     1       9.273   0.701  21.891  1.00  0.00    -0.000 C 
BRANCH   4   5
ATOM      5  C   UNL     1      10.741   0.271  22.041  1.00  0.00    -0.000 C 
BRANCH   5   6
ATOM      6  C   UNL     1      11.125  -0.038  23.497  1.00  0.00    -0.000 C 
BRANCH   6   7
ATOM      7  C   UNL     1      10.405  -1.283  24.046  1.00  0.00    -0.000 C 
BRANCH   7   8
ATOM      8  C   UNL     1       9.419  -0.943  25.176  1.00  0.00    -0.000 C 
BRANCH   8   9
ATOM      9  C   UNL     1       7.960  -1.239  24.799  1.00  0.00    -0.000 C 
BRANCH   9  10
ATOM     10  C   UNL     1       7.121  -1.541  26.047  1.00  0.00    -0.000 C 
BRANCH  10  11
ATOM     11  C   UNL     1       6.642  -2.997  26.050  1.00  0.00    -0.003 C 
ATOM     12  C   UNL     1       7.607  -3.893  26.821  1.00  0.00     0.004 C 
ENDBRANCH  10  11
ENDBRANCH   9  10
ENDBRANCH   8   9
ENDBRANCH   7   8
ENDBRANCH   6   7
ENDBRANCH   5   6
ENDBRANCH   4   5
ENDBRANCH   3   4
ENDBRANCH   2   3
ENDBRANCH   1   2
BRANCH   1  13
ATOM     13  C   UNL     1      10.278  -3.400  21.055  1.00  0.00     0.000 C 
BRANCH  13  14
ATOM     14  C   UNL     1      10.646  -4.281  19.851  1.00  0.00     0.000 C 
BRANCH  14  15
ATOM     15  C   UNL     1      10.461  -5.783  20.129  1.00  0.00     0.000 C 
BRANCH  15  16
ATOM     16  C   UNL     1       9.646  -6.481  19.027  1.00  0.00     0.000 C 
BRANCH  16  17
ATOM     17  C   UNL     1       8.489  -5.606  18.511  1.00  0.00     0.000 C 
BRANCH  17  18
ATOM     18  C   UNL     1       8.619  -5.274  17.016  1.00  0.00     0.000 C 
BRANCH  18  19
ATOM     19  C   UNL     1       8.534  -3.766  16.730  1.00  0.00     0.000 C 
BRANCH  19  20
ATOM     20  C   UNL     1       7.410  -3.117  17.544  1.00  0.00     0.006 C 
BRANCH  20  21
ATOM     21  C   UNL     1       7.108  -1.705  17.034  1.00  0.00     0.053 C 
BRANCH  21  22
ATOM     22  C   UNL     1       5.649  -1.554  16.741  1.00  0.00     0.041 C 
ATOM     23  O   UNL     1       5.181  -1.928  15.634  1.00  0.00    -0.550 OA
ATOM     24  O   UNL     1       4.810  -0.965  17.679  1.00  0.00    -0.550 OA
ENDBRANCH  21  22
ENDBRANCH  20  21
ENDBRANCH  19  20
ENDBRANCH  18  19
ENDBRANCH  17  18
ENDBRANCH  16  17
ENDBRANCH  15  16
ENDBRANCH  14  15
ENDBRANCH  13  14
ENDBRANCH   1  13
TORSDOF 20
ENDMDL
