MODEL 1
REMARK VINA RESULT:    -6.374      0.000      0.000
REMARK INTER + INTRA:          -9.998
REMARK INTER:                  -8.797
REMARK INTRA:                  -1.201
REMARK UNBOUND:                -1.201
REMARK SMILES O=C([O-])[C@@H]1O[C@@H](Oc2cc3oc(-c4ccccc4)cc(=O)c3c(O)c2O)[C@@H](O)[C@@H](O)[C@@H]1O
REMARK SMILES IDX 7 1 6 2 4 3 31 4 5 5 29 6 27 7 2 8 1 9 3 10 32 11 30 13
REMARK SMILES IDX 28 15 8 17 25 18 9 19 23 20 10 21 22 22 11 23 20 24 12 25
REMARK SMILES IDX 19 26 21 27 26 28 24 30 13 32 14 33 18 34 15 35 17 36 16 37
REMARK H PARENT 32 12 30 14 28 16 26 29 24 31
REMARK Flexibility Score: inf
ROOT
ATOM      1  O   UNL     1      22.826  28.969  24.559  1.00  0.00    -0.458 OA
ENDROOT
BRANCH   1   2
ATOM      2  C   UNL     1      21.673  29.794  24.791  1.00  0.00     0.339 C 
ATOM      3  C   UNL     1      22.264  30.151  27.036  1.00  0.00     0.199 C 
ATOM      4  C   UNL     1      21.037  29.390  27.589  1.00  0.00     0.180 C 
ATOM      5  O   UNL     1      21.965  30.762  25.788  1.00  0.00    -0.328 OA
ATOM      6  C   UNL     1      20.584  28.331  26.570  1.00  0.00     0.181 C 
ATOM      7  C   UNL     1      20.417  28.975  25.181  1.00  0.00     0.214 C 
BRANCH   3   8
ATOM      8  C   UNL     1      22.714  31.202  28.008  1.00  0.00     0.073 C 
ATOM      9  O   UNL     1      23.269  32.257  27.600  1.00  0.00    -0.547 OA
ATOM     10  O   UNL     1      22.470  31.038  29.367  1.00  0.00    -0.547 OA
ENDBRANCH   3   8
BRANCH   4  11
ATOM     11  O   UNL     1      19.974  30.280  27.828  1.00  0.00    -0.387 OA
ATOM     12  H   UNL     1      19.179  29.731  28.061  1.00  0.00     0.211 HD
ENDBRANCH   4  11
BRANCH   6  13
ATOM     13  O   UNL     1      21.521  27.285  26.503  1.00  0.00    -0.387 OA
ATOM     14  H   UNL     1      21.647  26.951  27.430  1.00  0.00     0.211 HD
ENDBRANCH   6  13
BRANCH   7  15
ATOM     15  O   UNL     1      20.141  27.999  24.211  1.00  0.00    -0.384 OA
ATOM     16  H   UNL     1      20.191  28.449  23.328  1.00  0.00     0.211 HD
ENDBRANCH   7  15
ENDBRANCH   1   2
BRANCH   1  17
ATOM     17  C   UNL     1      23.054  28.137  23.448  1.00  0.00     0.172 A 
ATOM     18  C   UNL     1      23.380  26.768  23.559  1.00  0.00     0.201 A 
ATOM     19  C   UNL     1      22.912  28.714  22.186  1.00  0.00     0.098 A 
ATOM     20  C   UNL     1      23.661  26.014  22.390  1.00  0.00     0.176 A 
ATOM     21  C   UNL     1      23.144  27.976  21.028  1.00  0.00     0.146 A 
ATOM     22  C   UNL     1      23.528  26.620  21.115  1.00  0.00     0.111 A 
ATOM     23  O   UNL     1      23.005  28.569  19.848  1.00  0.00    -0.456 OA
ATOM     24  C   UNL     1      23.767  25.934  19.904  1.00  0.00     0.197 A 
ATOM     25  C   UNL     1      23.210  27.949  18.689  1.00  0.00     0.138 A 
ATOM     26  C   UNL     1      23.609  26.602  18.690  1.00  0.00     0.100 A 
ATOM     27  O   UNL     1      24.124  24.726  19.891  1.00  0.00    -0.289 OA
BRANCH  18  28
ATOM     28  O   UNL     1      23.371  26.173  24.821  1.00  0.00    -0.502 OA
ATOM     29  H   UNL     1      22.572  26.154  25.439  1.00  0.00     0.293 HD
ENDBRANCH  18  28
BRANCH  20  30
ATOM     30  O   UNL     1      24.078  24.681  22.469  1.00  0.00    -0.504 OA
ATOM     31  H   UNL     1      24.136  24.054  21.679  1.00  0.00     0.293 HD
ENDBRANCH  20  30
BRANCH  25  32
ATOM     32  C   UNL     1      23.027  28.711  17.428  1.00  0.00     0.017 A 
ATOM     33  C   UNL     1      22.070  29.742  17.376  1.00  0.00     0.012 A 
ATOM     34  C   UNL     1      23.764  28.409  16.264  1.00  0.00     0.012 A 
ATOM     35  C   UNL     1      21.872  30.468  16.197  1.00  0.00     0.001 A 
ATOM     36  C   UNL     1      23.561  29.139  15.089  1.00  0.00     0.001 A 
ATOM     37  C   UNL     1      22.619  30.170  15.056  1.00  0.00     0.000 A 
ENDBRANCH  25  32
ENDBRANCH   1  17
TORSDOF 9
ENDMDL
MODEL 2
REMARK VINA RESULT:    -5.872      1.215      2.885
REMARK INTER + INTRA:          -9.305
REMARK INTER:                  -8.472
REMARK INTRA:                  -0.833
REMARK UNBOUND:                -1.201
REMARK SMILES O=C([O-])[C@@H]1O[C@@H](Oc2cc3oc(-c4ccccc4)cc(=O)c3c(O)c2O)[C@@H](O)[C@@H](O)[C@@H]1O
REMARK SMILES IDX 7 1 6 2 4 3 31 4 5 5 29 6 27 7 2 8 1 9 3 10 32 11 30 13
REMARK SMILES IDX 28 15 8 17 25 18 9 19 23 20 10 21 22 22 11 23 20 24 12 25
REMARK SMILES IDX 19 26 21 27 26 28 24 30 13 32 14 33 18 34 15 35 17 36 16 37
REMARK H PARENT 32 12 30 14 28 16 26 29 24 31
REMARK Flexibility Score: inf
ROOT
ATOM      1  O   UNL     1      23.719  28.223  25.798  1.00  0.00    -0.458 OA
ENDROOT
BRANCH   1   2
ATOM      2  C   UNL     1      22.797  28.109  26.895  1.00  0.00     0.339 C 
ATOM      3  C   UNL     1      21.029  28.985  25.621  1.00  0.00     0.199 C 
ATOM      4  C   UNL     1      20.903  30.262  26.483  1.00  0.00     0.180 C 
ATOM      5  O   UNL     1      21.484  27.887  26.401  1.00  0.00    -0.328 OA
ATOM      6  C   UNL     1      22.262  30.589  27.124  1.00  0.00     0.181 C 
ATOM      7  C   UNL     1      22.823  29.342  27.832  1.00  0.00     0.214 C 
BRANCH   3   8
ATOM      8  C   UNL     1      19.708  28.638  24.998  1.00  0.00     0.073 C 
ATOM      9  O   UNL     1      18.800  28.095  25.682  1.00  0.00    -0.547 OA
ATOM     10  O   UNL     1      19.462  28.966  23.670  1.00  0.00    -0.547 OA
ENDBRANCH   3   8
BRANCH   4  11
ATOM     11  O   UNL     1      19.950  30.076  27.502  1.00  0.00    -0.387 OA
ATOM     12  H   UNL     1      19.529  30.959  27.674  1.00  0.00     0.211 HD
ENDBRANCH   4  11
BRANCH   6  13
ATOM     13  O   UNL     1      23.169  31.034  26.146  1.00  0.00    -0.387 OA
ATOM     14  H   UNL     1      22.639  31.514  25.457  1.00  0.00     0.211 HD
ENDBRANCH   6  13
BRANCH   7  15
ATOM     15  O   UNL     1      24.124  29.580  28.301  1.00  0.00    -0.384 OA
ATOM     16  H   UNL     1      24.627  28.731  28.200  1.00  0.00     0.211 HD
ENDBRANCH   7  15
ENDBRANCH   1   2
BRANCH   1  17
ATOM     17  C   UNL     1      23.713  27.466  24.614  1.00  0.00     0.172 A 
ATOM     18  C   UNL     1      23.847  26.061  24.590  1.00  0.00     0.201 A 
ATOM     19  C   UNL     1      23.530  28.163  23.419  1.00  0.00     0.098 A 
ATOM     20  C   UNL     1      23.899  25.378  23.347  1.00  0.00     0.176 A 
ATOM     21  C   UNL     1      23.535  27.501  22.193  1.00  0.00     0.146 A 
ATOM     22  C   UNL     1      23.727  26.104  22.141  1.00  0.00     0.111 A 
ATOM     23  O   UNL     1      23.366  28.207  21.080  1.00  0.00    -0.456 OA
ATOM     24  C   UNL     1      23.743  25.498  20.866  1.00  0.00     0.197 A 
ATOM     25  C   UNL     1      23.363  27.666  19.865  1.00  0.00     0.138 A 
ATOM     26  C   UNL     1      23.561  26.282  19.726  1.00  0.00     0.100 A 
ATOM     27  O   UNL     1      23.919  24.258  20.728  1.00  0.00    -0.289 OA
BRANCH  18  28
ATOM     28  O   UNL     1      23.879  25.367  25.800  1.00  0.00    -0.502 OA
ATOM     29  H   UNL     1      24.561  24.660  26.037  1.00  0.00     0.293 HD
ENDBRANCH  18  28
BRANCH  20  30
ATOM     30  O   UNL     1      24.125  24.000  23.285  1.00  0.00    -0.504 OA
ATOM     31  H   UNL     1      24.969  23.576  22.925  1.00  0.00     0.293 HD
ENDBRANCH  20  30
BRANCH  25  32
ATOM     32  C   UNL     1      23.165  28.551  18.689  1.00  0.00     0.017 A 
ATOM     33  C   UNL     1      24.078  28.495  17.619  1.00  0.00     0.012 A 
ATOM     34  C   UNL     1      22.101  29.475  18.627  1.00  0.00     0.012 A 
ATOM     35  C   UNL     1      23.918  29.326  16.506  1.00  0.00     0.001 A 
ATOM     36  C   UNL     1      21.948  30.303  17.511  1.00  0.00     0.001 A 
ATOM     37  C   UNL     1      22.853  30.226  16.450  1.00  0.00     0.000 A 
ENDBRANCH  25  32
ENDBRANCH   1  17
TORSDOF 9
ENDMDL
MODEL 3
REMARK VINA RESULT:    -5.788      1.523      2.482
REMARK INTER + INTRA:          -9.189
REMARK INTER:                  -7.721
REMARK INTRA:                  -1.468
REMARK UNBOUND:                -1.201
REMARK SMILES O=C([O-])[C@@H]1O[C@@H](Oc2cc3oc(-c4ccccc4)cc(=O)c3c(O)c2O)[C@@H](O)[C@@H](O)[C@@H]1O
REMARK SMILES IDX 7 1 6 2 4 3 31 4 5 5 29 6 27 7 2 8 1 9 3 10 32 11 30 13
REMARK SMILES IDX 28 15 8 17 25 18 9 19 23 20 10 21 22 22 11 23 20 24 12 25
REMARK SMILES IDX 19 26 21 27 26 28 24 30 13 32 14 33 18 34 15 35 17 36 16 37
REMARK H PARENT 32 12 30 14 28 16 26 29 24 31
REMARK Flexibility Score: inf
ROOT
ATOM      1  O   UNL     1      22.501  28.770  25.431  1.00  0.00    -0.458 OA
ENDROOT
BRANCH   1   2
ATOM      2  C   UNL     1      23.431  29.340  26.367  1.00  0.00     0.339 C 
ATOM      3  C   UNL     1      22.268  28.451  28.205  1.00  0.00     0.199 C 
ATOM      4  C   UNL     1      21.856  29.839  28.747  1.00  0.00     0.180 C 
ATOM      5  O   UNL     1      23.514  28.520  27.524  1.00  0.00    -0.328 OA
ATOM      6  C   UNL     1      21.775  30.844  27.586  1.00  0.00     0.181 C 
ATOM      7  C   UNL     1      23.073  30.795  26.758  1.00  0.00     0.214 C 
BRANCH   3   8
ATOM      8  C   UNL     1      22.369  27.456  29.324  1.00  0.00     0.073 C 
ATOM      9  O   UNL     1      21.861  27.705  30.450  1.00  0.00    -0.547 OA
ATOM     10  O   UNL     1      22.979  26.227  29.105  1.00  0.00    -0.547 OA
ENDBRANCH   3   8
BRANCH   4  11
ATOM     11  O   UNL     1      22.796  30.299  29.687  1.00  0.00    -0.387 OA
ATOM     12  H   UNL     1      22.702  31.286  29.737  1.00  0.00     0.211 HD
ENDBRANCH   4  11
BRANCH   6  13
ATOM     13  O   UNL     1      20.671  30.556  26.765  1.00  0.00    -0.387 OA
ATOM     14  H   UNL     1      20.112  29.897  27.254  1.00  0.00     0.211 HD
ENDBRANCH   6  13
BRANCH   7  15
ATOM     15  O   UNL     1      22.962  31.602  25.615  1.00  0.00    -0.384 OA
ATOM     16  H   UNL     1      22.924  32.542  25.929  1.00  0.00     0.211 HD
ENDBRANCH   7  15
ENDBRANCH   1   2
BRANCH   1  17
ATOM     17  C   UNL     1      22.804  27.890  24.377  1.00  0.00     0.172 A 
ATOM     18  C   UNL     1      23.080  26.519  24.567  1.00  0.00     0.201 A 
ATOM     19  C   UNL     1      22.792  28.420  23.087  1.00  0.00     0.098 A 
ATOM     20  C   UNL     1      23.444  25.712  23.456  1.00  0.00     0.176 A 
ATOM     21  C   UNL     1      23.106  27.631  21.983  1.00  0.00     0.146 A 
ATOM     22  C   UNL     1      23.442  26.271  22.154  1.00  0.00     0.111 A 
ATOM     23  O   UNL     1      23.090  28.181  20.773  1.00  0.00    -0.456 OA
ATOM     24  C   UNL     1      23.769  25.533  20.995  1.00  0.00     0.197 A 
ATOM     25  C   UNL     1      23.381  27.511  19.661  1.00  0.00     0.138 A 
ATOM     26  C   UNL     1      23.739  26.156  19.748  1.00  0.00     0.100 A 
ATOM     27  O   UNL     1      24.092  24.316  21.059  1.00  0.00    -0.289 OA
BRANCH  18  28
ATOM     28  O   UNL     1      22.941  25.974  25.844  1.00  0.00    -0.502 OA
ATOM     29  H   UNL     1      22.860  26.517  26.691  1.00  0.00     0.293 HD
ENDBRANCH  18  28
BRANCH  20  30
ATOM     30  O   UNL     1      23.813  24.374  23.622  1.00  0.00    -0.504 OA
ATOM     31  H   UNL     1      24.682  23.977  23.292  1.00  0.00     0.293 HD
ENDBRANCH  20  30
BRANCH  25  32
ATOM     32  C   UNL     1      23.332  28.228  18.362  1.00  0.00     0.017 A 
ATOM     33  C   UNL     1      22.501  27.745  17.335  1.00  0.00     0.012 A 
ATOM     34  C   UNL     1      24.125  29.369  18.114  1.00  0.00     0.012 A 
ATOM     35  C   UNL     1      22.446  28.397  16.099  1.00  0.00     0.001 A 
ATOM     36  C   UNL     1      24.064  30.016  16.876  1.00  0.00     0.001 A 
ATOM     37  C   UNL     1      23.223  29.533  15.871  1.00  0.00     0.000 A 
ENDBRANCH  25  32
ENDBRANCH   1  17
TORSDOF 9
ENDMDL
MODEL 4
REMARK VINA RESULT:    -5.610      2.183      4.441
REMARK INTER + INTRA:          -8.942
REMARK INTER:                  -8.129
REMARK INTRA:                  -0.813
REMARK UNBOUND:                -1.201
REMARK SMILES O=C([O-])[C@@H]1O[C@@H](Oc2cc3oc(-c4ccccc4)cc(=O)c3c(O)c2O)[C@@H](O)[C@@H](O)[C@@H]1O
REMARK SMILES IDX 7 1 6 2 4 3 31 4 5 5 29 6 27 7 2 8 1 9 3 10 32 11 30 13
REMARK SMILES IDX 28 15 8 17 25 18 9 19 23 20 10 21 22 22 11 23 20 24 12 25
REMARK SMILES IDX 19 26 21 27 26 28 24 30 13 32 14 33 18 34 15 35 17 36 16 37
REMARK H PARENT 32 12 30 14 28 16 26 29 24 31
REMARK Flexibility Score: inf
ROOT
ATOM      1  O   UNL     1      20.744  29.565  27.939  1.00  0.00    -0.458 OA
ENDROOT
BRANCH   1   2
ATOM      2  C   UNL     1      21.121  29.847  29.297  1.00  0.00     0.339 C 
ATOM      3  C   UNL     1      19.405  31.432  29.543  1.00  0.00     0.199 C 
ATOM      4  C   UNL     1      20.382  32.619  29.700  1.00  0.00     0.180 C 
ATOM      5  O   UNL     1      19.977  30.231  30.046  1.00  0.00    -0.328 OA
ATOM      6  C   UNL     1      21.697  32.306  28.967  1.00  0.00     0.181 C 
ATOM      7  C   UNL     1      22.226  30.927  29.401  1.00  0.00     0.214 C 
BRANCH   3   8
ATOM      8  C   UNL     1      18.119  31.709  30.266  1.00  0.00     0.073 C 
ATOM      9  O   UNL     1      17.447  30.765  30.762  1.00  0.00    -0.547 OA
ATOM     10  O   UNL     1      17.691  33.019  30.439  1.00  0.00    -0.547 OA
ENDBRANCH   3   8
BRANCH   4  11
ATOM     11  O   UNL     1      20.660  32.851  31.060  1.00  0.00    -0.387 OA
ATOM     12  H   UNL     1      20.029  32.294  31.587  1.00  0.00     0.211 HD
ENDBRANCH   4  11
BRANCH   6  13
ATOM     13  O   UNL     1      21.497  32.326  27.575  1.00  0.00    -0.387 OA
ATOM     14  H   UNL     1      22.223  31.782  27.171  1.00  0.00     0.211 HD
ENDBRANCH   6  13
BRANCH   7  15
ATOM     15  O   UNL     1      23.348  30.563  28.640  1.00  0.00    -0.384 OA
ATOM     16  H   UNL     1      23.033  29.921  27.952  1.00  0.00     0.211 HD
ENDBRANCH   7  15
ENDBRANCH   1   2
BRANCH   1  17
ATOM     17  C   UNL     1      21.378  28.671  27.059  1.00  0.00     0.172 A 
ATOM     18  C   UNL     1      21.807  27.381  27.441  1.00  0.00     0.201 A 
ATOM     19  C   UNL     1      21.549  29.094  25.741  1.00  0.00     0.098 A 
ATOM     20  C   UNL     1      22.500  26.564  26.510  1.00  0.00     0.176 A 
ATOM     21  C   UNL     1      22.190  28.286  24.804  1.00  0.00     0.146 A 
ATOM     22  C   UNL     1      22.680  27.016  25.178  1.00  0.00     0.111 A 
ATOM     23  O   UNL     1      22.338  28.734  23.562  1.00  0.00    -0.456 OA
ATOM     24  C   UNL     1      23.338  26.257  24.186  1.00  0.00     0.197 A 
ATOM     25  C   UNL     1      22.942  28.039  22.601  1.00  0.00     0.138 A 
ATOM     26  C   UNL     1      23.469  26.772  22.896  1.00  0.00     0.100 A 
ATOM     27  O   UNL     1      23.815  25.118  24.437  1.00  0.00    -0.289 OA
BRANCH  18  28
ATOM     28  O   UNL     1      21.494  26.918  28.719  1.00  0.00    -0.502 OA
ATOM     29  H   UNL     1      21.996  27.173  29.558  1.00  0.00     0.293 HD
ENDBRANCH  18  28
BRANCH  20  30
ATOM     30  O   UNL     1      23.021  25.320  26.881  1.00  0.00    -0.504 OA
ATOM     31  H   UNL     1      22.472  24.565  27.267  1.00  0.00     0.293 HD
ENDBRANCH  20  30
BRANCH  25  32
ATOM     32  C   UNL     1      23.052  28.639  21.248  1.00  0.00     0.017 A 
ATOM     33  C   UNL     1      22.297  29.785  20.934  1.00  0.00     0.012 A 
ATOM     34  C   UNL     1      23.872  28.073  20.249  1.00  0.00     0.012 A 
ATOM     35  C   UNL     1      22.376  30.362  19.664  1.00  0.00     0.001 A 
ATOM     36  C   UNL     1      23.946  28.655  18.981  1.00  0.00     0.001 A 
ATOM     37  C   UNL     1      23.202  29.801  18.689  1.00  0.00     0.000 A 
ENDBRANCH  25  32
ENDBRANCH   1  17
TORSDOF 9
ENDMDL
MODEL 5
REMARK VINA RESULT:    -5.527      2.401      4.265
REMARK INTER + INTRA:          -8.829
REMARK INTER:                  -7.599
REMARK INTRA:                  -1.230
REMARK UNBOUND:                -1.201
REMARK SMILES O=C([O-])[C@@H]1O[C@@H](Oc2cc3oc(-c4ccccc4)cc(=O)c3c(O)c2O)[C@@H](O)[C@@H](O)[C@@H]1O
REMARK SMILES IDX 7 1 6 2 4 3 31 4 5 5 29 6 27 7 2 8 1 9 3 10 32 11 30 13
REMARK SMILES IDX 28 15 8 17 25 18 9 19 23 20 10 21 22 22 11 23 20 24 12 25
REMARK SMILES IDX 19 26 21 27 26 28 24 30 13 32 14 33 18 34 15 35 17 36 16 37
REMARK H PARENT 32 12 30 14 28 16 26 29 24 31
REMARK Flexibility Score: inf
ROOT
ATOM      1  O   UNL     1      22.982  28.284  26.851  1.00  0.00    -0.458 OA
ENDROOT
BRANCH   1   2
ATOM      2  C   UNL     1      21.778  28.036  27.596  1.00  0.00     0.339 C 
ATOM      3  C   UNL     1      22.611  29.147  29.491  1.00  0.00     0.199 C 
ATOM      4  C   UNL     1      22.648  27.864  30.354  1.00  0.00     0.180 C 
ATOM      5  O   UNL     1      21.565  29.084  28.531  1.00  0.00    -0.328 OA
ATOM      6  C   UNL     1      22.827  26.635  29.447  1.00  0.00     0.181 C 
ATOM      7  C   UNL     1      21.786  26.664  28.312  1.00  0.00     0.214 C 
BRANCH   3   8
ATOM      8  C   UNL     1      22.420  30.358  30.356  1.00  0.00     0.073 C 
ATOM      9  O   UNL     1      23.336  31.217  30.466  1.00  0.00    -0.547 OA
ATOM     10  O   UNL     1      21.205  30.566  30.997  1.00  0.00    -0.547 OA
ENDBRANCH   3   8
BRANCH   4  11
ATOM     11  O   UNL     1      21.451  27.726  31.080  1.00  0.00    -0.387 OA
ATOM     12  H   UNL     1      21.081  28.638  31.212  1.00  0.00     0.211 HD
ENDBRANCH   4  11
BRANCH   6  13
ATOM     13  O   UNL     1      24.125  26.613  28.906  1.00  0.00    -0.387 OA
ATOM     14  H   UNL     1      24.661  27.278  29.412  1.00  0.00     0.211 HD
ENDBRANCH   6  13
BRANCH   7  15
ATOM     15  O   UNL     1      22.023  25.628  27.395  1.00  0.00    -0.384 OA
ATOM     16  H   UNL     1      22.938  25.289  27.575  1.00  0.00     0.211 HD
ENDBRANCH   7  15
ENDBRANCH   1   2
BRANCH   1  17
ATOM     17  C   UNL     1      23.153  29.223  25.819  1.00  0.00     0.172 A 
ATOM     18  C   UNL     1      23.555  30.557  26.043  1.00  0.00     0.201 A 
ATOM     19  C   UNL     1      22.939  28.775  24.515  1.00  0.00     0.098 A 
ATOM     20  C   UNL     1      23.639  31.461  24.952  1.00  0.00     0.176 A 
ATOM     21  C   UNL     1      23.058  29.640  23.430  1.00  0.00     0.146 A 
ATOM     22  C   UNL     1      23.402  30.994  23.634  1.00  0.00     0.111 A 
ATOM     23  O   UNL     1      22.837  29.173  22.206  1.00  0.00    -0.456 OA
ATOM     24  C   UNL     1      23.487  31.822  22.494  1.00  0.00     0.197 A 
ATOM     25  C   UNL     1      22.921  29.922  21.110  1.00  0.00     0.138 A 
ATOM     26  C   UNL     1      23.244  31.283  21.230  1.00  0.00     0.100 A 
ATOM     27  O   UNL     1      23.777  33.045  22.587  1.00  0.00    -0.289 OA
BRANCH  18  28
ATOM     28  O   UNL     1      23.909  30.946  27.335  1.00  0.00    -0.502 OA
ATOM     29  H   UNL     1      24.782  30.710  27.785  1.00  0.00     0.293 HD
ENDBRANCH  18  28
BRANCH  20  30
ATOM     30  O   UNL     1      23.943  32.812  25.150  1.00  0.00    -0.504 OA
ATOM     31  H   UNL     1      23.287  33.500  25.492  1.00  0.00     0.293 HD
ENDBRANCH  20  30
BRANCH  25  32
ATOM     32  C   UNL     1      22.651  29.293  19.792  1.00  0.00     0.017 A 
ATOM     33  C   UNL     1      23.358  28.135  19.420  1.00  0.00     0.012 A 
ATOM     34  C   UNL     1      21.723  29.844  18.883  1.00  0.00     0.012 A 
ATOM     35  C   UNL     1      23.128  27.531  18.180  1.00  0.00     0.001 A 
ATOM     36  C   UNL     1      21.499  29.235  17.645  1.00  0.00     0.001 A 
ATOM     37  C   UNL     1      22.197  28.077  17.296  1.00  0.00     0.000 A 
ENDBRANCH  25  32
ENDBRANCH   1  17
TORSDOF 9
ENDMDL
MODEL 6
REMARK VINA RESULT:    -5.508      2.315      8.817
REMARK INTER + INTRA:          -8.802
REMARK INTER:                  -7.824
REMARK INTRA:                  -0.978
REMARK UNBOUND:                -1.201
REMARK SMILES O=C([O-])[C@@H]1O[C@@H](Oc2cc3oc(-c4ccccc4)cc(=O)c3c(O)c2O)[C@@H](O)[C@@H](O)[C@@H]1O
REMARK SMILES IDX 7 1 6 2 4 3 31 4 5 5 29 6 27 7 2 8 1 9 3 10 32 11 30 13
REMARK SMILES IDX 28 15 8 17 25 18 9 19 23 20 10 21 22 22 11 23 20 24 12 25
REMARK SMILES IDX 19 26 21 27 26 28 24 30 13 32 14 33 18 34 15 35 17 36 16 37
REMARK H PARENT 32 12 30 14 28 16 26 29 24 31
REMARK Flexibility Score: inf
ROOT
ATOM      1  O   UNL     1      21.542  28.887  22.113  1.00  0.00    -0.458 OA
ENDROOT
BRANCH   1   2
ATOM      2  C   UNL     1      21.979  30.118  21.514  1.00  0.00     0.339 C 
ATOM      3  C   UNL     1      21.868  29.214  19.349  1.00  0.00     0.199 C 
ATOM      4  C   UNL     1      23.394  29.306  19.121  1.00  0.00     0.180 C 
ATOM      5  O   UNL     1      21.419  30.248  20.215  1.00  0.00    -0.328 OA
ATOM      6  C   UNL     1      24.125  29.226  20.472  1.00  0.00     0.181 C 
ATOM      7  C   UNL     1      23.521  30.244  21.457  1.00  0.00     0.214 C 
BRANCH   3   8
ATOM      8  C   UNL     1      21.133  29.306  18.044  1.00  0.00     0.073 C 
ATOM      9  O   UNL     1      20.525  30.362  17.725  1.00  0.00    -0.547 OA
ATOM     10  O   UNL     1      21.167  28.240  17.153  1.00  0.00    -0.547 OA
ENDBRANCH   3   8
BRANCH   4  11
ATOM     11  O   UNL     1      23.725  30.521  18.492  1.00  0.00    -0.387 OA
ATOM     12  H   UNL     1      24.374  30.310  17.771  1.00  0.00     0.211 HD
ENDBRANCH   4  11
BRANCH   6  13
ATOM     13  O   UNL     1      24.027  27.928  21.004  1.00  0.00    -0.387 OA
ATOM     14  H   UNL     1      23.152  27.873  21.471  1.00  0.00     0.211 HD
ENDBRANCH   6  13
BRANCH   7  15
ATOM     15  O   UNL     1      24.079  30.089  22.735  1.00  0.00    -0.384 OA
ATOM     16  H   UNL     1      24.275  31.000  23.076  1.00  0.00     0.211 HD
ENDBRANCH   7  15
ENDBRANCH   1   2
BRANCH   1  17
ATOM     17  C   UNL     1      21.646  28.528  23.468  1.00  0.00     0.172 A 
ATOM     18  C   UNL     1      22.243  27.328  23.909  1.00  0.00     0.201 A 
ATOM     19  C   UNL     1      21.155  29.440  24.403  1.00  0.00     0.098 A 
ATOM     20  C   UNL     1      22.247  27.009  25.293  1.00  0.00     0.176 A 
ATOM     21  C   UNL     1      21.190  29.160  25.767  1.00  0.00     0.146 A 
ATOM     22  C   UNL     1      21.729  27.940  26.228  1.00  0.00     0.111 A 
ATOM     23  O   UNL     1      20.703  30.054  26.621  1.00  0.00    -0.456 OA
ATOM     24  C   UNL     1      21.717  27.710  27.621  1.00  0.00     0.197 A 
ATOM     25  C   UNL     1      20.688  29.874  27.939  1.00  0.00     0.138 A 
ATOM     26  C   UNL     1      21.193  28.680  28.477  1.00  0.00     0.100 A 
ATOM     27  O   UNL     1      22.167  26.642  28.117  1.00  0.00    -0.289 OA
BRANCH  18  28
ATOM     28  O   UNL     1      22.861  26.499  22.973  1.00  0.00    -0.502 OA
ATOM     29  H   UNL     1      22.405  26.118  22.156  1.00  0.00     0.293 HD
ENDBRANCH  18  28
BRANCH  20  30
ATOM     30  O   UNL     1      22.746  25.787  25.754  1.00  0.00    -0.504 OA
ATOM     31  H   UNL     1      23.355  25.181  25.221  1.00  0.00     0.293 HD
ENDBRANCH  20  30
BRANCH  25  32
ATOM     32  C   UNL     1      20.117  30.942  28.799  1.00  0.00     0.017 A 
ATOM     33  C   UNL     1      18.766  30.873  29.184  1.00  0.00     0.012 A 
ATOM     34  C   UNL     1      20.887  32.048  29.217  1.00  0.00     0.012 A 
ATOM     35  C   UNL     1      18.203  31.871  29.985  1.00  0.00     0.001 A 
ATOM     36  C   UNL     1      20.318  33.042  30.019  1.00  0.00     0.001 A 
ATOM     37  C   UNL     1      18.979  32.953  30.405  1.00  0.00     0.000 A 
ENDBRANCH  25  32
ENDBRANCH   1  17
TORSDOF 9
ENDMDL
MODEL 7
REMARK VINA RESULT:    -5.294      1.877      3.374
REMARK INTER + INTRA:          -8.507
REMARK INTER:                  -7.336
REMARK INTRA:                  -1.171
REMARK UNBOUND:                -1.201
REMARK SMILES O=C([O-])[C@@H]1O[C@@H](Oc2cc3oc(-c4ccccc4)cc(=O)c3c(O)c2O)[C@@H](O)[C@@H](O)[C@@H]1O
REMARK SMILES IDX 7 1 6 2 4 3 31 4 5 5 29 6 27 7 2 8 1 9 3 10 32 11 30 13
REMARK SMILES IDX 28 15 8 17 25 18 9 19 23 20 10 21 22 22 11 23 20 24 12 25
REMARK SMILES IDX 19 26 21 27 26 28 24 30 13 32 14 33 18 34 15 35 17 36 16 37
REMARK H PARENT 32 12 30 14 28 16 26 29 24 31
REMARK Flexibility Score: inf
ROOT
ATOM      1  O   UNL     1      21.002  30.200  26.914  1.00  0.00    -0.458 OA
ENDROOT
BRANCH   1   2
ATOM      2  C   UNL     1      21.611  31.274  27.649  1.00  0.00     0.339 C 
ATOM      3  C   UNL     1      21.850  29.947  29.573  1.00  0.00     0.199 C 
ATOM      4  C   UNL     1      20.858  30.793  30.405  1.00  0.00     0.180 C 
ATOM      5  O   UNL     1      22.518  30.749  28.608  1.00  0.00    -0.328 OA
ATOM      6  C   UNL     1      19.839  31.464  29.469  1.00  0.00     0.181 C 
ATOM      7  C   UNL     1      20.574  32.199  28.333  1.00  0.00     0.214 C 
BRANCH   3   8
ATOM      8  C   UNL     1      22.864  29.295  30.465  1.00  0.00     0.073 C 
ATOM      9  O   UNL     1      23.701  29.991  31.101  1.00  0.00    -0.547 OA
ATOM     10  O   UNL     1      22.850  27.916  30.638  1.00  0.00    -0.547 OA
ENDBRANCH   3   8
BRANCH   4  11
ATOM     11  O   UNL     1      21.545  31.789  31.124  1.00  0.00    -0.387 OA
ATOM     12  H   UNL     1      20.907  32.163  31.787  1.00  0.00     0.211 HD
ENDBRANCH   4  11
BRANCH   6  13
ATOM     13  O   UNL     1      18.963  30.505  28.932  1.00  0.00    -0.387 OA
ATOM     14  H   UNL     1      19.518  29.730  28.654  1.00  0.00     0.211 HD
ENDBRANCH   6  13
BRANCH   7  15
ATOM     15  O   UNL     1      19.660  32.698  27.392  1.00  0.00    -0.384 OA
ATOM     16  H   UNL     1      19.434  33.622  27.672  1.00  0.00     0.211 HD
ENDBRANCH   7  15
ENDBRANCH   1   2
BRANCH   1  17
ATOM     17  C   UNL     1      21.619  29.387  25.947  1.00  0.00     0.172 A 
ATOM     18  C   UNL     1      22.286  28.182  26.259  1.00  0.00     0.201 A 
ATOM     19  C   UNL     1      21.524  29.801  24.619  1.00  0.00     0.098 A 
ATOM     20  C   UNL     1      22.942  27.454  25.232  1.00  0.00     0.176 A 
ATOM     21  C   UNL     1      22.127  29.075  23.595  1.00  0.00     0.146 A 
ATOM     22  C   UNL     1      22.849  27.898  23.888  1.00  0.00     0.111 A 
ATOM     23  O   UNL     1      22.018  29.512  22.345  1.00  0.00    -0.456 OA
ATOM     24  C   UNL     1      23.453  27.220  22.807  1.00  0.00     0.197 A 
ATOM     25  C   UNL     1      22.563  28.890  21.302  1.00  0.00     0.138 A 
ATOM     26  C   UNL     1      23.310  27.720  21.512  1.00  0.00     0.100 A 
ATOM     27  O   UNL     1      24.125  26.168  22.981  1.00  0.00    -0.289 OA
BRANCH  18  28
ATOM     28  O   UNL     1      22.243  27.707  27.570  1.00  0.00    -0.502 OA
ATOM     29  H   UNL     1      22.805  28.068  28.327  1.00  0.00     0.293 HD
ENDBRANCH  18  28
BRANCH  20  30
ATOM     30  O   UNL     1      23.690  26.308  25.519  1.00  0.00    -0.504 OA
ATOM     31  H   UNL     1      24.025  25.656  24.823  1.00  0.00     0.293 HD
ENDBRANCH  20  30
BRANCH  25  32
ATOM     32  C   UNL     1      22.377  29.470  19.948  1.00  0.00     0.017 A 
ATOM     33  C   UNL     1      21.176  30.134  19.638  1.00  0.00     0.012 A 
ATOM     34  C   UNL     1      23.362  29.346  18.946  1.00  0.00     0.012 A 
ATOM     35  C   UNL     1      20.973  30.679  18.367  1.00  0.00     0.001 A 
ATOM     36  C   UNL     1      23.154  29.893  17.677  1.00  0.00     0.001 A 
ATOM     37  C   UNL     1      21.962  30.562  17.388  1.00  0.00     0.000 A 
ENDBRANCH  25  32
ENDBRANCH   1  17
TORSDOF 9
ENDMDL
MODEL 8
REMARK VINA RESULT:    -4.992      2.825      8.458
REMARK INTER + INTRA:          -8.090
REMARK INTER:                  -7.071
REMARK INTRA:                  -1.019
REMARK UNBOUND:                -1.201
REMARK SMILES O=C([O-])[C@@H]1O[C@@H](Oc2cc3oc(-c4ccccc4)cc(=O)c3c(O)c2O)[C@@H](O)[C@@H](O)[C@@H]1O
REMARK SMILES IDX 7 1 6 2 4 3 31 4 5 5 29 6 27 7 2 8 1 9 3 10 32 11 30 13
REMARK SMILES IDX 28 15 8 17 25 18 9 19 23 20 10 21 22 22 11 23 20 24 12 25
REMARK SMILES IDX 19 26 21 27 26 28 24 30 13 32 14 33 18 34 15 35 17 36 16 37
REMARK H PARENT 32 12 30 14 28 16 26 29 24 31
REMARK Flexibility Score: inf
ROOT
ATOM      1  O   UNL     1      22.563  28.083  23.557  1.00  0.00    -0.458 OA
ENDROOT
BRANCH   1   2
ATOM      2  C   UNL     1      23.727  28.523  22.839  1.00  0.00     0.339 C 
ATOM      3  C   UNL     1      23.123  30.782  23.058  1.00  0.00     0.199 C 
ATOM      4  C   UNL     1      22.900  30.977  21.541  1.00  0.00     0.180 C 
ATOM      5  O   UNL     1      24.125  29.805  23.304  1.00  0.00    -0.328 OA
ATOM      6  C   UNL     1      22.506  29.636  20.900  1.00  0.00     0.181 C 
ATOM      7  C   UNL     1      23.514  28.544  21.305  1.00  0.00     0.214 C 
BRANCH   3   8
ATOM      8  C   UNL     1      23.524  32.077  23.702  1.00  0.00     0.073 C 
ATOM      9  O   UNL     1      23.431  33.163  23.070  1.00  0.00    -0.547 OA
ATOM     10  O   UNL     1      23.949  32.089  25.026  1.00  0.00    -0.547 OA
ENDBRANCH   3   8
BRANCH   4  11
ATOM     11  O   UNL     1      24.075  31.451  20.928  1.00  0.00    -0.387 OA
ATOM     12  H   UNL     1      24.419  32.194  21.489  1.00  0.00     0.211 HD
ENDBRANCH   4  11
BRANCH   6  13
ATOM     13  O   UNL     1      21.211  29.264  21.300  1.00  0.00    -0.387 OA
ATOM     14  H   UNL     1      21.256  28.313  21.578  1.00  0.00     0.211 HD
ENDBRANCH   6  13
BRANCH   7  15
ATOM     15  O   UNL     1      23.094  27.286  20.846  1.00  0.00    -0.384 OA
ATOM     16  H   UNL     1      23.680  27.049  20.081  1.00  0.00     0.211 HD
ENDBRANCH   7  15
ENDBRANCH   1   2
BRANCH   1  17
ATOM     17  C   UNL     1      22.448  27.913  24.948  1.00  0.00     0.172 A 
ATOM     18  C   UNL     1      22.940  26.781  25.634  1.00  0.00     0.201 A 
ATOM     19  C   UNL     1      21.842  28.946  25.664  1.00  0.00     0.098 A 
ATOM     20  C   UNL     1      22.724  26.655  27.031  1.00  0.00     0.176 A 
ATOM     21  C   UNL     1      21.661  28.855  27.042  1.00  0.00     0.146 A 
ATOM     22  C   UNL     1      22.092  27.707  27.741  1.00  0.00     0.111 A 
ATOM     23  O   UNL     1      21.071  29.859  27.681  1.00  0.00    -0.456 OA
ATOM     24  C   UNL     1      21.860  27.670  29.133  1.00  0.00     0.197 A 
ATOM     25  C   UNL     1      20.849  29.862  28.993  1.00  0.00     0.138 A 
ATOM     26  C   UNL     1      21.236  28.750  29.759  1.00  0.00     0.100 A 
ATOM     27  O   UNL     1      22.203  26.678  29.832  1.00  0.00    -0.289 OA
BRANCH  18  28
ATOM     28  O   UNL     1      23.674  25.830  24.925  1.00  0.00    -0.502 OA
ATOM     29  H   UNL     1      24.613  25.972  24.581  1.00  0.00     0.293 HD
ENDBRANCH  18  28
BRANCH  20  30
ATOM     30  O   UNL     1      23.115  25.505  27.725  1.00  0.00    -0.504 OA
ATOM     31  H   UNL     1      23.702  25.508  28.548  1.00  0.00     0.293 HD
ENDBRANCH  20  30
BRANCH  25  32
ATOM     32  C   UNL     1      20.180  31.039  29.602  1.00  0.00     0.017 A 
ATOM     33  C   UNL     1      18.782  31.167  29.507  1.00  0.00     0.012 A 
ATOM     34  C   UNL     1      20.913  32.056  30.249  1.00  0.00     0.012 A 
ATOM     35  C   UNL     1      18.131  32.272  30.064  1.00  0.00     0.001 A 
ATOM     36  C   UNL     1      20.255  33.158  30.804  1.00  0.00     0.001 A 
ATOM     37  C   UNL     1      18.866  33.264  30.715  1.00  0.00     0.000 A 
ENDBRANCH  25  32
ENDBRANCH   1  17
TORSDOF 9
ENDMDL
