MODEL 1
REMARK VINA RESULT:    -3.401      0.000      0.000
REMARK INTER + INTRA:          -5.135
REMARK INTER:                  -4.793
REMARK INTRA:                  -0.343
REMARK UNBOUND:                -0.343
REMARK SMILES CCCCCCCCC=O
REMARK SMILES IDX 5 1 4 2 3 3 2 4 1 5 6 6 7 7 8 8 9 9 10 10
REMARK H PARENT
REMARK Flexibility Score: inf
ROOT
ATOM      1  C   UNL     1     162.567 164.803 168.224  1.00  0.00     0.000 C 
ENDROOT
BRANCH   1   2
ATOM      2  C   UNL     1     164.086 164.948 168.047  1.00  0.00    -0.000 C 
BRANCH   2   3
ATOM      3  C   UNL     1     164.482 165.471 166.655  1.00  0.00    -0.000 C 
BRANCH   3   4
ATOM      4  C   UNL     1     165.280 166.787 166.662  1.00  0.00    -0.003 C 
ATOM      5  C   UNL     1     164.945 167.683 167.855  1.00  0.00     0.004 C 
ENDBRANCH   3   4
ENDBRANCH   2   3
ENDBRANCH   1   2
BRANCH   1   6
ATOM      6  C   UNL     1     161.857 164.780 166.862  1.00  0.00     0.000 C 
BRANCH   6   7
ATOM      7  C   UNL     1     160.506 164.043 166.906  1.00  0.00     0.008 C 
BRANCH   7   8
ATOM      8  C   UNL     1     159.294 164.962 167.131  1.00  0.00     0.072 C 
BRANCH   8   9
ATOM      9  C   UNL     1     158.490 164.559 168.333  1.00  0.00     0.224 C 
ATOM     10  O   UNL     1     158.117 165.398 169.138  1.00  0.00    -0.303 OA
ENDBRANCH   8   9
ENDBRANCH   7   8
ENDBRANCH   6   7
ENDBRANCH   1   6
TORSDOF 7
ENDMDL
MODEL 2
REMARK VINA RESULT:    -3.390      6.319      9.078
REMARK INTER + INTRA:          -5.120
REMARK INTER:                  -4.822
REMARK INTRA:                  -0.298
REMARK UNBOUND:                -0.343
REMARK SMILES CCCCCCCCC=O
REMARK SMILES IDX 5 1 4 2 3 3 2 4 1 5 6 6 7 7 8 8 9 9 10 10
REMARK H PARENT
REMARK Flexibility Score: inf
ROOT
ATOM      1  C   UNL     1     168.597 166.429 168.157  1.00  0.00     0.000 C 
ENDROOT
BRANCH   1   2
ATOM      2  C   UNL     1     167.226 165.767 167.959  1.00  0.00    -0.000 C 
BRANCH   2   3
ATOM      3  C   UNL     1     166.661 165.968 166.541  1.00  0.00    -0.000 C 
BRANCH   3   4
ATOM      4  C   UNL     1     165.391 166.835 166.468  1.00  0.00    -0.003 C 
ATOM      5  C   UNL     1     165.128 167.618 167.754  1.00  0.00     0.004 C 
ENDBRANCH   3   4
ENDBRANCH   2   3
ENDBRANCH   1   2
BRANCH   1   6
ATOM      6  C   UNL     1     169.398 166.434 166.846  1.00  0.00     0.000 C 
BRANCH   6   7
ATOM      7  C   UNL     1     170.766 167.128 166.985  1.00  0.00     0.008 C 
BRANCH   7   8
ATOM      8  C   UNL     1     171.941 166.164 167.217  1.00  0.00     0.072 C 
BRANCH   8   9
ATOM      9  C   UNL     1     172.806 166.588 168.368  1.00  0.00     0.224 C 
ATOM     10  O   UNL     1     173.098 165.793 169.248  1.00  0.00    -0.303 OA
ENDBRANCH   8   9
ENDBRANCH   7   8
ENDBRANCH   6   7
ENDBRANCH   1   6
TORSDOF 7
ENDMDL
MODEL 3
REMARK VINA RESULT:    -3.389      5.424      6.491
REMARK INTER + INTRA:          -5.119
REMARK INTER:                  -4.793
REMARK INTRA:                  -0.326
REMARK UNBOUND:                -0.343
REMARK SMILES CCCCCCCCC=O
REMARK SMILES IDX 5 1 4 2 3 3 2 4 1 5 6 6 7 7 8 8 9 9 10 10
REMARK H PARENT
REMARK Flexibility Score: inf
ROOT
ATOM      1  C   UNL     1     166.433 162.859 168.786  1.00  0.00     0.000 C 
ENDROOT
BRANCH   1   2
ATOM      2  C   UNL     1     166.072 163.518 167.447  1.00  0.00    -0.000 C 
BRANCH   2   3
ATOM      3  C   UNL     1     166.000 165.053 167.532  1.00  0.00    -0.000 C 
BRANCH   3   4
ATOM      4  C   UNL     1     167.364 165.759 167.636  1.00  0.00    -0.003 C 
ATOM      5  C   UNL     1     167.645 166.313 169.033  1.00  0.00     0.004 C 
ENDBRANCH   3   4
ENDBRANCH   2   3
ENDBRANCH   1   2
BRANCH   1   6
ATOM      6  C   UNL     1     166.836 161.391 168.584  1.00  0.00     0.000 C 
BRANCH   6   7
ATOM      7  C   UNL     1     166.794 160.960 167.106  1.00  0.00     0.008 C 
BRANCH   7   8
ATOM      8  C   UNL     1     166.168 159.575 166.871  1.00  0.00     0.072 C 
BRANCH   8   9
ATOM      9  C   UNL     1     166.534 158.596 167.947  1.00  0.00     0.224 C 
ATOM     10  O   UNL     1     165.670 158.094 168.648  1.00  0.00    -0.303 OA
ENDBRANCH   8   9
ENDBRANCH   7   8
ENDBRANCH   6   7
ENDBRANCH   1   6
TORSDOF 7
ENDMDL
MODEL 4
REMARK VINA RESULT:    -3.339      1.402      2.040
REMARK INTER + INTRA:          -5.048
REMARK INTER:                  -4.721
REMARK INTRA:                  -0.327
REMARK UNBOUND:                -0.343
REMARK SMILES CCCCCCCCC=O
REMARK SMILES IDX 5 1 4 2 3 3 2 4 1 5 6 6 7 7 8 8 9 9 10 10
REMARK H PARENT
REMARK Flexibility Score: inf
ROOT
ATOM      1  C   UNL     1     162.703 164.840 167.542  1.00  0.00     0.000 C 
ENDROOT
BRANCH   1   2
ATOM      2  C   UNL     1     164.121 165.354 167.831  1.00  0.00    -0.000 C 
BRANCH   2   3
ATOM      3  C   UNL     1     165.161 164.848 166.817  1.00  0.00    -0.000 C 
BRANCH   3   4
ATOM      4  C   UNL     1     166.041 163.688 167.317  1.00  0.00    -0.003 C 
ATOM      5  C   UNL     1     166.135 163.624 168.841  1.00  0.00     0.004 C 
ENDBRANCH   3   4
ENDBRANCH   2   3
ENDBRANCH   1   2
BRANCH   1   6
ATOM      6  C   UNL     1     161.984 164.453 168.843  1.00  0.00     0.000 C 
BRANCH   6   7
ATOM      7  C   UNL     1     160.491 164.141 168.629  1.00  0.00     0.008 C 
BRANCH   7   8
ATOM      8  C   UNL     1     159.995 164.386 167.195  1.00  0.00     0.072 C 
BRANCH   8   9
ATOM      9  C   UNL     1     158.729 165.191 167.161  1.00  0.00     0.224 C 
ATOM     10  O   UNL     1     158.166 165.504 168.198  1.00  0.00    -0.303 OA
ENDBRANCH   8   9
ENDBRANCH   7   8
ENDBRANCH   6   7
ENDBRANCH   1   6
TORSDOF 7
ENDMDL
MODEL 5
REMARK VINA RESULT:    -3.330      6.284      8.891
REMARK INTER + INTRA:          -5.035
REMARK INTER:                  -4.662
REMARK INTRA:                  -0.373
REMARK UNBOUND:                -0.343
REMARK SMILES CCCCCCCCC=O
REMARK SMILES IDX 5 1 4 2 3 3 2 4 1 5 6 6 7 7 8 8 9 9 10 10
REMARK H PARENT
REMARK Flexibility Score: inf
ROOT
ATOM      1  C   UNL     1     167.380 166.403 168.343  1.00  0.00     0.000 C 
ENDROOT
BRANCH   1   2
ATOM      2  C   UNL     1     167.232 165.900 166.899  1.00  0.00    -0.000 C 
BRANCH   2   3
ATOM      3  C   UNL     1     166.143 164.822 166.748  1.00  0.00    -0.000 C 
BRANCH   3   4
ATOM      4  C   UNL     1     165.768 164.094 168.051  1.00  0.00    -0.003 C 
ATOM      5  C   UNL     1     166.432 162.724 168.182  1.00  0.00     0.004 C 
ENDBRANCH   3   4
ENDBRANCH   2   3
ENDBRANCH   1   2
BRANCH   1   6
ATOM      6  C   UNL     1     168.858 166.442 168.760  1.00  0.00     0.000 C 
BRANCH   6   7
ATOM      7  C   UNL     1     169.809 166.644 167.566  1.00  0.00     0.008 C 
BRANCH   7   8
ATOM      8  C   UNL     1     171.186 167.212 167.947  1.00  0.00     0.072 C 
BRANCH   8   9
ATOM      9  C   UNL     1     172.311 166.321 167.507  1.00  0.00     0.224 C 
ATOM     10  O   UNL     1     172.991 165.730 168.331  1.00  0.00    -0.303 OA
ENDBRANCH   8   9
ENDBRANCH   7   8
ENDBRANCH   6   7
ENDBRANCH   1   6
TORSDOF 7
ENDMDL
MODEL 6
REMARK VINA RESULT:    -3.323      5.178      6.653
REMARK INTER + INTRA:          -5.025
REMARK INTER:                  -4.610
REMARK INTRA:                  -0.415
REMARK UNBOUND:                -0.343
REMARK SMILES CCCCCCCCC=O
REMARK SMILES IDX 5 1 4 2 3 3 2 4 1 5 6 6 7 7 8 8 9 9 10 10
REMARK H PARENT
REMARK Flexibility Score: inf
ROOT
ATOM      1  C   UNL     1     166.480 162.447 168.356  1.00  0.00     0.000 C 
ENDROOT
BRANCH   1   2
ATOM      2  C   UNL     1     166.258 163.961 168.230  1.00  0.00    -0.000 C 
BRANCH   2   3
ATOM      3  C   UNL     1     165.974 164.409 166.785  1.00  0.00    -0.000 C 
BRANCH   3   4
ATOM      4  C   UNL     1     164.573 165.005 166.556  1.00  0.00    -0.003 C 
ATOM      5  C   UNL     1     163.745 165.094 167.838  1.00  0.00     0.004 C 
ENDBRANCH   3   4
ENDBRANCH   2   3
ENDBRANCH   1   2
BRANCH   1   6
ATOM      6  C   UNL     1     166.482 161.777 166.974  1.00  0.00     0.000 C 
BRANCH   6   7
ATOM      7  C   UNL     1     167.160 160.394 166.982  1.00  0.00     0.008 C 
BRANCH   7   8
ATOM      8  C   UNL     1     167.440 159.838 168.388  1.00  0.00     0.072 C 
BRANCH   8   9
ATOM      9  C   UNL     1     166.903 158.448 168.567  1.00  0.00     0.224 C 
ATOM     10  O   UNL     1     165.730 158.203 168.333  1.00  0.00    -0.303 OA
ENDBRANCH   8   9
ENDBRANCH   7   8
ENDBRANCH   6   7
ENDBRANCH   1   6
TORSDOF 7
ENDMDL
MODEL 7
REMARK VINA RESULT:    -3.307      4.035      6.396
REMARK INTER + INTRA:          -5.003
REMARK INTER:                  -4.637
REMARK INTRA:                  -0.366
REMARK UNBOUND:                -0.343
REMARK SMILES CCCCCCCCC=O
REMARK SMILES IDX 5 1 4 2 3 3 2 4 1 5 6 6 7 7 8 8 9 9 10 10
REMARK H PARENT
REMARK Flexibility Score: inf
ROOT
ATOM      1  C   UNL     1     164.877 167.893 168.841  1.00  0.00     0.000 C 
ENDROOT
BRANCH   1   2
ATOM      2  C   UNL     1     165.238 167.328 167.459  1.00  0.00    -0.000 C 
BRANCH   2   3
ATOM      3  C   UNL     1     164.769 165.876 167.263  1.00  0.00    -0.000 C 
BRANCH   3   4
ATOM      4  C   UNL     1     163.872 165.328 168.388  1.00  0.00    -0.003 C 
ATOM      5  C   UNL     1     162.541 164.780 167.877  1.00  0.00     0.004 C 
ENDBRANCH   3   4
ENDBRANCH   2   3
ENDBRANCH   1   2
BRANCH   1   6
ATOM      6  C   UNL     1     164.533 169.387 168.748  1.00  0.00     0.000 C 
BRANCH   6   7
ATOM      7  C   UNL     1     164.522 169.908 167.299  1.00  0.00     0.008 C 
BRANCH   7   8
ATOM      8  C   UNL     1     164.393 171.435 167.179  1.00  0.00     0.072 C 
BRANCH   8   9
ATOM      9  C   UNL     1     164.850 172.144 168.421  1.00  0.00     0.224 C 
ATOM     10  O   UNL     1     165.597 173.106 168.345  1.00  0.00    -0.303 OA
ENDBRANCH   8   9
ENDBRANCH   7   8
ENDBRANCH   6   7
ENDBRANCH   1   6
TORSDOF 7
ENDMDL
MODEL 8
REMARK VINA RESULT:    -3.260      5.247      6.730
REMARK INTER + INTRA:          -4.937
REMARK INTER:                  -4.709
REMARK INTRA:                  -0.228
REMARK UNBOUND:                -0.343
REMARK SMILES CCCCCCCCC=O
REMARK SMILES IDX 5 1 4 2 3 3 2 4 1 5 6 6 7 7 8 8 9 9 10 10
REMARK H PARENT
REMARK Flexibility Score: inf
ROOT
ATOM      1  C   UNL     1     164.803 168.486 167.458  1.00  0.00     0.000 C 
ENDROOT
BRANCH   1   2
ATOM      2  C   UNL     1     165.032 167.576 168.673  1.00  0.00    -0.000 C 
BRANCH   2   3
ATOM      3  C   UNL     1     165.491 166.159 168.285  1.00  0.00    -0.000 C 
BRANCH   3   4
ATOM      4  C   UNL     1     166.904 165.783 168.763  1.00  0.00    -0.003 C 
ATOM      5  C   UNL     1     168.002 166.257 167.811  1.00  0.00     0.004 C 
ENDBRANCH   3   4
ENDBRANCH   2   3
ENDBRANCH   1   2
BRANCH   1   6
ATOM      6  C   UNL     1     164.458 169.916 167.901  1.00  0.00     0.000 C 
BRANCH   6   7
ATOM      7  C   UNL     1     164.527 170.931 166.745  1.00  0.00     0.008 C 
BRANCH   7   8
ATOM      8  C   UNL     1     165.076 172.310 167.149  1.00  0.00     0.072 C 
BRANCH   8   9
ATOM      9  C   UNL     1     164.627 172.720 168.521  1.00  0.00     0.224 C 
ATOM     10  O   UNL     1     165.444 173.057 169.364  1.00  0.00    -0.303 OA
ENDBRANCH   8   9
ENDBRANCH   7   8
ENDBRANCH   6   7
ENDBRANCH   1   6
TORSDOF 7
ENDMDL
MODEL 9
REMARK VINA RESULT:    -3.002      3.937      5.483
REMARK INTER + INTRA:          -4.573
REMARK INTER:                  -4.268
REMARK INTRA:                  -0.305
REMARK UNBOUND:                -0.343
REMARK SMILES CCCCCCCCC=O
REMARK SMILES IDX 5 1 4 2 3 3 2 4 1 5 6 6 7 7 8 8 9 9 10 10
REMARK H PARENT
REMARK Flexibility Score: inf
ROOT
ATOM      1  C   UNL     1     166.399 162.953 168.990  1.00  0.00     0.000 C 
ENDROOT
BRANCH   1   2
ATOM      2  C   UNL     1     166.790 161.486 168.764  1.00  0.00    -0.000 C 
BRANCH   2   3
ATOM      3  C   UNL     1     166.706 161.063 167.287  1.00  0.00    -0.000 C 
BRANCH   3   4
ATOM      4  C   UNL     1     166.459 159.561 167.056  1.00  0.00    -0.003 C 
ATOM      5  C   UNL     1     166.237 158.787 168.355  1.00  0.00     0.004 C 
ENDBRANCH   3   4
ENDBRANCH   2   3
ENDBRANCH   1   2
BRANCH   1   6
ATOM      6  C   UNL     1     166.010 163.628 167.666  1.00  0.00     0.000 C 
BRANCH   6   7
ATOM      7  C   UNL     1     165.385 165.021 167.867  1.00  0.00     0.008 C 
BRANCH   7   8
ATOM      8  C   UNL     1     163.992 165.183 167.238  1.00  0.00     0.072 C 
BRANCH   8   9
ATOM      9  C   UNL     1     162.890 164.862 168.206  1.00  0.00     0.224 C 
ATOM     10  O   UNL     1     161.787 164.532 167.800  1.00  0.00    -0.303 OA
ENDBRANCH   8   9
ENDBRANCH   7   8
ENDBRANCH   6   7
ENDBRANCH   1   6
TORSDOF 7
ENDMDL
