MODEL 1
REMARK VINA RESULT:    -3.099      0.000      0.000
REMARK INTER + INTRA:          -3.681
REMARK INTER:                  -3.643
REMARK INTRA:                  -0.038
REMARK UNBOUND:                -0.038
REMARK SMILES O=C([O-])CCC(=O)[O-]
REMARK SMILES IDX 4 1 2 2 1 3 3 4 5 5 6 6 7 7 8 8
REMARK H PARENT
REMARK Flexibility Score: inf
ROOT
ATOM      1  C   UNL     1      14.333  21.011  -1.115  1.00  0.00     0.059 C 
ENDROOT
BRANCH   1   2
ATOM      2  C   UNL     1      15.397  21.795  -1.815  1.00  0.00     0.042 C 
ATOM      3  O   UNL     1      15.250  22.125  -3.021  1.00  0.00    -0.550 OA
ATOM      4  O   UNL     1      16.572  22.121  -1.150  1.00  0.00    -0.550 OA
ENDBRANCH   1   2
BRANCH   1   5
ATOM      5  C   UNL     1      14.939  20.177   0.015  1.00  0.00     0.059 C 
BRANCH   5   6
ATOM      6  C   UNL     1      14.034  19.041   0.371  1.00  0.00     0.042 C 
ATOM      7  O   UNL     1      12.867  18.989  -0.099  1.00  0.00    -0.550 OA
ATOM      8  O   UNL     1      14.495  18.013   1.184  1.00  0.00    -0.550 OA
ENDBRANCH   5   6
ENDBRANCH   1   5
TORSDOF 3
ENDMDL
MODEL 2
REMARK VINA RESULT:    -2.972      0.910      4.267
REMARK INTER + INTRA:          -3.532
REMARK INTER:                  -3.490
REMARK INTRA:                  -0.042
REMARK UNBOUND:                -0.038
REMARK SMILES O=C([O-])CCC(=O)[O-]
REMARK SMILES IDX 4 1 2 2 1 3 3 4 5 5 6 6 7 7 8 8
REMARK H PARENT
REMARK Flexibility Score: inf
ROOT
ATOM      1  C   UNL     1      13.695  20.589  -0.733  1.00  0.00     0.059 C 
ENDROOT
BRANCH   1   2
ATOM      2  C   UNL     1      13.121  19.267  -0.333  1.00  0.00     0.042 C 
ATOM      3  O   UNL     1      13.740  18.526   0.475  1.00  0.00    -0.550 OA
ATOM      4  O   UNL     1      11.926  18.831  -0.891  1.00  0.00    -0.550 OA
ENDBRANCH   1   2
BRANCH   1   5
ATOM      5  C   UNL     1      15.182  20.656  -0.381  1.00  0.00     0.059 C 
BRANCH   5   6
ATOM      6  C   UNL     1      15.874  21.679  -1.225  1.00  0.00     0.042 C 
ATOM      7  O   UNL     1      17.011  22.106  -0.896  1.00  0.00    -0.550 OA
ATOM      8  O   UNL     1      15.284  22.125  -2.401  1.00  0.00    -0.550 OA
ENDBRANCH   5   6
ENDBRANCH   1   5
TORSDOF 3
ENDMDL
MODEL 3
REMARK VINA RESULT:    -2.970     11.020     13.210
REMARK INTER + INTRA:          -3.529
REMARK INTER:                  -3.497
REMARK INTRA:                  -0.032
REMARK UNBOUND:                -0.038
REMARK SMILES O=C([O-])CCC(=O)[O-]
REMARK SMILES IDX 4 1 2 2 1 3 3 4 5 5 6 6 7 7 8 8
REMARK H PARENT
REMARK Flexibility Score: inf
ROOT
ATOM      1  C   UNL     1      14.171  12.525  10.047  1.00  0.00     0.059 C 
ENDROOT
BRANCH   1   2
ATOM      2  C   UNL     1      14.247  13.022  11.455  1.00  0.00     0.042 C 
ATOM      3  O   UNL     1      15.240  13.695  11.837  1.00  0.00    -0.550 OA
ATOM      4  O   UNL     1      13.244  12.702  12.361  1.00  0.00    -0.550 OA
ENDBRANCH   1   2
BRANCH   1   5
ATOM      5  C   UNL     1      14.678  13.590   9.074  1.00  0.00     0.059 C 
BRANCH   5   6
ATOM      6  C   UNL     1      14.531  13.122   7.662  1.00  0.00     0.042 C 
ATOM      7  O   UNL     1      15.510  13.176   6.872  1.00  0.00    -0.550 OA
ATOM      8  O   UNL     1      13.327  12.580   7.230  1.00  0.00    -0.550 OA
ENDBRANCH   5   6
ENDBRANCH   1   5
TORSDOF 3
ENDMDL
MODEL 4
REMARK VINA RESULT:    -2.945     10.838     12.724
REMARK INTER + INTRA:          -3.500
REMARK INTER:                  -3.408
REMARK INTRA:                  -0.092
REMARK UNBOUND:                -0.038
REMARK SMILES O=C([O-])CCC(=O)[O-]
REMARK SMILES IDX 4 1 2 2 1 3 3 4 5 5 6 6 7 7 8 8
REMARK H PARENT
REMARK Flexibility Score: inf
ROOT
ATOM      1  C   UNL     1      15.466  13.330   9.703  1.00  0.00     0.059 C 
ENDROOT
BRANCH   1   2
ATOM      2  C   UNL     1      14.421  12.701  10.569  1.00  0.00     0.042 C 
ATOM      3  O   UNL     1      13.789  11.689  10.166  1.00  0.00    -0.550 OA
ATOM      4  O   UNL     1      14.110  13.261  11.802  1.00  0.00    -0.550 OA
ENDBRANCH   1   2
BRANCH   1   5
ATOM      5  C   UNL     1      14.815  14.107   8.559  1.00  0.00     0.059 C 
BRANCH   5   6
ATOM      6  C   UNL     1      14.776  13.275   7.316  1.00  0.00     0.042 C 
ATOM      7  O   UNL     1      15.841  12.990   6.710  1.00  0.00    -0.550 OA
ATOM      8  O   UNL     1      13.565  12.773   6.854  1.00  0.00    -0.550 OA
ENDBRANCH   5   6
ENDBRANCH   1   5
TORSDOF 3
ENDMDL
MODEL 5
REMARK VINA RESULT:    -2.923     11.031     12.856
REMARK INTER + INTRA:          -3.474
REMARK INTER:                  -3.445
REMARK INTRA:                  -0.029
REMARK UNBOUND:                -0.038
REMARK SMILES O=C([O-])CCC(=O)[O-]
REMARK SMILES IDX 4 1 2 2 1 3 3 4 5 5 6 6 7 7 8 8
REMARK H PARENT
REMARK Flexibility Score: inf
ROOT
ATOM      1  C   UNL     1      14.601  13.495   9.065  1.00  0.00     0.059 C 
ENDROOT
BRANCH   1   2
ATOM      2  C   UNL     1      14.476  13.085   7.632  1.00  0.00     0.042 C 
ATOM      3  O   UNL     1      13.368  12.694   7.180  1.00  0.00    -0.550 OA
ATOM      4  O   UNL     1      15.594  13.089   6.807  1.00  0.00    -0.550 OA
ENDBRANCH   1   2
BRANCH   1   5
ATOM      5  C   UNL     1      14.125  12.373   9.987  1.00  0.00     0.059 C 
BRANCH   5   6
ATOM      6  C   UNL     1      14.314  12.756  11.420  1.00  0.00     0.042 C 
ATOM      7  O   UNL     1      13.336  12.750  12.213  1.00  0.00    -0.550 OA
ATOM      8  O   UNL     1      15.582  13.074  11.894  1.00  0.00    -0.550 OA
ENDBRANCH   5   6
ENDBRANCH   1   5
TORSDOF 3
ENDMDL
MODEL 6
REMARK VINA RESULT:    -2.921     11.202     13.631
REMARK INTER + INTRA:          -3.472
REMARK INTER:                  -3.439
REMARK INTRA:                  -0.033
REMARK UNBOUND:                -0.038
REMARK SMILES O=C([O-])CCC(=O)[O-]
REMARK SMILES IDX 4 1 2 2 1 3 3 4 5 5 6 6 7 7 8 8
REMARK H PARENT
REMARK Flexibility Score: inf
ROOT
ATOM      1  C   UNL     1      14.024  11.996  10.120  1.00  0.00     0.059 C 
ENDROOT
BRANCH   1   2
ATOM      2  C   UNL     1      14.819  11.744  11.362  1.00  0.00     0.042 C 
ATOM      3  O   UNL     1      15.782  10.934  11.344  1.00  0.00    -0.550 OA
ATOM      4  O   UNL     1      14.465  12.367  12.552  1.00  0.00    -0.550 OA
ENDBRANCH   1   2
BRANCH   1   5
ATOM      5  C   UNL     1      14.554  13.228   9.386  1.00  0.00     0.059 C 
BRANCH   5   6
ATOM      6  C   UNL     1      14.498  13.020   7.906  1.00  0.00     0.042 C 
ATOM      7  O   UNL     1      13.428  12.643   7.360  1.00  0.00    -0.550 OA
ATOM      8  O   UNL     1      15.613  13.291   7.123  1.00  0.00    -0.550 OA
ENDBRANCH   5   6
ENDBRANCH   1   5
TORSDOF 3
ENDMDL
MODEL 7
REMARK VINA RESULT:    -2.882      9.522     10.569
REMARK INTER + INTRA:          -3.426
REMARK INTER:                  -3.395
REMARK INTRA:                  -0.031
REMARK UNBOUND:                -0.038
REMARK SMILES O=C([O-])CCC(=O)[O-]
REMARK SMILES IDX 4 1 2 2 1 3 3 4 5 5 6 6 7 7 8 8
REMARK H PARENT
REMARK Flexibility Score: inf
ROOT
ATOM      1  C   UNL     1      15.329  14.941   8.616  1.00  0.00     0.059 C 
ENDROOT
BRANCH   1   2
ATOM      2  C   UNL     1      15.637  16.279   8.023  1.00  0.00     0.042 C 
ATOM      3  O   UNL     1      15.077  17.314   8.468  1.00  0.00    -0.550 OA
ATOM      4  O   UNL     1      16.507  16.377   6.944  1.00  0.00    -0.550 OA
ENDBRANCH   1   2
BRANCH   1   5
ATOM      5  C   UNL     1      15.132  13.899   7.515  1.00  0.00     0.059 C 
BRANCH   5   6
ATOM      6  C   UNL     1      14.087  12.906   7.914  1.00  0.00     0.042 C 
ATOM      7  O   UNL     1      13.289  12.447   7.056  1.00  0.00    -0.550 OA
ATOM      8  O   UNL     1      14.025  12.451   9.226  1.00  0.00    -0.550 OA
ENDBRANCH   5   6
ENDBRANCH   1   5
TORSDOF 3
ENDMDL
MODEL 8
REMARK VINA RESULT:    -2.848      9.518     11.120
REMARK INTER + INTRA:          -3.386
REMARK INTER:                  -3.355
REMARK INTRA:                  -0.031
REMARK UNBOUND:                -0.038
REMARK SMILES O=C([O-])CCC(=O)[O-]
REMARK SMILES IDX 4 1 2 2 1 3 3 4 5 5 6 6 7 7 8 8
REMARK H PARENT
REMARK Flexibility Score: inf
ROOT
ATOM      1  C   UNL     1      15.061  13.979   7.364  1.00  0.00     0.059 C 
ENDROOT
BRANCH   1   2
ATOM      2  C   UNL     1      14.102  12.948   7.867  1.00  0.00     0.042 C 
ATOM      3  O   UNL     1      13.245  12.448   7.092  1.00  0.00    -0.550 OA
ATOM      4  O   UNL     1      14.121  12.575   9.205  1.00  0.00    -0.550 OA
ENDBRANCH   1   2
BRANCH   1   5
ATOM      5  C   UNL     1      15.477  14.921   8.494  1.00  0.00     0.059 C 
BRANCH   5   6
ATOM      6  C   UNL     1      15.734  16.295   7.963  1.00  0.00     0.042 C 
ATOM      7  O   UNL     1      15.087  17.279   8.410  1.00  0.00    -0.550 OA
ATOM      8  O   UNL     1      16.722  16.498   7.007  1.00  0.00    -0.550 OA
ENDBRANCH   5   6
ENDBRANCH   1   5
TORSDOF 3
ENDMDL
MODEL 9
REMARK VINA RESULT:    -2.718      1.118      1.679
REMARK INTER + INTRA:          -3.233
REMARK INTER:                  -3.174
REMARK INTRA:                  -0.059
REMARK UNBOUND:                -0.038
REMARK SMILES O=C([O-])CCC(=O)[O-]
REMARK SMILES IDX 4 1 2 2 1 3 3 4 5 5 6 6 7 7 8 8
REMARK H PARENT
REMARK Flexibility Score: inf
ROOT
ATOM      1  C   UNL     1      15.505  21.193  -0.005  1.00  0.00     0.059 C 
ENDROOT
BRANCH   1   2
ATOM      2  C   UNL     1      15.876  21.691  -1.365  1.00  0.00     0.042 C 
ATOM      3  O   UNL     1      17.086  21.761  -1.707  1.00  0.00    -0.550 OA
ATOM      4  O   UNL     1      14.888  22.125  -2.241  1.00  0.00    -0.550 OA
ENDBRANCH   1   2
BRANCH   1   5
ATOM      5  C   UNL     1      14.570  19.987  -0.113  1.00  0.00     0.059 C 
BRANCH   5   6
ATOM      6  C   UNL     1      15.061  18.865   0.745  1.00  0.00     0.042 C 
ATOM      7  O   UNL     1      14.257  17.998   1.176  1.00  0.00    -0.550 OA
ATOM      8  O   UNL     1      16.416  18.749   1.029  1.00  0.00    -0.550 OA
ENDBRANCH   5   6
ENDBRANCH   1   5
TORSDOF 3
ENDMDL
