MODEL 1
REMARK VINA RESULT:    -4.608      0.000      0.000
REMARK INTER + INTRA:          -9.562
REMARK INTER:                  -7.840
REMARK INTRA:                  -1.722
REMARK UNBOUND:                -1.722
REMARK SMILES CCCCCCCCCCCCCC(=O)[O-]
REMARK SMILES IDX 8 1 9 2 10 3 11 4 12 5 13 6 14 7 15 8 16 9 7 10 6 11 5 12
REMARK SMILES IDX 4 13 3 14 2 15 1 16
REMARK H PARENT
REMARK Flexibility Score: inf
ROOT
ATOM      1  C   UNL     1       7.904  10.962   7.799  1.00  0.00     0.000 C 
ENDROOT
BRANCH   1   2
ATOM      2  C   UNL     1       8.055  12.330   8.475  1.00  0.00     0.000 C 
BRANCH   2   3
ATOM      3  C   UNL     1       6.770  12.721   9.220  1.00  0.00     0.000 C 
BRANCH   3   4
ATOM      4  C   UNL     1       5.564  12.884   8.281  1.00  0.00     0.000 C 
BRANCH   4   5
ATOM      5  C   UNL     1       4.229  12.558   8.970  1.00  0.00     0.006 C 
BRANCH   5   6
ATOM      6  C   UNL     1       4.184  11.116   9.493  1.00  0.00     0.053 C 
BRANCH   6   7
ATOM      7  C   UNL     1       3.966  10.130   8.386  1.00  0.00     0.041 C 
ATOM      8  O   UNL     1       4.776   9.181   8.212  1.00  0.00    -0.550 OA
ATOM      9  O   UNL     1       2.883  10.275   7.529  1.00  0.00    -0.550 OA
ENDBRANCH   6   7
ENDBRANCH   5   6
ENDBRANCH   4   5
ENDBRANCH   3   4
ENDBRANCH   2   3
ENDBRANCH   1   2
BRANCH   1  10
ATOM     10  C   UNL     1       8.913  10.801   6.652  1.00  0.00     0.000 C 
BRANCH  10  11
ATOM     11  C   UNL     1       9.448  12.149   6.133  1.00  0.00    -0.000 C 
BRANCH  11  12
ATOM     12  C   UNL     1       9.538  12.266   4.599  1.00  0.00    -0.000 C 
BRANCH  12  13
ATOM     13  C   UNL     1       8.350  12.982   3.927  1.00  0.00    -0.000 C 
BRANCH  13  14
ATOM     14  C   UNL     1       7.035  12.958   4.730  1.00  0.00    -0.000 C 
BRANCH  14  15
ATOM     15  C   UNL     1       5.945  12.032   4.160  1.00  0.00    -0.003 C 
ATOM     16  C   UNL     1       5.478  10.977   5.161  1.00  0.00     0.004 C 
ENDBRANCH  14  15
ENDBRANCH  13  14
ENDBRANCH  12  13
ENDBRANCH  11  12
ENDBRANCH  10  11
ENDBRANCH   1  10
TORSDOF 12
ENDMDL
MODEL 2
REMARK VINA RESULT:    -4.483      1.519      1.844
REMARK INTER + INTRA:          -9.350
REMARK INTER:                  -7.745
REMARK INTRA:                  -1.605
REMARK UNBOUND:                -1.722
REMARK SMILES CCCCCCCCCCCCCC(=O)[O-]
REMARK SMILES IDX 8 1 9 2 10 3 11 4 12 5 13 6 14 7 15 8 16 9 7 10 6 11 5 12
REMARK SMILES IDX 4 13 3 14 2 15 1 16
REMARK H PARENT
REMARK Flexibility Score: inf
ROOT
ATOM      1  C   UNL     1       8.104  12.259   7.869  1.00  0.00     0.000 C 
ENDROOT
BRANCH   1   2
ATOM      2  C   UNL     1       6.857  12.135   8.753  1.00  0.00     0.000 C 
BRANCH   2   3
ATOM      3  C   UNL     1       5.769  13.125   8.313  1.00  0.00     0.000 C 
BRANCH   3   4
ATOM      4  C   UNL     1       4.391  12.798   8.911  1.00  0.00     0.000 C 
BRANCH   4   5
ATOM      5  C   UNL     1       4.132  11.285   9.007  1.00  0.00     0.006 C 
BRANCH   5   6
ATOM      6  C   UNL     1       2.699  10.917   8.598  1.00  0.00     0.053 C 
BRANCH   6   7
ATOM      7  C   UNL     1       1.708  11.263   9.667  1.00  0.00     0.041 C 
ATOM      8  O   UNL     1       1.509  10.474  10.628  1.00  0.00    -0.550 OA
ATOM      9  O   UNL     1       0.984  12.445   9.586  1.00  0.00    -0.550 OA
ENDBRANCH   6   7
ENDBRANCH   5   6
ENDBRANCH   4   5
ENDBRANCH   3   4
ENDBRANCH   2   3
ENDBRANCH   1   2
BRANCH   1  10
ATOM     10  C   UNL     1       8.564  10.882   7.369  1.00  0.00     0.000 C 
BRANCH  10  11
ATOM     11  C   UNL     1       9.256  10.945   5.995  1.00  0.00    -0.000 C 
BRANCH  11  12
ATOM     12  C   UNL     1       9.147  12.303   5.274  1.00  0.00    -0.000 C 
BRANCH  12  13
ATOM     13  C   UNL     1       8.140  12.344   4.107  1.00  0.00    -0.000 C 
BRANCH  13  14
ATOM     14  C   UNL     1       6.700  12.726   4.502  1.00  0.00    -0.000 C 
BRANCH  14  15
ATOM     15  C   UNL     1       5.655  11.616   4.287  1.00  0.00    -0.003 C 
ATOM     16  C   UNL     1       5.347  10.835   5.564  1.00  0.00     0.004 C 
ENDBRANCH  14  15
ENDBRANCH  13  14
ENDBRANCH  12  13
ENDBRANCH  11  12
ENDBRANCH  10  11
ENDBRANCH   1  10
TORSDOF 12
ENDMDL
MODEL 3
REMARK VINA RESULT:    -4.325      3.052      6.117
REMARK INTER + INTRA:          -9.081
REMARK INTER:                  -8.050
REMARK INTRA:                  -1.031
REMARK UNBOUND:                -1.722
REMARK SMILES CCCCCCCCCCCCCC(=O)[O-]
REMARK SMILES IDX 8 1 9 2 10 3 11 4 12 5 13 6 14 7 15 8 16 9 7 10 6 11 5 12
REMARK SMILES IDX 4 13 3 14 2 15 1 16
REMARK H PARENT
REMARK Flexibility Score: inf
ROOT
ATOM      1  C   UNL     1       5.475  10.489   6.598  1.00  0.00     0.000 C 
ENDROOT
BRANCH   1   2
ATOM      2  C   UNL     1       6.205  11.759   7.052  1.00  0.00     0.000 C 
BRANCH   2   3
ATOM      3  C   UNL     1       7.320  11.425   8.054  1.00  0.00     0.000 C 
BRANCH   3   4
ATOM      4  C   UNL     1       8.702  11.313   7.391  1.00  0.00     0.000 C 
BRANCH   4   5
ATOM      5  C   UNL     1       8.961  12.433   6.369  1.00  0.00     0.006 C 
BRANCH   5   6
ATOM      6  C   UNL     1       9.551  11.896   5.059  1.00  0.00     0.053 C 
BRANCH   6   7
ATOM      7  C   UNL     1       8.726  12.292   3.873  1.00  0.00     0.041 C 
ATOM      8  O   UNL     1       7.476  12.139   3.888  1.00  0.00    -0.550 OA
ATOM      9  O   UNL     1       9.342  12.806   2.738  1.00  0.00    -0.550 OA
ENDBRANCH   6   7
ENDBRANCH   5   6
ENDBRANCH   4   5
ENDBRANCH   3   4
ENDBRANCH   2   3
ENDBRANCH   1   2
BRANCH   1  10
ATOM     10  C   UNL     1       3.994  10.533   6.998  1.00  0.00     0.000 C 
BRANCH  10  11
ATOM     11  C   UNL     1       3.720   9.856   8.353  1.00  0.00    -0.000 C 
BRANCH  11  12
ATOM     12  C   UNL     1       3.525  10.824   9.537  1.00  0.00    -0.000 C 
BRANCH  12  13
ATOM     13  C   UNL     1       3.414  12.313   9.152  1.00  0.00    -0.000 C 
BRANCH  13  14
ATOM     14  C   UNL     1       2.103  13.001   9.580  1.00  0.00    -0.000 C 
BRANCH  14  15
ATOM     15  C   UNL     1       0.835  12.149   9.396  1.00  0.00    -0.003 C 
ATOM     16  C   UNL     1      -0.397  12.984   9.048  1.00  0.00     0.004 C 
ENDBRANCH  14  15
ENDBRANCH  13  14
ENDBRANCH  12  13
ENDBRANCH  11  12
ENDBRANCH  10  11
ENDBRANCH   1  10
TORSDOF 12
ENDMDL
MODEL 4
REMARK VINA RESULT:    -4.315      2.254      5.615
REMARK INTER + INTRA:          -9.065
REMARK INTER:                  -8.054
REMARK INTRA:                  -1.010
REMARK UNBOUND:                -1.722
REMARK SMILES CCCCCCCCCCCCCC(=O)[O-]
REMARK SMILES IDX 8 1 9 2 10 3 11 4 12 5 13 6 14 7 15 8 16 9 7 10 6 11 5 12
REMARK SMILES IDX 4 13 3 14 2 15 1 16
REMARK H PARENT
REMARK Flexibility Score: inf
ROOT
ATOM      1  C   UNL     1       4.812  10.907   6.270  1.00  0.00     0.000 C 
ENDROOT
BRANCH   1   2
ATOM      2  C   UNL     1       5.519  10.682   4.928  1.00  0.00     0.000 C 
BRANCH   2   3
ATOM      3  C   UNL     1       6.083  12.000   4.375  1.00  0.00     0.000 C 
BRANCH   3   4
ATOM      4  C   UNL     1       6.922  12.767   5.409  1.00  0.00     0.000 C 
BRANCH   4   5
ATOM      5  C   UNL     1       8.435  12.594   5.190  1.00  0.00     0.006 C 
BRANCH   5   6
ATOM      6  C   UNL     1       9.222  12.675   6.505  1.00  0.00     0.053 C 
BRANCH   6   7
ATOM      7  C   UNL     1       8.621  11.808   7.568  1.00  0.00     0.041 C 
ATOM      8  O   UNL     1       8.475  10.572   7.374  1.00  0.00    -0.550 OA
ATOM      9  O   UNL     1       8.195  12.371   8.765  1.00  0.00    -0.550 OA
ENDBRANCH   6   7
ENDBRANCH   5   6
ENDBRANCH   4   5
ENDBRANCH   3   4
ENDBRANCH   2   3
ENDBRANCH   1   2
BRANCH   1  10
ATOM     10  C   UNL     1       5.149   9.787   7.264  1.00  0.00     0.000 C 
BRANCH  10  11
ATOM     11  C   UNL     1       4.700  10.108   8.701  1.00  0.00    -0.000 C 
BRANCH  11  12
ATOM     12  C   UNL     1       4.878  11.579   9.125  1.00  0.00    -0.000 C 
BRANCH  12  13
ATOM     13  C   UNL     1       3.571  12.386   9.250  1.00  0.00    -0.000 C 
BRANCH  13  14
ATOM     14  C   UNL     1       2.282  11.584   8.982  1.00  0.00    -0.000 C 
BRANCH  14  15
ATOM     15  C   UNL     1       1.109  11.912   9.923  1.00  0.00    -0.003 C 
ATOM     16  C   UNL     1       0.021  12.748   9.249  1.00  0.00     0.004 C 
ENDBRANCH  14  15
ENDBRANCH  13  14
ENDBRANCH  12  13
ENDBRANCH  11  12
ENDBRANCH  10  11
ENDBRANCH   1  10
TORSDOF 12
ENDMDL
MODEL 5
REMARK VINA RESULT:    -4.284      1.415      3.137
REMARK INTER + INTRA:          -9.011
REMARK INTER:                  -7.698
REMARK INTRA:                  -1.313
REMARK UNBOUND:                -1.722
REMARK SMILES CCCCCCCCCCCCCC(=O)[O-]
REMARK SMILES IDX 8 1 9 2 10 3 11 4 12 5 13 6 14 7 15 8 16 9 7 10 6 11 5 12
REMARK SMILES IDX 4 13 3 14 2 15 1 16
REMARK H PARENT
REMARK Flexibility Score: inf
ROOT
ATOM      1  C   UNL     1       6.129  10.819   5.564  1.00  0.00     0.000 C 
ENDROOT
BRANCH   1   2
ATOM      2  C   UNL     1       4.757  10.533   6.186  1.00  0.00     0.000 C 
BRANCH   2   3
ATOM      3  C   UNL     1       4.900   9.765   7.508  1.00  0.00     0.000 C 
BRANCH   3   4
ATOM      4  C   UNL     1       4.927  10.693   8.734  1.00  0.00     0.000 C 
BRANCH   4   5
ATOM      5  C   UNL     1       4.288  12.064   8.453  1.00  0.00     0.006 C 
BRANCH   5   6
ATOM      6  C   UNL     1       3.084  12.339   9.364  1.00  0.00     0.053 C 
BRANCH   6   7
ATOM      7  C   UNL     1       2.045  11.266   9.251  1.00  0.00     0.041 C 
ATOM      8  O   UNL     1       1.636  10.666  10.281  1.00  0.00    -0.550 OA
ATOM      9  O   UNL     1       1.548  10.908   8.004  1.00  0.00    -0.550 OA
ENDBRANCH   6   7
ENDBRANCH   5   6
ENDBRANCH   4   5
ENDBRANCH   3   4
ENDBRANCH   2   3
ENDBRANCH   1   2
BRANCH   1  10
ATOM     10  C   UNL     1       6.015  11.839   4.423  1.00  0.00     0.000 C 
BRANCH  10  11
ATOM     11  C   UNL     1       7.207  12.812   4.370  1.00  0.00    -0.000 C 
BRANCH  11  12
ATOM     12  C   UNL     1       8.519  12.206   3.834  1.00  0.00    -0.000 C 
BRANCH  12  13
ATOM     13  C   UNL     1       9.758  12.444   4.719  1.00  0.00    -0.000 C 
BRANCH  13  14
ATOM     14  C   UNL     1       9.848  11.547   5.970  1.00  0.00    -0.000 C 
BRANCH  14  15
ATOM     15  C   UNL     1       9.732  12.293   7.311  1.00  0.00    -0.003 C 
ATOM     16  C   UNL     1       8.455  11.947   8.075  1.00  0.00     0.004 C 
ENDBRANCH  14  15
ENDBRANCH  13  14
ENDBRANCH  12  13
ENDBRANCH  11  12
ENDBRANCH  10  11
ENDBRANCH   1  10
TORSDOF 12
ENDMDL
MODEL 6
REMARK VINA RESULT:    -4.186      1.965      5.274
REMARK INTER + INTRA:          -8.845
REMARK INTER:                  -7.769
REMARK INTRA:                  -1.076
REMARK UNBOUND:                -1.722
REMARK SMILES CCCCCCCCCCCCCC(=O)[O-]
REMARK SMILES IDX 8 1 9 2 10 3 11 4 12 5 13 6 14 7 15 8 16 9 7 10 6 11 5 12
REMARK SMILES IDX 4 13 3 14 2 15 1 16
REMARK H PARENT
REMARK Flexibility Score: inf
ROOT
ATOM      1  C   UNL     1       7.549  11.993   8.499  1.00  0.00     0.000 C 
ENDROOT
BRANCH   1   2
ATOM      2  C   UNL     1       8.927  12.581   8.171  1.00  0.00     0.000 C 
BRANCH   2   3
ATOM      3  C   UNL     1       9.415  12.104   6.795  1.00  0.00     0.000 C 
BRANCH   3   4
ATOM      4  C   UNL     1       8.974  13.035   5.653  1.00  0.00     0.000 C 
BRANCH   4   5
ATOM      5  C   UNL     1       8.279  12.279   4.509  1.00  0.00     0.006 C 
BRANCH   5   6
ATOM      6  C   UNL     1       6.750  12.373   4.597  1.00  0.00     0.053 C 
BRANCH   6   7
ATOM      7  C   UNL     1       6.148  11.126   5.169  1.00  0.00     0.041 C 
ATOM      8  O   UNL     1       4.897  11.010   5.264  1.00  0.00    -0.550 OA
ATOM      9  O   UNL     1       6.969  10.102   5.622  1.00  0.00    -0.550 OA
ENDBRANCH   6   7
ENDBRANCH   5   6
ENDBRANCH   4   5
ENDBRANCH   3   4
ENDBRANCH   2   3
ENDBRANCH   1   2
BRANCH   1  10
ATOM     10  C   UNL     1       6.442  13.038   8.295  1.00  0.00     0.000 C 
BRANCH  10  11
ATOM     11  C   UNL     1       5.126  12.661   9.000  1.00  0.00    -0.000 C 
BRANCH  11  12
ATOM     12  C   UNL     1       4.756  11.166   8.931  1.00  0.00    -0.000 C 
BRANCH  12  13
ATOM     13  C   UNL     1       3.428  10.790   9.616  1.00  0.00    -0.000 C 
BRANCH  13  14
ATOM     14  C   UNL     1       2.164  11.372   8.954  1.00  0.00    -0.000 C 
BRANCH  14  15
ATOM     15  C   UNL     1       1.222  12.126   9.908  1.00  0.00    -0.003 C 
ATOM     16  C   UNL     1       0.039  12.773   9.188  1.00  0.00     0.004 C 
ENDBRANCH  14  15
ENDBRANCH  13  14
ENDBRANCH  12  13
ENDBRANCH  11  12
ENDBRANCH  10  11
ENDBRANCH   1  10
TORSDOF 12
ENDMDL
MODEL 7
REMARK VINA RESULT:    -4.119      1.005      2.133
REMARK INTER + INTRA:          -8.731
REMARK INTER:                  -7.520
REMARK INTRA:                  -1.210
REMARK UNBOUND:                -1.722
REMARK SMILES CCCCCCCCCCCCCC(=O)[O-]
REMARK SMILES IDX 8 1 9 2 10 3 11 4 12 5 13 6 14 7 15 8 16 9 7 10 6 11 5 12
REMARK SMILES IDX 4 13 3 14 2 15 1 16
REMARK H PARENT
REMARK Flexibility Score: inf
ROOT
ATOM      1  C   UNL     1       6.439  12.777   7.764  1.00  0.00     0.000 C 
ENDROOT
BRANCH   1   2
ATOM      2  C   UNL     1       5.720  12.856   9.116  1.00  0.00     0.000 C 
BRANCH   2   3
ATOM      3  C   UNL     1       4.195  12.858   8.929  1.00  0.00     0.000 C 
BRANCH   3   4
ATOM      4  C   UNL     1       3.524  11.602   9.510  1.00  0.00     0.000 C 
BRANCH   4   5
ATOM      5  C   UNL     1       2.509  10.973   8.541  1.00  0.00     0.006 C 
BRANCH   5   6
ATOM      6  C   UNL     1       3.185  10.383   7.296  1.00  0.00     0.053 C 
BRANCH   6   7
ATOM      7  C   UNL     1       4.229   9.371   7.657  1.00  0.00     0.041 C 
ATOM      8  O   UNL     1       3.901   8.289   8.211  1.00  0.00    -0.550 OA
ATOM      9  O   UNL     1       5.570   9.636   7.406  1.00  0.00    -0.550 OA
ENDBRANCH   6   7
ENDBRANCH   5   6
ENDBRANCH   4   5
ENDBRANCH   3   4
ENDBRANCH   2   3
ENDBRANCH   1   2
BRANCH   1  10
ATOM     10  C   UNL     1       7.963  12.840   7.947  1.00  0.00     0.000 C 
BRANCH  10  11
ATOM     11  C   UNL     1       8.643  11.470   7.774  1.00  0.00    -0.000 C 
BRANCH  11  12
ATOM     12  C   UNL     1       8.669  10.935   6.328  1.00  0.00    -0.000 C 
BRANCH  12  13
ATOM     13  C   UNL     1       9.193  11.929   5.273  1.00  0.00    -0.000 C 
BRANCH  13  14
ATOM     14  C   UNL     1       8.279  12.118   4.046  1.00  0.00    -0.000 C 
BRANCH  14  15
ATOM     15  C   UNL     1       6.872  12.655   4.363  1.00  0.00    -0.003 C 
ATOM     16  C   UNL     1       5.808  11.558   4.385  1.00  0.00     0.004 C 
ENDBRANCH  14  15
ENDBRANCH  13  14
ENDBRANCH  12  13
ENDBRANCH  11  12
ENDBRANCH  10  11
ENDBRANCH   1  10
TORSDOF 12
ENDMDL
MODEL 8
REMARK VINA RESULT:    -4.108      1.830      2.900
REMARK INTER + INTRA:          -8.712
REMARK INTER:                  -7.541
REMARK INTRA:                  -1.171
REMARK UNBOUND:                -1.722
REMARK SMILES CCCCCCCCCCCCCC(=O)[O-]
REMARK SMILES IDX 8 1 9 2 10 3 11 4 12 5 13 6 14 7 15 8 16 9 7 10 6 11 5 12
REMARK SMILES IDX 4 13 3 14 2 15 1 16
REMARK H PARENT
REMARK Flexibility Score: inf
ROOT
ATOM      1  C   UNL     1       6.224  12.726   9.224  1.00  0.00     0.000 C 
ENDROOT
BRANCH   1   2
ATOM      2  C   UNL     1       5.594  12.688   7.826  1.00  0.00     0.000 C 
BRANCH   2   3
ATOM      3  C   UNL     1       4.792  11.395   7.619  1.00  0.00     0.000 C 
BRANCH   3   4
ATOM      4  C   UNL     1       4.764  10.505   8.872  1.00  0.00     0.000 C 
BRANCH   4   5
ATOM      5  C   UNL     1       3.420  10.575   9.617  1.00  0.00     0.006 C 
BRANCH   5   6
ATOM      6  C   UNL     1       2.278  11.046   8.707  1.00  0.00     0.053 C 
BRANCH   6   7
ATOM      7  C   UNL     1       1.138  11.618   9.494  1.00  0.00     0.041 C 
ATOM      8  O   UNL     1       0.987  11.312  10.706  1.00  0.00    -0.550 OA
ATOM      9  O   UNL     1       0.227  12.467   8.880  1.00  0.00    -0.550 OA
ENDBRANCH   6   7
ENDBRANCH   5   6
ENDBRANCH   4   5
ENDBRANCH   3   4
ENDBRANCH   2   3
ENDBRANCH   1   2
BRANCH   1  10
ATOM     10  C   UNL     1       7.757  12.713   9.137  1.00  0.00     0.000 C 
BRANCH  10  11
ATOM     11  C   UNL     1       8.273  12.501   7.702  1.00  0.00    -0.000 C 
BRANCH  11  12
ATOM     12  C   UNL     1       8.535  11.032   7.314  1.00  0.00    -0.000 C 
BRANCH  12  13
ATOM     13  C   UNL     1       8.857  10.798   5.825  1.00  0.00    -0.000 C 
BRANCH  13  14
ATOM     14  C   UNL     1       9.019  12.078   4.983  1.00  0.00    -0.000 C 
BRANCH  14  15
ATOM     15  C   UNL     1       7.973  12.256   3.868  1.00  0.00    -0.003 C 
ATOM     16  C   UNL     1       6.543  12.021   4.351  1.00  0.00     0.004 C 
ENDBRANCH  14  15
ENDBRANCH  13  14
ENDBRANCH  12  13
ENDBRANCH  11  12
ENDBRANCH  10  11
ENDBRANCH   1  10
TORSDOF 12
ENDMDL
MODEL 9
REMARK VINA RESULT:    -3.908      1.592      4.696
REMARK INTER + INTRA:          -8.371
REMARK INTER:                  -7.192
REMARK INTRA:                  -1.179
REMARK UNBOUND:                -1.722
REMARK SMILES CCCCCCCCCCCCCC(=O)[O-]
REMARK SMILES IDX 8 1 9 2 10 3 11 4 12 5 13 6 14 7 15 8 16 9 7 10 6 11 5 12
REMARK SMILES IDX 4 13 3 14 2 15 1 16
REMARK H PARENT
REMARK Flexibility Score: inf
ROOT
ATOM      1  C   UNL     1       9.425  12.999   8.632  1.00  0.00     0.000 C 
ENDROOT
BRANCH   1   2
ATOM      2  C   UNL     1       9.385  12.183   7.334  1.00  0.00     0.000 C 
BRANCH   2   3
ATOM      3  C   UNL     1       9.505  13.096   6.105  1.00  0.00     0.000 C 
BRANCH   3   4
ATOM      4  C   UNL     1       9.650  12.310   4.792  1.00  0.00     0.000 C 
BRANCH   4   5
ATOM      5  C   UNL     1       8.364  12.324   3.949  1.00  0.00     0.006 C 
BRANCH   5   6
ATOM      6  C   UNL     1       7.110  12.531   4.810  1.00  0.00     0.053 C 
BRANCH   6   7
ATOM      7  C   UNL     1       6.361  11.250   5.018  1.00  0.00     0.041 C 
ATOM      8  O   UNL     1       5.223  11.089   4.502  1.00  0.00    -0.550 OA
ATOM      9  O   UNL     1       6.908  10.245   5.805  1.00  0.00    -0.550 OA
ENDBRANCH   6   7
ENDBRANCH   5   6
ENDBRANCH   4   5
ENDBRANCH   3   4
ENDBRANCH   2   3
ENDBRANCH   1   2
BRANCH   1  10
ATOM     10  C   UNL     1       8.024  13.118   9.250  1.00  0.00     0.000 C 
BRANCH  10  11
ATOM     11  C   UNL     1       7.022  12.110   8.658  1.00  0.00    -0.000 C 
BRANCH  11  12
ATOM     12  C   UNL     1       5.568  12.613   8.569  1.00  0.00    -0.000 C 
BRANCH  12  13
ATOM     13  C   UNL     1       4.535  11.767   9.340  1.00  0.00    -0.000 C 
BRANCH  13  14
ATOM     14  C   UNL     1       3.352  11.253   8.497  1.00  0.00    -0.000 C 
BRANCH  14  15
ATOM     15  C   UNL     1       3.710  10.149   7.486  1.00  0.00    -0.003 C 
ATOM     16  C   UNL     1       4.495   8.999   8.115  1.00  0.00     0.004 C 
ENDBRANCH  14  15
ENDBRANCH  13  14
ENDBRANCH  12  13
ENDBRANCH  11  12
ENDBRANCH  10  11
ENDBRANCH   1  10
TORSDOF 12
ENDMDL
