MODEL 1
REMARK VINA RESULT:    -0.793      0.000      0.000
REMARK INTER + INTRA:          -0.400
REMARK INTER:                  -0.955
REMARK INTRA:                   0.554
REMARK UNBOUND:                 0.554
REMARK SMILES O=c1c(O)c(-c2ccc(O)c(O)c2)oc2cc(O)cc(O)c12
REMARK SMILES IDX 5 1 3 2 2 3 1 4 22 5 20 6 19 7 17 8 16 9 15 10 14 11 6 12
REMARK SMILES IDX 7 13 8 14 9 15 13 16 11 17 10 18 12 20 4 22 21 24 18 26
REMARK H PARENT 10 19 12 21 4 23 21 25 18 27
REMARK Flexibility Score: inf
ROOT
ATOM      1  C   UNL     1      -2.501 -15.024  -8.100  1.00  0.00     0.180 A 
ATOM      2  C   UNL     1      -3.732 -15.047  -7.421  1.00  0.00     0.208 A 
ATOM      3  C   UNL     1      -3.736 -15.029  -6.018  1.00  0.00     0.238 A 
ATOM      4  O   UNL     1      -4.839 -15.104  -5.415  1.00  0.00    -0.285 OA
ATOM      5  C   UNL     1      -2.511 -14.972  -5.310  1.00  0.00     0.111 A 
ATOM      6  C   UNL     1      -2.399 -14.909  -3.889  1.00  0.00     0.134 A 
ATOM      7  C   UNL     1      -1.134 -14.989  -3.292  1.00  0.00     0.093 A 
ATOM      8  C   UNL     1       0.024 -15.063  -4.066  1.00  0.00     0.123 A 
ATOM      9  C   UNL     1      -0.071 -15.065  -5.458  1.00  0.00     0.094 A 
ATOM     10  C   UNL     1      -1.321 -15.023  -6.082  1.00  0.00     0.146 A 
ATOM     11  O   UNL     1      -1.368 -15.038  -7.408  1.00  0.00    -0.452 OA
ENDROOT
BRANCH   1  12
ATOM     12  C   UNL     1      -2.416 -15.016  -9.579  1.00  0.00     0.025 A 
ATOM     13  C   UNL     1      -1.176 -15.014 -10.240  1.00  0.00     0.016 A 
ATOM     14  C   UNL     1      -1.120 -15.030 -11.636  1.00  0.00     0.051 A 
ATOM     15  C   UNL     1      -2.297 -15.062 -12.392  1.00  0.00     0.157 A 
ATOM     16  C   UNL     1      -3.596 -15.070 -10.340  1.00  0.00     0.062 A 
ATOM     17  C   UNL     1      -3.542 -15.085 -11.741  1.00  0.00     0.158 A 
BRANCH  15  18
ATOM     18  O   UNL     1      -2.209 -15.077 -13.783  1.00  0.00    -0.504 OA
ATOM     19  H   UNL     1      -3.031 -15.036 -14.375  1.00  0.00     0.293 HD
ENDBRANCH  15  18
BRANCH  17  20
ATOM     20  O   UNL     1      -4.718 -15.125 -12.487  1.00  0.00    -0.504 OA
ATOM     21  H   UNL     1      -5.263 -15.976 -12.577  1.00  0.00     0.293 HD
ENDBRANCH  17  20
ENDBRANCH   1  12
BRANCH   2  22
ATOM     22  O   UNL     1      -4.928 -15.124  -8.140  1.00  0.00    -0.502 OA
ATOM     23  H   UNL     1      -4.966 -15.444  -9.101  1.00  0.00     0.293 HD
ENDBRANCH   2  22
BRANCH   6  24
ATOM     24  O   UNL     1      -3.486 -14.743  -3.026  1.00  0.00    -0.507 OA
ATOM     25  H   UNL     1      -3.720 -15.369  -2.270  1.00  0.00     0.293 HD
ENDBRANCH   6  24
BRANCH   8  26
ATOM     26  O   UNL     1       1.266 -15.125  -3.438  1.00  0.00    -0.508 OA
ATOM     27  H   UNL     1       1.537 -14.451  -2.732  1.00  0.00     0.293 HD
ENDBRANCH   8  26
TORSDOF 6
ENDMDL
MODEL 2
REMARK VINA RESULT:    -0.536      1.444      3.294
REMARK INTER + INTRA:          -0.091
REMARK INTER:                  -0.625
REMARK INTRA:                   0.534
REMARK UNBOUND:                 0.554
REMARK SMILES O=c1c(O)c(-c2ccc(O)c(O)c2)oc2cc(O)cc(O)c12
REMARK SMILES IDX 5 1 3 2 2 3 1 4 22 5 20 6 19 7 17 8 16 9 15 10 14 11 6 12
REMARK SMILES IDX 7 13 8 14 9 15 13 16 11 17 10 18 12 20 4 22 21 24 18 26
REMARK H PARENT 10 19 12 21 4 23 21 25 18 27
REMARK Flexibility Score: inf
ROOT
ATOM      1  C   UNL     1      -2.500 -14.969  -9.218  1.00  0.00     0.180 A 
ATOM      2  C   UNL     1      -1.176 -15.023  -8.749  1.00  0.00     0.208 A 
ATOM      3  C   UNL     1      -0.941 -14.984  -7.365  1.00  0.00     0.238 A 
ATOM      4  O   UNL     1       0.248 -14.978  -6.954  1.00  0.00    -0.285 OA
ATOM      5  C   UNL     1      -2.033 -14.908  -6.467  1.00  0.00     0.111 A 
ATOM      6  C   UNL     1      -1.913 -14.902  -5.045  1.00  0.00     0.134 A 
ATOM      7  C   UNL     1      -3.052 -14.691  -4.257  1.00  0.00     0.093 A 
ATOM      8  C   UNL     1      -4.313 -14.551  -4.836  1.00  0.00     0.123 A 
ATOM      9  C   UNL     1      -4.449 -14.615  -6.223  1.00  0.00     0.094 A 
ATOM     10  C   UNL     1      -3.327 -14.787  -7.038  1.00  0.00     0.146 A 
ATOM     11  O   UNL     1      -3.499 -14.831  -8.353  1.00  0.00    -0.452 OA
ENDROOT
BRANCH   1  12
ATOM     12  C   UNL     1      -2.829 -15.031 -10.660  1.00  0.00     0.025 A 
ATOM     13  C   UNL     1      -4.161 -15.090 -11.105  1.00  0.00     0.016 A 
ATOM     14  C   UNL     1      -4.448 -15.124 -12.472  1.00  0.00     0.051 A 
ATOM     15  C   UNL     1      -3.415 -15.084 -13.414  1.00  0.00     0.157 A 
ATOM     16  C   UNL     1      -1.795 -14.969 -11.609  1.00  0.00     0.062 A 
ATOM     17  C   UNL     1      -2.080 -15.004 -12.981  1.00  0.00     0.158 A 
BRANCH  15  18
ATOM     18  O   UNL     1      -3.732 -15.121 -14.771  1.00  0.00    -0.504 OA
ATOM     19  H   UNL     1      -3.767 -14.281 -15.338  1.00  0.00     0.293 HD
ENDBRANCH  15  18
BRANCH  17  20
ATOM     20  O   UNL     1      -1.046 -14.957 -13.914  1.00  0.00    -0.504 OA
ATOM     21  H   UNL     1      -0.864 -15.729 -14.545  1.00  0.00     0.293 HD
ENDBRANCH  17  20
ENDBRANCH   1  12
BRANCH   2  22
ATOM     22  O   UNL     1      -0.113 -15.077  -9.654  1.00  0.00    -0.502 OA
ATOM     23  H   UNL     1       0.494 -15.885  -9.734  1.00  0.00     0.293 HD
ENDBRANCH   2  22
BRANCH   6  24
ATOM     24  O   UNL     1      -0.714 -15.125  -4.361  1.00  0.00    -0.507 OA
ATOM     25  H   UNL     1      -0.646 -15.349  -3.380  1.00  0.00     0.293 HD
ENDBRANCH   6  24
BRANCH   8  26
ATOM     26  O   UNL     1      -5.426 -14.359  -4.021  1.00  0.00    -0.508 OA
ATOM     27  H   UNL     1      -6.311 -14.809  -4.218  1.00  0.00     0.293 HD
ENDBRANCH   8  26
TORSDOF 6
ENDMDL
MODEL 3
REMARK VINA RESULT:     1.750      1.651      2.488
REMARK INTER + INTRA:           2.662
REMARK INTER:                   2.199
REMARK INTRA:                   0.462
REMARK UNBOUND:                 0.554
REMARK SMILES O=c1c(O)c(-c2ccc(O)c(O)c2)oc2cc(O)cc(O)c12
REMARK SMILES IDX 5 1 3 2 2 3 1 4 22 5 20 6 19 7 17 8 16 9 15 10 14 11 6 12
REMARK SMILES IDX 7 13 8 14 9 15 13 16 11 17 10 18 12 20 4 22 21 24 18 26
REMARK H PARENT 10 19 12 21 4 23 21 25 18 27
REMARK Flexibility Score: inf
ROOT
ATOM      1  C   UNL     1      -2.654 -14.984  -9.801  1.00  0.00     0.180 A 
ATOM      2  C   UNL     1      -3.594 -15.027  -8.757  1.00  0.00     0.208 A 
ATOM      3  C   UNL     1      -3.137 -15.030  -7.429  1.00  0.00     0.238 A 
ATOM      4  O   UNL     1      -3.982 -15.124  -6.500  1.00  0.00    -0.285 OA
ATOM      5  C   UNL     1      -1.749 -14.974  -7.161  1.00  0.00     0.111 A 
ATOM      6  C   UNL     1      -1.177 -14.932  -5.855  1.00  0.00     0.134 A 
ATOM      7  C   UNL     1       0.214 -15.011  -5.707  1.00  0.00     0.093 A 
ATOM      8  C   UNL     1       1.055 -15.063  -6.818  1.00  0.00     0.123 A 
ATOM      9  C   UNL     1       0.509 -15.045  -8.102  1.00  0.00     0.094 A 
ATOM     10  C   UNL     1      -0.877 -15.004  -8.281  1.00  0.00     0.146 A 
ATOM     11  O   UNL     1      -1.356 -14.999  -9.519  1.00  0.00    -0.452 OA
ENDROOT
BRANCH   1  12
ATOM     12  C   UNL     1      -3.058 -14.953 -11.225  1.00  0.00     0.025 A 
ATOM     13  C   UNL     1      -4.399 -15.124 -11.609  1.00  0.00     0.016 A 
ATOM     14  C   UNL     1      -4.762 -15.067 -12.957  1.00  0.00     0.051 A 
ATOM     15  C   UNL     1      -3.796 -14.825 -13.940  1.00  0.00     0.157 A 
ATOM     16  C   UNL     1      -2.095 -14.688 -12.212  1.00  0.00     0.062 A 
ATOM     17  C   UNL     1      -2.456 -14.631 -13.566  1.00  0.00     0.158 A 
BRANCH  15  18
ATOM     18  O   UNL     1      -4.188 -14.774 -15.277  1.00  0.00    -0.504 OA
ATOM     19  H   UNL     1      -3.787 -14.112 -15.930  1.00  0.00     0.293 HD
ENDBRANCH  15  18
BRANCH  17  20
ATOM     20  O   UNL     1      -1.490 -14.382 -14.539  1.00  0.00    -0.504 OA
ATOM     21  H   UNL     1      -0.527 -14.677 -14.421  1.00  0.00     0.293 HD
ENDBRANCH  17  20
ENDBRANCH   1  12
BRANCH   2  22
ATOM     22  O   UNL     1      -4.959 -15.103  -9.045  1.00  0.00    -0.502 OA
ATOM     23  H   UNL     1      -5.446 -14.384  -9.567  1.00  0.00     0.293 HD
ENDBRANCH   2  22
BRANCH   6  24
ATOM     24  O   UNL     1      -1.922 -14.788  -4.680  1.00  0.00    -0.507 OA
ATOM     25  H   UNL     1      -1.607 -15.068  -3.763  1.00  0.00     0.293 HD
ENDBRANCH   6  24
BRANCH   8  26
ATOM     26  O   UNL     1       2.434 -15.125  -6.634  1.00  0.00    -0.508 OA
ATOM     27  H   UNL     1       3.079 -14.869  -7.372  1.00  0.00     0.293 HD
ENDBRANCH   8  26
TORSDOF 6
ENDMDL
MODEL 4
REMARK VINA RESULT:     1.983      2.202      4.699
REMARK INTER + INTRA:           2.943
REMARK INTER:                   2.400
REMARK INTRA:                   0.544
REMARK UNBOUND:                 0.554
REMARK SMILES O=c1c(O)c(-c2ccc(O)c(O)c2)oc2cc(O)cc(O)c12
REMARK SMILES IDX 5 1 3 2 2 3 1 4 22 5 20 6 19 7 17 8 16 9 15 10 14 11 6 12
REMARK SMILES IDX 7 13 8 14 9 15 13 16 11 17 10 18 12 20 4 22 21 24 18 26
REMARK H PARENT 10 19 12 21 4 23 21 25 18 27
REMARK Flexibility Score: inf
ROOT
ATOM      1  C   UNL     1      -3.646 -15.025 -11.461  1.00  0.00     0.180 A 
ATOM      2  C   UNL     1      -2.246 -14.903 -11.451  1.00  0.00     0.208 A 
ATOM      3  C   UNL     1      -1.572 -14.889 -10.220  1.00  0.00     0.238 A 
ATOM      4  O   UNL     1      -0.324 -14.725 -10.215  1.00  0.00    -0.285 OA
ATOM      5  C   UNL     1      -2.304 -15.014  -9.014  1.00  0.00     0.111 A 
ATOM      6  C   UNL     1      -1.722 -15.052  -7.713  1.00  0.00     0.134 A 
ATOM      7  C   UNL     1      -2.551 -15.046  -6.584  1.00  0.00     0.093 A 
ATOM      8  C   UNL     1      -3.940 -15.069  -6.711  1.00  0.00     0.123 A 
ATOM      9  C   UNL     1      -4.520 -15.091  -7.979  1.00  0.00     0.094 A 
ATOM     10  C   UNL     1      -3.719 -15.061  -9.124  1.00  0.00     0.146 A 
ATOM     11  O   UNL     1      -4.310 -15.073 -10.312  1.00  0.00    -0.452 OA
ENDROOT
BRANCH   1  12
ATOM     12  C   UNL     1      -4.425 -15.072 -12.720  1.00  0.00     0.025 A 
ATOM     13  C   UNL     1      -5.830 -15.055 -12.713  1.00  0.00     0.016 A 
ATOM     14  C   UNL     1      -6.544 -15.076 -13.913  1.00  0.00     0.051 A 
ATOM     15  C   UNL     1      -5.868 -15.101 -15.138  1.00  0.00     0.157 A 
ATOM     16  C   UNL     1      -3.749 -15.075 -13.952  1.00  0.00     0.062 A 
ATOM     17  C   UNL     1      -4.463 -15.097 -15.158  1.00  0.00     0.158 A 
BRANCH  15  18
ATOM     18  O   UNL     1      -6.607 -15.123 -16.320  1.00  0.00    -0.504 OA
ATOM     19  H   UNL     1      -6.519 -14.398 -17.023  1.00  0.00     0.293 HD
ENDBRANCH  15  18
BRANCH  17  20
ATOM     20  O   UNL     1      -3.783 -15.114 -16.375  1.00  0.00    -0.504 OA
ATOM     21  H   UNL     1      -3.234 -14.321 -16.688  1.00  0.00     0.293 HD
ENDBRANCH  17  20
ENDBRANCH   1  12
BRANCH   2  22
ATOM     22  O   UNL     1      -1.545 -14.760 -12.652  1.00  0.00    -0.502 OA
ATOM     23  H   UNL     1      -0.535 -14.693 -12.688  1.00  0.00     0.293 HD
ENDBRANCH   2  22
BRANCH   6  24
ATOM     24  O   UNL     1      -0.345 -15.125  -7.475  1.00  0.00    -0.507 OA
ATOM     25  H   UNL     1       0.348 -14.560  -7.942  1.00  0.00     0.293 HD
ENDBRANCH   6  24
BRANCH   8  26
ATOM     26  O   UNL     1      -4.733 -15.078  -5.566  1.00  0.00    -0.508 OA
ATOM     27  H   UNL     1      -5.731 -15.246  -5.615  1.00  0.00     0.293 HD
ENDBRANCH   8  26
TORSDOF 6
ENDMDL
