MODEL 1
REMARK VINA RESULT:    -4.000      0.000      0.000
REMARK INTER + INTRA:          -7.148
REMARK INTER:                  -6.105
REMARK INTRA:                  -1.043
REMARK UNBOUND:                -1.043
REMARK SMILES CCCCCCCCCCC(=O)[O-]
REMARK SMILES IDX 7 1 8 2 9 3 10 4 11 5 12 6 13 7 6 8 5 9 4 10 3 11 2 12 1 13
REMARK H PARENT
REMARK Flexibility Score: inf
ROOT
ATOM      1  C   UNL     1      15.332  16.425  -0.997  1.00  0.00     0.000 C 
ENDROOT
BRANCH   1   2
ATOM      2  C   UNL     1      16.058  17.270  -2.058  1.00  0.00     0.000 C 
BRANCH   2   3
ATOM      3  C   UNL     1      15.498  18.700  -2.165  1.00  0.00     0.006 C 
BRANCH   3   4
ATOM      4  C   UNL     1      14.915  19.048  -3.544  1.00  0.00     0.053 C 
BRANCH   4   5
ATOM      5  C   UNL     1      13.964  17.999  -4.031  1.00  0.00     0.041 C 
ATOM      6  O   UNL     1      14.186  17.395  -5.114  1.00  0.00    -0.550 OA
ATOM      7  O   UNL     1      12.813  17.713  -3.306  1.00  0.00    -0.550 OA
ENDBRANCH   4   5
ENDBRANCH   3   4
ENDBRANCH   2   3
ENDBRANCH   1   2
BRANCH   1   8
ATOM      8  C   UNL     1      14.903  17.254   0.224  1.00  0.00     0.000 C 
BRANCH   8   9
ATOM      9  C   UNL     1      15.987  17.307   1.313  1.00  0.00    -0.000 C 
BRANCH   9  10
ATOM     10  C   UNL     1      16.639  18.697   1.369  1.00  0.00    -0.000 C 
BRANCH  10  11
ATOM     11  C   UNL     1      18.050  18.714   0.759  1.00  0.00    -0.000 C 
BRANCH  11  12
ATOM     12  C   UNL     1      18.948  17.599   1.316  1.00  0.00    -0.003 C 
ATOM     13  C   UNL     1      19.341  16.613   0.220  1.00  0.00     0.004 C 
ENDBRANCH  11  12
ENDBRANCH  10  11
ENDBRANCH   9  10
ENDBRANCH   8   9
ENDBRANCH   1   8
TORSDOF 9
ENDMDL
MODEL 2
REMARK VINA RESULT:    -3.963     11.124     13.550
REMARK INTER + INTRA:          -7.092
REMARK INTER:                  -6.759
REMARK INTRA:                  -0.332
REMARK UNBOUND:                -1.043
REMARK SMILES CCCCCCCCCCC(=O)[O-]
REMARK SMILES IDX 7 1 8 2 9 3 10 4 11 5 12 6 13 7 6 8 5 9 4 10 3 11 2 12 1 13
REMARK H PARENT
REMARK Flexibility Score: inf
ROOT
ATOM      1  C   UNL     1      23.751  10.878   5.148  1.00  0.00     0.000 C 
ENDROOT
BRANCH   1   2
ATOM      2  C   UNL     1      24.281  12.321   5.098  1.00  0.00     0.000 C 
BRANCH   2   3
ATOM      3  C   UNL     1      23.652  13.223   6.175  1.00  0.00     0.006 C 
BRANCH   3   4
ATOM      4  C   UNL     1      22.126  13.085   6.300  1.00  0.00     0.053 C 
BRANCH   4   5
ATOM      5  C   UNL     1      21.418  14.365   5.978  1.00  0.00     0.041 C 
ATOM      6  O   UNL     1      22.075  15.382   5.632  1.00  0.00    -0.550 OA
ATOM      7  O   UNL     1      20.036  14.444   6.096  1.00  0.00    -0.550 OA
ENDBRANCH   4   5
ENDBRANCH   3   4
ENDBRANCH   2   3
ENDBRANCH   1   2
BRANCH   1   8
ATOM      8  C   UNL     1      24.820   9.872   5.603  1.00  0.00     0.000 C 
BRANCH   8   9
ATOM      9  C   UNL     1      24.400   8.413   5.360  1.00  0.00    -0.000 C 
BRANCH   9  10
ATOM     10  C   UNL     1      25.613   7.475   5.436  1.00  0.00    -0.000 C 
BRANCH  10  11
ATOM     11  C   UNL     1      26.168   7.337   6.863  1.00  0.00    -0.000 C 
BRANCH  11  12
ATOM     12  C   UNL     1      27.495   6.565   6.909  1.00  0.00    -0.003 C 
ATOM     13  C   UNL     1      27.556   5.513   5.805  1.00  0.00     0.004 C 
ENDBRANCH  11  12
ENDBRANCH  10  11
ENDBRANCH   9  10
ENDBRANCH   8   9
ENDBRANCH   1   8
TORSDOF 9
ENDMDL
MODEL 3
REMARK VINA RESULT:    -3.915     12.872     15.220
REMARK INTER + INTRA:          -7.017
REMARK INTER:                  -6.639
REMARK INTRA:                  -0.378
REMARK UNBOUND:                -1.043
REMARK SMILES CCCCCCCCCCC(=O)[O-]
REMARK SMILES IDX 7 1 8 2 9 3 10 4 11 5 12 6 13 7 6 8 5 9 4 10 3 11 2 12 1 13
REMARK H PARENT
REMARK Flexibility Score: inf
ROOT
ATOM      1  C   UNL     1      24.419   8.605   5.395  1.00  0.00     0.000 C 
ENDROOT
BRANCH   1   2
ATOM      2  C   UNL     1      24.810  10.073   5.634  1.00  0.00     0.000 C 
BRANCH   2   3
ATOM      3  C   UNL     1      23.750  11.063   5.117  1.00  0.00     0.006 C 
BRANCH   3   4
ATOM      4  C   UNL     1      24.262  12.502   4.947  1.00  0.00     0.053 C 
BRANCH   4   5
ATOM      5  C   UNL     1      23.563  13.458   5.864  1.00  0.00     0.041 C 
ATOM      6  O   UNL     1      24.011  14.624   6.026  1.00  0.00    -0.550 OA
ATOM      7  O   UNL     1      22.437  13.049   6.567  1.00  0.00    -0.550 OA
ENDBRANCH   4   5
ENDBRANCH   3   4
ENDBRANCH   2   3
ENDBRANCH   1   2
BRANCH   1   8
ATOM      8  C   UNL     1      25.590   7.637   5.624  1.00  0.00     0.000 C 
BRANCH   8   9
ATOM      9  C   UNL     1      25.923   7.455   7.114  1.00  0.00    -0.000 C 
BRANCH   9  10
ATOM     10  C   UNL     1      27.442   7.382   7.330  1.00  0.00    -0.000 C 
BRANCH  10  11
ATOM     11  C   UNL     1      28.048   6.061   6.831  1.00  0.00    -0.000 C 
BRANCH  11  12
ATOM     12  C   UNL     1      27.679   4.867   7.724  1.00  0.00    -0.003 C 
ATOM     13  C   UNL     1      27.680   3.565   6.928  1.00  0.00     0.004 C 
ENDBRANCH  11  12
ENDBRANCH  10  11
ENDBRANCH   9  10
ENDBRANCH   8   9
ENDBRANCH   1   8
TORSDOF 9
ENDMDL
MODEL 4
REMARK VINA RESULT:    -3.885     13.700     15.183
REMARK INTER + INTRA:          -6.972
REMARK INTER:                  -6.351
REMARK INTRA:                  -0.622
REMARK UNBOUND:                -1.043
REMARK SMILES CCCCCCCCCCC(=O)[O-]
REMARK SMILES IDX 7 1 8 2 9 3 10 4 11 5 12 6 13 7 6 8 5 9 4 10 3 11 2 12 1 13
REMARK H PARENT
REMARK Flexibility Score: inf
ROOT
ATOM      1  C   UNL     1      15.291   3.363   1.778  1.00  0.00     0.000 C 
ENDROOT
BRANCH   1   2
ATOM      2  C   UNL     1      14.343   4.494   1.344  1.00  0.00     0.000 C 
BRANCH   2   3
ATOM      3  C   UNL     1      12.875   4.038   1.254  1.00  0.00     0.006 C 
BRANCH   3   4
ATOM      4  C   UNL     1      11.867   5.038   1.840  1.00  0.00     0.053 C 
BRANCH   4   5
ATOM      5  C   UNL     1      10.557   5.005   1.114  1.00  0.00     0.041 C 
ATOM      6  O   UNL     1       9.807   3.997   1.207  1.00  0.00    -0.550 OA
ATOM      7  O   UNL     1      10.182   6.071   0.308  1.00  0.00    -0.550 OA
ENDBRANCH   4   5
ENDBRANCH   3   4
ENDBRANCH   2   3
ENDBRANCH   1   2
BRANCH   1   8
ATOM      8  C   UNL     1      16.039   2.733   0.592  1.00  0.00     0.000 C 
BRANCH   8   9
ATOM      9  C   UNL     1      16.108   3.667  -0.626  1.00  0.00    -0.000 C 
BRANCH   9  10
ATOM     10  C   UNL     1      15.876   2.887  -1.928  1.00  0.00    -0.000 C 
BRANCH  10  11
ATOM     11  C   UNL     1      16.545   1.503  -1.917  1.00  0.00    -0.000 C 
BRANCH  11  12
ATOM     12  C   UNL     1      15.599   0.386  -2.383  1.00  0.00    -0.003 C 
ATOM     13  C   UNL     1      14.162   0.888  -2.478  1.00  0.00     0.004 C 
ENDBRANCH  11  12
ENDBRANCH  10  11
ENDBRANCH   9  10
ENDBRANCH   8   9
ENDBRANCH   1   8
TORSDOF 9
ENDMDL
MODEL 5
REMARK VINA RESULT:    -3.850      3.191      5.793
REMARK INTER + INTRA:          -6.918
REMARK INTER:                  -5.997
REMARK INTRA:                  -0.921
REMARK UNBOUND:                -1.043
REMARK SMILES CCCCCCCCCCC(=O)[O-]
REMARK SMILES IDX 7 1 8 2 9 3 10 4 11 5 12 6 13 7 6 8 5 9 4 10 3 11 2 12 1 13
REMARK H PARENT
REMARK Flexibility Score: inf
ROOT
ATOM      1  C   UNL     1      15.396  16.506  -0.943  1.00  0.00     0.000 C 
ENDROOT
BRANCH   1   2
ATOM      2  C   UNL     1      15.069  17.268   0.353  1.00  0.00     0.000 C 
BRANCH   2   3
ATOM      3  C   UNL     1      16.151  17.095   1.434  1.00  0.00     0.006 C 
BRANCH   3   4
ATOM      4  C   UNL     1      17.305  18.105   1.337  1.00  0.00     0.053 C 
BRANCH   4   5
ATOM      5  C   UNL     1      18.631  17.427   1.175  1.00  0.00     0.041 C 
ATOM      6  O   UNL     1      18.834  16.657   0.199  1.00  0.00    -0.550 OA
ATOM      7  O   UNL     1      19.630  17.618   2.121  1.00  0.00    -0.550 OA
ENDBRANCH   4   5
ENDBRANCH   3   4
ENDBRANCH   2   3
ENDBRANCH   1   2
BRANCH   1   8
ATOM      8  C   UNL     1      16.122  17.383  -1.975  1.00  0.00     0.000 C 
BRANCH   8   9
ATOM      9  C   UNL     1      15.547  18.806  -2.050  1.00  0.00    -0.000 C 
BRANCH   9  10
ATOM     10  C   UNL     1      15.037  19.117  -3.465  1.00  0.00    -0.000 C 
BRANCH  10  11
ATOM     11  C   UNL     1      13.620  18.576  -3.715  1.00  0.00    -0.000 C 
BRANCH  11  12
ATOM     12  C   UNL     1      13.596  17.434  -4.741  1.00  0.00    -0.003 C 
ATOM     13  C   UNL     1      13.214  16.112  -4.082  1.00  0.00     0.004 C 
ENDBRANCH  11  12
ENDBRANCH  10  11
ENDBRANCH   9  10
ENDBRANCH   8   9
ENDBRANCH   1   8
TORSDOF 9
ENDMDL
MODEL 6
REMARK VINA RESULT:    -3.845     14.095     15.688
REMARK INTER + INTRA:          -6.911
REMARK INTER:                  -5.990
REMARK INTRA:                  -0.921
REMARK UNBOUND:                -1.043
REMARK SMILES CCCCCCCCCCC(=O)[O-]
REMARK SMILES IDX 7 1 8 2 9 3 10 4 11 5 12 6 13 7 6 8 5 9 4 10 3 11 2 12 1 13
REMARK H PARENT
REMARK Flexibility Score: inf
ROOT
ATOM      1  C   UNL     1      15.797   2.361   0.722  1.00  0.00     0.000 C 
ENDROOT
BRANCH   1   2
ATOM      2  C   UNL     1      15.332   3.240   1.896  1.00  0.00     0.000 C 
BRANCH   2   3
ATOM      3  C   UNL     1      14.438   4.410   1.446  1.00  0.00     0.006 C 
BRANCH   3   4
ATOM      4  C   UNL     1      13.023   3.992   1.017  1.00  0.00     0.053 C 
BRANCH   4   5
ATOM      5  C   UNL     1      11.967   4.813   1.691  1.00  0.00     0.041 C 
ATOM      6  O   UNL     1      11.906   4.858   2.949  1.00  0.00    -0.550 OA
ATOM      7  O   UNL     1      11.029   5.500   0.931  1.00  0.00    -0.550 OA
ENDBRANCH   4   5
ENDBRANCH   3   4
ENDBRANCH   2   3
ENDBRANCH   1   2
BRANCH   1   8
ATOM      8  C   UNL     1      16.426   3.181  -0.416  1.00  0.00     0.000 C 
BRANCH   8   9
ATOM      9  C   UNL     1      16.368   2.454  -1.769  1.00  0.00    -0.000 C 
BRANCH   9  10
ATOM     10  C   UNL     1      16.295   0.933  -1.571  1.00  0.00    -0.000 C 
BRANCH  10  11
ATOM     11  C   UNL     1      15.121   0.293  -2.329  1.00  0.00    -0.000 C 
BRANCH  11  12
ATOM     12  C   UNL     1      13.940   1.257  -2.513  1.00  0.00    -0.003 C 
ATOM     13  C   UNL     1      12.860   1.007  -1.464  1.00  0.00     0.004 C 
ENDBRANCH  11  12
ENDBRANCH  10  11
ENDBRANCH   9  10
ENDBRANCH   8   9
ENDBRANCH   1   8
TORSDOF 9
ENDMDL
MODEL 7
REMARK VINA RESULT:    -3.845     14.901     16.171
REMARK INTER + INTRA:          -6.911
REMARK INTER:                  -5.921
REMARK INTRA:                  -0.989
REMARK UNBOUND:                -1.043
REMARK SMILES CCCCCCCCCCC(=O)[O-]
REMARK SMILES IDX 7 1 8 2 9 3 10 4 11 5 12 6 13 7 6 8 5 9 4 10 3 11 2 12 1 13
REMARK H PARENT
REMARK Flexibility Score: inf
ROOT
ATOM      1  C   UNL     1      13.839   3.038  -1.519  1.00  0.00     0.000 C 
ENDROOT
BRANCH   1   2
ATOM      2  C   UNL     1      13.509   1.954  -2.560  1.00  0.00     0.000 C 
BRANCH   2   3
ATOM      3  C   UNL     1      13.874   0.538  -2.080  1.00  0.00     0.006 C 
BRANCH   3   4
ATOM      4  C   UNL     1      15.176  -0.016  -2.683  1.00  0.00     0.053 C 
BRANCH   4   5
ATOM      5  C   UNL     1      16.377   0.377  -1.879  1.00  0.00     0.041 C 
ATOM      6  O   UNL     1      17.357   0.938  -2.437  1.00  0.00    -0.550 OA
ATOM      7  O   UNL     1      16.428   0.092  -0.520  1.00  0.00    -0.550 OA
ENDBRANCH   4   5
ENDBRANCH   3   4
ENDBRANCH   2   3
ENDBRANCH   1   2
BRANCH   1   8
ATOM      8  C   UNL     1      15.146   3.782  -1.836  1.00  0.00     0.000 C 
BRANCH   8   9
ATOM      9  C   UNL     1      16.096   3.847  -0.630  1.00  0.00    -0.000 C 
BRANCH   9  10
ATOM     10  C   UNL     1      15.309   3.842   0.689  1.00  0.00    -0.000 C 
BRANCH  10  11
ATOM     11  C   UNL     1      15.763   2.728   1.646  1.00  0.00    -0.000 C 
BRANCH  11  12
ATOM     12  C   UNL     1      14.668   2.324   2.644  1.00  0.00    -0.003 C 
ATOM     13  C   UNL     1      13.298   2.812   2.183  1.00  0.00     0.004 C 
ENDBRANCH  11  12
ENDBRANCH  10  11
ENDBRANCH   9  10
ENDBRANCH   8   9
ENDBRANCH   1   8
TORSDOF 9
ENDMDL
MODEL 8
REMARK VINA RESULT:    -3.815     14.967     16.196
REMARK INTER + INTRA:          -6.865
REMARK INTER:                  -5.816
REMARK INTRA:                  -1.049
REMARK UNBOUND:                -1.043
REMARK SMILES CCCCCCCCCCC(=O)[O-]
REMARK SMILES IDX 7 1 8 2 9 3 10 4 11 5 12 6 13 7 6 8 5 9 4 10 3 11 2 12 1 13
REMARK H PARENT
REMARK Flexibility Score: inf
ROOT
ATOM      1  C   UNL     1      16.439   0.382  -1.661  1.00  0.00     0.000 C 
ENDROOT
BRANCH   1   2
ATOM      2  C   UNL     1      15.235   0.273  -2.613  1.00  0.00     0.000 C 
BRANCH   2   3
ATOM      3  C   UNL     1      13.907   0.042  -1.869  1.00  0.00     0.006 C 
BRANCH   3   4
ATOM      4  C   UNL     1      12.804   1.053  -2.218  1.00  0.00     0.053 C 
BRANCH   4   5
ATOM      5  C   UNL     1      12.296   1.770  -1.005  1.00  0.00     0.041 C 
ATOM      6  O   UNL     1      12.471   1.279   0.141  1.00  0.00    -0.550 OA
ATOM      7  O   UNL     1      11.598   2.964  -1.145  1.00  0.00    -0.550 OA
ENDBRANCH   4   5
ENDBRANCH   3   4
ENDBRANCH   2   3
ENDBRANCH   1   2
BRANCH   1   8
ATOM      8  C   UNL     1      17.067   1.785  -1.662  1.00  0.00     0.000 C 
BRANCH   8   9
ATOM      9  C   UNL     1      16.013   2.904  -1.651  1.00  0.00    -0.000 C 
BRANCH   9  10
ATOM     10  C   UNL     1      16.210   3.829  -0.441  1.00  0.00    -0.000 C 
BRANCH  10  11
ATOM     11  C   UNL     1      15.095   3.678   0.607  1.00  0.00    -0.000 C 
BRANCH  11  12
ATOM     12  C   UNL     1      15.594   3.039   1.912  1.00  0.00    -0.003 C 
ATOM     13  C   UNL     1      15.622   1.518   1.802  1.00  0.00     0.004 C 
ENDBRANCH  11  12
ENDBRANCH  10  11
ENDBRANCH   9  10
ENDBRANCH   8   9
ENDBRANCH   1   8
TORSDOF 9
ENDMDL
MODEL 9
REMARK VINA RESULT:    -3.754     14.114     15.473
REMARK INTER + INTRA:          -6.772
REMARK INTER:                  -5.722
REMARK INTRA:                  -1.050
REMARK UNBOUND:                -1.043
REMARK SMILES CCCCCCCCCCC(=O)[O-]
REMARK SMILES IDX 7 1 8 2 9 3 10 4 11 5 12 6 13 7 6 8 5 9 4 10 3 11 2 12 1 13
REMARK H PARENT
REMARK Flexibility Score: inf
ROOT
ATOM      1  C   UNL     1      16.347   3.725  -0.490  1.00  0.00     0.000 C 
ENDROOT
BRANCH   1   2
ATOM      2  C   UNL     1      16.516   2.197  -0.528  1.00  0.00     0.000 C 
BRANCH   2   3
ATOM      3  C   UNL     1      16.149   1.591  -1.895  1.00  0.00     0.006 C 
BRANCH   3   4
ATOM      4  C   UNL     1      14.903   0.691  -1.871  1.00  0.00     0.053 C 
BRANCH   4   5
ATOM      5  C   UNL     1      13.638   1.486  -1.769  1.00  0.00     0.041 C 
ATOM      6  O   UNL     1      13.548   2.609  -2.332  1.00  0.00    -0.550 OA
ATOM      7  O   UNL     1      12.572   1.002  -1.022  1.00  0.00    -0.550 OA
ENDBRANCH   4   5
ENDBRANCH   3   4
ENDBRANCH   2   3
ENDBRANCH   1   2
BRANCH   1   8
ATOM      8  C   UNL     1      15.341   4.181   0.579  1.00  0.00     0.000 C 
BRANCH   8   9
ATOM      9  C   UNL     1      15.009   3.071   1.589  1.00  0.00    -0.000 C 
BRANCH   9  10
ATOM     10  C   UNL     1      13.511   3.071   1.929  1.00  0.00    -0.000 C 
BRANCH  10  11
ATOM     11  C   UNL     1      12.682   3.924   0.955  1.00  0.00    -0.000 C 
BRANCH  11  12
ATOM     12  C   UNL     1      11.821   4.973   1.675  1.00  0.00    -0.003 C 
ATOM     13  C   UNL     1      11.677   4.641   3.157  1.00  0.00     0.004 C 
ENDBRANCH  11  12
ENDBRANCH  10  11
ENDBRANCH   9  10
ENDBRANCH   8   9
ENDBRANCH   1   8
TORSDOF 9
ENDMDL
