MODEL 1
REMARK VINA RESULT:    -3.007      0.000      0.000
REMARK INTER + INTRA:          -3.631
REMARK INTER:                  -3.622
REMARK INTRA:                  -0.009
REMARK UNBOUND:                -0.009
REMARK SMILES CCCCCO
REMARK SMILES IDX 4 1 3 2 2 3 1 4 5 5 6 6
REMARK H PARENT 6 7
REMARK Flexibility Score: inf
ROOT
ATOM      1  C   UNL     1      36.191  -5.699  23.980  1.00  0.00     0.028 C 
ENDROOT
BRANCH   1   2
ATOM      2  C   UNL     1      35.542  -6.947  24.602  1.00  0.00     0.002 C 
BRANCH   2   3
ATOM      3  C   UNL     1      36.566  -7.902  25.232  1.00  0.00    -0.003 C 
ATOM      4  C   UNL     1      36.052  -9.339  25.228  1.00  0.00     0.004 C 
ENDBRANCH   2   3
ENDBRANCH   1   2
BRANCH   1   5
ATOM      5  C   UNL     1      35.182  -4.748  23.326  1.00  0.00     0.156 C 
BRANCH   5   6
ATOM      6  O   UNL     1      34.924  -5.143  22.008  1.00  0.00    -0.396 OA
ATOM      7  H   UNL     1      35.740  -4.919  21.488  1.00  0.00     0.210 HD
ENDBRANCH   5   6
ENDBRANCH   1   5
TORSDOF 4
ENDMDL
MODEL 2
REMARK VINA RESULT:    -2.878     15.213     15.911
REMARK INTER + INTRA:          -3.475
REMARK INTER:                  -3.437
REMARK INTRA:                  -0.038
REMARK UNBOUND:                -0.009
REMARK SMILES CCCCCO
REMARK SMILES IDX 4 1 3 2 2 3 1 4 5 5 6 6
REMARK H PARENT 6 7
REMARK Flexibility Score: inf
ROOT
ATOM      1  C   UNL     1      36.305 -12.442  38.352  1.00  0.00     0.028 C 
ENDROOT
BRANCH   1   2
ATOM      2  C   UNL     1      35.263 -12.402  37.221  1.00  0.00     0.002 C 
BRANCH   2   3
ATOM      3  C   UNL     1      34.030 -11.558  37.574  1.00  0.00    -0.003 C 
ATOM      4  C   UNL     1      32.744 -12.261  37.148  1.00  0.00     0.004 C 
ENDBRANCH   2   3
ENDBRANCH   1   2
BRANCH   1   5
ATOM      5  C   UNL     1      35.780 -13.077  39.644  1.00  0.00     0.156 C 
BRANCH   5   6
ATOM      6  O   UNL     1      36.569 -14.176  40.003  1.00  0.00    -0.396 OA
ATOM      7  H   UNL     1      36.214 -14.949  39.490  1.00  0.00     0.210 HD
ENDBRANCH   5   6
ENDBRANCH   1   5
TORSDOF 4
ENDMDL
MODEL 3
REMARK VINA RESULT:    -2.692      9.126      9.608
REMARK INTER + INTRA:          -3.252
REMARK INTER:                  -3.226
REMARK INTRA:                  -0.025
REMARK UNBOUND:                -0.009
REMARK SMILES CCCCCO
REMARK SMILES IDX 4 1 3 2 2 3 1 4 5 5 6 6
REMARK H PARENT 6 7
REMARK Flexibility Score: inf
ROOT
ATOM      1  C   UNL     1      35.754  -5.275  33.419  1.00  0.00     0.028 C 
ENDROOT
BRANCH   1   2
ATOM      2  C   UNL     1      35.694  -6.042  32.088  1.00  0.00     0.002 C 
BRANCH   2   3
ATOM      3  C   UNL     1      34.267  -6.178  31.540  1.00  0.00    -0.003 C 
ATOM      4  C   UNL     1      33.235  -5.764  32.586  1.00  0.00     0.004 C 
ENDBRANCH   2   3
ENDBRANCH   1   2
BRANCH   1   5
ATOM      5  C   UNL     1      37.115  -4.622  33.688  1.00  0.00     0.156 C 
BRANCH   5   6
ATOM      6  O   UNL     1      37.121  -4.009  34.946  1.00  0.00    -0.396 OA
ATOM      7  H   UNL     1      37.701  -4.570  35.524  1.00  0.00     0.210 HD
ENDBRANCH   5   6
ENDBRANCH   1   5
TORSDOF 4
ENDMDL
MODEL 4
REMARK VINA RESULT:    -2.667      2.555      3.998
REMARK INTER + INTRA:          -3.221
REMARK INTER:                  -3.174
REMARK INTRA:                  -0.047
REMARK UNBOUND:                -0.009
REMARK SMILES CCCCCO
REMARK SMILES IDX 4 1 3 2 2 3 1 4 5 5 6 6
REMARK H PARENT 6 7
REMARK Flexibility Score: inf
ROOT
ATOM      1  C   UNL     1      35.869  -8.314  25.210  1.00  0.00     0.028 C 
ENDROOT
BRANCH   1   2
ATOM      2  C   UNL     1      35.206  -7.106  24.527  1.00  0.00     0.002 C 
BRANCH   2   3
ATOM      3  C   UNL     1      36.201  -5.982  24.204  1.00  0.00    -0.003 C 
ATOM      4  C   UNL     1      35.509  -4.827  23.485  1.00  0.00     0.004 C 
ENDBRANCH   2   3
ENDBRANCH   1   2
BRANCH   1   5
ATOM      5  C   UNL     1      36.780  -7.930  26.381  1.00  0.00     0.156 C 
BRANCH   5   6
ATOM      6  O   UNL     1      36.016  -7.512  27.477  1.00  0.00    -0.396 OA
ATOM      7  H   UNL     1      35.800  -8.333  27.991  1.00  0.00     0.210 HD
ENDBRANCH   5   6
ENDBRANCH   1   5
TORSDOF 4
ENDMDL
MODEL 5
REMARK VINA RESULT:    -2.637     14.364     15.628
REMARK INTER + INTRA:          -3.186
REMARK INTER:                  -3.164
REMARK INTRA:                  -0.021
REMARK UNBOUND:                -0.009
REMARK SMILES CCCCCO
REMARK SMILES IDX 4 1 3 2 2 3 1 4 5 5 6 6
REMARK H PARENT 6 7
REMARK Flexibility Score: inf
ROOT
ATOM      1  C   UNL     1      35.701 -12.506  38.337  1.00  0.00     0.028 C 
ENDROOT
BRANCH   1   2
ATOM      2  C   UNL     1      37.033 -11.787  38.066  1.00  0.00     0.002 C 
BRANCH   2   3
ATOM      3  C   UNL     1      37.124 -11.212  36.646  1.00  0.00    -0.003 C 
ATOM      4  C   UNL     1      35.786 -10.628  36.202  1.00  0.00     0.004 C 
ENDBRANCH   2   3
ENDBRANCH   1   2
BRANCH   1   5
ATOM      5  C   UNL     1      35.636 -13.173  39.715  1.00  0.00     0.156 C 
BRANCH   5   6
ATOM      6  O   UNL     1      36.749 -14.000  39.910  1.00  0.00    -0.396 OA
ATOM      7  H   UNL     1      37.508 -13.395  40.117  1.00  0.00     0.210 HD
ENDBRANCH   5   6
ENDBRANCH   1   5
TORSDOF 4
ENDMDL
MODEL 6
REMARK VINA RESULT:    -2.611     13.802     14.604
REMARK INTER + INTRA:          -3.154
REMARK INTER:                  -3.085
REMARK INTRA:                  -0.069
REMARK UNBOUND:                -0.009
REMARK SMILES CCCCCO
REMARK SMILES IDX 4 1 3 2 2 3 1 4 5 5 6 6
REMARK H PARENT 6 7
REMARK Flexibility Score: inf
ROOT
ATOM      1  C   UNL     1      36.385 -12.077  37.817  1.00  0.00     0.028 C 
ENDROOT
BRANCH   1   2
ATOM      2  C   UNL     1      34.938 -12.460  38.174  1.00  0.00     0.002 C 
BRANCH   2   3
ATOM      3  C   UNL     1      33.897 -11.543  37.517  1.00  0.00    -0.003 C 
ATOM      4  C   UNL     1      32.681 -12.338  37.050  1.00  0.00     0.004 C 
ENDBRANCH   2   3
ENDBRANCH   1   2
BRANCH   1   5
ATOM      5  C   UNL     1      36.739 -12.329  36.348  1.00  0.00     0.156 C 
BRANCH   5   6
ATOM      6  O   UNL     1      36.530 -13.674  36.019  1.00  0.00    -0.396 OA
ATOM      7  H   UNL     1      35.618 -13.897  36.341  1.00  0.00     0.210 HD
ENDBRANCH   5   6
ENDBRANCH   1   5
TORSDOF 4
ENDMDL
MODEL 7
REMARK VINA RESULT:    -2.558      9.289      9.753
REMARK INTER + INTRA:          -3.090
REMARK INTER:                  -2.987
REMARK INTRA:                  -0.103
REMARK UNBOUND:                -0.009
REMARK SMILES CCCCCO
REMARK SMILES IDX 4 1 3 2 2 3 1 4 5 5 6 6
REMARK H PARENT 6 7
REMARK Flexibility Score: inf
ROOT
ATOM      1  C   UNL     1      35.411  -5.683  33.099  1.00  0.00     0.028 C 
ENDROOT
BRANCH   1   2
ATOM      2  C   UNL     1      33.914  -5.422  33.334  1.00  0.00     0.002 C 
BRANCH   2   3
ATOM      3  C   UNL     1      33.043  -5.802  32.128  1.00  0.00    -0.003 C 
ATOM      4  C   UNL     1      32.018  -6.868  32.505  1.00  0.00     0.004 C 
ENDBRANCH   2   3
ENDBRANCH   1   2
BRANCH   1   5
ATOM      5  C   UNL     1      35.813  -7.149  33.291  1.00  0.00     0.156 C 
BRANCH   5   6
ATOM      6  O   UNL     1      35.175  -7.686  34.416  1.00  0.00    -0.396 OA
ATOM      7  H   UNL     1      34.964  -6.916  35.006  1.00  0.00     0.210 HD
ENDBRANCH   5   6
ENDBRANCH   1   5
TORSDOF 4
ENDMDL
MODEL 8
REMARK VINA RESULT:    -2.525      9.535      9.923
REMARK INTER + INTRA:          -3.051
REMARK INTER:                  -3.041
REMARK INTRA:                  -0.009
REMARK UNBOUND:                -0.009
REMARK SMILES CCCCCO
REMARK SMILES IDX 4 1 3 2 2 3 1 4 5 5 6 6
REMARK H PARENT 6 7
REMARK Flexibility Score: inf
ROOT
ATOM      1  C   UNL     1      34.711  -5.993  33.311  1.00  0.00     0.028 C 
ENDROOT
BRANCH   1   2
ATOM      2  C   UNL     1      33.277  -5.677  32.853  1.00  0.00     0.002 C 
BRANCH   2   3
ATOM      3  C   UNL     1      32.598  -6.862  32.152  1.00  0.00    -0.003 C 
ATOM      4  C   UNL     1      31.087  -6.832  32.362  1.00  0.00     0.004 C 
ENDBRANCH   2   3
ENDBRANCH   1   2
BRANCH   1   5
ATOM      5  C   UNL     1      35.463  -4.772  33.853  1.00  0.00     0.156 C 
BRANCH   5   6
ATOM      6  O   UNL     1      34.813  -4.263  34.984  1.00  0.00    -0.396 OA
ATOM      7  H   UNL     1      33.976  -3.843  34.655  1.00  0.00     0.210 HD
ENDBRANCH   5   6
ENDBRANCH   1   5
TORSDOF 4
ENDMDL
MODEL 9
REMARK VINA RESULT:    -2.476      2.551      3.425
REMARK INTER + INTRA:          -2.992
REMARK INTER:                  -2.973
REMARK INTRA:                  -0.019
REMARK UNBOUND:                -0.009
REMARK SMILES CCCCCO
REMARK SMILES IDX 4 1 3 2 2 3 1 4 5 5 6 6
REMARK H PARENT 6 7
REMARK Flexibility Score: inf
ROOT
ATOM      1  C   UNL     1      35.924  -8.839  25.078  1.00  0.00     0.028 C 
ENDROOT
BRANCH   1   2
ATOM      2  C   UNL     1      34.450  -8.517  24.781  1.00  0.00     0.002 C 
BRANCH   2   3
ATOM      3  C   UNL     1      33.504  -9.676  25.127  1.00  0.00    -0.003 C 
ATOM      4  C   UNL     1      32.047  -9.223  25.097  1.00  0.00     0.004 C 
ENDBRANCH   2   3
ENDBRANCH   1   2
BRANCH   1   5
ATOM      5  C   UNL     1      36.794  -7.592  25.274  1.00  0.00     0.156 C 
BRANCH   5   6
ATOM      6  O   UNL     1      36.029  -6.432  25.103  1.00  0.00    -0.396 OA
ATOM      7  H   UNL     1      35.133  -6.636  25.478  1.00  0.00     0.210 HD
ENDBRANCH   5   6
ENDBRANCH   1   5
TORSDOF 4
ENDMDL
