MODEL 1
REMARK VINA RESULT:    -5.016      0.000      0.000
REMARK INTER + INTRA:          -5.702
REMARK INTER:                  -5.456
REMARK INTRA:                  -0.246
REMARK UNBOUND:                -0.246
REMARK SMILES O=C([O-])c1ccccc1O
REMARK SMILES IDX 4 1 9 2 5 3 8 4 6 5 7 6 2 7 1 8 3 9 10 10
REMARK H PARENT 10 11
REMARK Flexibility Score: inf
ROOT
ATOM      1  C   UNL     1     -32.998  10.858 -33.334  1.00  0.00     0.039 A 
ATOM      2  C   UNL     1     -32.270   9.658 -33.540  1.00  0.00     0.124 A 
ATOM      3  C   UNL     1     -33.525  11.534 -34.451  1.00  0.00     0.014 A 
ATOM      4  C   UNL     1     -32.036   9.203 -34.844  1.00  0.00     0.047 A 
ATOM      5  C   UNL     1     -33.301  11.056 -35.744  1.00  0.00     0.001 A 
ATOM      6  C   UNL     1     -32.549   9.898 -35.941  1.00  0.00     0.004 A 
ENDROOT
BRANCH   1   7
ATOM      7  C   UNL     1     -33.192  11.448 -31.991  1.00  0.00     0.075 C 
ATOM      8  O   UNL     1     -34.173  12.206 -31.771  1.00  0.00    -0.545 OA
ATOM      9  O   UNL     1     -32.265  11.234 -30.979  1.00  0.00    -0.545 OA
ENDBRANCH   1   7
BRANCH   2  10
ATOM     10  O   UNL     1     -31.797   8.875 -32.485  1.00  0.00    -0.507 OA
ATOM     11  H   UNL     1     -32.234   8.010 -32.196  1.00  0.00     0.293 HD
ENDBRANCH   2  10
TORSDOF 2
ENDMDL
MODEL 2
REMARK VINA RESULT:    -4.965      2.480      3.458
REMARK INTER + INTRA:          -5.646
REMARK INTER:                  -5.414
REMARK INTRA:                  -0.232
REMARK UNBOUND:                -0.246
REMARK SMILES O=C([O-])c1ccccc1O
REMARK SMILES IDX 4 1 9 2 5 3 8 4 6 5 7 6 2 7 1 8 3 9 10 10
REMARK H PARENT 10 11
REMARK Flexibility Score: inf
ROOT
ATOM      1  C   UNL     1     -33.025  10.849 -34.714  1.00  0.00     0.039 A 
ATOM      2  C   UNL     1     -31.992   9.896 -34.522  1.00  0.00     0.124 A 
ATOM      3  C   UNL     1     -33.643  11.420 -33.586  1.00  0.00     0.014 A 
ATOM      4  C   UNL     1     -31.651   9.497 -33.223  1.00  0.00     0.047 A 
ATOM      5  C   UNL     1     -33.276  11.027 -32.297  1.00  0.00     0.001 A 
ATOM      6  C   UNL     1     -32.288  10.059 -32.116  1.00  0.00     0.004 A 
ENDROOT
BRANCH   1   7
ATOM      7  C   UNL     1     -33.505  11.238 -36.059  1.00  0.00     0.075 C 
ATOM      8  O   UNL     1     -34.185  12.288 -36.207  1.00  0.00    -0.545 OA
ATOM      9  O   UNL     1     -33.275  10.423 -37.160  1.00  0.00    -0.545 OA
ENDBRANCH   1   7
BRANCH   2  10
ATOM     10  O   UNL     1     -31.262   9.354 -35.581  1.00  0.00    -0.507 OA
ATOM     11  H   UNL     1     -31.687   9.017 -36.434  1.00  0.00     0.293 HD
ENDBRANCH   2  10
TORSDOF 2
ENDMDL
MODEL 3
REMARK VINA RESULT:    -4.623      3.988      5.388
REMARK INTER + INTRA:          -5.274
REMARK INTER:                  -5.022
REMARK INTRA:                  -0.253
REMARK UNBOUND:                -0.246
REMARK SMILES O=C([O-])c1ccccc1O
REMARK SMILES IDX 4 1 9 2 5 3 8 4 6 5 7 6 2 7 1 8 3 9 10 10
REMARK H PARENT 10 11
REMARK Flexibility Score: inf
ROOT
ATOM      1  C   UNL     1     -34.341  10.354 -36.985  1.00  0.00     0.039 A 
ATOM      2  C   UNL     1     -34.223  11.727 -36.649  1.00  0.00     0.124 A 
ATOM      3  C   UNL     1     -33.967   9.386 -36.034  1.00  0.00     0.014 A 
ATOM      4  C   UNL     1     -33.681  12.094 -35.411  1.00  0.00     0.047 A 
ATOM      5  C   UNL     1     -33.448   9.769 -34.795  1.00  0.00     0.001 A 
ATOM      6  C   UNL     1     -33.296  11.121 -34.487  1.00  0.00     0.004 A 
ENDROOT
BRANCH   1   7
ATOM      7  C   UNL     1     -34.808   9.900 -38.313  1.00  0.00     0.075 C 
ATOM      8  O   UNL     1     -34.149   9.037 -38.953  1.00  0.00    -0.545 OA
ATOM      9  O   UNL     1     -35.933  10.464 -38.904  1.00  0.00    -0.545 OA
ENDBRANCH   1   7
BRANCH   2  10
ATOM     10  O   UNL     1     -34.661  12.748 -37.494  1.00  0.00    -0.507 OA
ATOM     11  H   UNL     1     -34.069  13.507 -37.803  1.00  0.00     0.293 HD
ENDBRANCH   2  10
TORSDOF 2
ENDMDL
MODEL 4
REMARK VINA RESULT:    -4.583      2.242      4.156
REMARK INTER + INTRA:          -5.230
REMARK INTER:                  -4.979
REMARK INTRA:                  -0.251
REMARK UNBOUND:                -0.246
REMARK SMILES O=C([O-])c1ccccc1O
REMARK SMILES IDX 4 1 9 2 5 3 8 4 6 5 7 6 2 7 1 8 3 9 10 10
REMARK H PARENT 10 11
REMARK Flexibility Score: inf
ROOT
ATOM      1  C   UNL     1     -32.572  10.023 -34.162  1.00  0.00     0.039 A 
ATOM      2  C   UNL     1     -33.368  11.196 -34.174  1.00  0.00     0.124 A 
ATOM      3  C   UNL     1     -32.114   9.523 -32.928  1.00  0.00     0.014 A 
ATOM      4  C   UNL     1     -33.631  11.868 -32.974  1.00  0.00     0.047 A 
ATOM      5  C   UNL     1     -32.404  10.193 -31.737  1.00  0.00     0.001 A 
ATOM      6  C   UNL     1     -33.153  11.369 -31.760  1.00  0.00     0.004 A 
ENDROOT
BRANCH   1   7
ATOM      7  C   UNL     1     -32.170   9.324 -35.403  1.00  0.00     0.075 C 
ATOM      8  O   UNL     1     -30.995   8.889 -35.531  1.00  0.00    -0.545 OA
ATOM      9  O   UNL     1     -33.055   9.199 -36.468  1.00  0.00    -0.545 OA
ENDBRANCH   1   7
BRANCH   2  10
ATOM     10  O   UNL     1     -33.942  11.704 -35.341  1.00  0.00    -0.507 OA
ATOM     11  H   UNL     1     -33.401  12.013 -36.138  1.00  0.00     0.293 HD
ENDBRANCH   2  10
TORSDOF 2
ENDMDL
MODEL 5
REMARK VINA RESULT:    -4.368      1.093      2.180
REMARK INTER + INTRA:          -4.997
REMARK INTER:                  -4.761
REMARK INTRA:                  -0.236
REMARK UNBOUND:                -0.246
REMARK SMILES O=C([O-])c1ccccc1O
REMARK SMILES IDX 4 1 9 2 5 3 8 4 6 5 7 6 2 7 1 8 3 9 10 10
REMARK H PARENT 10 11
REMARK Flexibility Score: inf
ROOT
ATOM      1  C   UNL     1     -32.781  10.727 -33.317  1.00  0.00     0.039 A 
ATOM      2  C   UNL     1     -33.214  11.113 -34.612  1.00  0.00     0.124 A 
ATOM      3  C   UNL     1     -31.929   9.614 -33.188  1.00  0.00     0.014 A 
ATOM      4  C   UNL     1     -32.840  10.349 -35.724  1.00  0.00     0.047 A 
ATOM      5  C   UNL     1     -31.547   8.875 -34.310  1.00  0.00     0.001 A 
ATOM      6  C   UNL     1     -32.010   9.236 -35.575  1.00  0.00     0.004 A 
ENDROOT
BRANCH   1   7
ATOM      7  C   UNL     1     -33.224  11.428 -32.092  1.00  0.00     0.075 C 
ATOM      8  O   UNL     1     -34.329  12.033 -32.075  1.00  0.00    -0.545 OA
ATOM      9  O   UNL     1     -32.403  11.491 -30.972  1.00  0.00    -0.545 OA
ENDBRANCH   1   7
BRANCH   2  10
ATOM     10  O   UNL     1     -33.979  12.258 -34.839  1.00  0.00    -0.507 OA
ATOM     11  H   UNL     1     -34.503  12.729 -34.114  1.00  0.00     0.293 HD
ENDBRANCH   2  10
TORSDOF 2
ENDMDL
MODEL 6
REMARK VINA RESULT:    -4.286     17.969     18.839
REMARK INTER + INTRA:          -4.907
REMARK INTER:                  -4.663
REMARK INTRA:                  -0.243
REMARK UNBOUND:                -0.246
REMARK SMILES O=C([O-])c1ccccc1O
REMARK SMILES IDX 4 1 9 2 5 3 8 4 6 5 7 6 2 7 1 8 3 9 10 10
REMARK H PARENT 10 11
REMARK Flexibility Score: inf
ROOT
ATOM      1  C   UNL     1     -23.579  26.645 -30.825  1.00  0.00     0.039 A 
ATOM      2  C   UNL     1     -22.460  26.148 -30.109  1.00  0.00     0.124 A 
ATOM      3  C   UNL     1     -24.660  25.782 -31.082  1.00  0.00     0.014 A 
ATOM      4  C   UNL     1     -22.424  24.801 -29.727  1.00  0.00     0.047 A 
ATOM      5  C   UNL     1     -24.618  24.447 -30.676  1.00  0.00     0.001 A 
ATOM      6  C   UNL     1     -23.497  23.954 -30.008  1.00  0.00     0.004 A 
ENDROOT
BRANCH   1   7
ATOM      7  C   UNL     1     -23.635  28.029 -31.346  1.00  0.00     0.075 C 
ATOM      8  O   UNL     1     -22.672  28.491 -32.013  1.00  0.00    -0.545 OA
ATOM      9  O   UNL     1     -24.711  28.858 -31.052  1.00  0.00    -0.545 OA
ENDBRANCH   1   7
BRANCH   2  10
ATOM     10  O   UNL     1     -21.390  26.959 -29.728  1.00  0.00    -0.507 OA
ATOM     11  H   UNL     1     -20.640  26.645 -29.126  1.00  0.00     0.293 HD
ENDBRANCH   2  10
TORSDOF 2
ENDMDL
MODEL 7
REMARK VINA RESULT:    -4.195      1.782      2.731
REMARK INTER + INTRA:          -4.808
REMARK INTER:                  -4.607
REMARK INTRA:                  -0.201
REMARK UNBOUND:                -0.246
REMARK SMILES O=C([O-])c1ccccc1O
REMARK SMILES IDX 4 1 9 2 5 3 8 4 6 5 7 6 2 7 1 8 3 9 10 10
REMARK H PARENT 10 11
REMARK Flexibility Score: inf
ROOT
ATOM      1  C   UNL     1     -33.882   9.863 -34.034  1.00  0.00     0.039 A 
ATOM      2  C   UNL     1     -33.618  11.218 -34.363  1.00  0.00     0.124 A 
ATOM      3  C   UNL     1     -34.054   8.931 -35.074  1.00  0.00     0.014 A 
ATOM      4  C   UNL     1     -33.594  11.613 -35.707  1.00  0.00     0.047 A 
ATOM      5  C   UNL     1     -34.006   9.337 -36.410  1.00  0.00     0.001 A 
ATOM      6  C   UNL     1     -33.786  10.678 -36.726  1.00  0.00     0.004 A 
ENDROOT
BRANCH   1   7
ATOM      7  C   UNL     1     -34.023   9.400 -32.635  1.00  0.00     0.075 C 
ATOM      8  O   UNL     1     -33.029   9.420 -31.861  1.00  0.00    -0.545 OA
ATOM      9  O   UNL     1     -35.225   8.875 -32.177  1.00  0.00    -0.545 OA
ENDBRANCH   1   7
BRANCH   2  10
ATOM     10  O   UNL     1     -33.339  12.186 -33.397  1.00  0.00    -0.507 OA
ATOM     11  H   UNL     1     -34.051  12.754 -32.958  1.00  0.00     0.293 HD
ENDBRANCH   2  10
TORSDOF 2
ENDMDL
MODEL 8
REMARK VINA RESULT:    -4.195      3.074      4.244
REMARK INTER + INTRA:          -4.808
REMARK INTER:                  -4.599
REMARK INTRA:                  -0.209
REMARK UNBOUND:                -0.246
REMARK SMILES O=C([O-])c1ccccc1O
REMARK SMILES IDX 4 1 9 2 5 3 8 4 6 5 7 6 2 7 1 8 3 9 10 10
REMARK H PARENT 10 11
REMARK Flexibility Score: inf
ROOT
ATOM      1  C   UNL     1     -33.904  10.810 -36.418  1.00  0.00     0.039 A 
ATOM      2  C   UNL     1     -34.669  11.634 -37.282  1.00  0.00     0.124 A 
ATOM      3  C   UNL     1     -33.820   9.432 -36.691  1.00  0.00     0.014 A 
ATOM      4  C   UNL     1     -35.373  11.058 -38.347  1.00  0.00     0.047 A 
ATOM      5  C   UNL     1     -34.510   8.875 -37.769  1.00  0.00     0.001 A 
ATOM      6  C   UNL     1     -35.294   9.685 -38.591  1.00  0.00     0.004 A 
ENDROOT
BRANCH   1   7
ATOM      7  C   UNL     1     -33.221  11.339 -35.217  1.00  0.00     0.075 C 
ATOM      8  O   UNL     1     -32.276  12.163 -35.340  1.00  0.00    -0.545 OA
ATOM      9  O   UNL     1     -33.560  10.887 -33.948  1.00  0.00    -0.545 OA
ENDBRANCH   1   7
BRANCH   2  10
ATOM     10  O   UNL     1     -34.727  13.022 -37.142  1.00  0.00    -0.507 OA
ATOM     11  H   UNL     1     -34.795  13.488 -36.247  1.00  0.00     0.293 HD
ENDBRANCH   2  10
TORSDOF 2
ENDMDL
