MODEL 1
REMARK VINA RESULT:    -5.115      0.000      0.000
REMARK INTER + INTRA:          -5.630
REMARK INTER:                  -5.414
REMARK INTRA:                  -0.216
REMARK UNBOUND:                -0.216
REMARK SMILES C=C(C)[C@H]1CC=C(C)C(=O)C1
REMARK SMILES IDX 8 1 7 2 6 3 5 4 4 5 11 6 9 7 10 8 2 9 1 10 3 11
REMARK H PARENT
REMARK Flexibility Score: inf
ROOT
ATOM      1  C   UNL     1     116.763 179.503 126.605  1.00  0.00     0.048 C 
ATOM      2  C   UNL     1     117.877 178.506 126.765  1.00  0.00    -0.012 C 
ATOM      3  C   UNL     1     118.012 177.839 127.922  1.00  0.00    -0.019 C 
ATOM      4  C   UNL     1     119.082 176.805 128.140  1.00  0.00     0.036 C 
ATOM      5  C   UNL     1     120.362 177.057 127.315  1.00  0.00     0.025 C 
ATOM      6  C   UNL     1     120.038 177.395 125.844  1.00  0.00     0.089 C 
ATOM      7  C   UNL     1     118.906 178.374 125.707  1.00  0.00     0.158 C 
ATOM      8  O   UNL     1     118.818 179.062 124.654  1.00  0.00    -0.295 OA
ENDROOT
BRANCH   5   9
ATOM      9  C   UNL     1     121.300 178.072 127.970  1.00  0.00    -0.077 C 
ATOM     10  C   UNL     1     122.060 178.917 127.251  1.00  0.00     0.008 C 
ATOM     11  C   UNL     1     121.393 178.143 129.474  1.00  0.00     0.039 C 
ENDBRANCH   5   9
TORSDOF 1
ENDMDL
MODEL 2
REMARK VINA RESULT:    -5.064      2.050      4.326
REMARK INTER + INTRA:          -5.576
REMARK INTER:                  -5.363
REMARK INTRA:                  -0.213
REMARK UNBOUND:                -0.216
REMARK SMILES C=C(C)[C@H]1CC=C(C)C(=O)C1
REMARK SMILES IDX 8 1 7 2 6 3 5 4 4 5 11 6 9 7 10 8 2 9 1 10 3 11
REMARK H PARENT
REMARK Flexibility Score: inf
ROOT
ATOM      1  C   UNL     1     121.998 178.607 127.751  1.00  0.00     0.048 C 
ATOM      2  C   UNL     1     121.276 177.692 126.801  1.00  0.00    -0.012 C 
ATOM      3  C   UNL     1     121.748 177.519 125.557  1.00  0.00    -0.019 C 
ATOM      4  C   UNL     1     121.096 176.595 124.565  1.00  0.00     0.036 C 
ATOM      5  C   UNL     1     119.574 176.441 124.773  1.00  0.00     0.025 C 
ATOM      6  C   UNL     1     119.219 176.201 126.256  1.00  0.00     0.089 C 
ATOM      7  C   UNL     1     119.970 177.109 127.189  1.00  0.00     0.158 C 
ATOM      8  O   UNL     1     119.492 177.340 128.332  1.00  0.00    -0.295 OA
ENDROOT
BRANCH   5   9
ATOM      9  C   UNL     1     118.771 177.581 124.141  1.00  0.00    -0.077 C 
ATOM     10  C   UNL     1     117.534 177.904 124.557  1.00  0.00     0.008 C 
ATOM     11  C   UNL     1     119.369 178.381 123.011  1.00  0.00     0.039 C 
ENDBRANCH   5   9
TORSDOF 1
ENDMDL
MODEL 3
REMARK VINA RESULT:    -5.042      2.158      3.652
REMARK INTER + INTRA:          -5.552
REMARK INTER:                  -5.403
REMARK INTRA:                  -0.149
REMARK UNBOUND:                -0.216
REMARK SMILES C=C(C)[C@H]1CC=C(C)C(=O)C1
REMARK SMILES IDX 8 1 7 2 6 3 5 4 4 5 11 6 9 7 10 8 2 9 1 10 3 11
REMARK H PARENT
REMARK Flexibility Score: inf
ROOT
ATOM      1  C   UNL     1     119.396 178.647 122.504  1.00  0.00     0.048 C 
ATOM      2  C   UNL     1     118.752 177.889 123.631  1.00  0.00    -0.012 C 
ATOM      3  C   UNL     1     117.432 178.008 123.843  1.00  0.00    -0.019 C 
ATOM      4  C   UNL     1     116.716 177.254 124.930  1.00  0.00     0.036 C 
ATOM      5  C   UNL     1     117.604 176.942 126.154  1.00  0.00     0.025 C 
ATOM      6  C   UNL     1     118.980 176.381 125.735  1.00  0.00     0.089 C 
ATOM      7  C   UNL     1     119.594 177.138 124.591  1.00  0.00     0.158 C 
ATOM      8  O   UNL     1     120.844 177.095 124.433  1.00  0.00    -0.295 OA
ENDROOT
BRANCH   5   9
ATOM      9  C   UNL     1     117.708 178.119 127.127  1.00  0.00    -0.077 C 
ATOM     10  C   UNL     1     118.599 178.142 128.133  1.00  0.00     0.008 C 
ATOM     11  C   UNL     1     116.787 179.303 126.970  1.00  0.00     0.039 C 
ENDBRANCH   5   9
TORSDOF 1
ENDMDL
MODEL 4
REMARK VINA RESULT:    -4.981      1.917      4.231
REMARK INTER + INTRA:          -5.488
REMARK INTER:                  -5.281
REMARK INTRA:                  -0.207
REMARK UNBOUND:                -0.216
REMARK SMILES C=C(C)[C@H]1CC=C(C)C(=O)C1
REMARK SMILES IDX 8 1 7 2 6 3 5 4 4 5 11 6 9 7 10 8 2 9 1 10 3 11
REMARK H PARENT
REMARK Flexibility Score: inf
ROOT
ATOM      1  C   UNL     1     120.842 177.843 128.191  1.00  0.00     0.048 C 
ATOM      2  C   UNL     1     119.813 177.776 127.095  1.00  0.00    -0.012 C 
ATOM      3  C   UNL     1     119.608 178.845 126.311  1.00  0.00    -0.019 C 
ATOM      4  C   UNL     1     118.619 178.838 125.177  1.00  0.00     0.036 C 
ATOM      5  C   UNL     1     117.427 177.885 125.403  1.00  0.00     0.025 C 
ATOM      6  C   UNL     1     117.887 176.501 125.907  1.00  0.00     0.089 C 
ATOM      7  C   UNL     1     118.932 176.591 126.983  1.00  0.00     0.158 C 
ATOM      8  O   UNL     1     119.077 175.621 127.775  1.00  0.00    -0.295 OA
ENDROOT
BRANCH   5   9
ATOM      9  C   UNL     1     116.328 178.504 126.269  1.00  0.00    -0.077 C 
ATOM     10  C   UNL     1     116.168 179.833 126.384  1.00  0.00     0.008 C 
ATOM     11  C   UNL     1     115.383 177.609 127.031  1.00  0.00     0.039 C 
ENDBRANCH   5   9
TORSDOF 1
ENDMDL
MODEL 5
REMARK VINA RESULT:    -4.919      2.073      2.963
REMARK INTER + INTRA:          -5.422
REMARK INTER:                  -5.211
REMARK INTRA:                  -0.211
REMARK UNBOUND:                -0.216
REMARK SMILES C=C(C)[C@H]1CC=C(C)C(=O)C1
REMARK SMILES IDX 8 1 7 2 6 3 5 4 4 5 11 6 9 7 10 8 2 9 1 10 3 11
REMARK H PARENT
REMARK Flexibility Score: inf
ROOT
ATOM      1  C   UNL     1     118.025 174.531 126.599  1.00  0.00     0.048 C 
ATOM      2  C   UNL     1     118.501 175.955 126.515  1.00  0.00    -0.012 C 
ATOM      3  C   UNL     1     119.128 176.381 125.407  1.00  0.00    -0.019 C 
ATOM      4  C   UNL     1     119.602 177.799 125.241  1.00  0.00     0.036 C 
ATOM      5  C   UNL     1     119.969 178.488 126.573  1.00  0.00     0.025 C 
ATOM      6  C   UNL     1     118.892 178.257 127.654  1.00  0.00     0.089 C 
ATOM      7  C   UNL     1     118.413 176.833 127.704  1.00  0.00     0.158 C 
ATOM      8  O   UNL     1     117.894 176.402 128.769  1.00  0.00    -0.295 OA
ENDROOT
BRANCH   5   9
ATOM      9  C   UNL     1     121.381 178.141 127.051  1.00  0.00    -0.077 C 
ATOM     10  C   UNL     1     122.352 177.760 126.203  1.00  0.00     0.008 C 
ATOM     11  C   UNL     1     121.715 178.220 128.519  1.00  0.00     0.039 C 
ENDBRANCH   5   9
TORSDOF 1
ENDMDL
MODEL 6
REMARK VINA RESULT:    -4.915      2.295      4.613
REMARK INTER + INTRA:          -5.418
REMARK INTER:                  -5.229
REMARK INTRA:                  -0.189
REMARK UNBOUND:                -0.216
REMARK SMILES C=C(C)[C@H]1CC=C(C)C(=O)C1
REMARK SMILES IDX 8 1 7 2 6 3 5 4 4 5 11 6 9 7 10 8 2 9 1 10 3 11
REMARK H PARENT
REMARK Flexibility Score: inf
ROOT
ATOM      1  C   UNL     1     123.862 177.262 125.137  1.00  0.00     0.048 C 
ATOM      2  C   UNL     1     122.403 176.982 125.370  1.00  0.00    -0.012 C 
ATOM      3  C   UNL     1     121.684 176.366 124.418  1.00  0.00    -0.019 C 
ATOM      4  C   UNL     1     120.230 176.026 124.596  1.00  0.00     0.036 C 
ATOM      5  C   UNL     1     119.479 176.995 125.535  1.00  0.00     0.025 C 
ATOM      6  C   UNL     1     120.273 177.268 126.830  1.00  0.00     0.089 C 
ATOM      7  C   UNL     1     121.733 177.520 126.577  1.00  0.00     0.158 C 
ATOM      8  O   UNL     1     122.397 178.168 127.430  1.00  0.00    -0.295 OA
ENDROOT
BRANCH   5   9
ATOM      9  C   UNL     1     119.027 178.275 124.829  1.00  0.00    -0.077 C 
ATOM     10  C   UNL     1     118.672 179.381 125.505  1.00  0.00     0.008 C 
ATOM     11  C   UNL     1     118.969 178.317 123.322  1.00  0.00     0.039 C 
ENDBRANCH   5   9
TORSDOF 1
ENDMDL
MODEL 7
REMARK VINA RESULT:    -4.896      8.329      9.860
REMARK INTER + INTRA:          -5.398
REMARK INTER:                  -5.179
REMARK INTRA:                  -0.219
REMARK UNBOUND:                -0.216
REMARK SMILES C=C(C)[C@H]1CC=C(C)C(=O)C1
REMARK SMILES IDX 8 1 7 2 6 3 5 4 4 5 11 6 9 7 10 8 2 9 1 10 3 11
REMARK H PARENT
REMARK Flexibility Score: inf
ROOT
ATOM      1  C   UNL     1     126.678 174.883 121.007  1.00  0.00     0.048 C 
ATOM      2  C   UNL     1     125.564 175.862 120.758  1.00  0.00    -0.012 C 
ATOM      3  C   UNL     1     124.305 175.417 120.624  1.00  0.00    -0.019 C 
ATOM      4  C   UNL     1     123.139 176.342 120.407  1.00  0.00     0.036 C 
ATOM      5  C   UNL     1     123.513 177.644 119.666  1.00  0.00     0.025 C 
ATOM      6  C   UNL     1     124.788 178.289 120.249  1.00  0.00     0.089 C 
ATOM      7  C   UNL     1     125.878 177.289 120.513  1.00  0.00     0.158 C 
ATOM      8  O   UNL     1     127.073 177.688 120.561  1.00  0.00    -0.295 OA
ENDROOT
BRANCH   5   9
ATOM      9  C   UNL     1     123.571 177.466 118.148  1.00  0.00    -0.077 C 
ATOM     10  C   UNL     1     124.328 178.251 117.362  1.00  0.00     0.008 C 
ATOM     11  C   UNL     1     122.758 176.380 117.489  1.00  0.00     0.039 C 
ENDBRANCH   5   9
TORSDOF 1
ENDMDL
MODEL 8
REMARK VINA RESULT:    -4.888      2.114      3.529
REMARK INTER + INTRA:          -5.389
REMARK INTER:                  -5.187
REMARK INTRA:                  -0.203
REMARK UNBOUND:                -0.216
REMARK SMILES C=C(C)[C@H]1CC=C(C)C(=O)C1
REMARK SMILES IDX 8 1 7 2 6 3 5 4 4 5 11 6 9 7 10 8 2 9 1 10 3 11
REMARK H PARENT
REMARK Flexibility Score: inf
ROOT
ATOM      1  C   UNL     1     115.659 177.150 127.656  1.00  0.00     0.048 C 
ATOM      2  C   UNL     1     116.941 177.805 127.221  1.00  0.00    -0.012 C 
ATOM      3  C   UNL     1     116.905 178.819 126.343  1.00  0.00    -0.019 C 
ATOM      4  C   UNL     1     118.144 179.541 125.889  1.00  0.00     0.036 C 
ATOM      5  C   UNL     1     119.412 178.659 125.901  1.00  0.00     0.025 C 
ATOM      6  C   UNL     1     119.539 177.857 127.213  1.00  0.00     0.089 C 
ATOM      7  C   UNL     1     118.241 177.233 127.642  1.00  0.00     0.158 C 
ATOM      8  O   UNL     1     118.270 176.229 128.405  1.00  0.00    -0.295 OA
ENDROOT
BRANCH   5   9
ATOM      9  C   UNL     1     119.540 177.787 124.650  1.00  0.00    -0.077 C 
ATOM     10  C   UNL     1     120.027 176.536 124.695  1.00  0.00     0.008 C 
ATOM     11  C   UNL     1     119.112 178.333 123.311  1.00  0.00     0.039 C 
ENDBRANCH   5   9
TORSDOF 1
ENDMDL
MODEL 9
REMARK VINA RESULT:    -4.886      1.485      3.606
REMARK INTER + INTRA:          -5.387
REMARK INTER:                  -5.249
REMARK INTRA:                  -0.139
REMARK UNBOUND:                -0.216
REMARK SMILES C=C(C)[C@H]1CC=C(C)C(=O)C1
REMARK SMILES IDX 8 1 7 2 6 3 5 4 4 5 11 6 9 7 10 8 2 9 1 10 3 11
REMARK H PARENT
REMARK Flexibility Score: inf
ROOT
ATOM      1  C   UNL     1     122.341 178.214 126.545  1.00  0.00     0.048 C 
ATOM      2  C   UNL     1     121.237 178.193 127.566  1.00  0.00    -0.012 C 
ATOM      3  C   UNL     1     121.538 178.043 128.865  1.00  0.00    -0.019 C 
ATOM      4  C   UNL     1     120.488 178.045 129.943  1.00  0.00     0.036 C 
ATOM      5  C   UNL     1     119.114 177.525 129.469  1.00  0.00     0.025 C 
ATOM      6  C   UNL     1     118.699 178.150 128.120  1.00  0.00     0.089 C 
ATOM      7  C   UNL     1     119.824 178.184 127.123  1.00  0.00     0.158 C 
ATOM      8  O   UNL     1     119.548 178.245 125.895  1.00  0.00    -0.295 OA
ENDROOT
BRANCH   5   9
ATOM      9  C   UNL     1     119.024 175.998 129.474  1.00  0.00    -0.077 C 
ATOM     10  C   UNL     1     119.966 175.225 130.042  1.00  0.00     0.008 C 
ATOM     11  C   UNL     1     117.846 175.315 128.824  1.00  0.00     0.039 C 
ENDBRANCH   5   9
TORSDOF 1
ENDMDL
