MODEL 1
REMARK VINA RESULT:    -3.903      0.000      0.000
REMARK INTER + INTRA:          -6.098
REMARK INTER:                  -5.728
REMARK INTRA:                  -0.371
REMARK UNBOUND:                -0.371
REMARK SMILES O=C([O-])CCCCCCCC(=O)[O-]
REMARK SMILES IDX 7 1 6 2 5 3 4 4 2 5 1 6 3 7 8 8 9 9 10 10 11 11 12 12 13 13
REMARK H PARENT
REMARK Flexibility Score: inf
ROOT
ATOM      1  C   UNL     1      -8.777  16.598  -2.905  1.00  0.00     0.000 C 
ENDROOT
BRANCH   1   2
ATOM      2  C   UNL     1      -9.138  15.110  -2.985  1.00  0.00     0.000 C 
BRANCH   2   3
ATOM      3  C   UNL     1      -8.895  14.559  -4.395  1.00  0.00     0.006 C 
BRANCH   3   4
ATOM      4  C   UNL     1      -8.428  15.667  -5.344  1.00  0.00     0.053 C 
BRANCH   4   5
ATOM      5  C   UNL     1      -7.353  15.159  -6.252  1.00  0.00     0.041 C 
ATOM      6  O   UNL     1      -7.530  15.146  -7.499  1.00  0.00    -0.550 OA
ATOM      7  O   UNL     1      -6.136  14.745  -5.725  1.00  0.00    -0.550 OA
ENDBRANCH   4   5
ENDBRANCH   3   4
ENDBRANCH   2   3
ENDBRANCH   1   2
BRANCH   1   8
ATOM      8  C   UNL     1      -8.757  17.083  -1.451  1.00  0.00     0.000 C 
BRANCH   8   9
ATOM      9  C   UNL     1      -8.051  16.070  -0.542  1.00  0.00     0.006 C 
BRANCH   9  10
ATOM     10  C   UNL     1      -8.003  16.569   0.905  1.00  0.00     0.053 C 
BRANCH  10  11
ATOM     11  C   UNL     1      -6.586  16.760   1.346  1.00  0.00     0.041 C 
ATOM     12  O   UNL     1      -5.664  16.076   0.831  1.00  0.00    -0.550 OA
ATOM     13  O   UNL     1      -6.279  17.729   2.293  1.00  0.00    -0.550 OA
ENDBRANCH  10  11
ENDBRANCH   9  10
ENDBRANCH   8   9
ENDBRANCH   1   8
TORSDOF 8
ENDMDL
MODEL 2
REMARK VINA RESULT:    -3.900      0.438      6.578
REMARK INTER + INTRA:          -6.095
REMARK INTER:                  -5.759
REMARK INTRA:                  -0.337
REMARK UNBOUND:                -0.371
REMARK SMILES O=C([O-])CCCCCCCC(=O)[O-]
REMARK SMILES IDX 7 1 6 2 5 3 4 4 2 5 1 6 3 7 8 8 9 9 10 10 11 11 12 12 13 13
REMARK H PARENT
REMARK Flexibility Score: inf
ROOT
ATOM      1  C   UNL     1      -8.795  16.724  -2.654  1.00  0.00     0.000 C 
ENDROOT
BRANCH   1   2
ATOM      2  C   UNL     1      -8.976  16.996  -1.156  1.00  0.00     0.000 C 
BRANCH   2   3
ATOM      3  C   UNL     1      -8.081  16.076  -0.317  1.00  0.00     0.006 C 
BRANCH   3   4
ATOM      4  C   UNL     1      -7.982  16.574   1.128  1.00  0.00     0.053 C 
BRANCH   4   5
ATOM      5  C   UNL     1      -6.562  16.894   1.475  1.00  0.00     0.041 C 
ATOM      6  O   UNL     1      -5.629  16.150   1.074  1.00  0.00    -0.550 OA
ATOM      7  O   UNL     1      -6.266  18.040   2.202  1.00  0.00    -0.550 OA
ENDBRANCH   4   5
ENDBRANCH   3   4
ENDBRANCH   2   3
ENDBRANCH   1   2
BRANCH   1   8
ATOM      8  C   UNL     1      -7.945  15.469  -2.887  1.00  0.00     0.000 C 
BRANCH   8   9
ATOM      9  C   UNL     1      -8.441  14.687  -4.109  1.00  0.00     0.006 C 
BRANCH   9  10
ATOM     10  C   UNL     1      -8.404  15.554  -5.370  1.00  0.00     0.053 C 
BRANCH  10  11
ATOM     11  C   UNL     1      -7.338  15.078  -6.304  1.00  0.00     0.041 C 
ATOM     12  O   UNL     1      -6.240  14.661  -5.853  1.00  0.00    -0.550 OA
ATOM     13  O   UNL     1      -7.576  15.046  -7.673  1.00  0.00    -0.550 OA
ENDBRANCH  10  11
ENDBRANCH   9  10
ENDBRANCH   8   9
ENDBRANCH   1   8
TORSDOF 8
ENDMDL
MODEL 3
REMARK VINA RESULT:    -3.784      2.025      6.109
REMARK INTER + INTRA:          -5.925
REMARK INTER:                  -5.279
REMARK INTRA:                  -0.646
REMARK UNBOUND:                -0.371
REMARK SMILES O=C([O-])CCCCCCCC(=O)[O-]
REMARK SMILES IDX 7 1 6 2 5 3 4 4 2 5 1 6 3 7 8 8 9 9 10 10 11 11 12 12 13 13
REMARK H PARENT
REMARK Flexibility Score: inf
ROOT
ATOM      1  C   UNL     1      -9.859  16.539  -0.795  1.00  0.00     0.000 C 
ENDROOT
BRANCH   1   2
ATOM      2  C   UNL     1      -9.353  16.885   0.611  1.00  0.00     0.000 C 
BRANCH   2   3
ATOM      3  C   UNL     1      -8.144  16.021   0.988  1.00  0.00     0.006 C 
BRANCH   3   4
ATOM      4  C   UNL     1      -6.882  16.878   1.137  1.00  0.00     0.053 C 
BRANCH   4   5
ATOM      5  C   UNL     1      -6.637  17.202   2.576  1.00  0.00     0.041 C 
ATOM      6  O   UNL     1      -6.513  16.278   3.422  1.00  0.00    -0.550 OA
ATOM      7  O   UNL     1      -6.498  18.525   2.976  1.00  0.00    -0.550 OA
ENDBRANCH   4   5
ENDBRANCH   3   4
ENDBRANCH   2   3
ENDBRANCH   1   2
BRANCH   1   8
ATOM      8  C   UNL     1      -9.084  17.315  -1.866  1.00  0.00     0.000 C 
BRANCH   8   9
ATOM      9  C   UNL     1      -8.728  16.412  -3.052  1.00  0.00     0.006 C 
BRANCH   9  10
ATOM     10  C   UNL     1      -8.356  15.003  -2.581  1.00  0.00     0.053 C 
BRANCH  10  11
ATOM     11  C   UNL     1      -6.888  14.767  -2.738  1.00  0.00     0.041 C 
ATOM     12  O   UNL     1      -6.399  14.551  -3.877  1.00  0.00    -0.550 OA
ATOM     13  O   UNL     1      -6.051  14.836  -1.631  1.00  0.00    -0.550 OA
ENDBRANCH  10  11
ENDBRANCH   9  10
ENDBRANCH   8   9
ENDBRANCH   1   8
TORSDOF 8
ENDMDL
MODEL 4
REMARK VINA RESULT:    -3.781      2.351      2.964
REMARK INTER + INTRA:          -5.921
REMARK INTER:                  -5.348
REMARK INTRA:                  -0.573
REMARK UNBOUND:                -0.371
REMARK SMILES O=C([O-])CCCCCCCC(=O)[O-]
REMARK SMILES IDX 7 1 6 2 5 3 4 4 2 5 1 6 3 7 8 8 9 9 10 10 11 11 12 12 13 13
REMARK H PARENT
REMARK Flexibility Score: inf
ROOT
ATOM      1  C   UNL     1      -7.034  14.166  -3.870  1.00  0.00     0.000 C 
ENDROOT
BRANCH   1   2
ATOM      2  C   UNL     1      -8.434  14.574  -4.345  1.00  0.00     0.000 C 
BRANCH   2   3
ATOM      3  C   UNL     1      -8.351  15.606  -5.476  1.00  0.00     0.006 C 
BRANCH   3   4
ATOM      4  C   UNL     1      -7.196  15.286  -6.429  1.00  0.00     0.053 C 
BRANCH   4   5
ATOM      5  C   UNL     1      -7.651  14.355  -7.509  1.00  0.00     0.041 C 
ATOM      6  O   UNL     1      -7.435  13.119  -7.413  1.00  0.00    -0.550 OA
ATOM      7  O   UNL     1      -8.355  14.849  -8.600  1.00  0.00    -0.550 OA
ENDBRANCH   4   5
ENDBRANCH   3   4
ENDBRANCH   2   3
ENDBRANCH   1   2
BRANCH   1   8
ATOM      8  C   UNL     1      -6.641  14.926  -2.599  1.00  0.00     0.000 C 
BRANCH   8   9
ATOM      9  C   UNL     1      -7.717  14.784  -1.516  1.00  0.00     0.006 C 
BRANCH   9  10
ATOM     10  C   UNL     1      -7.886  16.088  -0.733  1.00  0.00     0.053 C 
BRANCH  10  11
ATOM     11  C   UNL     1      -8.952  16.937  -1.350  1.00  0.00     0.041 C 
ATOM     12  O   UNL     1      -8.715  17.583  -2.404  1.00  0.00    -0.550 OA
ATOM     13  O   UNL     1     -10.222  16.976  -0.789  1.00  0.00    -0.550 OA
ENDBRANCH  10  11
ENDBRANCH   9  10
ENDBRANCH   8   9
ENDBRANCH   1   8
TORSDOF 8
ENDMDL
MODEL 5
REMARK VINA RESULT:    -3.763     13.823     15.581
REMARK INTER + INTRA:          -5.894
REMARK INTER:                  -5.438
REMARK INTRA:                  -0.456
REMARK UNBOUND:                -0.371
REMARK SMILES O=C([O-])CCCCCCCC(=O)[O-]
REMARK SMILES IDX 7 1 6 2 5 3 4 4 2 5 1 6 3 7 8 8 9 9 10 10 11 11 12 12 13 13
REMARK H PARENT
REMARK Flexibility Score: inf
ROOT
ATOM      1  C   UNL     1       7.010  18.491   2.860  1.00  0.00     0.000 C 
ENDROOT
BRANCH   1   2
ATOM      2  C   UNL     1       7.611  18.812   1.486  1.00  0.00     0.000 C 
BRANCH   2   3
ATOM      3  C   UNL     1       6.528  18.823   0.400  1.00  0.00     0.006 C 
BRANCH   3   4
ATOM      4  C   UNL     1       5.593  20.024   0.571  1.00  0.00     0.053 C 
BRANCH   4   5
ATOM      5  C   UNL     1       5.126  20.517  -0.763  1.00  0.00     0.041 C 
ATOM      6  O   UNL     1       5.462  21.660  -1.169  1.00  0.00    -0.550 OA
ATOM      7  O   UNL     1       4.359  19.694  -1.578  1.00  0.00    -0.550 OA
ENDBRANCH   4   5
ENDBRANCH   3   4
ENDBRANCH   2   3
ENDBRANCH   1   2
BRANCH   1   8
ATOM      8  C   UNL     1       7.941  18.947   3.988  1.00  0.00     0.000 C 
BRANCH   8   9
ATOM      9  C   UNL     1       7.191  19.818   5.004  1.00  0.00     0.006 C 
BRANCH   9  10
ATOM     10  C   UNL     1       6.085  20.628   4.323  1.00  0.00     0.053 C 
BRANCH  10  11
ATOM     11  C   UNL     1       6.123  22.053   4.776  1.00  0.00     0.041 C 
ATOM     12  O   UNL     1       5.167  22.828   4.513  1.00  0.00    -0.550 OA
ATOM     13  O   UNL     1       7.194  22.512   5.533  1.00  0.00    -0.550 OA
ENDBRANCH  10  11
ENDBRANCH   9  10
ENDBRANCH   8   9
ENDBRANCH   1   8
TORSDOF 8
ENDMDL
MODEL 6
REMARK VINA RESULT:    -3.758     13.596     16.167
REMARK INTER + INTRA:          -5.887
REMARK INTER:                  -5.409
REMARK INTRA:                  -0.478
REMARK UNBOUND:                -0.371
REMARK SMILES O=C([O-])CCCCCCCC(=O)[O-]
REMARK SMILES IDX 7 1 6 2 5 3 4 4 2 5 1 6 3 7 8 8 9 9 10 10 11 11 12 12 13 13
REMARK H PARENT
REMARK Flexibility Score: inf
ROOT
ATOM      1  C   UNL     1       6.195  20.211   2.998  1.00  0.00     0.000 C 
ENDROOT
BRANCH   1   2
ATOM      2  C   UNL     1       6.964  20.409   4.310  1.00  0.00     0.000 C 
BRANCH   2   3
ATOM      3  C   UNL     1       7.794  19.167   4.654  1.00  0.00     0.006 C 
BRANCH   3   4
ATOM      4  C   UNL     1       7.053  18.270   5.650  1.00  0.00     0.053 C 
BRANCH   4   5
ATOM      5  C   UNL     1       6.628  16.996   4.992  1.00  0.00     0.041 C 
ATOM      6  O   UNL     1       5.588  16.398   5.377  1.00  0.00    -0.550 OA
ATOM      7  O   UNL     1       7.354  16.492   3.920  1.00  0.00    -0.550 OA
ENDBRANCH   4   5
ENDBRANCH   3   4
ENDBRANCH   2   3
ENDBRANCH   1   2
BRANCH   1   8
ATOM      8  C   UNL     1       7.028  19.415   1.987  1.00  0.00     0.000 C 
BRANCH   8   9
ATOM      9  C   UNL     1       6.253  19.201   0.681  1.00  0.00     0.006 C 
BRANCH   9  10
ATOM     10  C   UNL     1       5.154  20.254   0.514  1.00  0.00     0.053 C 
BRANCH  10  11
ATOM     11  C   UNL     1       4.829  20.447  -0.934  1.00  0.00     0.041 C 
ATOM     12  O   UNL     1       4.438  19.474  -1.630  1.00  0.00    -0.550 OA
ATOM     13  O   UNL     1       4.909  21.712  -1.501  1.00  0.00    -0.550 OA
ENDBRANCH  10  11
ENDBRANCH   9  10
ENDBRANCH   8   9
ENDBRANCH   1   8
TORSDOF 8
ENDMDL
MODEL 7
REMARK VINA RESULT:    -3.740      2.074      2.646
REMARK INTER + INTRA:          -5.860
REMARK INTER:                  -5.212
REMARK INTRA:                  -0.648
REMARK UNBOUND:                -0.371
REMARK SMILES O=C([O-])CCCCCCCC(=O)[O-]
REMARK SMILES IDX 7 1 6 2 5 3 4 4 2 5 1 6 3 7 8 8 9 9 10 10 11 11 12 12 13 13
REMARK H PARENT
REMARK Flexibility Score: inf
ROOT
ATOM      1  C   UNL     1      -9.854  16.518  -0.768  1.00  0.00     0.000 C 
ENDROOT
BRANCH   1   2
ATOM      2  C   UNL     1      -9.063  17.259  -1.853  1.00  0.00     0.000 C 
BRANCH   2   3
ATOM      3  C   UNL     1      -8.679  16.313  -2.997  1.00  0.00     0.006 C 
BRANCH   3   4
ATOM      4  C   UNL     1      -8.353  14.914  -2.466  1.00  0.00     0.053 C 
BRANCH   4   5
ATOM      5  C   UNL     1      -6.895  14.620  -2.627  1.00  0.00     0.041 C 
ATOM      6  O   UNL     1      -6.379  14.581  -3.775  1.00  0.00    -0.550 OA
ATOM      7  O   UNL     1      -6.096  14.436  -1.506  1.00  0.00    -0.550 OA
ENDBRANCH   4   5
ENDBRANCH   3   4
ENDBRANCH   2   3
ENDBRANCH   1   2
BRANCH   1   8
ATOM      8  C   UNL     1      -9.334  16.871   0.630  1.00  0.00     0.000 C 
BRANCH   8   9
ATOM      9  C   UNL     1      -8.194  15.935   1.046  1.00  0.00     0.006 C 
BRANCH   9  10
ATOM     10  C   UNL     1      -6.860  16.685   1.108  1.00  0.00     0.053 C 
BRANCH  10  11
ATOM     11  C   UNL     1      -6.572  17.128   2.508  1.00  0.00     0.041 C 
ATOM     12  O   UNL     1      -6.475  16.281   3.433  1.00  0.00    -0.550 OA
ATOM     13  O   UNL     1      -6.361  18.474   2.780  1.00  0.00    -0.550 OA
ENDBRANCH  10  11
ENDBRANCH   9  10
ENDBRANCH   8   9
ENDBRANCH   1   8
TORSDOF 8
ENDMDL
MODEL 8
REMARK VINA RESULT:    -3.738     13.585     15.302
REMARK INTER + INTRA:          -5.857
REMARK INTER:                  -5.390
REMARK INTRA:                  -0.466
REMARK UNBOUND:                -0.371
REMARK SMILES O=C([O-])CCCCCCCC(=O)[O-]
REMARK SMILES IDX 7 1 6 2 5 3 4 4 2 5 1 6 3 7 8 8 9 9 10 10 11 11 12 12 13 13
REMARK H PARENT
REMARK Flexibility Score: inf
ROOT
ATOM      1  C   UNL     1       6.143  20.217   2.963  1.00  0.00     0.000 C 
ENDROOT
BRANCH   1   2
ATOM      2  C   UNL     1       6.955  19.317   2.023  1.00  0.00     0.000 C 
BRANCH   2   3
ATOM      3  C   UNL     1       6.283  19.210   0.649  1.00  0.00     0.006 C 
BRANCH   3   4
ATOM      4  C   UNL     1       5.188  20.268   0.488  1.00  0.00     0.053 C 
BRANCH   4   5
ATOM      5  C   UNL     1       4.828  20.435  -0.954  1.00  0.00     0.041 C 
ATOM      6  O   UNL     1       4.419  19.450  -1.624  1.00  0.00    -0.550 OA
ATOM      7  O   UNL     1       4.900  21.688  -1.548  1.00  0.00    -0.550 OA
ENDBRANCH   4   5
ENDBRANCH   3   4
ENDBRANCH   2   3
ENDBRANCH   1   2
BRANCH   1   8
ATOM      8  C   UNL     1       6.895  20.463   4.276  1.00  0.00     0.000 C 
BRANCH   8   9
ATOM      9  C   UNL     1       7.825  19.289   4.605  1.00  0.00     0.006 C 
BRANCH   9  10
ATOM     10  C   UNL     1       7.196  18.365   5.651  1.00  0.00     0.053 C 
BRANCH  10  11
ATOM     11  C   UNL     1       6.799  17.063   5.030  1.00  0.00     0.041 C 
ATOM     12  O   UNL     1       7.590  16.463   4.257  1.00  0.00    -0.550 OA
ATOM     13  O   UNL     1       5.575  16.488   5.346  1.00  0.00    -0.550 OA
ENDBRANCH  10  11
ENDBRANCH   9  10
ENDBRANCH   8   9
ENDBRANCH   1   8
TORSDOF 8
ENDMDL
MODEL 9
REMARK VINA RESULT:    -3.712      1.862      6.970
REMARK INTER + INTRA:          -5.819
REMARK INTER:                  -5.451
REMARK INTRA:                  -0.368
REMARK UNBOUND:                -0.371
REMARK SMILES O=C([O-])CCCCCCCC(=O)[O-]
REMARK SMILES IDX 7 1 6 2 5 3 4 4 2 5 1 6 3 7 8 8 9 9 10 10 11 11 12 12 13 13
REMARK H PARENT
REMARK Flexibility Score: inf
ROOT
ATOM      1  C   UNL     1      -7.453  15.153  -2.815  1.00  0.00     0.000 C 
ENDROOT
BRANCH   1   2
ATOM      2  C   UNL     1      -8.768  15.915  -3.021  1.00  0.00     0.000 C 
BRANCH   2   3
ATOM      3  C   UNL     1      -8.824  17.165  -2.136  1.00  0.00     0.006 C 
BRANCH   3   4
ATOM      4  C   UNL     1      -9.944  17.053  -1.097  1.00  0.00     0.053 C 
BRANCH   4   5
ATOM      5  C   UNL     1      -9.371  16.866   0.272  1.00  0.00     0.041 C 
ATOM      6  O   UNL     1     -10.056  17.150   1.290  1.00  0.00    -0.550 OA
ATOM      7  O   UNL     1      -8.098  16.333   0.426  1.00  0.00    -0.550 OA
ENDBRANCH   4   5
ENDBRANCH   3   4
ENDBRANCH   2   3
ENDBRANCH   1   2
BRANCH   1   8
ATOM      8  C   UNL     1      -6.908  14.626  -4.147  1.00  0.00     0.000 C 
BRANCH   8   9
ATOM      9  C   UNL     1      -7.943  14.782  -5.267  1.00  0.00     0.006 C 
BRANCH   9  10
ATOM     10  C   UNL     1      -7.272  15.169  -6.588  1.00  0.00     0.053 C 
BRANCH  10  11
ATOM     11  C   UNL     1      -7.754  14.290  -7.698  1.00  0.00     0.041 C 
ATOM     12  O   UNL     1      -8.226  14.797  -8.748  1.00  0.00    -0.550 OA
ATOM     13  O   UNL     1      -7.633  12.910  -7.594  1.00  0.00    -0.550 OA
ENDBRANCH  10  11
ENDBRANCH   9  10
ENDBRANCH   8   9
ENDBRANCH   1   8
TORSDOF 8
ENDMDL
