MODEL 1
REMARK VINA RESULT:    -4.552      0.000      0.000
REMARK INTER + INTRA:          -4.985
REMARK INTER:                  -4.951
REMARK INTRA:                  -0.034
REMARK UNBOUND:                -0.034
REMARK SMILES O=C([O-])c1ccc(O)cc1
REMARK SMILES IDX 4 1 5 2 10 3 6 4 9 5 7 6 2 7 1 8 3 9 8 10
REMARK H PARENT 8 11
REMARK Flexibility Score: inf
ROOT
ATOM      1  C   UNL     1    -109.102  31.455  25.404  1.00  0.00    -0.003 A 
ATOM      2  C   UNL     1    -107.797  31.298  24.902  1.00  0.00     0.014 A 
ATOM      3  C   UNL     1    -109.278  31.723  26.774  1.00  0.00     0.014 A 
ATOM      4  C   UNL     1    -106.694  31.405  25.754  1.00  0.00     0.047 A 
ATOM      5  C   UNL     1    -108.172  31.829  27.622  1.00  0.00     0.047 A 
ATOM      6  C   UNL     1    -106.879  31.672  27.117  1.00  0.00     0.115 A 
ENDROOT
BRANCH   1   7
ATOM      7  C   UNL     1    -110.275  31.342  24.509  1.00  0.00     0.071 C 
ATOM      8  O   UNL     1    -110.219  30.636  23.467  1.00  0.00    -0.545 OA
ATOM      9  O   UNL     1    -111.455  32.015  24.805  1.00  0.00    -0.545 OA
ENDBRANCH   1   7
BRANCH   6  10
ATOM     10  O   UNL     1    -105.786  31.782  27.973  1.00  0.00    -0.508 OA
ATOM     11  H   UNL     1    -105.515  32.671  28.376  1.00  0.00     0.293 HD
ENDBRANCH   6  10
TORSDOF 2
ENDMDL
MODEL 2
REMARK VINA RESULT:    -4.435      1.333      2.142
REMARK INTER + INTRA:          -4.857
REMARK INTER:                  -4.822
REMARK INTRA:                  -0.036
REMARK UNBOUND:                -0.034
REMARK SMILES O=C([O-])c1ccc(O)cc1
REMARK SMILES IDX 4 1 5 2 10 3 6 4 9 5 7 6 2 7 1 8 3 9 8 10
REMARK H PARENT 8 11
REMARK Flexibility Score: inf
ROOT
ATOM      1  C   UNL     1    -109.088  31.465  25.701  1.00  0.00    -0.003 A 
ATOM      2  C   UNL     1    -108.379  31.277  26.902  1.00  0.00     0.014 A 
ATOM      3  C   UNL     1    -108.407  31.320  24.478  1.00  0.00     0.014 A 
ATOM      4  C   UNL     1    -107.020  30.952  26.878  1.00  0.00     0.047 A 
ATOM      5  C   UNL     1    -107.048  30.995  24.459  1.00  0.00     0.047 A 
ATOM      6  C   UNL     1    -106.350  30.810  25.656  1.00  0.00     0.115 A 
ENDROOT
BRANCH   1   7
ATOM      7  C   UNL     1    -110.526  31.810  25.718  1.00  0.00     0.071 C 
ATOM      8  O   UNL     1    -111.122  32.125  24.654  1.00  0.00    -0.545 OA
ATOM      9  O   UNL     1    -111.241  31.791  26.911  1.00  0.00    -0.545 OA
ENDBRANCH   1   7
BRANCH   6  10
ATOM     10  O   UNL     1    -104.996  30.485  25.621  1.00  0.00    -0.508 OA
ATOM     11  H   UNL     1    -104.672  29.544  25.808  1.00  0.00     0.293 HD
ENDBRANCH   6  10
TORSDOF 2
ENDMDL
MODEL 3
REMARK VINA RESULT:    -4.359      1.445      2.063
REMARK INTER + INTRA:          -4.775
REMARK INTER:                  -4.739
REMARK INTRA:                  -0.036
REMARK UNBOUND:                -0.034
REMARK SMILES O=C([O-])c1ccc(O)cc1
REMARK SMILES IDX 4 1 5 2 10 3 6 4 9 5 7 6 2 7 1 8 3 9 8 10
REMARK H PARENT 8 11
REMARK Flexibility Score: inf
ROOT
ATOM      1  C   UNL     1    -109.052  31.556  26.126  1.00  0.00    -0.003 A 
ATOM      2  C   UNL     1    -108.609  31.288  24.817  1.00  0.00     0.014 A 
ATOM      3  C   UNL     1    -108.121  31.521  27.181  1.00  0.00     0.014 A 
ATOM      4  C   UNL     1    -107.266  30.991  24.571  1.00  0.00     0.047 A 
ATOM      5  C   UNL     1    -106.778  31.224  26.930  1.00  0.00     0.047 A 
ATOM      6  C   UNL     1    -106.346  30.958  25.628  1.00  0.00     0.115 A 
ENDROOT
BRANCH   1   7
ATOM      7  C   UNL     1    -110.472  31.870  26.393  1.00  0.00     0.071 C 
ATOM      8  O   UNL     1    -110.862  32.125  27.564  1.00  0.00    -0.545 OA
ATOM      9  O   UNL     1    -111.398  31.888  25.356  1.00  0.00    -0.545 OA
ENDBRANCH   1   7
BRANCH   6  10
ATOM     10  O   UNL     1    -105.005  30.665  25.393  1.00  0.00    -0.508 OA
ATOM     11  H   UNL     1    -104.727  29.949  24.733  1.00  0.00     0.293 HD
ENDBRANCH   6  10
TORSDOF 2
ENDMDL
MODEL 4
REMARK VINA RESULT:    -4.165      2.210      3.166
REMARK INTER + INTRA:          -4.564
REMARK INTER:                  -4.530
REMARK INTRA:                  -0.034
REMARK UNBOUND:                -0.034
REMARK SMILES O=C([O-])c1ccc(O)cc1
REMARK SMILES IDX 4 1 5 2 10 3 6 4 9 5 7 6 2 7 1 8 3 9 8 10
REMARK H PARENT 8 11
REMARK Flexibility Score: inf
ROOT
ATOM      1  C   UNL     1    -109.732  31.342  26.826  1.00  0.00    -0.003 A 
ATOM      2  C   UNL     1    -108.391  31.093  27.173  1.00  0.00     0.014 A 
ATOM      3  C   UNL     1    -110.056  31.563  25.475  1.00  0.00     0.014 A 
ATOM      4  C   UNL     1    -107.399  31.067  26.190  1.00  0.00     0.047 A 
ATOM      5  C   UNL     1    -109.060  31.537  24.494  1.00  0.00     0.047 A 
ATOM      6  C   UNL     1    -107.731  31.289  24.847  1.00  0.00     0.115 A 
ENDROOT
BRANCH   1   7
ATOM      7  C   UNL     1    -110.788  31.371  27.862  1.00  0.00     0.071 C 
ATOM      8  O   UNL     1    -111.848  32.025  27.676  1.00  0.00    -0.545 OA
ATOM      9  O   UNL     1    -110.623  30.677  29.056  1.00  0.00    -0.545 OA
ENDBRANCH   1   7
BRANCH   6  10
ATOM     10  O   UNL     1    -106.749  31.264  23.859  1.00  0.00    -0.508 OA
ATOM     11  H   UNL     1    -105.777  31.455  24.072  1.00  0.00     0.293 HD
ENDBRANCH   6  10
TORSDOF 2
ENDMDL
MODEL 5
REMARK VINA RESULT:    -4.141      8.161      8.629
REMARK INTER + INTRA:          -4.538
REMARK INTER:                  -4.505
REMARK INTRA:                  -0.032
REMARK UNBOUND:                -0.034
REMARK SMILES O=C([O-])c1ccc(O)cc1
REMARK SMILES IDX 4 1 5 2 10 3 6 4 9 5 7 6 2 7 1 8 3 9 8 10
REMARK H PARENT 8 11
REMARK Flexibility Score: inf
ROOT
ATOM      1  C   UNL     1    -109.583  23.202  23.837  1.00  0.00    -0.003 A 
ATOM      2  C   UNL     1    -109.803  22.723  25.141  1.00  0.00     0.014 A 
ATOM      3  C   UNL     1    -108.297  23.653  23.484  1.00  0.00     0.014 A 
ATOM      4  C   UNL     1    -108.760  22.697  26.071  1.00  0.00     0.047 A 
ATOM      5  C   UNL     1    -107.257  23.626  24.417  1.00  0.00     0.047 A 
ATOM      6  C   UNL     1    -107.483  23.149  25.711  1.00  0.00     0.115 A 
ENDROOT
BRANCH   1   7
ATOM      7  C   UNL     1    -110.682  23.232  22.847  1.00  0.00     0.071 C 
ATOM      8  O   UNL     1    -111.534  22.305  22.808  1.00  0.00    -0.545 OA
ATOM      9  O   UNL     1    -110.790  24.286  21.946  1.00  0.00    -0.545 OA
ENDBRANCH   1   7
BRANCH   6  10
ATOM     10  O   UNL     1    -106.437  23.127  26.630  1.00  0.00    -0.508 OA
ATOM     11  H   UNL     1    -105.801  23.909  26.729  1.00  0.00     0.293 HD
ENDBRANCH   6  10
TORSDOF 2
ENDMDL
MODEL 6
REMARK VINA RESULT:    -4.129      8.135      9.380
REMARK INTER + INTRA:          -4.525
REMARK INTER:                  -4.489
REMARK INTRA:                  -0.035
REMARK UNBOUND:                -0.034
REMARK SMILES O=C([O-])c1ccc(O)cc1
REMARK SMILES IDX 4 1 5 2 10 3 6 4 9 5 7 6 2 7 1 8 3 9 8 10
REMARK H PARENT 8 11
REMARK Flexibility Score: inf
ROOT
ATOM      1  C   UNL     1    -108.528  23.195  24.599  1.00  0.00    -0.003 A 
ATOM      2  C   UNL     1    -109.876  22.855  24.381  1.00  0.00     0.014 A 
ATOM      3  C   UNL     1    -107.829  23.891  23.595  1.00  0.00     0.014 A 
ATOM      4  C   UNL     1    -110.508  23.203  23.184  1.00  0.00     0.047 A 
ATOM      5  C   UNL     1    -108.466  24.236  22.400  1.00  0.00     0.047 A 
ATOM      6  C   UNL     1    -109.804  23.895  22.190  1.00  0.00     0.115 A 
ENDROOT
BRANCH   1   7
ATOM      7  C   UNL     1    -107.852  22.830  25.863  1.00  0.00     0.071 C 
ATOM      8  O   UNL     1    -108.351  21.964  26.629  1.00  0.00    -0.545 OA
ATOM      9  O   UNL     1    -106.654  23.439  26.223  1.00  0.00    -0.545 OA
ENDBRANCH   1   7
BRANCH   6  10
ATOM     10  O   UNL     1    -110.426  24.247  20.994  1.00  0.00    -0.508 OA
ATOM     11  H   UNL     1    -110.793  23.546  20.361  1.00  0.00     0.293 HD
ENDBRANCH   6  10
TORSDOF 2
ENDMDL
MODEL 7
REMARK VINA RESULT:    -4.112      8.247      8.552
REMARK INTER + INTRA:          -4.507
REMARK INTER:                  -4.475
REMARK INTRA:                  -0.032
REMARK UNBOUND:                -0.034
REMARK SMILES O=C([O-])c1ccc(O)cc1
REMARK SMILES IDX 4 1 5 2 10 3 6 4 9 5 7 6 2 7 1 8 3 9 8 10
REMARK H PARENT 8 11
REMARK Flexibility Score: inf
ROOT
ATOM      1  C   UNL     1    -109.945  23.156  23.660  1.00  0.00    -0.003 A 
ATOM      2  C   UNL     1    -108.767  23.691  23.108  1.00  0.00     0.014 A 
ATOM      3  C   UNL     1    -109.935  22.721  24.999  1.00  0.00     0.014 A 
ATOM      4  C   UNL     1    -107.605  23.789  23.879  1.00  0.00     0.047 A 
ATOM      5  C   UNL     1    -108.770  22.821  25.766  1.00  0.00     0.047 A 
ATOM      6  C   UNL     1    -107.603  23.353  25.210  1.00  0.00     0.115 A 
ENDROOT
BRANCH   1   7
ATOM      7  C   UNL     1    -111.178  23.049  22.850  1.00  0.00     0.071 C 
ATOM      8  O   UNL     1    -111.126  22.664  21.652  1.00  0.00    -0.545 OA
ATOM      9  O   UNL     1    -112.413  23.374  23.401  1.00  0.00    -0.545 OA
ENDBRANCH   1   7
BRANCH   6  10
ATOM     10  O   UNL     1    -106.451  23.447  25.987  1.00  0.00    -0.508 OA
ATOM     11  H   UNL     1    -106.360  24.140  26.719  1.00  0.00     0.293 HD
ENDBRANCH   6  10
TORSDOF 2
ENDMDL
MODEL 8
REMARK VINA RESULT:    -4.081      8.197      9.316
REMARK INTER + INTRA:          -4.472
REMARK INTER:                  -4.437
REMARK INTRA:                  -0.035
REMARK UNBOUND:                -0.034
REMARK SMILES O=C([O-])c1ccc(O)cc1
REMARK SMILES IDX 4 1 5 2 10 3 6 4 9 5 7 6 2 7 1 8 3 9 8 10
REMARK H PARENT 8 11
REMARK Flexibility Score: inf
ROOT
ATOM      1  C   UNL     1    -108.483  23.110  24.780  1.00  0.00    -0.003 A 
ATOM      2  C   UNL     1    -107.735  23.797  23.806  1.00  0.00     0.014 A 
ATOM      3  C   UNL     1    -109.831  22.806  24.515  1.00  0.00     0.014 A 
ATOM      4  C   UNL     1    -108.324  24.170  22.595  1.00  0.00     0.047 A 
ATOM      5  C   UNL     1    -110.416  23.181  23.302  1.00  0.00     0.047 A 
ATOM      6  C   UNL     1    -109.666  23.863  22.339  1.00  0.00     0.115 A 
ENDROOT
BRANCH   1   7
ATOM      7  C   UNL     1    -107.866  22.712  26.065  1.00  0.00     0.071 C 
ATOM      8  O   UNL     1    -108.420  21.853  26.801  1.00  0.00    -0.545 OA
ATOM      9  O   UNL     1    -106.667  23.282  26.477  1.00  0.00    -0.545 OA
ENDBRANCH   1   7
BRANCH   6  10
ATOM     10  O   UNL     1    -110.262  24.230  21.135  1.00  0.00    -0.508 OA
ATOM     11  H   UNL     1    -110.356  25.202  20.864  1.00  0.00     0.293 HD
ENDBRANCH   6  10
TORSDOF 2
ENDMDL
MODEL 9
REMARK VINA RESULT:    -4.011      1.445      4.041
REMARK INTER + INTRA:          -4.396
REMARK INTER:                  -4.360
REMARK INTRA:                  -0.036
REMARK UNBOUND:                -0.034
REMARK SMILES O=C([O-])c1ccc(O)cc1
REMARK SMILES IDX 4 1 5 2 10 3 6 4 9 5 7 6 2 7 1 8 3 9 8 10
REMARK H PARENT 8 11
REMARK Flexibility Score: inf
ROOT
ATOM      1  C   UNL     1    -108.090  31.286  25.586  1.00  0.00    -0.003 A 
ATOM      2  C   UNL     1    -108.725  31.433  24.339  1.00  0.00     0.014 A 
ATOM      3  C   UNL     1    -108.854  31.422  26.760  1.00  0.00     0.014 A 
ATOM      4  C   UNL     1    -110.093  31.711  24.270  1.00  0.00     0.047 A 
ATOM      5  C   UNL     1    -110.222  31.699  26.686  1.00  0.00     0.047 A 
ATOM      6  C   UNL     1    -110.845  31.844  25.444  1.00  0.00     0.115 A 
ENDROOT
BRANCH   1   7
ATOM      7  C   UNL     1    -106.642  30.993  25.667  1.00  0.00     0.071 C 
ATOM      8  O   UNL     1    -106.092  30.788  26.781  1.00  0.00    -0.545 OA
ATOM      9  O   UNL     1    -105.868  30.939  24.513  1.00  0.00    -0.545 OA
ENDBRANCH   1   7
BRANCH   6  10
ATOM     10  O   UNL     1    -112.210  32.120  25.386  1.00  0.00    -0.508 OA
ATOM     11  H   UNL     1    -112.903  31.390  25.499  1.00  0.00     0.293 HD
ENDBRANCH   6  10
TORSDOF 2
ENDMDL
