MODEL 1
REMARK VINA RESULT:    -4.067      0.000      0.000
REMARK INTER + INTRA:          -4.321
REMARK INTER:                  -4.305
REMARK INTRA:                  -0.016
REMARK UNBOUND:                -0.016
REMARK SMILES O=C([O-])c1cccnc1
REMARK SMILES IDX 4 1 5 2 9 3 6 4 8 5 7 6 2 7 1 8 3 9
REMARK H PARENT
REMARK Flexibility Score: inf
ROOT
ATOM      1  C   UNL     1       0.065  -6.577 -31.920  1.00  0.00     0.016 A 
ATOM      2  C   UNL     1      -1.284  -6.315 -31.627  1.00  0.00     0.013 A 
ATOM      3  C   UNL     1       0.962  -6.733 -30.849  1.00  0.00     0.120 A 
ATOM      4  C   UNL     1      -1.707  -6.213 -30.301  1.00  0.00     0.021 A 
ATOM      5  N   UNL     1       0.523  -6.630 -29.565  1.00  0.00    -0.264 NA
ATOM      6  C   UNL     1      -0.779  -6.376 -29.272  1.00  0.00     0.111 A 
ENDROOT
BRANCH   1   7
ATOM      7  C   UNL     1       0.533  -6.687 -33.317  1.00  0.00     0.073 C 
ATOM      8  O   UNL     1       0.543  -7.802 -33.904  1.00  0.00    -0.545 OA
ATOM      9  O   UNL     1       0.970  -5.559 -34.004  1.00  0.00    -0.545 OA
ENDBRANCH   1   7
TORSDOF 1
ENDMDL
MODEL 2
REMARK VINA RESULT:    -4.048      0.922      1.599
REMARK INTER + INTRA:          -4.301
REMARK INTER:                  -4.285
REMARK INTRA:                  -0.016
REMARK UNBOUND:                -0.016
REMARK SMILES O=C([O-])c1cccnc1
REMARK SMILES IDX 4 1 5 2 9 3 6 4 8 5 7 6 2 7 1 8 3 9
REMARK H PARENT
REMARK Flexibility Score: inf
ROOT
ATOM      1  C   UNL     1       0.031  -6.591 -31.909  1.00  0.00     0.016 A 
ATOM      2  C   UNL     1       0.893  -6.871 -30.836  1.00  0.00     0.013 A 
ATOM      3  C   UNL     1      -1.295  -6.223 -31.622  1.00  0.00     0.120 A 
ATOM      4  C   UNL     1       0.430  -6.781 -29.522  1.00  0.00     0.021 A 
ATOM      5  N   UNL     1      -1.721  -6.142 -30.332  1.00  0.00    -0.264 NA
ATOM      6  C   UNL     1      -0.894  -6.411 -29.287  1.00  0.00     0.111 A 
ENDROOT
BRANCH   1   7
ATOM      7  C   UNL     1       0.502  -6.681 -33.307  1.00  0.00     0.073 C 
ATOM      8  O   UNL     1       0.532  -7.791 -33.903  1.00  0.00    -0.545 OA
ATOM      9  O   UNL     1       0.919  -5.540 -33.984  1.00  0.00    -0.545 OA
ENDBRANCH   1   7
TORSDOF 1
ENDMDL
MODEL 3
REMARK VINA RESULT:    -3.947      9.579     10.469
REMARK INTER + INTRA:          -4.194
REMARK INTER:                  -4.177
REMARK INTRA:                  -0.017
REMARK UNBOUND:                -0.016
REMARK SMILES O=C([O-])c1cccnc1
REMARK SMILES IDX 4 1 5 2 9 3 6 4 8 5 7 6 2 7 1 8 3 9
REMARK H PARENT
REMARK Flexibility Score: inf
ROOT
ATOM      1  C   UNL     1      -6.012  -4.124 -39.537  1.00  0.00     0.016 A 
ATOM      2  C   UNL     1      -5.143  -3.962 -40.629  1.00  0.00     0.013 A 
ATOM      3  C   UNL     1      -5.565  -4.873 -38.435  1.00  0.00     0.120 A 
ATOM      4  C   UNL     1      -3.871  -4.537 -40.605  1.00  0.00     0.021 A 
ATOM      5  N   UNL     1      -4.320  -5.422 -38.436  1.00  0.00    -0.264 NA
ATOM      6  C   UNL     1      -3.473  -5.271 -39.488  1.00  0.00     0.111 A 
ENDROOT
BRANCH   1   7
ATOM      7  C   UNL     1      -7.363  -3.524 -39.543  1.00  0.00     0.073 C 
ATOM      8  O   UNL     1      -8.282  -4.024 -40.245  1.00  0.00    -0.545 OA
ATOM      9  O   UNL     1      -7.637  -2.399 -38.774  1.00  0.00    -0.545 OA
ENDBRANCH   1   7
TORSDOF 1
ENDMDL
MODEL 4
REMARK VINA RESULT:    -3.928      9.103     10.117
REMARK INTER + INTRA:          -4.173
REMARK INTER:                  -4.150
REMARK INTRA:                  -0.024
REMARK UNBOUND:                -0.016
REMARK SMILES O=C([O-])c1cccnc1
REMARK SMILES IDX 4 1 5 2 9 3 6 4 8 5 7 6 2 7 1 8 3 9
REMARK H PARENT
REMARK Flexibility Score: inf
ROOT
ATOM      1  C   UNL     1      -4.586  -5.118 -39.575  1.00  0.00     0.016 A 
ATOM      2  C   UNL     1      -3.561  -6.042 -39.315  1.00  0.00     0.013 A 
ATOM      3  C   UNL     1      -4.721  -4.620 -40.882  1.00  0.00     0.120 A 
ATOM      4  C   UNL     1      -2.704  -6.446 -40.340  1.00  0.00     0.021 A 
ATOM      5  N   UNL     1      -3.873  -5.031 -41.864  1.00  0.00    -0.264 NA
ATOM      6  C   UNL     1      -2.878  -5.925 -41.622  1.00  0.00     0.111 A 
ENDROOT
BRANCH   1   7
ATOM      7  C   UNL     1      -5.503  -4.676 -38.503  1.00  0.00     0.073 C 
ATOM      8  O   UNL     1      -6.494  -3.945 -38.768  1.00  0.00    -0.545 OA
ATOM      9  O   UNL     1      -5.282  -5.062 -37.185  1.00  0.00    -0.545 OA
ENDBRANCH   1   7
TORSDOF 1
ENDMDL
MODEL 5
REMARK VINA RESULT:    -3.902      3.235      4.142
REMARK INTER + INTRA:          -4.147
REMARK INTER:                  -4.124
REMARK INTRA:                  -0.022
REMARK UNBOUND:                -0.016
REMARK SMILES O=C([O-])c1cccnc1
REMARK SMILES IDX 4 1 5 2 9 3 6 4 8 5 7 6 2 7 1 8 3 9
REMARK H PARENT
REMARK Flexibility Score: inf
ROOT
ATOM      1  C   UNL     1      -0.643  -6.414 -30.215  1.00  0.00     0.016 A 
ATOM      2  C   UNL     1       0.682  -6.797 -30.477  1.00  0.00     0.013 A 
ATOM      3  C   UNL     1      -1.480  -6.115 -31.304  1.00  0.00     0.120 A 
ATOM      4  C   UNL     1       1.142  -6.875 -31.793  1.00  0.00     0.021 A 
ATOM      5  N   UNL     1      -1.007  -6.199 -32.577  1.00  0.00    -0.264 NA
ATOM      6  C   UNL     1       0.274  -6.569 -32.841  1.00  0.00     0.111 A 
ENDROOT
BRANCH   1   7
ATOM      7  C   UNL     1      -1.150  -6.324 -28.829  1.00  0.00     0.073 C 
ATOM      8  O   UNL     1      -2.386  -6.389 -28.593  1.00  0.00    -0.545 OA
ATOM      9  O   UNL     1      -0.267  -6.165 -27.766  1.00  0.00    -0.545 OA
ENDBRANCH   1   7
TORSDOF 1
ENDMDL
MODEL 6
REMARK VINA RESULT:    -3.892     13.025     13.857
REMARK INTER + INTRA:          -4.136
REMARK INTER:                  -4.115
REMARK INTRA:                  -0.021
REMARK UNBOUND:                -0.016
REMARK SMILES O=C([O-])c1cccnc1
REMARK SMILES IDX 4 1 5 2 9 3 6 4 8 5 7 6 2 7 1 8 3 9
REMARK H PARENT
REMARK Flexibility Score: inf
ROOT
ATOM      1  C   UNL     1     -10.234   0.562 -37.007  1.00  0.00     0.016 A 
ATOM      2  C   UNL     1     -11.156  -0.288 -37.641  1.00  0.00     0.013 A 
ATOM      3  C   UNL     1      -8.865   0.374 -37.265  1.00  0.00     0.120 A 
ATOM      4  C   UNL     1     -10.707  -1.290 -38.504  1.00  0.00     0.021 A 
ATOM      5  N   UNL     1      -8.455  -0.610 -38.112  1.00  0.00    -0.264 NA
ATOM      6  C   UNL     1      -9.338  -1.436 -38.730  1.00  0.00     0.111 A 
ENDROOT
BRANCH   1   7
ATOM      7  C   UNL     1     -10.689   1.627 -36.089  1.00  0.00     0.073 C 
ATOM      8  O   UNL     1     -11.717   2.306 -36.353  1.00  0.00    -0.545 OA
ATOM      9  O   UNL     1      -9.985   1.896 -34.920  1.00  0.00    -0.545 OA
ENDBRANCH   1   7
TORSDOF 1
ENDMDL
MODEL 7
REMARK VINA RESULT:    -3.885      3.188      3.879
REMARK INTER + INTRA:          -4.128
REMARK INTER:                  -4.105
REMARK INTRA:                  -0.023
REMARK UNBOUND:                -0.016
REMARK SMILES O=C([O-])c1cccnc1
REMARK SMILES IDX 4 1 5 2 9 3 6 4 8 5 7 6 2 7 1 8 3 9
REMARK H PARENT
REMARK Flexibility Score: inf
ROOT
ATOM      1  C   UNL     1      -0.670  -6.414 -30.043  1.00  0.00     0.016 A 
ATOM      2  C   UNL     1      -1.568  -6.136 -31.086  1.00  0.00     0.013 A 
ATOM      3  C   UNL     1       0.651  -6.761 -30.374  1.00  0.00     0.120 A 
ATOM      4  C   UNL     1      -1.145  -6.207 -32.414  1.00  0.00     0.021 A 
ATOM      5  N   UNL     1       1.039  -6.822 -31.677  1.00  0.00    -0.264 NA
ATOM      6  C   UNL     1       0.177  -6.555 -32.693  1.00  0.00     0.111 A 
ENDROOT
BRANCH   1   7
ATOM      7  C   UNL     1      -1.099  -6.346 -28.630  1.00  0.00     0.073 C 
ATOM      8  O   UNL     1      -2.318  -6.435 -28.325  1.00  0.00    -0.545 OA
ATOM      9  O   UNL     1      -0.160  -6.181 -27.617  1.00  0.00    -0.545 OA
ENDBRANCH   1   7
TORSDOF 1
ENDMDL
MODEL 8
REMARK VINA RESULT:    -3.790     12.445     13.126
REMARK INTER + INTRA:          -4.028
REMARK INTER:                  -4.011
REMARK INTRA:                  -0.017
REMARK UNBOUND:                -0.016
REMARK SMILES O=C([O-])c1cccnc1
REMARK SMILES IDX 4 1 5 2 9 3 6 4 8 5 7 6 2 7 1 8 3 9
REMARK H PARENT
REMARK Flexibility Score: inf
ROOT
ATOM      1  C   UNL     1      -9.275  -0.951 -38.523  1.00  0.00     0.016 A 
ATOM      2  C   UNL     1      -8.851   0.039 -37.620  1.00  0.00     0.013 A 
ATOM      3  C   UNL     1     -10.655  -1.160 -38.686  1.00  0.00     0.120 A 
ATOM      4  C   UNL     1      -9.791   0.788 -36.909  1.00  0.00     0.021 A 
ATOM      5  N   UNL     1     -11.550  -0.415 -37.981  1.00  0.00    -0.264 NA
ATOM      6  C   UNL     1     -11.150   0.544 -37.106  1.00  0.00     0.111 A 
ENDROOT
BRANCH   1   7
ATOM      7  C   UNL     1      -8.296  -1.756 -39.284  1.00  0.00     0.073 C 
ATOM      8  O   UNL     1      -7.588  -2.621 -38.704  1.00  0.00    -0.545 OA
ATOM      9  O   UNL     1      -8.143  -1.567 -40.654  1.00  0.00    -0.545 OA
ENDBRANCH   1   7
TORSDOF 1
ENDMDL
MODEL 9
REMARK VINA RESULT:    -3.647      2.075      3.122
REMARK INTER + INTRA:          -3.876
REMARK INTER:                  -3.859
REMARK INTRA:                  -0.018
REMARK UNBOUND:                -0.016
REMARK SMILES O=C([O-])c1cccnc1
REMARK SMILES IDX 4 1 5 2 9 3 6 4 8 5 7 6 2 7 1 8 3 9
REMARK H PARENT
REMARK Flexibility Score: inf
ROOT
ATOM      1  C   UNL     1       1.975  -6.748 -33.467  1.00  0.00     0.016 A 
ATOM      2  C   UNL     1       2.552  -7.129 -32.244  1.00  0.00     0.013 A 
ATOM      3  C   UNL     1       0.620  -6.374 -33.478  1.00  0.00     0.120 A 
ATOM      4  C   UNL     1       1.786  -7.130 -31.077  1.00  0.00     0.021 A 
ATOM      5  N   UNL     1      -0.104  -6.383 -32.326  1.00  0.00    -0.264 NA
ATOM      6  C   UNL     1       0.446  -6.750 -31.138  1.00  0.00     0.111 A 
ENDROOT
BRANCH   1   7
ATOM      7  C   UNL     1       2.769  -6.742 -34.714  1.00  0.00     0.073 C 
ATOM      8  O   UNL     1       2.914  -5.679 -35.375  1.00  0.00    -0.545 OA
ATOM      9  O   UNL     1       3.365  -7.911 -35.175  1.00  0.00    -0.545 OA
ENDBRANCH   1   7
TORSDOF 1
ENDMDL
