MODEL 1
REMARK VINA RESULT:    -5.053      0.000      0.000
REMARK INTER + INTRA:          -5.529
REMARK INTER:                  -5.496
REMARK INTRA:                  -0.033
REMARK UNBOUND:                -0.033
REMARK SMILES O=C([O-])c1ccc(O)cc1
REMARK SMILES IDX 4 1 5 2 10 3 6 4 9 5 7 6 2 7 1 8 3 9 8 10
REMARK H PARENT 8 11
REMARK Flexibility Score: inf
ROOT
ATOM      1  C   UNL     1     147.730 146.085 157.117  1.00  0.00    -0.003 A 
ATOM      2  C   UNL     1     146.399 146.487 156.903  1.00  0.00     0.014 A 
ATOM      3  C   UNL     1     148.752 147.048 157.050  1.00  0.00     0.014 A 
ATOM      4  C   UNL     1     146.099 147.825 156.627  1.00  0.00     0.047 A 
ATOM      5  C   UNL     1     148.448 148.385 156.775  1.00  0.00     0.047 A 
ATOM      6  C   UNL     1     147.121 148.776 156.562  1.00  0.00     0.115 A 
ENDROOT
BRANCH   1   7
ATOM      7  C   UNL     1     148.053 144.671 157.409  1.00  0.00     0.071 C 
ATOM      8  O   UNL     1     149.137 144.167 157.013  1.00  0.00    -0.545 OA
ATOM      9  O   UNL     1     147.163 143.878 158.125  1.00  0.00    -0.545 OA
ENDBRANCH   1   7
BRANCH   6  10
ATOM     10  O   UNL     1     146.807 150.105 156.287  1.00  0.00    -0.508 OA
ATOM     11  H   UNL     1     147.390 150.866 156.618  1.00  0.00     0.293 HD
ENDBRANCH   6  10
TORSDOF 2
ENDMDL
MODEL 2
REMARK VINA RESULT:    -5.025      0.026      1.532
REMARK INTER + INTRA:          -5.499
REMARK INTER:                  -5.466
REMARK INTRA:                  -0.033
REMARK UNBOUND:                -0.033
REMARK SMILES O=C([O-])c1ccc(O)cc1
REMARK SMILES IDX 4 1 5 2 10 3 6 4 9 5 7 6 2 7 1 8 3 9 8 10
REMARK H PARENT 8 11
REMARK Flexibility Score: inf
ROOT
ATOM      1  C   UNL     1     147.729 146.092 157.110  1.00  0.00    -0.003 A 
ATOM      2  C   UNL     1     148.752 147.052 157.006  1.00  0.00     0.014 A 
ATOM      3  C   UNL     1     146.395 146.494 156.927  1.00  0.00     0.014 A 
ATOM      4  C   UNL     1     148.444 148.387 156.727  1.00  0.00     0.047 A 
ATOM      5  C   UNL     1     146.090 147.830 156.647  1.00  0.00     0.047 A 
ATOM      6  C   UNL     1     147.114 148.779 156.547  1.00  0.00     0.115 A 
ENDROOT
BRANCH   1   7
ATOM      7  C   UNL     1     148.049 144.678 157.406  1.00  0.00     0.071 C 
ATOM      8  O   UNL     1     149.132 144.169 157.011  1.00  0.00    -0.545 OA
ATOM      9  O   UNL     1     147.158 143.889 158.125  1.00  0.00    -0.545 OA
ENDBRANCH   1   7
BRANCH   6  10
ATOM     10  O   UNL     1     146.822 150.113 156.268  1.00  0.00    -0.508 OA
ATOM     11  H   UNL     1     145.947 150.384 155.834  1.00  0.00     0.293 HD
ENDBRANCH   6  10
TORSDOF 2
ENDMDL
MODEL 3
REMARK VINA RESULT:    -4.814      1.377      4.518
REMARK INTER + INTRA:          -5.270
REMARK INTER:                  -5.234
REMARK INTRA:                  -0.036
REMARK UNBOUND:                -0.033
REMARK SMILES O=C([O-])c1ccc(O)cc1
REMARK SMILES IDX 4 1 5 2 10 3 6 4 9 5 7 6 2 7 1 8 3 9 8 10
REMARK H PARENT 8 11
REMARK Flexibility Score: inf
ROOT
ATOM      1  C   UNL     1     147.280 149.222 157.085  1.00  0.00    -0.003 A 
ATOM      2  C   UNL     1     146.357 148.328 156.511  1.00  0.00     0.014 A 
ATOM      3  C   UNL     1     148.579 148.768 157.377  1.00  0.00     0.014 A 
ATOM      4  C   UNL     1     146.728 147.008 156.238  1.00  0.00     0.047 A 
ATOM      5  C   UNL     1     148.945 147.447 157.101  1.00  0.00     0.047 A 
ATOM      6  C   UNL     1     148.020 146.564 156.532  1.00  0.00     0.115 A 
ENDROOT
BRANCH   1   7
ATOM      7  C   UNL     1     146.895 150.621 157.376  1.00  0.00     0.071 C 
ATOM      8  O   UNL     1     145.805 151.087 156.952  1.00  0.00    -0.545 OA
ATOM      9  O   UNL     1     147.732 151.441 158.125  1.00  0.00    -0.545 OA
ENDBRANCH   1   7
BRANCH   6  10
ATOM     10  O   UNL     1     148.374 145.246 156.253  1.00  0.00    -0.508 OA
ATOM     11  H   UNL     1     148.526 144.570 156.993  1.00  0.00     0.293 HD
ENDBRANCH   6  10
TORSDOF 2
ENDMDL
MODEL 4
REMARK VINA RESULT:    -4.641      1.283      4.499
REMARK INTER + INTRA:          -5.081
REMARK INTER:                  -5.052
REMARK INTRA:                  -0.029
REMARK UNBOUND:                -0.033
REMARK SMILES O=C([O-])c1ccc(O)cc1
REMARK SMILES IDX 4 1 5 2 10 3 6 4 9 5 7 6 2 7 1 8 3 9 8 10
REMARK H PARENT 8 11
REMARK Flexibility Score: inf
ROOT
ATOM      1  C   UNL     1     147.245 146.698 156.997  1.00  0.00    -0.003 A 
ATOM      2  C   UNL     1     148.526 146.264 156.612  1.00  0.00     0.014 A 
ATOM      3  C   UNL     1     146.433 145.838 157.757  1.00  0.00     0.014 A 
ATOM      4  C   UNL     1     148.984 144.995 156.980  1.00  0.00     0.047 A 
ATOM      5  C   UNL     1     146.895 144.570 158.123  1.00  0.00     0.047 A 
ATOM      6  C   UNL     1     148.171 144.145 157.735  1.00  0.00     0.115 A 
ENDROOT
BRANCH   1   7
ATOM      7  C   UNL     1     146.754 148.040 156.610  1.00  0.00     0.071 C 
ATOM      8  O   UNL     1     145.741 148.164 155.874  1.00  0.00    -0.545 OA
ATOM      9  O   UNL     1     147.408 149.184 157.056  1.00  0.00    -0.545 OA
ENDBRANCH   1   7
BRANCH   6  10
ATOM     10  O   UNL     1     148.641 142.884 158.095  1.00  0.00    -0.508 OA
ATOM     11  H   UNL     1     149.109 142.726 158.980  1.00  0.00     0.293 HD
ENDBRANCH   6  10
TORSDOF 2
ENDMDL
MODEL 5
REMARK VINA RESULT:    -4.636     13.016     14.055
REMARK INTER + INTRA:          -5.076
REMARK INTER:                  -5.041
REMARK INTRA:                  -0.035
REMARK UNBOUND:                -0.033
REMARK SMILES O=C([O-])c1ccc(O)cc1
REMARK SMILES IDX 4 1 5 2 10 3 6 4 9 5 7 6 2 7 1 8 3 9 8 10
REMARK H PARENT 8 11
REMARK Flexibility Score: inf
ROOT
ATOM      1  C   UNL     1     157.750 148.060 148.510  1.00  0.00    -0.003 A 
ATOM      2  C   UNL     1     157.497 148.635 147.251  1.00  0.00     0.014 A 
ATOM      3  C   UNL     1     157.869 146.662 148.610  1.00  0.00     0.014 A 
ATOM      4  C   UNL     1     157.366 147.827 146.117  1.00  0.00     0.047 A 
ATOM      5  C   UNL     1     157.738 145.858 147.474  1.00  0.00     0.047 A 
ATOM      6  C   UNL     1     157.486 146.438 146.225  1.00  0.00     0.115 A 
ENDROOT
BRANCH   1   7
ATOM      7  C   UNL     1     157.889 148.909 149.713  1.00  0.00     0.071 C 
ATOM      8  O   UNL     1     158.125 150.142 149.604  1.00  0.00    -0.545 OA
ATOM      9  O   UNL     1     157.761 148.358 150.984  1.00  0.00    -0.545 OA
ENDBRANCH   1   7
BRANCH   6  10
ATOM     10  O   UNL     1     157.354 145.646 145.086  1.00  0.00    -0.508 OA
ATOM     11  H   UNL     1     157.281 146.055 144.162  1.00  0.00     0.293 HD
ENDBRANCH   6  10
TORSDOF 2
ENDMDL
MODEL 6
REMARK VINA RESULT:    -4.578     13.461     14.302
REMARK INTER + INTRA:          -5.012
REMARK INTER:                  -4.977
REMARK INTRA:                  -0.035
REMARK UNBOUND:                -0.033
REMARK SMILES O=C([O-])c1ccc(O)cc1
REMARK SMILES IDX 4 1 5 2 10 3 6 4 9 5 7 6 2 7 1 8 3 9 8 10
REMARK H PARENT 8 11
REMARK Flexibility Score: inf
ROOT
ATOM      1  C   UNL     1     157.764 147.273 146.721  1.00  0.00    -0.003 A 
ATOM      2  C   UNL     1     157.523 146.744 148.002  1.00  0.00     0.014 A 
ATOM      3  C   UNL     1     157.885 148.666 146.570  1.00  0.00     0.014 A 
ATOM      4  C   UNL     1     157.404 147.592 149.107  1.00  0.00     0.047 A 
ATOM      5  C   UNL     1     157.766 149.510 147.678  1.00  0.00     0.047 A 
ATOM      6  C   UNL     1     157.526 148.975 148.949  1.00  0.00     0.115 A 
ENDROOT
BRANCH   1   7
ATOM      7  C   UNL     1     157.889 146.380 145.547  1.00  0.00     0.071 C 
ATOM      8  O   UNL     1     158.116 145.151 145.698  1.00  0.00    -0.545 OA
ATOM      9  O   UNL     1     157.759 146.888 144.259  1.00  0.00    -0.545 OA
ENDBRANCH   1   7
BRANCH   6  10
ATOM     10  O   UNL     1     157.406 149.808 150.060  1.00  0.00    -0.508 OA
ATOM     11  H   UNL     1     157.794 150.745 150.063  1.00  0.00     0.293 HD
ENDBRANCH   6  10
TORSDOF 2
ENDMDL
MODEL 7
REMARK VINA RESULT:    -4.574      8.691     10.155
REMARK INTER + INTRA:          -5.008
REMARK INTER:                  -4.976
REMARK INTRA:                  -0.033
REMARK UNBOUND:                -0.033
REMARK SMILES O=C([O-])c1ccc(O)cc1
REMARK SMILES IDX 4 1 5 2 10 3 6 4 9 5 7 6 2 7 1 8 3 9 8 10
REMARK H PARENT 8 11
REMARK Flexibility Score: inf
ROOT
ATOM      1  C   UNL     1     148.942 156.058 157.375  1.00  0.00    -0.003 A 
ATOM      2  C   UNL     1     149.558 157.272 157.730  1.00  0.00     0.014 A 
ATOM      3  C   UNL     1     149.676 155.108 156.644  1.00  0.00     0.014 A 
ATOM      4  C   UNL     1     150.882 157.528 157.359  1.00  0.00     0.047 A 
ATOM      5  C   UNL     1     151.000 155.368 156.276  1.00  0.00     0.047 A 
ATOM      6  C   UNL     1     151.606 156.579 156.632  1.00  0.00     0.115 A 
ENDROOT
BRANCH   1   7
ATOM      7  C   UNL     1     147.541 155.782 157.764  1.00  0.00     0.071 C 
ATOM      8  O   UNL     1     146.684 156.704 157.774  1.00  0.00    -0.545 OA
ATOM      9  O   UNL     1     147.151 154.496 158.124  1.00  0.00    -0.545 OA
ENDBRANCH   1   7
BRANCH   6  10
ATOM     10  O   UNL     1     152.924 156.848 156.271  1.00  0.00    -0.508 OA
ATOM     11  H   UNL     1     153.208 157.765 155.945  1.00  0.00     0.293 HD
ENDBRANCH   6  10
TORSDOF 2
ENDMDL
MODEL 8
REMARK VINA RESULT:    -4.488      1.989      2.460
REMARK INTER + INTRA:          -4.915
REMARK INTER:                  -4.887
REMARK INTRA:                  -0.028
REMARK UNBOUND:                -0.033
REMARK SMILES O=C([O-])c1ccc(O)cc1
REMARK SMILES IDX 4 1 5 2 10 3 6 4 9 5 7 6 2 7 1 8 3 9 8 10
REMARK H PARENT 8 11
REMARK Flexibility Score: inf
ROOT
ATOM      1  C   UNL     1     147.711 148.239 156.989  1.00  0.00    -0.003 A 
ATOM      2  C   UNL     1     146.604 149.027 156.623  1.00  0.00     0.014 A 
ATOM      3  C   UNL     1     148.744 148.823 157.743  1.00  0.00     0.014 A 
ATOM      4  C   UNL     1     146.536 150.371 157.003  1.00  0.00     0.047 A 
ATOM      5  C   UNL     1     148.671 150.167 158.122  1.00  0.00     0.047 A 
ATOM      6  C   UNL     1     147.567 150.944 157.752  1.00  0.00     0.115 A 
ENDROOT
BRANCH   1   7
ATOM      7  C   UNL     1     147.789 146.817 156.589  1.00  0.00     0.071 C 
ATOM      8  O   UNL     1     148.032 146.499 155.395  1.00  0.00    -0.545 OA
ATOM      9  O   UNL     1     147.596 145.809 157.528  1.00  0.00    -0.545 OA
ENDBRANCH   1   7
BRANCH   6  10
ATOM     10  O   UNL     1     147.484 152.284 158.125  1.00  0.00    -0.508 OA
ATOM     11  H   UNL     1     147.174 152.997 157.474  1.00  0.00     0.293 HD
ENDBRANCH   6  10
TORSDOF 2
ENDMDL
