MODEL 1
REMARK VINA RESULT:    -6.273      0.000      0.000
REMARK INTER + INTRA:          -8.040
REMARK INTER:                  -7.740
REMARK INTRA:                  -0.300
REMARK UNBOUND:                -0.300
REMARK SMILES O=c1c(O)c(-c2cc(O)c(O)c(O)c2)oc2cc(O)cc(O)c12
REMARK SMILES IDX 5 1 3 2 2 3 1 4 23 5 21 6 20 7 18 8 17 9 16 10 15 11 6 12
REMARK SMILES IDX 7 13 8 14 14 15 10 16 12 17 9 18 11 20 13 22 4 24 22 26
REMARK SMILES IDX 19 28
REMARK H PARENT 9 19 11 21 13 23 4 25 22 27 19 29
REMARK Flexibility Score: inf
ROOT
ATOM      1  C   UNL     1      28.859  58.159   6.997  1.00  0.00     0.180 A 
ATOM      2  C   UNL     1      30.187  57.735   7.196  1.00  0.00     0.208 A 
ATOM      3  C   UNL     1      31.086  57.792   6.118  1.00  0.00     0.238 A 
ATOM      4  O   UNL     1      32.275  57.405   6.282  1.00  0.00    -0.285 OA
ATOM      5  C   UNL     1      30.649  58.288   4.873  1.00  0.00     0.111 A 
ATOM      6  C   UNL     1      31.492  58.381   3.739  1.00  0.00     0.134 A 
ATOM      7  C   UNL     1      30.985  58.895   2.536  1.00  0.00     0.093 A 
ATOM      8  C   UNL     1      29.653  59.317   2.446  1.00  0.00     0.123 A 
ATOM      9  C   UNL     1      28.818  59.225   3.561  1.00  0.00     0.094 A 
ATOM     10  C   UNL     1      29.305  58.714   4.768  1.00  0.00     0.146 A 
ATOM     11  O   UNL     1      28.487  58.635   5.812  1.00  0.00    -0.452 OA
ENDROOT
BRANCH   1  12
ATOM     12  C   UNL     1      27.848  58.112   8.078  1.00  0.00     0.029 A 
ATOM     13  C   UNL     1      26.835  57.140   8.089  1.00  0.00     0.062 A 
ATOM     14  C   UNL     1      25.875  57.127   9.109  1.00  0.00     0.162 A 
ATOM     15  C   UNL     1      27.865  59.090   9.082  1.00  0.00     0.062 A 
ATOM     16  C   UNL     1      25.908  58.091  10.125  1.00  0.00     0.200 A 
ATOM     17  C   UNL     1      26.913  59.088  10.108  1.00  0.00     0.162 A 
BRANCH  14  18
ATOM     18  O   UNL     1      24.876  56.154   9.116  1.00  0.00    -0.504 OA
ATOM     19  H   UNL     1      24.001  56.288   8.622  1.00  0.00     0.293 HD
ENDBRANCH  14  18
BRANCH  16  20
ATOM     20  O   UNL     1      24.931  58.028  11.122  1.00  0.00    -0.502 OA
ATOM     21  H   UNL     1      24.264  58.761  11.308  1.00  0.00     0.293 HD
ENDBRANCH  16  20
BRANCH  17  22
ATOM     22  O   UNL     1      27.002  60.087  11.080  1.00  0.00    -0.504 OA
ATOM     23  H   UNL     1      26.838  59.934  12.064  1.00  0.00     0.293 HD
ENDBRANCH  17  22
ENDBRANCH   1  12
BRANCH   2  24
ATOM     24  O   UNL     1      30.607  57.294   8.453  1.00  0.00    -0.502 OA
ATOM     25  H   UNL     1      31.482  57.589   8.867  1.00  0.00     0.293 HD
ENDBRANCH   2  24
BRANCH   6  26
ATOM     26  O   UNL     1      32.825  57.971   3.798  1.00  0.00    -0.507 OA
ATOM     27  H   UNL     1      33.363  57.785   2.960  1.00  0.00     0.293 HD
ENDBRANCH   6  26
BRANCH   8  28
ATOM     28  O   UNL     1      29.149  59.828   1.251  1.00  0.00    -0.508 OA
ATOM     29  H   UNL     1      29.762  60.175   0.524  1.00  0.00     0.293 HD
ENDBRANCH   8  28
TORSDOF 7
ENDMDL
MODEL 2
REMARK VINA RESULT:    -6.261      0.072      1.760
REMARK INTER + INTRA:          -8.026
REMARK INTER:                  -7.710
REMARK INTRA:                  -0.316
REMARK UNBOUND:                -0.300
REMARK SMILES O=c1c(O)c(-c2cc(O)c(O)c(O)c2)oc2cc(O)cc(O)c12
REMARK SMILES IDX 5 1 3 2 2 3 1 4 23 5 21 6 20 7 18 8 17 9 16 10 15 11 6 12
REMARK SMILES IDX 7 13 8 14 14 15 10 16 12 17 9 18 11 20 13 22 4 24 22 26
REMARK SMILES IDX 19 28
REMARK H PARENT 9 19 11 21 13 23 4 25 22 27 19 29
REMARK Flexibility Score: inf
ROOT
ATOM      1  C   UNL     1      28.855  58.198   7.011  1.00  0.00     0.180 A 
ATOM      2  C   UNL     1      30.170  57.734   7.206  1.00  0.00     0.208 A 
ATOM      3  C   UNL     1      31.068  57.767   6.126  1.00  0.00     0.238 A 
ATOM      4  O   UNL     1      32.245  57.344   6.286  1.00  0.00    -0.285 OA
ATOM      5  C   UNL     1      30.644  58.279   4.883  1.00  0.00     0.111 A 
ATOM      6  C   UNL     1      31.487  58.352   3.748  1.00  0.00     0.134 A 
ATOM      7  C   UNL     1      30.992  58.884   2.548  1.00  0.00     0.093 A 
ATOM      8  C   UNL     1      29.674  59.346   2.462  1.00  0.00     0.123 A 
ATOM      9  C   UNL     1      28.839  59.275   3.578  1.00  0.00     0.094 A 
ATOM     10  C   UNL     1      29.313  58.746   4.783  1.00  0.00     0.146 A 
ATOM     11  O   UNL     1      28.495  58.688   5.828  1.00  0.00    -0.452 OA
ENDROOT
BRANCH   1  12
ATOM     12  C   UNL     1      27.846  58.177   8.094  1.00  0.00     0.029 A 
ATOM     13  C   UNL     1      27.855  59.134   9.120  1.00  0.00     0.062 A 
ATOM     14  C   UNL     1      26.904  59.083  10.148  1.00  0.00     0.162 A 
ATOM     15  C   UNL     1      26.894  57.147   8.130  1.00  0.00     0.062 A 
ATOM     16  C   UNL     1      25.939  58.067  10.170  1.00  0.00     0.200 A 
ATOM     17  C   UNL     1      25.938  57.085   9.151  1.00  0.00     0.162 A 
BRANCH  14  18
ATOM     18  O   UNL     1      26.916  60.042  11.160  1.00  0.00    -0.504 OA
ATOM     19  H   UNL     1      27.783  60.378  11.563  1.00  0.00     0.293 HD
ENDBRANCH  14  18
BRANCH  16  20
ATOM     20  O   UNL     1      25.010  58.067  11.213  1.00  0.00    -0.502 OA
ATOM     21  H   UNL     1      24.672  58.901  11.670  1.00  0.00     0.293 HD
ENDBRANCH  16  20
BRANCH  17  22
ATOM     22  O   UNL     1      25.015  56.037   9.113  1.00  0.00    -0.504 OA
ATOM     23  H   UNL     1      24.794  55.450   9.904  1.00  0.00     0.293 HD
ENDBRANCH  17  22
ENDBRANCH   1  12
BRANCH   2  24
ATOM     24  O   UNL     1      30.579  57.276   8.460  1.00  0.00    -0.502 OA
ATOM     25  H   UNL     1      31.525  56.965   8.643  1.00  0.00     0.293 HD
ENDBRANCH   2  24
BRANCH   6  26
ATOM     26  O   UNL     1      32.807  57.902   3.803  1.00  0.00    -0.507 OA
ATOM     27  H   UNL     1      33.098  57.047   3.342  1.00  0.00     0.293 HD
ENDBRANCH   6  26
BRANCH   8  28
ATOM     28  O   UNL     1      29.183  59.876   1.270  1.00  0.00    -0.508 OA
ATOM     29  H   UNL     1      29.557  59.594   0.372  1.00  0.00     0.293 HD
ENDBRANCH   8  28
TORSDOF 7
ENDMDL
MODEL 3
REMARK VINA RESULT:    -5.977      0.937      0.993
REMARK INTER + INTRA:          -7.675
REMARK INTER:                  -7.317
REMARK INTRA:                  -0.358
REMARK UNBOUND:                -0.300
REMARK SMILES O=c1c(O)c(-c2cc(O)c(O)c(O)c2)oc2cc(O)cc(O)c12
REMARK SMILES IDX 5 1 3 2 2 3 1 4 23 5 21 6 20 7 18 8 17 9 16 10 15 11 6 12
REMARK SMILES IDX 7 13 8 14 14 15 10 16 12 17 9 18 11 20 13 22 4 24 22 26
REMARK SMILES IDX 19 28
REMARK H PARENT 9 19 11 21 13 23 4 25 22 27 19 29
REMARK Flexibility Score: inf
ROOT
ATOM      1  C   UNL     1      28.865  57.449   6.996  1.00  0.00     0.180 A 
ATOM      2  C   UNL     1      30.251  57.352   7.226  1.00  0.00     0.208 A 
ATOM      3  C   UNL     1      31.135  57.644   6.174  1.00  0.00     0.238 A 
ATOM      4  O   UNL     1      32.378  57.551   6.365  1.00  0.00    -0.285 OA
ATOM      5  C   UNL     1      30.622  58.046   4.924  1.00  0.00     0.111 A 
ATOM      6  C   UNL     1      31.444  58.361   3.816  1.00  0.00     0.134 A 
ATOM      7  C   UNL     1      30.856  58.763   2.607  1.00  0.00     0.093 A 
ATOM      8  C   UNL     1      29.465  58.855   2.485  1.00  0.00     0.123 A 
ATOM      9  C   UNL     1      28.650  58.543   3.575  1.00  0.00     0.094 A 
ATOM     10  C   UNL     1      29.217  58.140   4.789  1.00  0.00     0.146 A 
ATOM     11  O   UNL     1      28.417  57.845   5.808  1.00  0.00    -0.452 OA
ENDROOT
BRANCH   1  12
ATOM     12  C   UNL     1      27.870  57.139   8.048  1.00  0.00     0.029 A 
ATOM     13  C   UNL     1      27.286  55.866   8.149  1.00  0.00     0.062 A 
ATOM     14  C   UNL     1      26.330  55.600   9.138  1.00  0.00     0.162 A 
ATOM     15  C   UNL     1      27.457  58.150   8.927  1.00  0.00     0.062 A 
ATOM     16  C   UNL     1      25.936  56.606  10.030  1.00  0.00     0.200 A 
ATOM     17  C   UNL     1      26.503  57.898   9.919  1.00  0.00     0.162 A 
BRANCH  14  18
ATOM     18  O   UNL     1      25.760  54.331   9.236  1.00  0.00    -0.504 OA
ATOM     19  H   UNL     1      24.843  54.130   8.854  1.00  0.00     0.293 HD
ENDBRANCH  14  18
BRANCH  16  20
ATOM     20  O   UNL     1      24.984  56.285  11.002  1.00  0.00    -0.502 OA
ATOM     21  H   UNL     1      24.062  56.693  11.048  1.00  0.00     0.293 HD
ENDBRANCH  16  20
BRANCH  17  22
ATOM     22  O   UNL     1      26.151  58.952  10.766  1.00  0.00    -0.504 OA
ATOM     23  H   UNL     1      25.547  58.854  11.569  1.00  0.00     0.293 HD
ENDBRANCH  17  22
ENDBRANCH   1  12
BRANCH   2  24
ATOM     24  O   UNL     1      30.735  56.999   8.488  1.00  0.00    -0.502 OA
ATOM     25  H   UNL     1      30.865  57.677   9.228  1.00  0.00     0.293 HD
ENDBRANCH   2  24
BRANCH   6  26
ATOM     26  O   UNL     1      32.834  58.281   3.906  1.00  0.00    -0.507 OA
ATOM     27  H   UNL     1      33.421  59.105   3.842  1.00  0.00     0.293 HD
ENDBRANCH   6  26
BRANCH   8  28
ATOM     28  O   UNL     1      28.881  59.254   1.284  1.00  0.00    -0.508 OA
ATOM     29  H   UNL     1      29.068  58.766   0.417  1.00  0.00     0.293 HD
ENDBRANCH   8  28
TORSDOF 7
ENDMDL
MODEL 4
REMARK VINA RESULT:    -5.913      3.001      8.000
REMARK INTER + INTRA:          -7.597
REMARK INTER:                  -7.311
REMARK INTRA:                  -0.285
REMARK UNBOUND:                -0.300
REMARK SMILES O=c1c(O)c(-c2cc(O)c(O)c(O)c2)oc2cc(O)cc(O)c12
REMARK SMILES IDX 5 1 3 2 2 3 1 4 23 5 21 6 20 7 18 8 17 9 16 10 15 11 6 12
REMARK SMILES IDX 7 13 8 14 14 15 10 16 12 17 9 18 11 20 13 22 4 24 22 26
REMARK SMILES IDX 19 28
REMARK H PARENT 9 19 11 21 13 23 4 25 22 27 19 29
REMARK Flexibility Score: inf
ROOT
ATOM      1  C   UNL     1      29.964  59.250   1.920  1.00  0.00     0.180 A 
ATOM      2  C   UNL     1      31.181  59.842   2.311  1.00  0.00     0.208 A 
ATOM      3  C   UNL     1      31.612  59.692   3.639  1.00  0.00     0.238 A 
ATOM      4  O   UNL     1      32.695  60.226   4.003  1.00  0.00    -0.285 OA
ATOM      5  C   UNL     1      30.835  58.940   4.543  1.00  0.00     0.111 A 
ATOM      6  C   UNL     1      31.201  58.738   5.895  1.00  0.00     0.134 A 
ATOM      7  C   UNL     1      30.378  57.967   6.730  1.00  0.00     0.093 A 
ATOM      8  C   UNL     1      29.198  57.397   6.240  1.00  0.00     0.123 A 
ATOM      9  C   UNL     1      28.833  57.594   4.907  1.00  0.00     0.094 A 
ATOM     10  C   UNL     1      29.639  58.360   4.059  1.00  0.00     0.146 A 
ATOM     11  O   UNL     1      29.265  58.535   2.796  1.00  0.00    -0.452 OA
ENDROOT
BRANCH   1  12
ATOM     12  C   UNL     1      29.433  59.380   0.544  1.00  0.00     0.029 A 
ATOM     13  C   UNL     1      28.325  60.195   0.262  1.00  0.00     0.062 A 
ATOM     14  C   UNL     1      27.824  60.287  -1.043  1.00  0.00     0.162 A 
ATOM     15  C   UNL     1      30.009  58.631  -0.492  1.00  0.00     0.062 A 
ATOM     16  C   UNL     1      28.416  59.555  -2.081  1.00  0.00     0.200 A 
ATOM     17  C   UNL     1      29.519  58.713  -1.800  1.00  0.00     0.162 A 
BRANCH  14  18
ATOM     18  O   UNL     1      26.728  61.104  -1.316  1.00  0.00    -0.504 OA
ATOM     19  H   UNL     1      26.776  61.843  -2.008  1.00  0.00     0.293 HD
ENDBRANCH  14  18
BRANCH  16  20
ATOM     20  O   UNL     1      27.882  59.688  -3.365  1.00  0.00    -0.502 OA
ATOM     21  H   UNL     1      27.346  60.485  -3.675  1.00  0.00     0.293 HD
ENDBRANCH  16  20
BRANCH  17  22
ATOM     22  O   UNL     1      30.152  57.946  -2.781  1.00  0.00    -0.504 OA
ATOM     23  H   UNL     1      30.533  58.325  -3.636  1.00  0.00     0.293 HD
ENDBRANCH  17  22
ENDBRANCH   1  12
BRANCH   2  24
ATOM     24  O   UNL     1      31.956  60.541   1.383  1.00  0.00    -0.502 OA
ATOM     25  H   UNL     1      31.889  60.378   0.386  1.00  0.00     0.293 HD
ENDBRANCH   2  24
BRANCH   6  26
ATOM     26  O   UNL     1      32.372  59.292   6.414  1.00  0.00    -0.507 OA
ATOM     27  H   UNL     1      32.617  59.202   7.393  1.00  0.00     0.293 HD
ENDBRANCH   6  26
BRANCH   8  28
ATOM     28  O   UNL     1      28.381  56.631   7.069  1.00  0.00    -0.508 OA
ATOM     29  H   UNL     1      28.706  56.291   7.965  1.00  0.00     0.293 HD
ENDBRANCH   8  28
TORSDOF 7
ENDMDL
MODEL 5
REMARK VINA RESULT:    -5.879      3.838      7.255
REMARK INTER + INTRA:          -7.554
REMARK INTER:                  -7.333
REMARK INTRA:                  -0.222
REMARK UNBOUND:                -0.300
REMARK SMILES O=c1c(O)c(-c2cc(O)c(O)c(O)c2)oc2cc(O)cc(O)c12
REMARK SMILES IDX 5 1 3 2 2 3 1 4 23 5 21 6 20 7 18 8 17 9 16 10 15 11 6 12
REMARK SMILES IDX 7 13 8 14 14 15 10 16 12 17 9 18 11 20 13 22 4 24 22 26
REMARK SMILES IDX 19 28
REMARK H PARENT 9 19 11 21 13 23 4 25 22 27 19 29
REMARK Flexibility Score: inf
ROOT
ATOM      1  C   UNL     1      29.143  59.411   1.226  1.00  0.00     0.180 A 
ATOM      2  C   UNL     1      28.296  60.534   1.304  1.00  0.00     0.208 A 
ATOM      3  C   UNL     1      27.732  61.040   0.121  1.00  0.00     0.238 A 
ATOM      4  O   UNL     1      26.981  62.051   0.177  1.00  0.00    -0.285 OA
ATOM      5  C   UNL     1      28.006  60.406  -1.108  1.00  0.00     0.111 A 
ATOM      6  C   UNL     1      27.473  60.851  -2.342  1.00  0.00     0.134 A 
ATOM      7  C   UNL     1      27.786  60.159  -3.523  1.00  0.00     0.093 A 
ATOM      8  C   UNL     1      28.618  59.035  -3.492  1.00  0.00     0.123 A 
ATOM      9  C   UNL     1      29.145  58.594  -2.277  1.00  0.00     0.094 A 
ATOM     10  C   UNL     1      28.847  59.270  -1.090  1.00  0.00     0.146 A 
ATOM     11  O   UNL     1      29.367  58.831   0.051  1.00  0.00    -0.452 OA
ENDROOT
BRANCH   1  12
ATOM     12  C   UNL     1      29.791  58.831   2.425  1.00  0.00     0.029 A 
ATOM     13  C   UNL     1      31.185  58.871   2.593  1.00  0.00     0.062 A 
ATOM     14  C   UNL     1      31.779  58.296   3.724  1.00  0.00     0.162 A 
ATOM     15  C   UNL     1      29.007  58.178   3.386  1.00  0.00     0.062 A 
ATOM     16  C   UNL     1      30.991  57.665   4.695  1.00  0.00     0.200 A 
ATOM     17  C   UNL     1      29.588  57.601   4.520  1.00  0.00     0.162 A 
BRANCH  14  18
ATOM     18  O   UNL     1      33.163  58.346   3.887  1.00  0.00    -0.504 OA
ATOM     19  H   UNL     1      33.645  57.728   4.531  1.00  0.00     0.293 HD
ENDBRANCH  14  18
BRANCH  16  20
ATOM     20  O   UNL     1      31.635  57.115   5.807  1.00  0.00    -0.502 OA
ATOM     21  H   UNL     1      32.449  57.518   6.246  1.00  0.00     0.293 HD
ENDBRANCH  16  20
BRANCH  17  22
ATOM     22  O   UNL     1      28.740  56.978   5.440  1.00  0.00    -0.504 OA
ATOM     23  H   UNL     1      29.061  56.496   6.267  1.00  0.00     0.293 HD
ENDBRANCH  17  22
ENDBRANCH   1  12
BRANCH   2  24
ATOM     24  O   UNL     1      28.003  61.113   2.540  1.00  0.00    -0.502 OA
ATOM     25  H   UNL     1      27.069  61.116   2.930  1.00  0.00     0.293 HD
ENDBRANCH   2  24
BRANCH   6  26
ATOM     26  O   UNL     1      26.639  61.968  -2.406  1.00  0.00    -0.507 OA
ATOM     27  H   UNL     1      26.164  62.325  -1.585  1.00  0.00     0.293 HD
ENDBRANCH   6  26
BRANCH   8  28
ATOM     28  O   UNL     1      28.927  58.348  -4.665  1.00  0.00    -0.508 OA
ATOM     29  H   UNL     1      28.210  57.898  -5.220  1.00  0.00     0.293 HD
ENDBRANCH   8  28
TORSDOF 7
ENDMDL
MODEL 6
REMARK VINA RESULT:    -5.749      3.772      7.095
REMARK INTER + INTRA:          -7.394
REMARK INTER:                  -7.144
REMARK INTRA:                  -0.250
REMARK UNBOUND:                -0.300
REMARK SMILES O=c1c(O)c(-c2cc(O)c(O)c(O)c2)oc2cc(O)cc(O)c12
REMARK SMILES IDX 5 1 3 2 2 3 1 4 23 5 21 6 20 7 18 8 17 9 16 10 15 11 6 12
REMARK SMILES IDX 7 13 8 14 14 15 10 16 12 17 9 18 11 20 13 22 4 24 22 26
REMARK SMILES IDX 19 28
REMARK H PARENT 9 19 11 21 13 23 4 25 22 27 19 29
REMARK Flexibility Score: inf
ROOT
ATOM      1  C   UNL     1      29.123  59.395   1.249  1.00  0.00     0.180 A 
ATOM      2  C   UNL     1      28.249  60.498   1.276  1.00  0.00     0.208 A 
ATOM      3  C   UNL     1      27.710  60.967   0.067  1.00  0.00     0.238 A 
ATOM      4  O   UNL     1      26.934  61.961   0.079  1.00  0.00    -0.285 OA
ATOM      5  C   UNL     1      28.037  60.316  -1.140  1.00  0.00     0.111 A 
ATOM      6  C   UNL     1      27.533  60.722  -2.399  1.00  0.00     0.134 A 
ATOM      7  C   UNL     1      27.898  60.015  -3.554  1.00  0.00     0.093 A 
ATOM      8  C   UNL     1      28.755  58.911  -3.475  1.00  0.00     0.123 A 
ATOM      9  C   UNL     1      29.254  58.508  -2.235  1.00  0.00     0.094 A 
ATOM     10  C   UNL     1      28.903  59.200  -1.072  1.00  0.00     0.146 A 
ATOM     11  O   UNL     1      29.397  58.796   0.093  1.00  0.00    -0.452 OA
ENDROOT
BRANCH   1  12
ATOM     12  C   UNL     1      29.747  58.855   2.479  1.00  0.00     0.029 A 
ATOM     13  C   UNL     1      28.986  58.186   3.451  1.00  0.00     0.062 A 
ATOM     14  C   UNL     1      29.592  57.702   4.617  1.00  0.00     0.162 A 
ATOM     15  C   UNL     1      31.114  59.064   2.708  1.00  0.00     0.062 A 
ATOM     16  C   UNL     1      30.964  57.892   4.834  1.00  0.00     0.200 A 
ATOM     17  C   UNL     1      31.732  58.585   3.869  1.00  0.00     0.162 A 
BRANCH  14  18
ATOM     18  O   UNL     1      28.831  57.033   5.575  1.00  0.00    -0.504 OA
ATOM     19  H   UNL     1      28.147  56.332   5.314  1.00  0.00     0.293 HD
ENDBRANCH  14  18
BRANCH  16  20
ATOM     20  O   UNL     1      31.519  57.383   6.011  1.00  0.00    -0.502 OA
ATOM     21  H   UNL     1      32.316  56.764   6.039  1.00  0.00     0.293 HD
ENDBRANCH  16  20
BRANCH  17  22
ATOM     22  O   UNL     1      33.101  58.821   4.021  1.00  0.00    -0.504 OA
ATOM     23  H   UNL     1      33.733  58.193   4.496  1.00  0.00     0.293 HD
ENDBRANCH  17  22
ENDBRANCH   1  12
BRANCH   2  24
ATOM     24  O   UNL     1      27.903  61.095   2.491  1.00  0.00    -0.502 OA
ATOM     25  H   UNL     1      27.688  60.555   3.319  1.00  0.00     0.293 HD
ENDBRANCH   2  24
BRANCH   6  26
ATOM     26  O   UNL     1      26.676  61.818  -2.511  1.00  0.00    -0.507 OA
ATOM     27  H   UNL     1      27.018  62.740  -2.755  1.00  0.00     0.293 HD
ENDBRANCH   6  26
BRANCH   8  28
ATOM     28  O   UNL     1      29.117  58.209  -4.623  1.00  0.00    -0.508 OA
ATOM     29  H   UNL     1      29.270  57.208  -4.605  1.00  0.00     0.293 HD
ENDBRANCH   8  28
TORSDOF 7
ENDMDL
MODEL 7
REMARK VINA RESULT:    -5.703     13.141     14.431
REMARK INTER + INTRA:          -7.337
REMARK INTER:                  -7.224
REMARK INTRA:                  -0.113
REMARK UNBOUND:                -0.300
REMARK SMILES O=c1c(O)c(-c2cc(O)c(O)c(O)c2)oc2cc(O)cc(O)c12
REMARK SMILES IDX 5 1 3 2 2 3 1 4 23 5 21 6 20 7 18 8 17 9 16 10 15 11 6 12
REMARK SMILES IDX 7 13 8 14 14 15 10 16 12 17 9 18 11 20 13 22 4 24 22 26
REMARK SMILES IDX 19 28
REMARK H PARENT 9 19 11 21 13 23 4 25 22 27 19 29
REMARK Flexibility Score: inf
ROOT
ATOM      1  C   UNL     1      34.977  69.765   9.327  1.00  0.00     0.180 A 
ATOM      2  C   UNL     1      35.502  71.055   9.118  1.00  0.00     0.208 A 
ATOM      3  C   UNL     1      36.521  71.518   9.966  1.00  0.00     0.238 A 
ATOM      4  O   UNL     1      36.991  72.676   9.795  1.00  0.00    -0.285 OA
ATOM      5  C   UNL     1      37.009  70.681  10.990  1.00  0.00     0.111 A 
ATOM      6  C   UNL     1      38.036  71.070  11.884  1.00  0.00     0.134 A 
ATOM      7  C   UNL     1      38.473  70.175  12.871  1.00  0.00     0.093 A 
ATOM      8  C   UNL     1      37.906  68.901  12.982  1.00  0.00     0.123 A 
ATOM      9  C   UNL     1      36.893  68.513  12.103  1.00  0.00     0.094 A 
ATOM     10  C   UNL     1      36.441  69.392  11.113  1.00  0.00     0.146 A 
ATOM     11  O   UNL     1      35.472  68.998  10.293  1.00  0.00    -0.452 OA
ENDROOT
BRANCH   1  12
ATOM     12  C   UNL     1      33.889  69.213   8.487  1.00  0.00     0.029 A 
ATOM     13  C   UNL     1      32.683  68.769   9.053  1.00  0.00     0.062 A 
ATOM     14  C   UNL     1      31.675  68.230   8.244  1.00  0.00     0.162 A 
ATOM     15  C   UNL     1      34.085  69.076   7.106  1.00  0.00     0.062 A 
ATOM     16  C   UNL     1      31.864  68.116   6.860  1.00  0.00     0.200 A 
ATOM     17  C   UNL     1      33.086  68.540   6.285  1.00  0.00     0.162 A 
BRANCH  14  18
ATOM     18  O   UNL     1      30.478  67.798   8.812  1.00  0.00    -0.504 OA
ATOM     19  H   UNL     1      29.604  68.282   8.642  1.00  0.00     0.293 HD
ENDBRANCH  14  18
BRANCH  16  20
ATOM     20  O   UNL     1      30.823  67.578   6.098  1.00  0.00    -0.502 OA
ATOM     21  H   UNL     1      30.281  68.104   5.429  1.00  0.00     0.293 HD
ENDBRANCH  16  20
BRANCH  17  22
ATOM     22  O   UNL     1      33.350  68.447   4.917  1.00  0.00    -0.504 OA
ATOM     23  H   UNL     1      32.873  67.812   4.291  1.00  0.00     0.293 HD
ENDBRANCH  17  22
ENDBRANCH   1  12
BRANCH   2  24
ATOM     24  O   UNL     1      35.034  71.846   8.066  1.00  0.00    -0.502 OA
ATOM     25  H   UNL     1      35.629  72.500   7.573  1.00  0.00     0.293 HD
ENDBRANCH   2  24
BRANCH   6  26
ATOM     26  O   UNL     1      38.623  72.333  11.798  1.00  0.00    -0.507 OA
ATOM     27  H   UNL     1      38.959  72.707  10.918  1.00  0.00     0.293 HD
ENDBRANCH   6  26
BRANCH   8  28
ATOM     28  O   UNL     1      38.341  68.011  13.962  1.00  0.00    -0.508 OA
ATOM     29  H   UNL     1      38.676  68.337  14.861  1.00  0.00     0.293 HD
ENDBRANCH   8  28
TORSDOF 7
ENDMDL
MODEL 8
REMARK VINA RESULT:    -5.696      3.613      5.376
REMARK INTER + INTRA:          -7.328
REMARK INTER:                  -7.033
REMARK INTRA:                  -0.295
REMARK UNBOUND:                -0.300
REMARK SMILES O=c1c(O)c(-c2cc(O)c(O)c(O)c2)oc2cc(O)cc(O)c12
REMARK SMILES IDX 5 1 3 2 2 3 1 4 23 5 21 6 20 7 18 8 17 9 16 10 15 11 6 12
REMARK SMILES IDX 7 13 8 14 14 15 10 16 12 17 9 18 11 20 13 22 4 24 22 26
REMARK SMILES IDX 19 28
REMARK H PARENT 9 19 11 21 13 23 4 25 22 27 19 29
REMARK Flexibility Score: inf
ROOT
ATOM      1  C   UNL     1      30.263  58.882   4.344  1.00  0.00     0.180 A 
ATOM      2  C   UNL     1      28.873  58.819   4.557  1.00  0.00     0.208 A 
ATOM      3  C   UNL     1      28.012  58.935   3.453  1.00  0.00     0.238 A 
ATOM      4  O   UNL     1      26.765  58.891   3.632  1.00  0.00    -0.285 OA
ATOM      5  C   UNL     1      28.554  59.092   2.161  1.00  0.00     0.111 A 
ATOM      6  C   UNL     1      27.756  59.213   0.997  1.00  0.00     0.134 A 
ATOM      7  C   UNL     1      28.372  59.356  -0.255  1.00  0.00     0.093 A 
ATOM      8  C   UNL     1      29.767  59.381  -0.366  1.00  0.00     0.123 A 
ATOM      9  C   UNL     1      30.557  59.264   0.779  1.00  0.00     0.094 A 
ATOM     10  C   UNL     1      29.962  59.121   2.036  1.00  0.00     0.146 A 
ATOM     11  O   UNL     1      30.739  59.016   3.109  1.00  0.00    -0.452 OA
ENDROOT
BRANCH   1  12
ATOM     12  C   UNL     1      31.234  58.786   5.458  1.00  0.00     0.029 A 
ATOM     13  C   UNL     1      31.507  57.561   6.086  1.00  0.00     0.062 A 
ATOM     14  C   UNL     1      32.413  57.496   7.153  1.00  0.00     0.162 A 
ATOM     15  C   UNL     1      31.852  59.950   5.937  1.00  0.00     0.062 A 
ATOM     16  C   UNL     1      33.047  58.657   7.615  1.00  0.00     0.200 A 
ATOM     17  C   UNL     1      32.759  59.900   7.001  1.00  0.00     0.162 A 
BRANCH  14  18
ATOM     18  O   UNL     1      32.684  56.274   7.767  1.00  0.00    -0.504 OA
ATOM     19  H   UNL     1      32.097  55.910   8.509  1.00  0.00     0.293 HD
ENDBRANCH  14  18
BRANCH  16  20
ATOM     20  O   UNL     1      33.947  58.536   8.677  1.00  0.00    -0.502 OA
ATOM     21  H   UNL     1      34.288  57.655   9.032  1.00  0.00     0.293 HD
ENDBRANCH  16  20
BRANCH  17  22
ATOM     22  O   UNL     1      33.344  61.100   7.414  1.00  0.00    -0.504 OA
ATOM     23  H   UNL     1      33.402  61.398   8.377  1.00  0.00     0.293 HD
ENDBRANCH  17  22
ENDBRANCH   1  12
BRANCH   2  24
ATOM     24  O   UNL     1      28.363  58.614   5.841  1.00  0.00    -0.502 OA
ATOM     25  H   UNL     1      27.401  58.816   6.081  1.00  0.00     0.293 HD
ENDBRANCH   2  24
BRANCH   6  26
ATOM     26  O   UNL     1      26.363  59.190   1.075  1.00  0.00    -0.507 OA
ATOM     27  H   UNL     1      25.801  59.986   0.797  1.00  0.00     0.293 HD
ENDBRANCH   6  26
BRANCH   8  28
ATOM     28  O   UNL     1      30.378  59.523  -1.611  1.00  0.00    -0.508 OA
ATOM     29  H   UNL     1      30.747  58.725  -2.113  1.00  0.00     0.293 HD
ENDBRANCH   8  28
TORSDOF 7
ENDMDL
MODEL 9
REMARK VINA RESULT:    -5.684      1.683      7.258
REMARK INTER + INTRA:          -7.314
REMARK INTER:                  -6.981
REMARK INTRA:                  -0.333
REMARK UNBOUND:                -0.300
REMARK SMILES O=c1c(O)c(-c2cc(O)c(O)c(O)c2)oc2cc(O)cc(O)c12
REMARK SMILES IDX 5 1 3 2 2 3 1 4 23 5 21 6 20 7 18 8 17 9 16 10 15 11 6 12
REMARK SMILES IDX 7 13 8 14 14 15 10 16 12 17 9 18 11 20 13 22 4 24 22 26
REMARK SMILES IDX 19 28
REMARK H PARENT 9 19 11 21 13 23 4 25 22 27 19 29
REMARK Flexibility Score: inf
ROOT
ATOM      1  C   UNL     1      28.091  57.829   7.803  1.00  0.00     0.180 A 
ATOM      2  C   UNL     1      27.973  58.894   8.716  1.00  0.00     0.208 A 
ATOM      3  C   UNL     1      27.208  58.708   9.879  1.00  0.00     0.238 A 
ATOM      4  O   UNL     1      27.086  59.659  10.699  1.00  0.00    -0.285 OA
ATOM      5  C   UNL     1      26.595  57.462  10.118  1.00  0.00     0.111 A 
ATOM      6  C   UNL     1      25.812  57.192  11.266  1.00  0.00     0.134 A 
ATOM      7  C   UNL     1      25.242  55.921  11.436  1.00  0.00     0.093 A 
ATOM      8  C   UNL     1      25.440  54.917  10.481  1.00  0.00     0.123 A 
ATOM      9  C   UNL     1      26.211  55.179   9.347  1.00  0.00     0.094 A 
ATOM     10  C   UNL     1      26.786  56.439   9.159  1.00  0.00     0.146 A 
ATOM     11  O   UNL     1      27.511  56.662   8.068  1.00  0.00    -0.452 OA
ENDROOT
BRANCH   1  12
ATOM     12  C   UNL     1      28.864  57.953   6.545  1.00  0.00     0.029 A 
ATOM     13  C   UNL     1      28.225  58.165   5.313  1.00  0.00     0.062 A 
ATOM     14  C   UNL     1      28.973  58.258   4.132  1.00  0.00     0.162 A 
ATOM     15  C   UNL     1      30.257  57.798   6.573  1.00  0.00     0.062 A 
ATOM     16  C   UNL     1      30.368  58.126   4.166  1.00  0.00     0.200 A 
ATOM     17  C   UNL     1      31.016  57.889   5.401  1.00  0.00     0.162 A 
BRANCH  14  18
ATOM     18  O   UNL     1      28.332  58.476   2.914  1.00  0.00    -0.504 OA
ATOM     19  H   UNL     1      27.372  58.799   2.869  1.00  0.00     0.293 HD
ENDBRANCH  14  18
BRANCH  16  20
ATOM     20  O   UNL     1      31.066  58.234   2.960  1.00  0.00    -0.502 OA
ATOM     21  H   UNL     1      30.629  58.230   2.051  1.00  0.00     0.293 HD
ENDBRANCH  16  20
BRANCH  17  22
ATOM     22  O   UNL     1      32.401  57.737   5.510  1.00  0.00    -0.504 OA
ATOM     23  H   UNL     1      33.033  58.483   5.763  1.00  0.00     0.293 HD
ENDBRANCH  17  22
ENDBRANCH   1  12
BRANCH   2  24
ATOM     24  O   UNL     1      28.631  60.103   8.479  1.00  0.00    -0.502 OA
ATOM     25  H   UNL     1      28.280  60.793   7.827  1.00  0.00     0.293 HD
ENDBRANCH   2  24
BRANCH   6  26
ATOM     26  O   UNL     1      25.597  58.172  12.236  1.00  0.00    -0.507 OA
ATOM     27  H   UNL     1      24.781  58.157  12.837  1.00  0.00     0.293 HD
ENDBRANCH   6  26
BRANCH   8  28
ATOM     28  O   UNL     1      24.875  53.654  10.651  1.00  0.00    -0.508 OA
ATOM     29  H   UNL     1      25.068  52.897  10.007  1.00  0.00     0.293 HD
ENDBRANCH   8  28
TORSDOF 7
ENDMDL
