MODEL 1
REMARK VINA RESULT:    -3.754      0.000      0.000
REMARK INTER + INTRA:          -5.230
REMARK INTER:                  -4.852
REMARK INTRA:                  -0.378
REMARK UNBOUND:                -0.378
REMARK SMILES CCCCCCC(=O)[O-]
REMARK SMILES IDX 5 1 6 2 7 3 8 4 9 5 4 6 3 7 2 8 1 9
REMARK H PARENT
REMARK Flexibility Score: inf
ROOT
ATOM      1  C   UNL     1      49.452  11.330  -4.835  1.00  0.00     0.006 C 
ENDROOT
BRANCH   1   2
ATOM      2  C   UNL     1      50.533  11.782  -5.826  1.00  0.00     0.053 C 
BRANCH   2   3
ATOM      3  C   UNL     1      50.132  11.522  -7.245  1.00  0.00     0.041 C 
ATOM      4  O   UNL     1      50.230  12.433  -8.108  1.00  0.00    -0.550 OA
ATOM      5  O   UNL     1      49.618  10.283  -7.608  1.00  0.00    -0.550 OA
ENDBRANCH   2   3
ENDBRANCH   1   2
BRANCH   1   6
ATOM      6  C   UNL     1      48.298  12.339  -4.733  1.00  0.00     0.000 C 
BRANCH   6   7
ATOM      7  C   UNL     1      46.995  11.740  -5.273  1.00  0.00    -0.000 C 
BRANCH   7   8
ATOM      8  C   UNL     1      46.230  12.761  -6.124  1.00  0.00    -0.003 C 
ATOM      9  C   UNL     1      46.640  12.671  -7.591  1.00  0.00     0.004 C 
ENDBRANCH   7   8
ENDBRANCH   6   7
ENDBRANCH   1   6
TORSDOF 5
ENDMDL
MODEL 2
REMARK VINA RESULT:    -3.726      2.599      3.445
REMARK INTER + INTRA:          -5.194
REMARK INTER:                  -4.848
REMARK INTRA:                  -0.345
REMARK UNBOUND:                -0.378
REMARK SMILES CCCCCCC(=O)[O-]
REMARK SMILES IDX 5 1 6 2 7 3 8 4 9 5 4 6 3 7 2 8 1 9
REMARK H PARENT
REMARK Flexibility Score: inf
ROOT
ATOM      1  C   UNL     1      49.871  11.335  -6.404  1.00  0.00     0.006 C 
ENDROOT
BRANCH   1   2
ATOM      2  C   UNL     1      50.355   9.914  -6.726  1.00  0.00     0.053 C 
BRANCH   2   3
ATOM      3  C   UNL     1      49.212   8.978  -6.970  1.00  0.00     0.041 C 
ATOM      4  O   UNL     1      49.174   8.287  -8.022  1.00  0.00    -0.550 OA
ATOM      5  O   UNL     1      48.171   8.894  -6.054  1.00  0.00    -0.550 OA
ENDBRANCH   2   3
ENDBRANCH   1   2
BRANCH   1   6
ATOM      6  C   UNL     1      49.117  11.972  -7.581  1.00  0.00     0.000 C 
BRANCH   6   7
ATOM      7  C   UNL     1      50.092  12.599  -8.583  1.00  0.00    -0.000 C 
BRANCH   7   8
ATOM      8  C   UNL     1      49.666  12.300 -10.026  1.00  0.00    -0.003 C 
ATOM      9  C   UNL     1      48.340  11.548 -10.064  1.00  0.00     0.004 C 
ENDBRANCH   7   8
ENDBRANCH   6   7
ENDBRANCH   1   6
TORSDOF 5
ENDMDL
MODEL 3
REMARK VINA RESULT:    -3.705      2.442      3.823
REMARK INTER + INTRA:          -5.166
REMARK INTER:                  -4.890
REMARK INTRA:                  -0.276
REMARK UNBOUND:                -0.378
REMARK SMILES CCCCCCC(=O)[O-]
REMARK SMILES IDX 5 1 6 2 7 3 8 4 9 5 4 6 3 7 2 8 1 9
REMARK H PARENT
REMARK Flexibility Score: inf
ROOT
ATOM      1  C   UNL     1      47.168  12.049  -5.528  1.00  0.00     0.006 C 
ENDROOT
BRANCH   1   2
ATOM      2  C   UNL     1      47.416  12.267  -7.027  1.00  0.00     0.053 C 
BRANCH   2   3
ATOM      3  C   UNL     1      46.264  12.960  -7.687  1.00  0.00     0.041 C 
ATOM      4  O   UNL     1      45.617  13.845  -7.066  1.00  0.00    -0.550 OA
ATOM      5  O   UNL     1      45.882  12.606  -8.975  1.00  0.00    -0.550 OA
ENDBRANCH   2   3
ENDBRANCH   1   2
BRANCH   1   6
ATOM      6  C   UNL     1      48.471  12.070  -4.714  1.00  0.00     0.000 C 
BRANCH   6   7
ATOM      7  C   UNL     1      49.665  11.657  -5.580  1.00  0.00    -0.000 C 
BRANCH   7   8
ATOM      8  C   UNL     1      50.049  10.193  -5.327  1.00  0.00    -0.003 C 
ATOM      9  C   UNL     1      49.754   9.327  -6.547  1.00  0.00     0.004 C 
ENDBRANCH   7   8
ENDBRANCH   6   7
ENDBRANCH   1   6
TORSDOF 5
ENDMDL
MODEL 4
REMARK VINA RESULT:    -3.694     20.676     21.990
REMARK INTER + INTRA:          -5.152
REMARK INTER:                  -4.794
REMARK INTRA:                  -0.358
REMARK UNBOUND:                -0.378
REMARK SMILES CCCCCCC(=O)[O-]
REMARK SMILES IDX 5 1 6 2 7 3 8 4 9 5 4 6 3 7 2 8 1 9
REMARK H PARENT
REMARK Flexibility Score: inf
ROOT
ATOM      1  C   UNL     1      34.789   3.546   7.682  1.00  0.00     0.006 C 
ENDROOT
BRANCH   1   2
ATOM      2  C   UNL     1      33.478   3.835   6.937  1.00  0.00     0.053 C 
BRANCH   2   3
ATOM      3  C   UNL     1      33.665   3.807   5.451  1.00  0.00     0.041 C 
ATOM      4  O   UNL     1      32.666   3.718   4.689  1.00  0.00    -0.550 OA
ATOM      5  O   UNL     1      34.943   3.845   4.908  1.00  0.00    -0.550 OA
ENDBRANCH   2   3
ENDBRANCH   1   2
BRANCH   1   6
ATOM      6  C   UNL     1      35.007   2.042   7.911  1.00  0.00     0.000 C 
BRANCH   6   7
ATOM      7  C   UNL     1      33.752   1.389   8.501  1.00  0.00    -0.000 C 
BRANCH   7   8
ATOM      8  C   UNL     1      33.430   0.071   7.786  1.00  0.00    -0.003 C 
ATOM      9  C   UNL     1      33.717   0.171   6.291  1.00  0.00     0.004 C 
ENDBRANCH   7   8
ENDBRANCH   6   7
ENDBRANCH   1   6
TORSDOF 5
ENDMDL
MODEL 5
REMARK VINA RESULT:    -3.678      2.319      3.992
REMARK INTER + INTRA:          -5.131
REMARK INTER:                  -4.989
REMARK INTRA:                  -0.142
REMARK UNBOUND:                -0.378
REMARK SMILES CCCCCCC(=O)[O-]
REMARK SMILES IDX 5 1 6 2 7 3 8 4 9 5 4 6 3 7 2 8 1 9
REMARK H PARENT
REMARK Flexibility Score: inf
ROOT
ATOM      1  C   UNL     1      47.185  12.360  -7.053  1.00  0.00     0.006 C 
ENDROOT
BRANCH   1   2
ATOM      2  C   UNL     1      45.994  12.903  -7.855  1.00  0.00     0.053 C 
BRANCH   2   3
ATOM      3  C   UNL     1      45.956  12.343  -9.244  1.00  0.00     0.041 C 
ATOM      4  O   UNL     1      44.863  11.972  -9.747  1.00  0.00    -0.550 OA
ATOM      5  O   UNL     1      47.132  12.201  -9.971  1.00  0.00    -0.550 OA
ENDBRANCH   2   3
ENDBRANCH   1   2
BRANCH   1   6
ATOM      6  C   UNL     1      46.851  12.185  -5.564  1.00  0.00     0.000 C 
BRANCH   6   7
ATOM      7  C   UNL     1      48.109  12.321  -4.700  1.00  0.00    -0.000 C 
BRANCH   7   8
ATOM      8  C   UNL     1      49.074  11.154  -4.946  1.00  0.00    -0.003 C 
ATOM      9  C   UNL     1      50.441  11.656  -5.400  1.00  0.00     0.004 C 
ENDBRANCH   7   8
ENDBRANCH   6   7
ENDBRANCH   1   6
TORSDOF 5
ENDMDL
MODEL 6
REMARK VINA RESULT:    -3.676     20.680     21.970
REMARK INTER + INTRA:          -5.129
REMARK INTER:                  -4.727
REMARK INTRA:                  -0.402
REMARK UNBOUND:                -0.378
REMARK SMILES CCCCCCC(=O)[O-]
REMARK SMILES IDX 5 1 6 2 7 3 8 4 9 5 4 6 3 7 2 8 1 9
REMARK H PARENT
REMARK Flexibility Score: inf
ROOT
ATOM      1  C   UNL     1      34.421   2.997   7.899  1.00  0.00     0.006 C 
ENDROOT
BRANCH   1   2
ATOM      2  C   UNL     1      33.815   1.638   8.276  1.00  0.00     0.053 C 
BRANCH   2   3
ATOM      3  C   UNL     1      34.022   0.618   7.200  1.00  0.00     0.041 C 
ATOM      4  O   UNL     1      35.123   0.555   6.591  1.00  0.00    -0.550 OA
ATOM      5  O   UNL     1      32.990  -0.241   6.845  1.00  0.00    -0.550 OA
ENDBRANCH   2   3
ENDBRANCH   1   2
BRANCH   1   6
ATOM      6  C   UNL     1      33.486   3.821   7.000  1.00  0.00     0.000 C 
BRANCH   6   7
ATOM      7  C   UNL     1      34.084   3.995   5.600  1.00  0.00    -0.000 C 
BRANCH   7   8
ATOM      8  C   UNL     1      33.241   3.266   4.546  1.00  0.00    -0.003 C 
ATOM      9  C   UNL     1      34.112   2.382   3.659  1.00  0.00     0.004 C 
ENDBRANCH   7   8
ENDBRANCH   6   7
ENDBRANCH   1   6
TORSDOF 5
ENDMDL
MODEL 7
REMARK VINA RESULT:    -3.674      1.984      2.354
REMARK INTER + INTRA:          -5.126
REMARK INTER:                  -4.764
REMARK INTRA:                  -0.362
REMARK UNBOUND:                -0.378
REMARK SMILES CCCCCCC(=O)[O-]
REMARK SMILES IDX 5 1 6 2 7 3 8 4 9 5 4 6 3 7 2 8 1 9
REMARK H PARENT
REMARK Flexibility Score: inf
ROOT
ATOM      1  C   UNL     1      50.242  10.656  -5.731  1.00  0.00     0.006 C 
ENDROOT
BRANCH   1   2
ATOM      2  C   UNL     1      50.219   9.913  -7.074  1.00  0.00     0.053 C 
BRANCH   2   3
ATOM      3  C   UNL     1      49.245   8.775  -7.064  1.00  0.00     0.041 C 
ATOM      4  O   UNL     1      48.425   8.653  -6.116  1.00  0.00    -0.550 OA
ATOM      5  O   UNL     1      49.267   7.830  -8.082  1.00  0.00    -0.550 OA
ENDBRANCH   2   3
ENDBRANCH   1   2
BRANCH   1   6
ATOM      6  C   UNL     1      49.459  11.977  -5.784  1.00  0.00     0.000 C 
BRANCH   6   7
ATOM      7  C   UNL     1      48.310  11.974  -4.771  1.00  0.00    -0.000 C 
BRANCH   7   8
ATOM      8  C   UNL     1      46.976  12.307  -5.451  1.00  0.00    -0.003 C 
ATOM      9  C   UNL     1      47.107  12.266  -6.971  1.00  0.00     0.004 C 
ENDBRANCH   7   8
ENDBRANCH   6   7
ENDBRANCH   1   6
TORSDOF 5
ENDMDL
MODEL 8
REMARK VINA RESULT:    -3.667      2.234      3.466
REMARK INTER + INTRA:          -5.117
REMARK INTER:                  -4.795
REMARK INTRA:                  -0.322
REMARK UNBOUND:                -0.378
REMARK SMILES CCCCCCC(=O)[O-]
REMARK SMILES IDX 5 1 6 2 7 3 8 4 9 5 4 6 3 7 2 8 1 9
REMARK H PARENT
REMARK Flexibility Score: inf
ROOT
ATOM      1  C   UNL     1      49.906  12.291  -8.879  1.00  0.00     0.006 C 
ENDROOT
BRANCH   1   2
ATOM      2  C   UNL     1      49.250  12.072  -7.508  1.00  0.00     0.053 C 
BRANCH   2   3
ATOM      3  C   UNL     1      50.075  11.178  -6.633  1.00  0.00     0.041 C 
ATOM      4  O   UNL     1      50.356  10.010  -7.009  1.00  0.00    -0.550 OA
ATOM      5  O   UNL     1      50.504  11.623  -5.389  1.00  0.00    -0.550 OA
ENDBRANCH   2   3
ENDBRANCH   1   2
BRANCH   1   6
ATOM      6  C   UNL     1      48.930  12.033 -10.037  1.00  0.00     0.000 C 
BRANCH   6   7
ATOM      7  C   UNL     1      47.947  10.911  -9.687  1.00  0.00    -0.000 C 
BRANCH   7   8
ATOM      8  C   UNL     1      46.517  11.282 -10.099  1.00  0.00    -0.003 C 
ATOM      9  C   UNL     1      45.979  12.428  -9.247  1.00  0.00     0.004 C 
ENDBRANCH   7   8
ENDBRANCH   6   7
ENDBRANCH   1   6
TORSDOF 5
ENDMDL
MODEL 9
REMARK VINA RESULT:    -3.640     20.289     21.465
REMARK INTER + INTRA:          -5.082
REMARK INTER:                  -4.677
REMARK INTRA:                  -0.405
REMARK UNBOUND:                -0.378
REMARK SMILES CCCCCCC(=O)[O-]
REMARK SMILES IDX 5 1 6 2 7 3 8 4 9 5 4 6 3 7 2 8 1 9
REMARK H PARENT
REMARK Flexibility Score: inf
ROOT
ATOM      1  C   UNL     1      35.330   0.003   3.619  1.00  0.00     0.006 C 
ENDROOT
BRANCH   1   2
ATOM      2  C   UNL     1      34.753  -0.987   4.641  1.00  0.00     0.053 C 
BRANCH   2   3
ATOM      3  C   UNL     1      34.555  -0.351   5.983  1.00  0.00     0.041 C 
ATOM      4  O   UNL     1      35.537   0.138   6.602  1.00  0.00    -0.550 OA
ATOM      5  O   UNL     1      33.294  -0.328   6.565  1.00  0.00    -0.550 OA
ENDBRANCH   2   3
ENDBRANCH   1   2
BRANCH   1   6
ATOM      6  C   UNL     1      34.273   0.997   3.113  1.00  0.00     0.000 C 
BRANCH   6   7
ATOM      7  C   UNL     1      34.615   2.427   3.542  1.00  0.00    -0.000 C 
BRANCH   7   8
ATOM      8  C   UNL     1      33.446   3.069   4.300  1.00  0.00    -0.003 C 
ATOM      9  C   UNL     1      33.775   3.238   5.780  1.00  0.00     0.004 C 
ENDBRANCH   7   8
ENDBRANCH   6   7
ENDBRANCH   1   6
TORSDOF 5
ENDMDL
