MODEL 1
REMARK VINA RESULT:    -4.133      0.000      0.000
REMARK INTER + INTRA:          -5.486
REMARK INTER:                  -5.342
REMARK INTRA:                  -0.145
REMARK UNBOUND:                -0.145
REMARK SMILES CCCCCCC(=O)[O-]
REMARK SMILES IDX 5 1 6 2 7 3 8 4 9 5 4 6 3 7 2 8 1 9
REMARK H PARENT
REMARK Flexibility Score: inf
ROOT
ATOM      1  C   UNL     1      17.900 -36.624  -2.112  1.00  0.00     0.006 C 
ENDROOT
BRANCH   1   2
ATOM      2  C   UNL     1      17.733 -37.727  -1.058  1.00  0.00     0.053 C 
BRANCH   2   3
ATOM      3  C   UNL     1      18.451 -37.394   0.214  1.00  0.00     0.041 C 
ATOM      4  O   UNL     1      18.042 -36.454   0.945  1.00  0.00    -0.550 OA
ATOM      5  O   UNL     1      19.550 -38.146   0.610  1.00  0.00    -0.550 OA
ENDBRANCH   2   3
ENDBRANCH   1   2
BRANCH   1   6
ATOM      6  C   UNL     1      16.779 -35.572  -2.034  1.00  0.00     0.000 C 
BRANCH   6   7
ATOM      7  C   UNL     1      17.319 -34.146  -1.846  1.00  0.00    -0.000 C 
BRANCH   7   8
ATOM      8  C   UNL     1      16.262 -33.071  -2.141  1.00  0.00    -0.003 C 
ATOM      9  C   UNL     1      14.853 -33.652  -2.064  1.00  0.00     0.004 C 
ENDBRANCH   7   8
ENDBRANCH   6   7
ENDBRANCH   1   6
TORSDOF 5
ENDMDL
MODEL 2
REMARK VINA RESULT:    -3.979      0.770      1.547
REMARK INTER + INTRA:          -5.287
REMARK INTER:                  -5.039
REMARK INTRA:                  -0.247
REMARK UNBOUND:                -0.145
REMARK SMILES CCCCCCC(=O)[O-]
REMARK SMILES IDX 5 1 6 2 7 3 8 4 9 5 4 6 3 7 2 8 1 9
REMARK H PARENT
REMARK Flexibility Score: inf
ROOT
ATOM      1  C   UNL     1      16.635 -37.508  -1.165  1.00  0.00     0.006 C 
ENDROOT
BRANCH   1   2
ATOM      2  C   UNL     1      18.126 -37.816  -0.970  1.00  0.00     0.053 C 
BRANCH   2   3
ATOM      3  C   UNL     1      18.565 -37.566   0.441  1.00  0.00     0.041 C 
ATOM      4  O   UNL     1      19.642 -38.061   0.867  1.00  0.00    -0.550 OA
ATOM      5  O   UNL     1      17.802 -36.758   1.274  1.00  0.00    -0.550 OA
ENDBRANCH   2   3
ENDBRANCH   1   2
BRANCH   1   6
ATOM      6  C   UNL     1      16.408 -36.329  -2.128  1.00  0.00     0.000 C 
BRANCH   6   7
ATOM      7  C   UNL     1      17.617 -35.384  -2.202  1.00  0.00    -0.000 C 
BRANCH   7   8
ATOM      8  C   UNL     1      17.394 -34.079  -1.424  1.00  0.00    -0.003 C 
ATOM      9  C   UNL     1      16.264 -33.259  -2.038  1.00  0.00     0.004 C 
ENDBRANCH   7   8
ENDBRANCH   6   7
ENDBRANCH   1   6
TORSDOF 5
ENDMDL
MODEL 3
REMARK VINA RESULT:    -3.959      1.014      1.503
REMARK INTER + INTRA:          -5.261
REMARK INTER:                  -5.021
REMARK INTRA:                  -0.240
REMARK UNBOUND:                -0.145
REMARK SMILES CCCCCCC(=O)[O-]
REMARK SMILES IDX 5 1 6 2 7 3 8 4 9 5 4 6 3 7 2 8 1 9
REMARK H PARENT
REMARK Flexibility Score: inf
ROOT
ATOM      1  C   UNL     1      17.002 -36.394  -2.136  1.00  0.00     0.006 C 
ENDROOT
BRANCH   1   2
ATOM      2  C   UNL     1      17.997 -37.549  -1.961  1.00  0.00     0.053 C 
BRANCH   2   3
ATOM      3  C   UNL     1      18.190 -37.901  -0.517  1.00  0.00     0.041 C 
ATOM      4  O   UNL     1      19.249 -38.468  -0.140  1.00  0.00    -0.550 OA
ATOM      5  O   UNL     1      17.216 -37.571   0.416  1.00  0.00    -0.550 OA
ENDBRANCH   2   3
ENDBRANCH   1   2
BRANCH   1   6
ATOM      6  C   UNL     1      17.696 -35.021  -2.124  1.00  0.00     0.000 C 
BRANCH   6   7
ATOM      7  C   UNL     1      17.196 -34.115  -0.989  1.00  0.00    -0.000 C 
BRANCH   7   8
ATOM      8  C   UNL     1      15.707 -33.763  -1.127  1.00  0.00    -0.003 C 
ATOM      9  C   UNL     1      15.502 -32.627  -2.125  1.00  0.00     0.004 C 
ENDBRANCH   7   8
ENDBRANCH   6   7
ENDBRANCH   1   6
TORSDOF 5
ENDMDL
MODEL 4
REMARK VINA RESULT:    -3.949      1.680      2.434
REMARK INTER + INTRA:          -5.247
REMARK INTER:                  -4.841
REMARK INTRA:                  -0.406
REMARK UNBOUND:                -0.145
REMARK SMILES CCCCCCC(=O)[O-]
REMARK SMILES IDX 5 1 6 2 7 3 8 4 9 5 4 6 3 7 2 8 1 9
REMARK H PARENT
REMARK Flexibility Score: inf
ROOT
ATOM      1  C   UNL     1      16.997 -36.509  -2.152  1.00  0.00     0.006 C 
ENDROOT
BRANCH   1   2
ATOM      2  C   UNL     1      18.157 -37.507  -2.031  1.00  0.00     0.053 C 
BRANCH   2   3
ATOM      3  C   UNL     1      18.193 -38.155  -0.680  1.00  0.00     0.041 C 
ATOM      4  O   UNL     1      19.294 -38.352  -0.101  1.00  0.00    -0.550 OA
ATOM      5  O   UNL     1      17.008 -38.508  -0.046  1.00  0.00    -0.550 OA
ENDBRANCH   2   3
ENDBRANCH   1   2
BRANCH   1   6
ATOM      6  C   UNL     1      17.463 -35.052  -1.983  1.00  0.00     0.000 C 
BRANCH   6   7
ATOM      7  C   UNL     1      16.958 -34.418  -0.678  1.00  0.00    -0.000 C 
BRANCH   7   8
ATOM      8  C   UNL     1      17.877 -34.714   0.516  1.00  0.00    -0.003 C 
ATOM      9  C   UNL     1      17.112 -35.406   1.640  1.00  0.00     0.004 C 
ENDBRANCH   7   8
ENDBRANCH   6   7
ENDBRANCH   1   6
TORSDOF 5
ENDMDL
MODEL 5
REMARK VINA RESULT:    -3.917      0.918      1.161
REMARK INTER + INTRA:          -5.206
REMARK INTER:                  -5.038
REMARK INTRA:                  -0.168
REMARK UNBOUND:                -0.145
REMARK SMILES CCCCCCC(=O)[O-]
REMARK SMILES IDX 5 1 6 2 7 3 8 4 9 5 4 6 3 7 2 8 1 9
REMARK H PARENT
REMARK Flexibility Score: inf
ROOT
ATOM      1  C   UNL     1      17.805 -36.966  -1.626  1.00  0.00     0.006 C 
ENDROOT
BRANCH   1   2
ATOM      2  C   UNL     1      17.596 -37.206  -0.125  1.00  0.00     0.053 C 
BRANCH   2   3
ATOM      3  C   UNL     1      18.501 -38.281   0.397  1.00  0.00     0.041 C 
ATOM      4  O   UNL     1      19.658 -37.994   0.800  1.00  0.00    -0.550 OA
ATOM      5  O   UNL     1      18.051 -39.594   0.471  1.00  0.00    -0.550 OA
ENDBRANCH   2   3
ENDBRANCH   1   2
BRANCH   1   6
ATOM      6  C   UNL     1      16.923 -35.823  -2.159  1.00  0.00     0.000 C 
BRANCH   6   7
ATOM      7  C   UNL     1      17.470 -34.434  -1.795  1.00  0.00    -0.000 C 
BRANCH   7   8
ATOM      8  C   UNL     1      16.433 -33.320  -1.996  1.00  0.00    -0.003 C 
ATOM      9  C   UNL     1      15.013 -33.877  -1.950  1.00  0.00     0.004 C 
ENDBRANCH   7   8
ENDBRANCH   6   7
ENDBRANCH   1   6
TORSDOF 5
ENDMDL
MODEL 6
REMARK VINA RESULT:    -3.856      1.631      2.690
REMARK INTER + INTRA:          -5.128
REMARK INTER:                  -4.772
REMARK INTRA:                  -0.356
REMARK UNBOUND:                -0.145
REMARK SMILES CCCCCCC(=O)[O-]
REMARK SMILES IDX 5 1 6 2 7 3 8 4 9 5 4 6 3 7 2 8 1 9
REMARK H PARENT
REMARK Flexibility Score: inf
ROOT
ATOM      1  C   UNL     1      17.956 -35.528   0.839  1.00  0.00     0.006 C 
ENDROOT
BRANCH   1   2
ATOM      2  C   UNL     1      17.404 -36.841   1.410  1.00  0.00     0.053 C 
BRANCH   2   3
ATOM      3  C   UNL     1      18.240 -38.017   1.007  1.00  0.00     0.041 C 
ATOM      4  O   UNL     1      17.701 -39.135   0.795  1.00  0.00    -0.550 OA
ATOM      5  O   UNL     1      19.610 -37.869   0.829  1.00  0.00    -0.550 OA
ENDBRANCH   2   3
ENDBRANCH   1   2
BRANCH   1   6
ATOM      6  C   UNL     1      16.971 -34.857  -0.134  1.00  0.00     0.000 C 
BRANCH   6   7
ATOM      7  C   UNL     1      17.393 -35.012  -1.604  1.00  0.00    -0.000 C 
BRANCH   7   8
ATOM      8  C   UNL     1      16.906 -36.331  -2.222  1.00  0.00    -0.003 C 
ATOM      9  C   UNL     1      18.074 -37.274  -2.494  1.00  0.00     0.004 C 
ENDBRANCH   7   8
ENDBRANCH   6   7
ENDBRANCH   1   6
TORSDOF 5
ENDMDL
MODEL 7
REMARK VINA RESULT:    -3.791      2.890      4.840
REMARK INTER + INTRA:          -5.044
REMARK INTER:                  -4.886
REMARK INTRA:                  -0.158
REMARK UNBOUND:                -0.145
REMARK SMILES CCCCCCC(=O)[O-]
REMARK SMILES IDX 5 1 6 2 7 3 8 4 9 5 4 6 3 7 2 8 1 9
REMARK H PARENT
REMARK Flexibility Score: inf
ROOT
ATOM      1  C   UNL     1      17.360 -35.089  -1.298  1.00  0.00     0.006 C 
ENDROOT
BRANCH   1   2
ATOM      2  C   UNL     1      17.160 -33.737  -1.997  1.00  0.00     0.053 C 
BRANCH   2   3
ATOM      3  C   UNL     1      15.727 -33.300  -1.959  1.00  0.00     0.041 C 
ATOM      4  O   UNL     1      15.441 -32.079  -1.846  1.00  0.00    -0.550 OA
ATOM      5  O   UNL     1      14.709 -34.237  -2.084  1.00  0.00    -0.550 OA
ENDBRANCH   2   3
ENDBRANCH   1   2
BRANCH   1   6
ATOM      6  C   UNL     1      17.458 -36.253  -2.300  1.00  0.00     0.000 C 
BRANCH   6   7
ATOM      7  C   UNL     1      18.032 -37.530  -1.669  1.00  0.00    -0.000 C 
BRANCH   7   8
ATOM      8  C   UNL     1      17.700 -37.651  -0.174  1.00  0.00    -0.003 C 
ATOM      9  C   UNL     1      18.965 -37.852   0.655  1.00  0.00     0.004 C 
ENDBRANCH   7   8
ENDBRANCH   6   7
ENDBRANCH   1   6
TORSDOF 5
ENDMDL
MODEL 8
REMARK VINA RESULT:    -3.790      3.219      5.131
REMARK INTER + INTRA:          -5.043
REMARK INTER:                  -4.822
REMARK INTRA:                  -0.221
REMARK UNBOUND:                -0.145
REMARK SMILES CCCCCCC(=O)[O-]
REMARK SMILES IDX 5 1 6 2 7 3 8 4 9 5 4 6 3 7 2 8 1 9
REMARK H PARENT
REMARK Flexibility Score: inf
ROOT
ATOM      1  C   UNL     1      16.919 -33.704  -1.310  1.00  0.00     0.006 C 
ENDROOT
BRANCH   1   2
ATOM      2  C   UNL     1      15.908 -32.896  -2.135  1.00  0.00     0.053 C 
BRANCH   2   3
ATOM      3  C   UNL     1      14.708 -32.514  -1.324  1.00  0.00     0.041 C 
ATOM      4  O   UNL     1      14.160 -33.358  -0.566  1.00  0.00    -0.550 OA
ATOM      5  O   UNL     1      14.216 -31.215  -1.377  1.00  0.00    -0.550 OA
ENDBRANCH   2   3
ENDBRANCH   1   2
BRANCH   1   6
ATOM      6  C   UNL     1      17.313 -35.021  -2.002  1.00  0.00     0.000 C 
BRANCH   6   7
ATOM      7  C   UNL     1      16.175 -36.053  -2.001  1.00  0.00    -0.000 C 
BRANCH   7   8
ATOM      8  C   UNL     1      16.678 -37.486  -2.231  1.00  0.00    -0.003 C 
ATOM      9  C   UNL     1      18.195 -37.516  -2.394  1.00  0.00     0.004 C 
ENDBRANCH   7   8
ENDBRANCH   6   7
ENDBRANCH   1   6
TORSDOF 5
ENDMDL
MODEL 9
REMARK VINA RESULT:    -3.716      2.874      4.679
REMARK INTER + INTRA:          -4.947
REMARK INTER:                  -4.651
REMARK INTRA:                  -0.296
REMARK UNBOUND:                -0.145
REMARK SMILES CCCCCCC(=O)[O-]
REMARK SMILES IDX 5 1 6 2 7 3 8 4 9 5 4 6 3 7 2 8 1 9
REMARK H PARENT
REMARK Flexibility Score: inf
ROOT
ATOM      1  C   UNL     1      17.027 -33.755  -2.003  1.00  0.00     0.006 C 
ENDROOT
BRANCH   1   2
ATOM      2  C   UNL     1      15.733 -32.934  -1.915  1.00  0.00     0.053 C 
BRANCH   2   3
ATOM      3  C   UNL     1      14.525 -33.768  -2.214  1.00  0.00     0.041 C 
ATOM      4  O   UNL     1      13.750 -33.447  -3.152  1.00  0.00    -0.550 OA
ATOM      5  O   UNL     1      14.275 -34.920  -1.477  1.00  0.00    -0.550 OA
ENDBRANCH   2   3
ENDBRANCH   1   2
BRANCH   1   6
ATOM      6  C   UNL     1      17.410 -34.381  -0.650  1.00  0.00     0.000 C 
BRANCH   6   7
ATOM      7  C   UNL     1      17.626 -35.900  -0.742  1.00  0.00    -0.000 C 
BRANCH   7   8
ATOM      8  C   UNL     1      17.540 -36.422  -2.183  1.00  0.00    -0.003 C 
ATOM      9  C   UNL     1      16.517 -37.549  -2.298  1.00  0.00     0.004 C 
ENDBRANCH   7   8
ENDBRANCH   6   7
ENDBRANCH   1   6
TORSDOF 5
ENDMDL
