MODEL 1
REMARK VINA RESULT:    -5.524      0.000      0.000
REMARK INTER + INTRA:         -11.085
REMARK INTER:                  -9.722
REMARK INTRA:                  -1.362
REMARK UNBOUND:                -1.362
REMARK SMILES CCCCCCCCCCCCCCC(=O)[O-]
REMARK SMILES IDX 9 1 10 2 11 3 12 4 13 5 14 6 15 7 16 8 17 9 8 10 7 11 6 12
REMARK SMILES IDX 5 13 4 14 3 15 2 16 1 17
REMARK H PARENT
REMARK Flexibility Score: inf
ROOT
ATOM      1  C   UNL     1       9.445   4.155  54.737  1.00  0.00     0.000 C 
ENDROOT
BRANCH   1   2
ATOM      2  C   UNL     1       9.532   5.078  55.964  1.00  0.00     0.000 C 
BRANCH   2   3
ATOM      3  C   UNL     1       9.837   6.542  55.595  1.00  0.00     0.000 C 
BRANCH   3   4
ATOM      4  C   UNL     1       9.310   6.995  54.221  1.00  0.00     0.000 C 
BRANCH   4   5
ATOM      5  C   UNL     1      10.428   7.440  53.265  1.00  0.00     0.006 C 
BRANCH   5   6
ATOM      6  C   UNL     1      10.020   8.697  52.491  1.00  0.00     0.053 C 
BRANCH   6   7
ATOM      7  C   UNL     1       9.167   8.334  51.317  1.00  0.00     0.041 C 
ATOM      8  O   UNL     1       7.952   8.664  51.290  1.00  0.00    -0.550 OA
ATOM      9  O   UNL     1       9.701   7.588  50.275  1.00  0.00    -0.550 OA
ENDBRANCH   6   7
ENDBRANCH   5   6
ENDBRANCH   4   5
ENDBRANCH   3   4
ENDBRANCH   2   3
ENDBRANCH   1   2
BRANCH   1  10
ATOM     10  C   UNL     1      10.710   3.299  54.541  1.00  0.00     0.000 C 
BRANCH  10  11
ATOM     11  C   UNL     1      11.841   3.970  53.735  1.00  0.00    -0.000 C 
BRANCH  11  12
ATOM     12  C   UNL     1      13.001   4.529  54.582  1.00  0.00    -0.000 C 
BRANCH  12  13
ATOM     13  C   UNL     1      13.070   3.999  56.028  1.00  0.00    -0.000 C 
BRANCH  13  14
ATOM     14  C   UNL     1      14.191   2.980  56.297  1.00  0.00    -0.000 C 
BRANCH  14  15
ATOM     15  C   UNL     1      15.471   3.273  55.495  1.00  0.00    -0.000 C 
BRANCH  15  16
ATOM     16  C   UNL     1      16.527   2.167  55.646  1.00  0.00    -0.003 C 
ATOM     17  C   UNL     1      15.971   0.902  56.302  1.00  0.00     0.004 C 
ENDBRANCH  15  16
ENDBRANCH  14  15
ENDBRANCH  13  14
ENDBRANCH  12  13
ENDBRANCH  11  12
ENDBRANCH  10  11
ENDBRANCH   1  10
TORSDOF 13
ENDMDL
MODEL 2
REMARK VINA RESULT:    -5.442      1.609      2.542
REMARK INTER + INTRA:         -10.940
REMARK INTER:                  -9.630
REMARK INTRA:                  -1.310
REMARK UNBOUND:                -1.362
REMARK SMILES CCCCCCCCCCCCCCC(=O)[O-]
REMARK SMILES IDX 9 1 10 2 11 3 12 4 13 5 14 6 15 7 16 8 17 9 8 10 7 11 6 12
REMARK SMILES IDX 5 13 4 14 3 15 2 16 1 17
REMARK H PARENT
REMARK Flexibility Score: inf
ROOT
ATOM      1  C   UNL     1      10.711   3.288  54.508  1.00  0.00     0.000 C 
ENDROOT
BRANCH   1   2
ATOM      2  C   UNL     1      11.697   3.642  53.381  1.00  0.00     0.000 C 
BRANCH   2   3
ATOM      3  C   UNL     1      12.431   4.975  53.622  1.00  0.00     0.000 C 
BRANCH   3   4
ATOM      4  C   UNL     1      12.097   6.096  52.621  1.00  0.00     0.000 C 
BRANCH   4   5
ATOM      5  C   UNL     1      11.663   7.402  53.304  1.00  0.00     0.006 C 
BRANCH   5   6
ATOM      6  C   UNL     1      10.356   7.927  52.703  1.00  0.00     0.053 C 
BRANCH   6   7
ATOM      7  C   UNL     1       9.247   7.839  53.703  1.00  0.00     0.041 C 
ATOM      8  O   UNL     1       8.999   6.748  54.281  1.00  0.00    -0.550 OA
ATOM      9  O   UNL     1       8.455   8.950  53.961  1.00  0.00    -0.550 OA
ENDBRANCH   6   7
ENDBRANCH   5   6
ENDBRANCH   4   5
ENDBRANCH   3   4
ENDBRANCH   2   3
ENDBRANCH   1   2
BRANCH   1  10
ATOM     10  C   UNL     1      10.862   4.194  55.743  1.00  0.00     0.000 C 
BRANCH  10  11
ATOM     11  C   UNL     1      11.551   3.541  56.958  1.00  0.00    -0.000 C 
BRANCH  11  12
ATOM     12  C   UNL     1      13.070   3.781  57.054  1.00  0.00    -0.000 C 
BRANCH  12  13
ATOM     13  C   UNL     1      13.947   2.681  56.424  1.00  0.00    -0.000 C 
BRANCH  13  14
ATOM     14  C   UNL     1      15.198   3.188  55.683  1.00  0.00    -0.000 C 
BRANCH  14  15
ATOM     15  C   UNL     1      16.340   2.156  55.663  1.00  0.00    -0.000 C 
BRANCH  15  16
ATOM     16  C   UNL     1      15.979   0.865  56.413  1.00  0.00    -0.003 C 
ATOM     17  C   UNL     1      17.168   0.264  57.164  1.00  0.00     0.004 C 
ENDBRANCH  15  16
ENDBRANCH  14  15
ENDBRANCH  13  14
ENDBRANCH  12  13
ENDBRANCH  11  12
ENDBRANCH  10  11
ENDBRANCH   1  10
TORSDOF 13
ENDMDL
MODEL 3
REMARK VINA RESULT:    -5.403      4.489      8.045
REMARK INTER + INTRA:         -10.871
REMARK INTER:                  -9.558
REMARK INTRA:                  -1.313
REMARK UNBOUND:                -1.362
REMARK SMILES CCCCCCCCCCCCCCC(=O)[O-]
REMARK SMILES IDX 9 1 10 2 11 3 12 4 13 5 14 6 15 7 16 8 17 9 8 10 7 11 6 12
REMARK SMILES IDX 5 13 4 14 3 15 2 16 1 17
REMARK H PARENT
REMARK Flexibility Score: inf
ROOT
ATOM      1  C   UNL     1      12.836   4.464  54.485  1.00  0.00     0.000 C 
ENDROOT
BRANCH   1   2
ATOM      2  C   UNL     1      12.850   4.082  55.975  1.00  0.00     0.000 C 
BRANCH   2   3
ATOM      3  C   UNL     1      14.052   3.199  56.358  1.00  0.00     0.000 C 
BRANCH   3   4
ATOM      4  C   UNL     1      15.329   3.434  55.531  1.00  0.00     0.000 C 
BRANCH   4   5
ATOM      5  C   UNL     1      16.300   2.244  55.571  1.00  0.00     0.006 C 
BRANCH   5   6
ATOM      6  C   UNL     1      15.836   1.193  56.583  1.00  0.00     0.053 C 
BRANCH   6   7
ATOM      7  C   UNL     1      16.758   0.014  56.573  1.00  0.00     0.041 C 
ATOM      8  O   UNL     1      16.646  -0.871  55.685  1.00  0.00    -0.550 OA
ATOM      9  O   UNL     1      17.709  -0.132  57.575  1.00  0.00    -0.550 OA
ENDBRANCH   6   7
ENDBRANCH   5   6
ENDBRANCH   4   5
ENDBRANCH   3   4
ENDBRANCH   2   3
ENDBRANCH   1   2
BRANCH   1  10
ATOM     10  C   UNL     1      11.517   4.090  53.784  1.00  0.00     0.000 C 
BRANCH  10  11
ATOM     11  C   UNL     1      10.452   3.437  54.689  1.00  0.00    -0.000 C 
BRANCH  11  12
ATOM     12  C   UNL     1       9.254   4.339  55.043  1.00  0.00    -0.000 C 
BRANCH  12  13
ATOM     13  C   UNL     1       9.574   5.506  55.998  1.00  0.00    -0.000 C 
BRANCH  13  14
ATOM     14  C   UNL     1       9.349   6.911  55.409  1.00  0.00    -0.000 C 
BRANCH  14  15
ATOM     15  C   UNL     1      10.526   7.392  54.543  1.00  0.00    -0.000 C 
BRANCH  15  16
ATOM     16  C   UNL     1      10.108   7.688  53.095  1.00  0.00    -0.003 C 
ATOM     17  C   UNL     1       8.592   7.654  52.896  1.00  0.00     0.004 C 
ENDBRANCH  15  16
ENDBRANCH  14  15
ENDBRANCH  13  14
ENDBRANCH  12  13
ENDBRANCH  11  12
ENDBRANCH  10  11
ENDBRANCH   1  10
TORSDOF 13
ENDMDL
MODEL 4
REMARK VINA RESULT:    -5.327      4.511      7.729
REMARK INTER + INTRA:         -10.738
REMARK INTER:                  -9.379
REMARK INTRA:                  -1.359
REMARK UNBOUND:                -1.362
REMARK SMILES CCCCCCCCCCCCCCC(=O)[O-]
REMARK SMILES IDX 9 1 10 2 11 3 12 4 13 5 14 6 15 7 16 8 17 9 8 10 7 11 6 12
REMARK SMILES IDX 5 13 4 14 3 15 2 16 1 17
REMARK H PARENT
REMARK Flexibility Score: inf
ROOT
ATOM      1  C   UNL     1      11.423   3.360  55.386  1.00  0.00     0.000 C 
ENDROOT
BRANCH   1   2
ATOM      2  C   UNL     1      12.579   4.162  56.008  1.00  0.00     0.000 C 
BRANCH   2   3
ATOM      3  C   UNL     1      13.263   3.425  57.175  1.00  0.00     0.000 C 
BRANCH   3   4
ATOM      4  C   UNL     1      13.016   1.906  57.225  1.00  0.00     0.000 C 
BRANCH   4   5
ATOM      5  C   UNL     1      14.295   1.098  57.494  1.00  0.00     0.006 C 
BRANCH   5   6
ATOM      6  C   UNL     1      15.424   1.531  56.554  1.00  0.00     0.053 C 
BRANCH   6   7
ATOM      7  C   UNL     1      16.472   0.467  56.471  1.00  0.00     0.041 C 
ATOM      8  O   UNL     1      16.499  -0.323  55.492  1.00  0.00    -0.550 OA
ATOM      9  O   UNL     1      17.391   0.317  57.502  1.00  0.00    -0.550 OA
ENDBRANCH   6   7
ENDBRANCH   5   6
ENDBRANCH   4   5
ENDBRANCH   3   4
ENDBRANCH   2   3
ENDBRANCH   1   2
BRANCH   1  10
ATOM     10  C   UNL     1      10.961   3.928  54.031  1.00  0.00     0.000 C 
BRANCH  10  11
ATOM     11  C   UNL     1      12.078   4.131  52.987  1.00  0.00    -0.000 C 
BRANCH  11  12
ATOM     12  C   UNL     1      12.438   5.600  52.693  1.00  0.00    -0.000 C 
BRANCH  12  13
ATOM     13  C   UNL     1      11.283   6.604  52.878  1.00  0.00    -0.000 C 
BRANCH  13  14
ATOM     14  C   UNL     1      11.575   7.765  53.845  1.00  0.00    -0.000 C 
BRANCH  14  15
ATOM     15  C   UNL     1      11.077   7.492  55.275  1.00  0.00    -0.000 C 
BRANCH  15  16
ATOM     16  C   UNL     1       9.602   7.067  55.313  1.00  0.00    -0.003 C 
ATOM     17  C   UNL     1       8.640   8.254  55.257  1.00  0.00     0.004 C 
ENDBRANCH  15  16
ENDBRANCH  14  15
ENDBRANCH  13  14
ENDBRANCH  12  13
ENDBRANCH  11  12
ENDBRANCH  10  11
ENDBRANCH   1  10
TORSDOF 13
ENDMDL
MODEL 5
REMARK VINA RESULT:    -5.318      3.654      7.232
REMARK INTER + INTRA:         -10.722
REMARK INTER:                  -8.877
REMARK INTRA:                  -1.846
REMARK UNBOUND:                -1.362
REMARK SMILES CCCCCCCCCCCCCCC(=O)[O-]
REMARK SMILES IDX 9 1 10 2 11 3 12 4 13 5 14 6 15 7 16 8 17 9 8 10 7 11 6 12
REMARK SMILES IDX 5 13 4 14 3 15 2 16 1 17
REMARK H PARENT
REMARK Flexibility Score: inf
ROOT
ATOM      1  C   UNL     1      12.124   5.662  52.560  1.00  0.00     0.000 C 
ENDROOT
BRANCH   1   2
ATOM      2  C   UNL     1      12.422   4.671  53.698  1.00  0.00     0.000 C 
BRANCH   2   3
ATOM      3  C   UNL     1      11.271   3.678  53.947  1.00  0.00     0.000 C 
BRANCH   3   4
ATOM      4  C   UNL     1      10.539   3.846  55.291  1.00  0.00     0.000 C 
BRANCH   4   5
ATOM      5  C   UNL     1      11.392   4.553  56.356  1.00  0.00     0.006 C 
BRANCH   5   6
ATOM      6  C   UNL     1      11.726   3.604  57.510  1.00  0.00     0.053 C 
BRANCH   6   7
ATOM      7  C   UNL     1      12.847   2.690  57.128  1.00  0.00     0.041 C 
ATOM      8  O   UNL     1      12.846   1.491  57.510  1.00  0.00    -0.550 OA
ATOM      9  O   UNL     1      13.919   3.177  56.390  1.00  0.00    -0.550 OA
ENDBRANCH   6   7
ENDBRANCH   5   6
ENDBRANCH   4   5
ENDBRANCH   3   4
ENDBRANCH   2   3
ENDBRANCH   1   2
BRANCH   1  10
ATOM     10  C   UNL     1      11.132   6.766  52.970  1.00  0.00     0.000 C 
BRANCH  10  11
ATOM     11  C   UNL     1      11.692   7.825  53.941  1.00  0.00    -0.000 C 
BRANCH  11  12
ATOM     12  C   UNL     1      10.888   8.007  55.243  1.00  0.00    -0.000 C 
BRANCH  12  13
ATOM     13  C   UNL     1       9.443   7.473  55.198  1.00  0.00    -0.000 C 
BRANCH  13  14
ATOM     14  C   UNL     1       8.346   8.552  55.249  1.00  0.00    -0.000 C 
BRANCH  14  15
ATOM     15  C   UNL     1       8.113   9.232  53.888  1.00  0.00    -0.000 C 
BRANCH  15  16
ATOM     16  C   UNL     1       7.908   8.219  52.752  1.00  0.00    -0.003 C 
ATOM     17  C   UNL     1       8.316   8.770  51.385  1.00  0.00     0.004 C 
ENDBRANCH  15  16
ENDBRANCH  14  15
ENDBRANCH  13  14
ENDBRANCH  12  13
ENDBRANCH  11  12
ENDBRANCH  10  11
ENDBRANCH   1  10
TORSDOF 13
ENDMDL
MODEL 6
REMARK VINA RESULT:    -5.292      3.500      7.233
REMARK INTER + INTRA:         -10.676
REMARK INTER:                  -8.792
REMARK INTRA:                  -1.883
REMARK UNBOUND:                -1.362
REMARK SMILES CCCCCCCCCCCCCCC(=O)[O-]
REMARK SMILES IDX 9 1 10 2 11 3 12 4 13 5 14 6 15 7 16 8 17 9 8 10 7 11 6 12
REMARK SMILES IDX 5 13 4 14 3 15 2 16 1 17
REMARK H PARENT
REMARK Flexibility Score: inf
ROOT
ATOM      1  C   UNL     1      11.723   7.695  53.504  1.00  0.00     0.000 C 
ENDROOT
BRANCH   1   2
ATOM      2  C   UNL     1      11.429   6.430  52.679  1.00  0.00     0.000 C 
BRANCH   2   3
ATOM      3  C   UNL     1      12.468   5.315  52.899  1.00  0.00     0.000 C 
BRANCH   3   4
ATOM      4  C   UNL     1      11.889   3.893  53.017  1.00  0.00     0.000 C 
BRANCH   4   5
ATOM      5  C   UNL     1      11.420   3.551  54.440  1.00  0.00     0.006 C 
BRANCH   5   6
ATOM      6  C   UNL     1      12.504   3.884  55.469  1.00  0.00     0.053 C 
BRANCH   6   7
ATOM      7  C   UNL     1      12.054   3.505  56.844  1.00  0.00     0.041 C 
ATOM      8  O   UNL     1      11.368   4.307  57.531  1.00  0.00    -0.550 OA
ATOM      9  O   UNL     1      12.433   2.284  57.388  1.00  0.00    -0.550 OA
ENDBRANCH   6   7
ENDBRANCH   5   6
ENDBRANCH   4   5
ENDBRANCH   3   4
ENDBRANCH   2   3
ENDBRANCH   1   2
BRANCH   1  10
ATOM     10  C   UNL     1      11.356   7.539  54.991  1.00  0.00     0.000 C 
BRANCH  10  11
ATOM     11  C   UNL     1      10.026   6.807  55.267  1.00  0.00    -0.000 C 
BRANCH  11  12
ATOM     12  C   UNL     1       8.808   7.725  55.480  1.00  0.00    -0.000 C 
BRANCH  12  13
ATOM     13  C   UNL     1       9.050   9.215  55.167  1.00  0.00    -0.000 C 
BRANCH  13  14
ATOM     14  C   UNL     1       8.499   9.696  53.812  1.00  0.00    -0.000 C 
BRANCH  14  15
ATOM     15  C   UNL     1       7.899   8.556  52.972  1.00  0.00    -0.000 C 
BRANCH  15  16
ATOM     16  C   UNL     1       8.396   8.572  51.518  1.00  0.00    -0.003 C 
ATOM     17  C   UNL     1       9.511   9.591  51.284  1.00  0.00     0.004 C 
ENDBRANCH  15  16
ENDBRANCH  14  15
ENDBRANCH  13  14
ENDBRANCH  12  13
ENDBRANCH  11  12
ENDBRANCH  10  11
ENDBRANCH   1  10
TORSDOF 13
ENDMDL
MODEL 7
REMARK VINA RESULT:    -5.275      2.157      3.764
REMARK INTER + INTRA:         -10.646
REMARK INTER:                  -8.878
REMARK INTRA:                  -1.768
REMARK UNBOUND:                -1.362
REMARK SMILES CCCCCCCCCCCCCCC(=O)[O-]
REMARK SMILES IDX 9 1 10 2 11 3 12 4 13 5 14 6 15 7 16 8 17 9 8 10 7 11 6 12
REMARK SMILES IDX 5 13 4 14 3 15 2 16 1 17
REMARK H PARENT
REMARK Flexibility Score: inf
ROOT
ATOM      1  C   UNL     1      11.401   7.909  55.045  1.00  0.00     0.000 C 
ENDROOT
BRANCH   1   2
ATOM      2  C   UNL     1      11.139   9.357  55.492  1.00  0.00     0.000 C 
BRANCH   2   3
ATOM      3  C   UNL     1       9.642   9.671  55.667  1.00  0.00     0.000 C 
BRANCH   3   4
ATOM      4  C   UNL     1       8.684   8.521  55.304  1.00  0.00     0.000 C 
BRANCH   4   5
ATOM      5  C   UNL     1       7.821   8.824  54.070  1.00  0.00     0.006 C 
BRANCH   5   6
ATOM      6  C   UNL     1       8.173   7.885  52.911  1.00  0.00     0.053 C 
BRANCH   6   7
ATOM      7  C   UNL     1       8.179   8.633  51.616  1.00  0.00     0.041 C 
ATOM      8  O   UNL     1       9.176   8.566  50.850  1.00  0.00    -0.550 OA
ATOM      9  O   UNL     1       7.104   9.444  51.277  1.00  0.00    -0.550 OA
ENDBRANCH   6   7
ENDBRANCH   5   6
ENDBRANCH   4   5
ENDBRANCH   3   4
ENDBRANCH   2   3
ENDBRANCH   1   2
BRANCH   1  10
ATOM     10  C   UNL     1      11.865   7.809  53.580  1.00  0.00     0.000 C 
BRANCH  10  11
ATOM     11  C   UNL     1      11.386   6.554  52.822  1.00  0.00    -0.000 C 
BRANCH  11  12
ATOM     12  C   UNL     1      12.443   5.444  52.666  1.00  0.00    -0.000 C 
BRANCH  12  13
ATOM     13  C   UNL     1      12.141   4.140  53.432  1.00  0.00    -0.000 C 
BRANCH  13  14
ATOM     14  C   UNL     1      12.712   4.075  54.860  1.00  0.00    -0.000 C 
BRANCH  14  15
ATOM     15  C   UNL     1      11.682   3.588  55.894  1.00  0.00    -0.000 C 
BRANCH  15  16
ATOM     16  C   UNL     1      10.866   4.740  56.499  1.00  0.00    -0.003 C 
ATOM     17  C   UNL     1       9.507   4.923  55.822  1.00  0.00     0.004 C 
ENDBRANCH  15  16
ENDBRANCH  14  15
ENDBRANCH  13  14
ENDBRANCH  12  13
ENDBRANCH  11  12
ENDBRANCH  10  11
ENDBRANCH   1  10
TORSDOF 13
ENDMDL
MODEL 8
REMARK VINA RESULT:    -5.269      1.638      2.772
REMARK INTER + INTRA:         -10.636
REMARK INTER:                  -8.910
REMARK INTRA:                  -1.726
REMARK UNBOUND:                -1.362
REMARK SMILES CCCCCCCCCCCCCCC(=O)[O-]
REMARK SMILES IDX 9 1 10 2 11 3 12 4 13 5 14 6 15 7 16 8 17 9 8 10 7 11 6 12
REMARK SMILES IDX 5 13 4 14 3 15 2 16 1 17
REMARK H PARENT
REMARK Flexibility Score: inf
ROOT
ATOM      1  C   UNL     1      12.497   5.023  53.683  1.00  0.00     0.000 C 
ENDROOT
BRANCH   1   2
ATOM      2  C   UNL     1      12.110   6.027  52.583  1.00  0.00     0.000 C 
BRANCH   2   3
ATOM      3  C   UNL     1      11.208   7.164  53.098  1.00  0.00     0.000 C 
BRANCH   3   4
ATOM      4  C   UNL     1      11.502   7.636  54.534  1.00  0.00     0.000 C 
BRANCH   4   5
ATOM      5  C   UNL     1      10.233   8.003  55.318  1.00  0.00     0.006 C 
BRANCH   5   6
ATOM      6  C   UNL     1       8.983   7.452  54.626  1.00  0.00     0.053 C 
BRANCH   6   7
ATOM      7  C   UNL     1       8.007   8.552  54.355  1.00  0.00     0.041 C 
ATOM      8  O   UNL     1       7.538   8.714  53.198  1.00  0.00    -0.550 OA
ATOM      9  O   UNL     1       7.652   9.432  55.370  1.00  0.00    -0.550 OA
ENDBRANCH   6   7
ENDBRANCH   5   6
ENDBRANCH   4   5
ENDBRANCH   3   4
ENDBRANCH   2   3
ENDBRANCH   1   2
BRANCH   1  10
ATOM     10  C   UNL     1      11.634   3.749  53.661  1.00  0.00     0.000 C 
BRANCH  10  11
ATOM     11  C   UNL     1      10.433   3.751  54.629  1.00  0.00    -0.000 C 
BRANCH  11  12
ATOM     12  C   UNL     1      10.737   4.282  56.044  1.00  0.00    -0.000 C 
BRANCH  12  13
ATOM     13  C   UNL     1      11.594   3.349  56.922  1.00  0.00    -0.000 C 
BRANCH  13  14
ATOM     14  C   UNL     1      13.078   3.743  57.039  1.00  0.00    -0.000 C 
BRANCH  14  15
ATOM     15  C   UNL     1      14.030   2.646  56.533  1.00  0.00    -0.000 C 
BRANCH  15  16
ATOM     16  C   UNL     1      15.146   3.203  55.636  1.00  0.00    -0.003 C 
ATOM     17  C   UNL     1      16.335   2.251  55.509  1.00  0.00     0.004 C 
ENDBRANCH  15  16
ENDBRANCH  14  15
ENDBRANCH  13  14
ENDBRANCH  12  13
ENDBRANCH  11  12
ENDBRANCH  10  11
ENDBRANCH   1  10
TORSDOF 13
ENDMDL
MODEL 9
REMARK VINA RESULT:    -5.205      1.655      2.612
REMARK INTER + INTRA:         -10.522
REMARK INTER:                  -8.801
REMARK INTRA:                  -1.721
REMARK UNBOUND:                -1.362
REMARK SMILES CCCCCCCCCCCCCCC(=O)[O-]
REMARK SMILES IDX 9 1 10 2 11 3 12 4 13 5 14 6 15 7 16 8 17 9 8 10 7 11 6 12
REMARK SMILES IDX 5 13 4 14 3 15 2 16 1 17
REMARK H PARENT
REMARK Flexibility Score: inf
ROOT
ATOM      1  C   UNL     1      11.753   7.663  53.954  1.00  0.00     0.000 C 
ENDROOT
BRANCH   1   2
ATOM      2  C   UNL     1      10.989   7.847  55.276  1.00  0.00     0.000 C 
BRANCH   2   3
ATOM      3  C   UNL     1       9.534   7.346  55.204  1.00  0.00     0.000 C 
BRANCH   3   4
ATOM      4  C   UNL     1       8.458   8.446  55.245  1.00  0.00     0.000 C 
BRANCH   4   5
ATOM      5  C   UNL     1       8.281   9.164  53.897  1.00  0.00     0.006 C 
BRANCH   5   6
ATOM      6  C   UNL     1       7.900   8.172  52.794  1.00  0.00     0.053 C 
BRANCH   6   7
ATOM      7  C   UNL     1       8.192   8.751  51.446  1.00  0.00     0.041 C 
ATOM      8  O   UNL     1       7.458   9.658  50.973  1.00  0.00    -0.550 OA
ATOM      9  O   UNL     1       9.246   8.253  50.691  1.00  0.00    -0.550 OA
ENDBRANCH   6   7
ENDBRANCH   5   6
ENDBRANCH   4   5
ENDBRANCH   3   4
ENDBRANCH   2   3
ENDBRANCH   1   2
BRANCH   1  10
ATOM     10  C   UNL     1      11.190   6.520  53.091  1.00  0.00     0.000 C 
BRANCH  10  11
ATOM     11  C   UNL     1      12.221   5.466  52.640  1.00  0.00    -0.000 C 
BRANCH  11  12
ATOM     12  C   UNL     1      12.140   4.115  53.377  1.00  0.00    -0.000 C 
BRANCH  12  13
ATOM     13  C   UNL     1      10.945   3.968  54.341  1.00  0.00    -0.000 C 
BRANCH  13  14
ATOM     14  C   UNL     1      11.308   3.986  55.837  1.00  0.00    -0.000 C 
BRANCH  14  15
ATOM     15  C   UNL     1      12.785   4.332  56.090  1.00  0.00    -0.000 C 
BRANCH  15  16
ATOM     16  C   UNL     1      13.620   3.101  56.475  1.00  0.00    -0.003 C 
ATOM     17  C   UNL     1      12.874   2.145  57.406  1.00  0.00     0.004 C 
ENDBRANCH  15  16
ENDBRANCH  14  15
ENDBRANCH  13  14
ENDBRANCH  12  13
ENDBRANCH  11  12
ENDBRANCH  10  11
ENDBRANCH   1  10
TORSDOF 13
ENDMDL
