MODEL 1
REMARK VINA RESULT:    -4.063      0.000      0.000
REMARK INTER + INTRA:          -8.126
REMARK INTER:                  -6.200
REMARK INTRA:                  -1.926
REMARK UNBOUND:                -1.926
REMARK SMILES OC[C@@H]1O[C@H](O[C@]2(CO)O[C@H](CO)[C@H](O)[C@@H]2O)[C@H](O)[C@@H](O)[C@@H]1O
REMARK SMILES IDX 6 1 5 2 3 3 22 4 4 5 20 6 18 7 2 8 1 9 23 11 21 13 19 15
REMARK SMILES IDX 7 17 16 18 10 19 14 20 11 21 8 22 9 23 17 25 15 27 12 29
REMARK SMILES IDX 13 30
REMARK H PARENT 1 10 23 12 21 14 19 16 9 24 17 26 15 28 13 31
REMARK Flexibility Score: inf
ROOT
ATOM      1  O   UNL     1      15.131  41.854  17.704  1.00  0.00    -0.313 OA
ENDROOT
BRANCH   1   2
ATOM      2  C   UNL     1      15.331  41.316  16.401  1.00  0.00     0.285 C 
ATOM      3  C   UNL     1      15.349  43.439  15.287  1.00  0.00     0.178 C 
ATOM      4  C   UNL     1      16.869  43.340  15.015  1.00  0.00     0.177 C 
ATOM      5  O   UNL     1      14.730  42.160  15.425  1.00  0.00    -0.341 OA
ATOM      6  C   UNL     1      17.559  42.453  16.058  1.00  0.00     0.179 C 
ATOM      7  C   UNL     1      16.835  41.103  16.123  1.00  0.00     0.202 C 
BRANCH   3   8
ATOM      8  C   UNL     1      14.974  44.413  16.425  1.00  0.00     0.191 C 
BRANCH   8   9
ATOM      9  O   UNL     1      13.581  44.421  16.604  1.00  0.00    -0.394 OA
ATOM     10  H   UNL     1      13.358  43.582  17.088  1.00  0.00     0.210 HD
ENDBRANCH   8   9
ENDBRANCH   3   8
BRANCH   4  11
ATOM     11  O   UNL     1      17.446  44.624  15.012  1.00  0.00    -0.387 OA
ATOM     12  H   UNL     1      17.596  44.873  14.064  1.00  0.00     0.211 HD
ENDBRANCH   4  11
BRANCH   6  13
ATOM     13  O   UNL     1      18.903  42.260  15.687  1.00  0.00    -0.387 OA
ATOM     14  H   UNL     1      18.914  41.525  15.015  1.00  0.00     0.211 HD
ENDBRANCH   6  13
BRANCH   7  15
ATOM     15  O   UNL     1      17.411  40.309  17.128  1.00  0.00    -0.385 OA
ATOM     16  H   UNL     1      17.243  39.363  16.876  1.00  0.00     0.211 HD
ENDBRANCH   7  15
ENDBRANCH   1   2
BRANCH   1  17
ATOM     17  C   UNL     1      14.164  41.193  18.520  1.00  0.00     0.224 C 
ATOM     18  C   UNL     1      13.621  42.140  19.610  1.00  0.00     0.208 C 
ATOM     19  O   UNL     1      13.074  40.677  17.774  1.00  0.00    -0.337 OA
ATOM     20  C   UNL     1      12.192  41.670  19.794  1.00  0.00     0.180 C 
ATOM     21  C   UNL     1      11.875  40.920  18.486  1.00  0.00     0.179 C 
BRANCH  17  22
ATOM     22  C   UNL     1      14.907  39.996  19.159  1.00  0.00     0.225 C 
BRANCH  22  23
ATOM     23  O   UNL     1      16.073  40.394  19.828  1.00  0.00    -0.391 OA
ATOM     24  H   UNL     1      15.783  40.929  20.613  1.00  0.00     0.210 HD
ENDBRANCH  22  23
ENDBRANCH  17  22
BRANCH  18  25
ATOM     25  O   UNL     1      13.703  43.496  19.235  1.00  0.00    -0.385 OA
ATOM     26  H   UNL     1      13.150  44.033  19.858  1.00  0.00     0.211 HD
ENDBRANCH  18  25
BRANCH  20  27
ATOM     27  O   UNL     1      11.319  42.740  20.057  1.00  0.00    -0.387 OA
ATOM     28  H   UNL     1      11.880  43.559  20.097  1.00  0.00     0.211 HD
ENDBRANCH  20  27
BRANCH  21  29
ATOM     29  C   UNL     1      10.875  41.645  17.572  1.00  0.00     0.191 C 
BRANCH  29  30
ATOM     30  O   UNL     1      11.380  42.907  17.229  1.00  0.00    -0.394 OA
ATOM     31  H   UNL     1      11.396  43.435  18.070  1.00  0.00     0.210 HD
ENDBRANCH  29  30
ENDBRANCH  21  29
ENDBRANCH   1  17
TORSDOF 13
ENDMDL
MODEL 2
REMARK VINA RESULT:    -4.062      1.735      3.437
REMARK INTER + INTRA:          -8.125
REMARK INTER:                  -5.931
REMARK INTRA:                  -2.194
REMARK UNBOUND:                -1.926
REMARK SMILES OC[C@@H]1O[C@H](O[C@]2(CO)O[C@H](CO)[C@H](O)[C@@H]2O)[C@H](O)[C@@H](O)[C@@H]1O
REMARK SMILES IDX 6 1 5 2 3 3 22 4 4 5 20 6 18 7 2 8 1 9 23 11 21 13 19 15
REMARK SMILES IDX 7 17 16 18 10 19 14 20 11 21 8 22 9 23 17 25 15 27 12 29
REMARK SMILES IDX 13 30
REMARK H PARENT 1 10 23 12 21 14 19 16 9 24 17 26 15 28 13 31
REMARK Flexibility Score: inf
ROOT
ATOM      1  O   UNL     1      13.995  42.871  16.364  1.00  0.00    -0.313 OA
ENDROOT
BRANCH   1   2
ATOM      2  C   UNL     1      15.360  42.560  16.621  1.00  0.00     0.285 C 
ATOM      3  C   UNL     1      15.699  41.348  14.580  1.00  0.00     0.178 C 
ATOM      4  C   UNL     1      16.586  42.476  13.999  1.00  0.00     0.177 C 
ATOM      5  O   UNL     1      15.706  41.323  16.007  1.00  0.00    -0.341 OA
ATOM      6  C   UNL     1      16.232  43.831  14.621  1.00  0.00     0.179 C 
ATOM      7  C   UNL     1      16.280  43.707  16.149  1.00  0.00     0.202 C 
BRANCH   3   8
ATOM      8  C   UNL     1      14.274  41.297  13.986  1.00  0.00     0.191 C 
BRANCH   8   9
ATOM      9  O   UNL     1      13.517  40.320  14.651  1.00  0.00    -0.394 OA
ATOM     10  H   UNL     1      12.626  40.310  14.210  1.00  0.00     0.210 HD
ENDBRANCH   8   9
ENDBRANCH   3   8
BRANCH   4  11
ATOM     11  O   UNL     1      16.445  42.532  12.600  1.00  0.00    -0.387 OA
ATOM     12  H   UNL     1      17.189  42.006  12.211  1.00  0.00     0.211 HD
ENDBRANCH   4  11
BRANCH   6  13
ATOM     13  O   UNL     1      17.161  44.796  14.189  1.00  0.00    -0.387 OA
ATOM     14  H   UNL     1      18.067  44.431  14.379  1.00  0.00     0.211 HD
ENDBRANCH   6  13
BRANCH   7  15
ATOM     15  O   UNL     1      15.885  44.922  16.731  1.00  0.00    -0.385 OA
ATOM     16  H   UNL     1      15.351  45.406  16.048  1.00  0.00     0.211 HD
ENDBRANCH   7  15
ENDBRANCH   1   2
BRANCH   1  17
ATOM     17  C   UNL     1      13.173  43.107  17.507  1.00  0.00     0.224 C 
ATOM     18  C   UNL     1      12.281  41.885  17.808  1.00  0.00     0.208 C 
ATOM     19  O   UNL     1      13.923  43.427  18.668  1.00  0.00    -0.337 OA
ATOM     20  C   UNL     1      12.149  41.919  19.317  1.00  0.00     0.180 C 
ATOM     21  C   UNL     1      13.354  42.760  19.779  1.00  0.00     0.179 C 
BRANCH  17  22
ATOM     22  C   UNL     1      12.307  44.338  17.150  1.00  0.00     0.225 C 
BRANCH  22  23
ATOM     23  O   UNL     1      13.056  45.524  17.137  1.00  0.00    -0.391 OA
ATOM     24  H   UNL     1      12.692  46.098  17.862  1.00  0.00     0.210 HD
ENDBRANCH  22  23
ENDBRANCH  17  22
BRANCH  18  25
ATOM     25  O   UNL     1      12.843  40.680  17.340  1.00  0.00    -0.385 OA
ATOM     26  H   UNL     1      12.110  40.041  17.143  1.00  0.00     0.211 HD
ENDBRANCH  18  25
BRANCH  20  27
ATOM     27  O   UNL     1      12.117  40.626  19.869  1.00  0.00    -0.387 OA
ATOM     28  H   UNL     1      11.275  40.204  19.553  1.00  0.00     0.211 HD
ENDBRANCH  20  27
BRANCH  21  29
ATOM     29  C   UNL     1      14.443  41.953  20.503  1.00  0.00     0.191 C 
BRANCH  29  30
ATOM     30  O   UNL     1      14.930  40.950  19.652  1.00  0.00    -0.394 OA
ATOM     31  H   UNL     1      15.304  41.417  18.861  1.00  0.00     0.210 HD
ENDBRANCH  29  30
ENDBRANCH  21  29
ENDBRANCH   1  17
TORSDOF 13
ENDMDL
MODEL 3
REMARK VINA RESULT:    -4.059      2.390      4.419
REMARK INTER + INTRA:          -8.121
REMARK INTER:                  -5.958
REMARK INTRA:                  -2.163
REMARK UNBOUND:                -1.926
REMARK SMILES OC[C@@H]1O[C@H](O[C@]2(CO)O[C@H](CO)[C@H](O)[C@@H]2O)[C@H](O)[C@@H](O)[C@@H]1O
REMARK SMILES IDX 6 1 5 2 3 3 22 4 4 5 20 6 18 7 2 8 1 9 23 11 21 13 19 15
REMARK SMILES IDX 7 17 16 18 10 19 14 20 11 21 8 22 9 23 17 25 15 27 12 29
REMARK SMILES IDX 13 30
REMARK H PARENT 1 10 23 12 21 14 19 16 9 24 17 26 15 28 13 31
REMARK Flexibility Score: inf
ROOT
ATOM      1  O   UNL     1      12.972  41.018  18.313  1.00  0.00    -0.313 OA
ENDROOT
BRANCH   1   2
ATOM      2  C   UNL     1      14.302  41.516  18.410  1.00  0.00     0.285 C 
ATOM      3  C   UNL     1      14.788  40.438  20.496  1.00  0.00     0.178 C 
ATOM      4  C   UNL     1      15.748  39.435  19.811  1.00  0.00     0.177 C 
ATOM      5  O   UNL     1      14.671  41.665  19.777  1.00  0.00    -0.341 OA
ATOM      6  C   UNL     1      15.372  39.230  18.339  1.00  0.00     0.179 C 
ATOM      7  C   UNL     1      15.285  40.598  17.651  1.00  0.00     0.202 C 
BRANCH   3   8
ATOM      8  C   UNL     1      13.420  39.837  20.884  1.00  0.00     0.191 C 
BRANCH   8   9
ATOM      9  O   UNL     1      12.575  40.850  21.364  1.00  0.00    -0.394 OA
ATOM     10  H   UNL     1      11.666  40.453  21.418  1.00  0.00     0.210 HD
ENDBRANCH   8   9
ENDBRANCH   3   8
BRANCH   4  11
ATOM     11  O   UNL     1      15.730  38.204  20.492  1.00  0.00    -0.387 OA
ATOM     12  H   UNL     1      16.360  37.601  20.021  1.00  0.00     0.211 HD
ENDBRANCH   4  11
BRANCH   6  13
ATOM     13  O   UNL     1      16.356  38.441  17.715  1.00  0.00    -0.387 OA
ATOM     14  H   UNL     1      17.095  39.055  17.452  1.00  0.00     0.211 HD
ENDBRANCH   6  13
BRANCH   7  15
ATOM     15  O   UNL     1      14.869  40.428  16.321  1.00  0.00    -0.385 OA
ATOM     16  H   UNL     1      15.684  40.228  15.790  1.00  0.00     0.211 HD
ENDBRANCH   7  15
ENDBRANCH   1   2
BRANCH   1  17
ATOM     17  C   UNL     1      12.047  41.822  17.579  1.00  0.00     0.224 C 
ATOM     18  C   UNL     1      11.174  42.667  18.529  1.00  0.00     0.208 C 
ATOM     19  O   UNL     1      12.684  42.684  16.650  1.00  0.00    -0.337 OA
ATOM     20  C   UNL     1      10.911  43.925  17.727  1.00  0.00     0.180 C 
ATOM     21  C   UNL     1      12.044  43.947  16.683  1.00  0.00     0.179 C 
BRANCH  17  22
ATOM     22  C   UNL     1      11.175  40.826  16.778  1.00  0.00     0.225 C 
BRANCH  22  23
ATOM     23  O   UNL     1      11.918  39.735  16.306  1.00  0.00    -0.391 OA
ATOM     24  H   UNL     1      12.783  39.746  16.794  1.00  0.00     0.210 HD
ENDBRANCH  22  23
ENDBRANCH  17  22
BRANCH  18  25
ATOM     25  O   UNL     1      11.812  42.929  19.758  1.00  0.00    -0.385 OA
ATOM     26  H   UNL     1      11.289  43.611  20.250  1.00  0.00     0.211 HD
ENDBRANCH  18  25
BRANCH  20  27
ATOM     27  O   UNL     1      10.875  45.069  18.545  1.00  0.00    -0.387 OA
ATOM     28  H   UNL     1      10.094  44.959  19.150  1.00  0.00     0.211 HD
ENDBRANCH  20  27
BRANCH  21  29
ATOM     29  C   UNL     1      13.093  45.045  16.917  1.00  0.00     0.191 C 
BRANCH  29  30
ATOM     30  O   UNL     1      13.560  44.978  18.237  1.00  0.00    -0.394 OA
ATOM     31  H   UNL     1      13.060  44.237  18.669  1.00  0.00     0.210 HD
ENDBRANCH  29  30
ENDBRANCH  21  29
ENDBRANCH   1  17
TORSDOF 13
ENDMDL
MODEL 4
REMARK VINA RESULT:    -4.011      1.772      2.931
REMARK INTER + INTRA:          -8.047
REMARK INTER:                  -5.866
REMARK INTRA:                  -2.181
REMARK UNBOUND:                -1.926
REMARK SMILES OC[C@@H]1O[C@H](O[C@]2(CO)O[C@H](CO)[C@H](O)[C@@H]2O)[C@H](O)[C@@H](O)[C@@H]1O
REMARK SMILES IDX 6 1 5 2 3 3 22 4 4 5 20 6 18 7 2 8 1 9 23 11 21 13 19 15
REMARK SMILES IDX 7 17 16 18 10 19 14 20 11 21 8 22 9 23 17 25 15 27 12 29
REMARK SMILES IDX 13 30
REMARK H PARENT 1 10 23 12 21 14 19 16 9 24 17 26 15 28 13 31
REMARK Flexibility Score: inf
ROOT
ATOM      1  O   UNL     1      14.944  42.463  17.295  1.00  0.00    -0.313 OA
ENDROOT
BRANCH   1   2
ATOM      2  C   UNL     1      14.654  41.781  16.080  1.00  0.00     0.285 C 
ATOM      3  C   UNL     1      16.838  42.077  15.135  1.00  0.00     0.178 C 
ATOM      4  C   UNL     1      17.173  40.576  15.313  1.00  0.00     0.177 C 
ATOM      5  O   UNL     1      15.436  42.317  15.018  1.00  0.00    -0.341 OA
ATOM      6  C   UNL     1      16.365  39.963  16.462  1.00  0.00     0.179 C 
ATOM      7  C   UNL     1      14.877  40.261  16.240  1.00  0.00     0.202 C 
BRANCH   3   8
ATOM      8  C   UNL     1      17.522  43.002  16.166  1.00  0.00     0.191 C 
BRANCH   8   9
ATOM      9  O   UNL     1      17.137  44.332  15.938  1.00  0.00    -0.394 OA
ATOM     10  H   UNL     1      17.547  44.596  15.072  1.00  0.00     0.210 HD
ENDBRANCH   8   9
ENDBRANCH   3   8
BRANCH   4  11
ATOM     11  O   UNL     1      18.551  40.411  15.547  1.00  0.00    -0.387 OA
ATOM     12  H   UNL     1      18.996  41.251  15.268  1.00  0.00     0.211 HD
ENDBRANCH   4  11
BRANCH   6  13
ATOM     13  O   UNL     1      16.576  38.572  16.487  1.00  0.00    -0.387 OA
ATOM     14  H   UNL     1      15.694  38.149  16.671  1.00  0.00     0.211 HD
ENDBRANCH   6  13
BRANCH   7  15
ATOM     15  O   UNL     1      14.133  39.769  17.324  1.00  0.00    -0.385 OA
ATOM     16  H   UNL     1      14.754  39.220  17.872  1.00  0.00     0.211 HD
ENDBRANCH   7  15
ENDBRANCH   1   2
BRANCH   1  17
ATOM     17  C   UNL     1      13.841  43.097  17.943  1.00  0.00     0.224 C 
ATOM     18  C   UNL     1      13.876  44.624  17.725  1.00  0.00     0.208 C 
ATOM     19  O   UNL     1      12.586  42.599  17.510  1.00  0.00    -0.337 OA
ATOM     20  C   UNL     1      12.409  45.002  17.701  1.00  0.00     0.180 C 
ATOM     21  C   UNL     1      11.689  43.683  17.360  1.00  0.00     0.179 C 
BRANCH  17  22
ATOM     22  C   UNL     1      13.990  42.759  19.445  1.00  0.00     0.225 C 
BRANCH  22  23
ATOM     23  O   UNL     1      14.689  41.560  19.649  1.00  0.00    -0.391 OA
ATOM     24  H   UNL     1      14.007  40.862  19.839  1.00  0.00     0.210 HD
ENDBRANCH  22  23
ENDBRANCH  17  22
BRANCH  18  25
ATOM     25  O   UNL     1      14.548  44.984  16.539  1.00  0.00    -0.385 OA
ATOM     26  H   UNL     1      14.075  45.749  16.124  1.00  0.00     0.211 HD
ENDBRANCH  18  25
BRANCH  20  27
ATOM     27  O   UNL     1      12.150  46.040  16.788  1.00  0.00    -0.387 OA
ATOM     28  H   UNL     1      11.665  45.629  16.024  1.00  0.00     0.211 HD
ENDBRANCH  20  27
BRANCH  21  29
ATOM     29  C   UNL     1      11.075  43.649  15.952  1.00  0.00     0.191 C 
BRANCH  29  30
ATOM     30  O   UNL     1      12.081  43.845  14.995  1.00  0.00    -0.394 OA
ATOM     31  H   UNL     1      11.620  44.139  14.167  1.00  0.00     0.210 HD
ENDBRANCH  29  30
ENDBRANCH  21  29
ENDBRANCH   1  17
TORSDOF 13
ENDMDL
MODEL 5
REMARK VINA RESULT:    -3.994      1.847      5.369
REMARK INTER + INTRA:          -8.022
REMARK INTER:                  -6.067
REMARK INTRA:                  -1.954
REMARK UNBOUND:                -1.926
REMARK SMILES OC[C@@H]1O[C@H](O[C@]2(CO)O[C@H](CO)[C@H](O)[C@@H]2O)[C@H](O)[C@@H](O)[C@@H]1O
REMARK SMILES IDX 6 1 5 2 3 3 22 4 4 5 20 6 18 7 2 8 1 9 23 11 21 13 19 15
REMARK SMILES IDX 7 17 16 18 10 19 14 20 11 21 8 22 9 23 17 25 15 27 12 29
REMARK SMILES IDX 13 30
REMARK H PARENT 1 10 23 12 21 14 19 16 9 24 17 26 15 28 13 31
REMARK Flexibility Score: inf
ROOT
ATOM      1  O   UNL     1      14.022  42.522  16.259  1.00  0.00    -0.313 OA
ENDROOT
BRANCH   1   2
ATOM      2  C   UNL     1      14.560  43.233  17.368  1.00  0.00     0.285 C 
ATOM      3  C   UNL     1      12.917  44.979  17.328  1.00  0.00     0.178 C 
ATOM      4  C   UNL     1      12.256  44.455  18.626  1.00  0.00     0.177 C 
ATOM      5  O   UNL     1      14.296  44.626  17.232  1.00  0.00    -0.341 OA
ATOM      6  C   UNL     1      12.501  42.952  18.801  1.00  0.00     0.179 C 
ATOM      7  C   UNL     1      14.005  42.676  18.697  1.00  0.00     0.202 C 
BRANCH   3   8
ATOM      8  C   UNL     1      12.124  44.657  16.043  1.00  0.00     0.191 C 
BRANCH   8   9
ATOM      9  O   UNL     1      11.068  45.570  15.895  1.00  0.00    -0.394 OA
ATOM     10  H   UNL     1      10.990  45.750  14.921  1.00  0.00     0.210 HD
ENDBRANCH   8   9
ENDBRANCH   3   8
BRANCH   4  11
ATOM     11  O   UNL     1      10.875  44.724  18.610  1.00  0.00    -0.387 OA
ATOM     12  H   UNL     1      10.409  43.851  18.670  1.00  0.00     0.211 HD
ENDBRANCH   4  11
BRANCH   6  13
ATOM     13  O   UNL     1      12.025  42.549  20.063  1.00  0.00    -0.387 OA
ATOM     14  H   UNL     1      11.679  41.622  19.959  1.00  0.00     0.211 HD
ENDBRANCH   6  13
BRANCH   7  15
ATOM     15  O   UNL     1      14.235  41.293  18.781  1.00  0.00    -0.385 OA
ATOM     16  H   UNL     1      14.719  41.032  17.953  1.00  0.00     0.211 HD
ENDBRANCH   7  15
ENDBRANCH   1   2
BRANCH   1  17
ATOM     17  C   UNL     1      14.946  41.745  15.497  1.00  0.00     0.224 C 
ATOM     18  C   UNL     1      15.226  42.404  14.131  1.00  0.00     0.208 C 
ATOM     19  O   UNL     1      16.177  41.537  16.169  1.00  0.00    -0.337 OA
ATOM     20  C   UNL     1      16.665  42.017  13.851  1.00  0.00     0.180 C 
ATOM     21  C   UNL     1      17.236  41.674  15.240  1.00  0.00     0.179 C 
BRANCH  17  22
ATOM     22  C   UNL     1      14.272  40.365  15.308  1.00  0.00     0.225 C 
BRANCH  22  23
ATOM     23  O   UNL     1      14.475  39.523  16.410  1.00  0.00    -0.391 OA
ATOM     24  H   UNL     1      15.454  39.369  16.476  1.00  0.00     0.210 HD
ENDBRANCH  22  23
ENDBRANCH  17  22
BRANCH  18  25
ATOM     25  O   UNL     1      15.035  43.800  14.157  1.00  0.00    -0.385 OA
ATOM     26  H   UNL     1      14.396  44.021  14.882  1.00  0.00     0.211 HD
ENDBRANCH  18  25
BRANCH  20  27
ATOM     27  O   UNL     1      17.364  43.044  13.191  1.00  0.00    -0.387 OA
ATOM     28  H   UNL     1      16.685  43.575  12.697  1.00  0.00     0.211 HD
ENDBRANCH  20  27
BRANCH  21  29
ATOM     29  C   UNL     1      18.254  42.695  15.771  1.00  0.00     0.191 C 
BRANCH  29  30
ATOM     30  O   UNL     1      17.624  43.933  15.960  1.00  0.00    -0.394 OA
ATOM     31  H   UNL     1      16.686  43.814  15.660  1.00  0.00     0.210 HD
ENDBRANCH  29  30
ENDBRANCH  21  29
ENDBRANCH   1  17
TORSDOF 13
ENDMDL
MODEL 6
REMARK VINA RESULT:    -3.976      1.987      2.724
REMARK INTER + INTRA:          -7.994
REMARK INTER:                  -5.817
REMARK INTRA:                  -2.177
REMARK UNBOUND:                -1.926
REMARK SMILES OC[C@@H]1O[C@H](O[C@]2(CO)O[C@H](CO)[C@H](O)[C@@H]2O)[C@H](O)[C@@H](O)[C@@H]1O
REMARK SMILES IDX 6 1 5 2 3 3 22 4 4 5 20 6 18 7 2 8 1 9 23 11 21 13 19 15
REMARK SMILES IDX 7 17 16 18 10 19 14 20 11 21 8 22 9 23 17 25 15 27 12 29
REMARK SMILES IDX 13 30
REMARK H PARENT 1 10 23 12 21 14 19 16 9 24 17 26 15 28 13 31
REMARK Flexibility Score: inf
ROOT
ATOM      1  O   UNL     1      15.162  42.252  16.127  1.00  0.00    -0.313 OA
ENDROOT
BRANCH   1   2
ATOM      2  C   UNL     1      14.678  42.483  14.809  1.00  0.00     0.285 C 
ATOM      3  C   UNL     1      16.737  43.383  13.973  1.00  0.00     0.178 C 
ATOM      4  C   UNL     1      16.999  42.121  13.116  1.00  0.00     0.177 C 
ATOM      5  O   UNL     1      15.349  43.596  14.228  1.00  0.00    -0.341 OA
ATOM      6  C   UNL     1      16.308  40.892  13.719  1.00  0.00     0.179 C 
ATOM      7  C   UNL     1      14.826  41.213  13.943  1.00  0.00     0.202 C 
BRANCH   3   8
ATOM      8  C   UNL     1      17.602  43.470  15.249  1.00  0.00     0.191 C 
BRANCH   8   9
ATOM      9  O   UNL     1      17.174  44.548  16.040  1.00  0.00    -0.394 OA
ATOM     10  H   UNL     1      17.285  44.261  16.985  1.00  0.00     0.210 HD
ENDBRANCH   8   9
ENDBRANCH   3   8
BRANCH   4  11
ATOM     11  O   UNL     1      18.383  41.891  13.001  1.00  0.00    -0.387 OA
ATOM     12  H   UNL     1      18.564  41.001  13.397  1.00  0.00     0.211 HD
ENDBRANCH   4  11
BRANCH   6  13
ATOM     13  O   UNL     1      16.436  39.807  12.833  1.00  0.00    -0.387 OA
ATOM     14  H   UNL     1      15.819  39.981  12.072  1.00  0.00     0.211 HD
ENDBRANCH   6  13
BRANCH   7  15
ATOM     15  O   UNL     1      14.198  40.121  14.564  1.00  0.00    -0.385 OA
ATOM     16  H   UNL     1      13.589  39.720  13.889  1.00  0.00     0.211 HD
ENDBRANCH   7  15
ENDBRANCH   1   2
BRANCH   1  17
ATOM     17  C   UNL     1      14.188  42.270  17.171  1.00  0.00     0.224 C 
ATOM     18  C   UNL     1      14.171  43.636  17.887  1.00  0.00     0.208 C 
ATOM     19  O   UNL     1      12.880  41.976  16.710  1.00  0.00    -0.337 OA
ATOM     20  C   UNL     1      12.720  43.792  18.297  1.00  0.00     0.180 C 
ATOM     21  C   UNL     1      11.961  42.840  17.352  1.00  0.00     0.179 C 
BRANCH  17  22
ATOM     22  C   UNL     1      14.607  41.148  18.150  1.00  0.00     0.225 C 
BRANCH  22  23
ATOM     23  O   UNL     1      14.821  39.927  17.494  1.00  0.00    -0.391 OA
ATOM     24  H   UNL     1      14.611  40.078  16.535  1.00  0.00     0.210 HD
ENDBRANCH  22  23
ENDBRANCH  17  22
BRANCH  18  25
ATOM     25  O   UNL     1      14.616  44.685  17.058  1.00  0.00    -0.385 OA
ATOM     26  H   UNL     1      13.828  45.134  16.660  1.00  0.00     0.211 HD
ENDBRANCH  18  25
BRANCH  20  27
ATOM     27  O   UNL     1      12.293  45.129  18.213  1.00  0.00    -0.387 OA
ATOM     28  H   UNL     1      11.627  45.259  18.938  1.00  0.00     0.211 HD
ENDBRANCH  20  27
BRANCH  21  29
ATOM     29  C   UNL     1      11.106  43.554  16.295  1.00  0.00     0.191 C 
BRANCH  29  30
ATOM     30  O   UNL     1      11.911  44.426  15.547  1.00  0.00    -0.394 OA
ATOM     31  H   UNL     1      11.524  44.443  14.634  1.00  0.00     0.210 HD
ENDBRANCH  29  30
ENDBRANCH  21  29
ENDBRANCH   1  17
TORSDOF 13
ENDMDL
MODEL 7
REMARK VINA RESULT:    -3.934      1.478      5.670
REMARK INTER + INTRA:          -7.929
REMARK INTER:                  -5.750
REMARK INTRA:                  -2.179
REMARK UNBOUND:                -1.926
REMARK SMILES OC[C@@H]1O[C@H](O[C@]2(CO)O[C@H](CO)[C@H](O)[C@@H]2O)[C@H](O)[C@@H](O)[C@@H]1O
REMARK SMILES IDX 6 1 5 2 3 3 22 4 4 5 20 6 18 7 2 8 1 9 23 11 21 13 19 15
REMARK SMILES IDX 7 17 16 18 10 19 14 20 11 21 8 22 9 23 17 25 15 27 12 29
REMARK SMILES IDX 13 30
REMARK H PARENT 1 10 23 12 21 14 19 16 9 24 17 26 15 28 13 31
REMARK Flexibility Score: inf
ROOT
ATOM      1  O   UNL     1      14.675  42.230  17.630  1.00  0.00    -0.313 OA
ENDROOT
BRANCH   1   2
ATOM      2  C   UNL     1      13.597  41.310  17.507  1.00  0.00     0.285 C 
ATOM      3  C   UNL     1      14.014  40.201  19.591  1.00  0.00     0.178 C 
ATOM      4  C   UNL     1      12.750  40.824  20.233  1.00  0.00     0.177 C 
ATOM      5  O   UNL     1      13.913  40.092  18.172  1.00  0.00    -0.341 OA
ATOM      6  C   UNL     1      12.386  42.151  19.556  1.00  0.00     0.179 C 
ATOM      7  C   UNL     1      12.287  41.928  18.043  1.00  0.00     0.202 C 
BRANCH   3   8
ATOM      8  C   UNL     1      15.339  40.850  20.051  1.00  0.00     0.191 C 
BRANCH   8   9
ATOM      9  O   UNL     1      16.417  40.256  19.375  1.00  0.00    -0.394 OA
ATOM     10  H   UNL     1      16.023  39.579  18.763  1.00  0.00     0.210 HD
ENDBRANCH   8   9
ENDBRANCH   3   8
BRANCH   4  11
ATOM     11  O   UNL     1      12.953  41.022  21.611  1.00  0.00    -0.387 OA
ATOM     12  H   UNL     1      13.930  41.121  21.750  1.00  0.00     0.211 HD
ENDBRANCH   4  11
BRANCH   6  13
ATOM     13  O   UNL     1      11.150  42.602  20.056  1.00  0.00    -0.387 OA
ATOM     14  H   UNL     1      10.506  42.582  19.297  1.00  0.00     0.211 HD
ENDBRANCH   6  13
BRANCH   7  15
ATOM     15  O   UNL     1      12.027  43.151  17.404  1.00  0.00    -0.385 OA
ATOM     16  H   UNL     1      11.428  43.667  18.007  1.00  0.00     0.211 HD
ENDBRANCH   7  15
ENDBRANCH   1   2
BRANCH   1  17
ATOM     17  C   UNL     1      15.214  42.741  16.410  1.00  0.00     0.224 C 
ATOM     18  C   UNL     1      16.573  42.087  16.089  1.00  0.00     0.208 C 
ATOM     19  O   UNL     1      14.344  42.560  15.305  1.00  0.00    -0.337 OA
ATOM     20  C   UNL     1      16.592  42.057  14.574  1.00  0.00     0.180 C 
ATOM     21  C   UNL     1      15.107  42.164  14.180  1.00  0.00     0.179 C 
BRANCH  17  22
ATOM     22  C   UNL     1      15.381  44.263  16.634  1.00  0.00     0.225 C 
BRANCH  22  23
ATOM     23  O   UNL     1      14.337  44.802  17.400  1.00  0.00    -0.391 OA
ATOM     24  H   UNL     1      13.831  44.033  17.774  1.00  0.00     0.210 HD
ENDBRANCH  22  23
ENDBRANCH  17  22
BRANCH  18  25
ATOM     25  O   UNL     1      16.702  40.804  16.659  1.00  0.00    -0.385 OA
ATOM     26  H   UNL     1      15.828  40.537  17.043  1.00  0.00     0.211 HD
ENDBRANCH  18  25
BRANCH  20  27
ATOM     27  O   UNL     1      17.225  40.902  14.081  1.00  0.00    -0.387 OA
ATOM     28  H   UNL     1      16.533  40.391  13.584  1.00  0.00     0.211 HD
ENDBRANCH  20  27
BRANCH  21  29
ATOM     29  C   UNL     1      14.518  40.874  13.591  1.00  0.00     0.191 C 
BRANCH  29  30
ATOM     30  O   UNL     1      14.647  39.830  14.519  1.00  0.00    -0.394 OA
ATOM     31  H   UNL     1      14.727  40.261  15.409  1.00  0.00     0.210 HD
ENDBRANCH  29  30
ENDBRANCH  21  29
ENDBRANCH   1  17
TORSDOF 13
ENDMDL
MODEL 8
REMARK VINA RESULT:    -3.861      9.728     11.705
REMARK INTER + INTRA:          -7.818
REMARK INTER:                  -5.840
REMARK INTRA:                  -1.978
REMARK UNBOUND:                -1.926
REMARK SMILES OC[C@@H]1O[C@H](O[C@]2(CO)O[C@H](CO)[C@H](O)[C@@H]2O)[C@H](O)[C@@H](O)[C@@H]1O
REMARK SMILES IDX 6 1 5 2 3 3 22 4 4 5 20 6 18 7 2 8 1 9 23 11 21 13 19 15
REMARK SMILES IDX 7 17 16 18 10 19 14 20 11 21 8 22 9 23 17 25 15 27 12 29
REMARK SMILES IDX 13 30
REMARK H PARENT 1 10 23 12 21 14 19 16 9 24 17 26 15 28 13 31
REMARK Flexibility Score: inf
ROOT
ATOM      1  O   UNL     1      25.195  37.443  20.276  1.00  0.00    -0.313 OA
ENDROOT
BRANCH   1   2
ATOM      2  C   UNL     1      26.032  36.499  19.618  1.00  0.00     0.285 C 
ATOM      3  C   UNL     1      24.493  36.044  17.836  1.00  0.00     0.178 C 
ATOM      4  C   UNL     1      25.380  36.793  16.812  1.00  0.00     0.177 C 
ATOM      5  O   UNL     1      25.240  35.531  18.938  1.00  0.00    -0.341 OA
ATOM      6  C   UNL     1      26.237  37.861  17.501  1.00  0.00     0.179 C 
ATOM      7  C   UNL     1      27.008  37.212  18.657  1.00  0.00     0.202 C 
BRANCH   3   8
ATOM      8  C   UNL     1      23.237  36.829  18.276  1.00  0.00     0.191 C 
BRANCH   8   9
ATOM      9  O   UNL     1      22.540  36.101  19.253  1.00  0.00    -0.394 OA
ATOM     10  H   UNL     1      22.119  35.335  18.781  1.00  0.00     0.210 HD
ENDBRANCH   8   9
ENDBRANCH   3   8
BRANCH   4  11
ATOM     11  O   UNL     1      24.579  37.382  15.816  1.00  0.00    -0.387 OA
ATOM     12  H   UNL     1      24.919  37.061  14.942  1.00  0.00     0.211 HD
ENDBRANCH   4  11
BRANCH   6  13
ATOM     13  O   UNL     1      27.139  38.405  16.568  1.00  0.00    -0.387 OA
ATOM     14  H   UNL     1      26.704  38.341  15.675  1.00  0.00     0.211 HD
ENDBRANCH   6  13
BRANCH   7  15
ATOM     15  O   UNL     1      27.740  38.195  19.343  1.00  0.00    -0.385 OA
ATOM     16  H   UNL     1      27.542  38.077  20.309  1.00  0.00     0.211 HD
ENDBRANCH   7  15
ENDBRANCH   1   2
BRANCH   1  17
ATOM     17  C   UNL     1      24.889  37.171  21.645  1.00  0.00     0.224 C 
ATOM     18  C   UNL     1      24.756  38.480  22.451  1.00  0.00     0.208 C 
ATOM     19  O   UNL     1      23.704  36.410  21.803  1.00  0.00    -0.337 OA
ATOM     20  C   UNL     1      23.715  38.134  23.497  1.00  0.00     0.180 C 
ATOM     21  C   UNL     1      22.969  36.927  22.898  1.00  0.00     0.179 C 
BRANCH  17  22
ATOM     22  C   UNL     1      26.070  36.324  22.174  1.00  0.00     0.225 C 
BRANCH  22  23
ATOM     23  O   UNL     1      26.915  37.062  23.016  1.00  0.00    -0.391 OA
ATOM     24  H   UNL     1      27.846  36.810  22.777  1.00  0.00     0.210 HD
ENDBRANCH  22  23
ENDBRANCH  17  22
BRANCH  18  25
ATOM     25  O   UNL     1      24.375  39.572  21.646  1.00  0.00    -0.385 OA
ATOM     26  H   UNL     1      24.211  39.248  20.724  1.00  0.00     0.211 HD
ENDBRANCH  18  25
BRANCH  20  27
ATOM     27  O   UNL     1      22.879  39.228  23.784  1.00  0.00    -0.387 OA
ATOM     28  H   UNL     1      22.480  39.513  22.920  1.00  0.00     0.211 HD
ENDBRANCH  20  27
BRANCH  21  29
ATOM     29  C   UNL     1      21.533  37.235  22.449  1.00  0.00     0.191 C 
BRANCH  29  30
ATOM     30  O   UNL     1      21.558  38.101  21.346  1.00  0.00    -0.394 OA
ATOM     31  H   UNL     1      20.807  37.823  20.760  1.00  0.00     0.210 HD
ENDBRANCH  29  30
ENDBRANCH  21  29
ENDBRANCH   1  17
TORSDOF 13
ENDMDL
MODEL 9
REMARK VINA RESULT:    -3.817      1.557      5.575
REMARK INTER + INTRA:          -7.751
REMARK INTER:                  -5.563
REMARK INTRA:                  -2.188
REMARK UNBOUND:                -1.926
REMARK SMILES OC[C@@H]1O[C@H](O[C@]2(CO)O[C@H](CO)[C@H](O)[C@@H]2O)[C@H](O)[C@@H](O)[C@@H]1O
REMARK SMILES IDX 6 1 5 2 3 3 22 4 4 5 20 6 18 7 2 8 1 9 23 11 21 13 19 15
REMARK SMILES IDX 7 17 16 18 10 19 14 20 11 21 8 22 9 23 17 25 15 27 12 29
REMARK SMILES IDX 13 30
REMARK H PARENT 1 10 23 12 21 14 19 16 9 24 17 26 15 28 13 31
REMARK Flexibility Score: inf
ROOT
ATOM      1  O   UNL     1      13.689  42.516  16.348  1.00  0.00    -0.313 OA
ENDROOT
BRANCH   1   2
ATOM      2  C   UNL     1      14.224  41.641  17.335  1.00  0.00     0.285 C 
ATOM      3  C   UNL     1      13.416  42.902  19.208  1.00  0.00     0.178 C 
ATOM      4  C   UNL     1      12.359  41.821  19.543  1.00  0.00     0.177 C 
ATOM      5  O   UNL     1      14.544  42.371  18.514  1.00  0.00    -0.341 OA
ATOM      6  C   UNL     1      11.971  41.023  18.292  1.00  0.00     0.179 C 
ATOM      7  C   UNL     1      13.244  40.485  17.629  1.00  0.00     0.202 C 
BRANCH   3   8
ATOM      8  C   UNL     1      12.835  44.163  18.531  1.00  0.00     0.191 C 
BRANCH   8   9
ATOM      9  O   UNL     1      13.878  45.026  18.161  1.00  0.00    -0.394 OA
ATOM     10  H   UNL     1      14.175  45.478  18.995  1.00  0.00     0.210 HD
ENDBRANCH   8   9
ENDBRANCH   3   8
BRANCH   4  11
ATOM     11  O   UNL     1      11.218  42.417  20.111  1.00  0.00    -0.387 OA
ATOM     12  H   UNL     1      10.495  42.364  19.435  1.00  0.00     0.211 HD
ENDBRANCH   4  11
BRANCH   6  13
ATOM     13  O   UNL     1      11.135  39.954  18.665  1.00  0.00    -0.387 OA
ATOM     14  H   UNL     1      10.442  39.869  17.957  1.00  0.00     0.211 HD
ENDBRANCH   6  13
BRANCH   7  15
ATOM     15  O   UNL     1      12.907  39.815  16.441  1.00  0.00    -0.385 OA
ATOM     16  H   UNL     1      12.206  39.151  16.676  1.00  0.00     0.211 HD
ENDBRANCH   7  15
ENDBRANCH   1   2
BRANCH   1  17
ATOM     17  C   UNL     1      14.369  42.545  15.092  1.00  0.00     0.224 C 
ATOM     18  C   UNL     1      15.257  43.801  14.974  1.00  0.00     0.208 C 
ATOM     19  O   UNL     1      15.167  41.394  14.871  1.00  0.00    -0.337 OA
ATOM     20  C   UNL     1      16.416  43.324  14.123  1.00  0.00     0.180 C 
ATOM     21  C   UNL     1      16.392  41.792  14.285  1.00  0.00     0.179 C 
BRANCH  17  22
ATOM     22  C   UNL     1      13.256  42.562  14.017  1.00  0.00     0.225 C 
BRANCH  22  23
ATOM     23  O   UNL     1      12.077  41.951  14.468  1.00  0.00    -0.391 OA
ATOM     24  H   UNL     1      12.307  41.472  15.307  1.00  0.00     0.210 HD
ENDBRANCH  22  23
ENDBRANCH  17  22
BRANCH  18  25
ATOM     25  O   UNL     1      15.670  44.289  16.230  1.00  0.00    -0.385 OA
ATOM     26  H   UNL     1      16.653  44.415  16.215  1.00  0.00     0.211 HD
ENDBRANCH  18  25
BRANCH  20  27
ATOM     27  O   UNL     1      17.630  43.915  14.514  1.00  0.00    -0.387 OA
ATOM     28  H   UNL     1      17.434  44.455  15.324  1.00  0.00     0.211 HD
ENDBRANCH  20  27
BRANCH  21  29
ATOM     29  C   UNL     1      17.560  41.229  15.109  1.00  0.00     0.191 C 
BRANCH  29  30
ATOM     30  O   UNL     1      17.594  41.853  16.365  1.00  0.00    -0.394 OA
ATOM     31  H   UNL     1      18.532  41.782  16.682  1.00  0.00     0.210 HD
ENDBRANCH  29  30
ENDBRANCH  21  29
ENDBRANCH   1  17
TORSDOF 13
ENDMDL
