MODEL 1
REMARK VINA RESULT:    -5.066      0.000      0.000
REMARK INTER + INTRA:          -5.941
REMARK INTER:                  -5.806
REMARK INTRA:                  -0.135
REMARK UNBOUND:                -0.135
REMARK SMILES O=C([O-])C=Cc1ccc(O)cc1
REMARK SMILES IDX 6 1 7 2 12 3 8 4 11 5 9 6 5 7 4 8 2 9 1 10 3 11 10 12
REMARK H PARENT 10 13
REMARK Flexibility Score: inf
ROOT
ATOM      1  C   UNL     1       5.757  10.871   6.601  1.00  0.00    -0.025 A 
ATOM      2  C   UNL     1       5.239  11.224   5.343  1.00  0.00     0.012 A 
ATOM      3  C   UNL     1       7.155  10.873   6.785  1.00  0.00     0.012 A 
ATOM      4  C   UNL     1       6.093  11.595   4.300  1.00  0.00     0.047 A 
ATOM      5  C   UNL     1       8.006  11.245   5.739  1.00  0.00     0.047 A 
ATOM      6  C   UNL     1       7.479  11.610   4.497  1.00  0.00     0.115 A 
ENDROOT
BRANCH   1   7
ATOM      7  C   UNL     1       4.811  10.473   7.673  1.00  0.00     0.010 C 
ATOM      8  C   UNL     1       4.142  11.347   8.438  1.00  0.00     0.025 C 
BRANCH   8   9
ATOM      9  C   UNL     1       3.204  10.906   9.483  1.00  0.00     0.064 C 
ATOM     10  O   UNL     1       3.624  10.200  10.436  1.00  0.00    -0.545 OA
ATOM     11  O   UNL     1       1.859  11.254   9.432  1.00  0.00    -0.545 OA
ENDBRANCH   8   9
ENDBRANCH   1   7
BRANCH   6  12
ATOM     12  O   UNL     1       8.340  11.978   3.466  1.00  0.00    -0.508 OA
ATOM     13  H   UNL     1       8.010  12.500   2.663  1.00  0.00     0.293 HD
ENDBRANCH   6  12
TORSDOF 3
ENDMDL
MODEL 2
REMARK VINA RESULT:    -4.921      1.179      5.669
REMARK INTER + INTRA:          -5.775
REMARK INTER:                  -5.636
REMARK INTRA:                  -0.139
REMARK UNBOUND:                -0.135
REMARK SMILES O=C([O-])C=Cc1ccc(O)cc1
REMARK SMILES IDX 6 1 7 2 12 3 8 4 11 5 9 6 5 7 4 8 2 9 1 10 3 11 10 12
REMARK H PARENT 10 13
REMARK Flexibility Score: inf
ROOT
ATOM      1  C   UNL     1       5.235  10.942   7.634  1.00  0.00    -0.025 A 
ATOM      2  C   UNL     1       4.186  10.172   7.103  1.00  0.00     0.012 A 
ATOM      3  C   UNL     1       4.995  11.710   8.792  1.00  0.00     0.012 A 
ATOM      4  C   UNL     1       2.934  10.148   7.726  1.00  0.00     0.047 A 
ATOM      5  C   UNL     1       3.741  11.683   9.411  1.00  0.00     0.047 A 
ATOM      6  C   UNL     1       2.710  10.902   8.884  1.00  0.00     0.115 A 
ENDROOT
BRANCH   1   7
ATOM      7  C   UNL     1       6.542  10.943   6.931  1.00  0.00     0.010 C 
ATOM      8  C   UNL     1       6.786  11.643   5.815  1.00  0.00     0.025 C 
BRANCH   8   9
ATOM      9  C   UNL     1       8.104  11.624   5.158  1.00  0.00     0.064 C 
ATOM     10  O   UNL     1       9.117  11.264   5.811  1.00  0.00    -0.545 OA
ATOM     11  O   UNL     1       8.247  12.000   3.827  1.00  0.00    -0.545 OA
ENDBRANCH   8   9
ENDBRANCH   1   7
BRANCH   6  12
ATOM     12  O   UNL     1       1.468  10.886   9.513  1.00  0.00    -0.508 OA
ATOM     13  H   UNL     1       1.367  10.593  10.478  1.00  0.00     0.293 HD
ENDBRANCH   6  12
TORSDOF 3
ENDMDL
MODEL 3
REMARK VINA RESULT:    -4.892      1.200      5.834
REMARK INTER + INTRA:          -5.742
REMARK INTER:                  -5.608
REMARK INTRA:                  -0.134
REMARK UNBOUND:                -0.135
REMARK SMILES O=C([O-])C=Cc1ccc(O)cc1
REMARK SMILES IDX 6 1 7 2 12 3 8 4 11 5 9 6 5 7 4 8 2 9 1 10 3 11 10 12
REMARK H PARENT 10 13
REMARK Flexibility Score: inf
ROOT
ATOM      1  C   UNL     1       5.074  10.920   7.376  1.00  0.00    -0.025 A 
ATOM      2  C   UNL     1       4.940  11.674   8.554  1.00  0.00     0.012 A 
ATOM      3  C   UNL     1       3.971  10.170   6.919  1.00  0.00     0.012 A 
ATOM      4  C   UNL     1       3.726  11.700   9.248  1.00  0.00     0.047 A 
ATOM      5  C   UNL     1       2.759  10.199   7.617  1.00  0.00     0.047 A 
ATOM      6  C   UNL     1       2.631  10.965   8.779  1.00  0.00     0.115 A 
ENDROOT
BRANCH   1   7
ATOM      7  C   UNL     1       6.385  10.915   6.681  1.00  0.00     0.010 C 
ATOM      8  C   UNL     1       6.660  11.663   5.603  1.00  0.00     0.025 C 
BRANCH   8   9
ATOM      9  C   UNL     1       7.981  11.634   4.954  1.00  0.00     0.064 C 
ATOM     10  O   UNL     1       8.077  11.919   3.732  1.00  0.00    -0.545 OA
ATOM     11  O   UNL     1       9.124  11.294   5.668  1.00  0.00    -0.545 OA
ENDBRANCH   8   9
ENDBRANCH   1   7
BRANCH   6  12
ATOM     12  O   UNL     1       1.417  10.983   9.461  1.00  0.00    -0.508 OA
ATOM     13  H   UNL     1       0.974  10.128   9.775  1.00  0.00     0.293 HD
ENDBRANCH   6  12
TORSDOF 3
ENDMDL
MODEL 4
REMARK VINA RESULT:    -4.824      1.243      2.246
REMARK INTER + INTRA:          -5.664
REMARK INTER:                  -5.522
REMARK INTRA:                  -0.141
REMARK UNBOUND:                -0.135
REMARK SMILES O=C([O-])C=Cc1ccc(O)cc1
REMARK SMILES IDX 6 1 7 2 12 3 8 4 11 5 9 6 5 7 4 8 2 9 1 10 3 11 10 12
REMARK H PARENT 10 13
REMARK Flexibility Score: inf
ROOT
ATOM      1  C   UNL     1       5.290  10.798   8.010  1.00  0.00    -0.025 A 
ATOM      2  C   UNL     1       6.637  10.949   8.382  1.00  0.00     0.012 A 
ATOM      3  C   UNL     1       4.970  10.706   6.640  1.00  0.00     0.012 A 
ATOM      4  C   UNL     1       7.644  10.983   7.412  1.00  0.00     0.047 A 
ATOM      5  C   UNL     1       5.980  10.740   5.673  1.00  0.00     0.047 A 
ATOM      6  C   UNL     1       7.318  10.875   6.055  1.00  0.00     0.115 A 
ENDROOT
BRANCH   1   7
ATOM      7  C   UNL     1       4.257  10.779   9.075  1.00  0.00     0.010 C 
ATOM      8  C   UNL     1       2.985  11.156   8.885  1.00  0.00     0.025 C 
BRANCH   8   9
ATOM      9  C   UNL     1       1.990  11.110   9.969  1.00  0.00     0.064 C 
ATOM     10  O   UNL     1       1.197  12.074  10.125  1.00  0.00    -0.545 OA
ATOM     11  O   UNL     1       1.914  10.017  10.826  1.00  0.00    -0.545 OA
ENDBRANCH   8   9
ENDBRANCH   1   7
BRANCH   6  12
ATOM     12  O   UNL     1       8.312  10.906   5.080  1.00  0.00    -0.508 OA
ATOM     13  H   UNL     1       9.289  11.020   5.324  1.00  0.00     0.293 HD
ENDBRANCH   6  12
TORSDOF 3
ENDMDL
MODEL 5
REMARK VINA RESULT:    -4.629      1.380      1.814
REMARK INTER + INTRA:          -5.440
REMARK INTER:                  -5.305
REMARK INTRA:                  -0.135
REMARK UNBOUND:                -0.135
REMARK SMILES O=C([O-])C=Cc1ccc(O)cc1
REMARK SMILES IDX 6 1 7 2 12 3 8 4 11 5 9 6 5 7 4 8 2 9 1 10 3 11 10 12
REMARK H PARENT 10 13
REMARK Flexibility Score: inf
ROOT
ATOM      1  C   UNL     1       6.700  11.141   6.057  1.00  0.00    -0.025 A 
ATOM      2  C   UNL     1       6.601  11.947   4.910  1.00  0.00     0.012 A 
ATOM      3  C   UNL     1       7.967  10.946   6.643  1.00  0.00     0.012 A 
ATOM      4  C   UNL     1       7.736  12.566   4.374  1.00  0.00     0.047 A 
ATOM      5  C   UNL     1       9.099  11.566   6.104  1.00  0.00     0.047 A 
ATOM      6  C   UNL     1       8.988  12.379   4.973  1.00  0.00     0.115 A 
ENDROOT
BRANCH   1   7
ATOM      7  C   UNL     1       5.470  10.497   6.581  1.00  0.00     0.010 C 
ATOM      8  C   UNL     1       5.026  10.651   7.836  1.00  0.00     0.025 C 
BRANCH   8   9
ATOM      9  C   UNL     1       3.792  10.002   8.309  1.00  0.00     0.064 C 
ATOM     10  O   UNL     1       2.774  10.703   8.547  1.00  0.00    -0.545 OA
ATOM     11  O   UNL     1       3.733   8.626   8.499  1.00  0.00    -0.545 OA
ENDBRANCH   8   9
ENDBRANCH   1   7
BRANCH   6  12
ATOM     12  O   UNL     1      10.124  12.989   4.449  1.00  0.00    -0.508 OA
ATOM     13  H   UNL     1      10.169  13.992   4.308  1.00  0.00     0.293 HD
ENDBRANCH   6  12
TORSDOF 3
ENDMDL
MODEL 6
REMARK VINA RESULT:    -3.972     17.339     18.289
REMARK INTER + INTRA:          -4.688
REMARK INTER:                  -4.545
REMARK INTRA:                  -0.143
REMARK UNBOUND:                -0.135
REMARK SMILES O=C([O-])C=Cc1ccc(O)cc1
REMARK SMILES IDX 6 1 7 2 12 3 8 4 11 5 9 6 5 7 4 8 2 9 1 10 3 11 10 12
REMARK H PARENT 10 13
REMARK Flexibility Score: inf
ROOT
ATOM      1  C   UNL     1      -6.198  10.449  -7.277  1.00  0.00    -0.025 A 
ATOM      2  C   UNL     1      -5.807  10.123  -8.588  1.00  0.00     0.012 A 
ATOM      3  C   UNL     1      -5.360  11.280  -6.505  1.00  0.00     0.012 A 
ATOM      4  C   UNL     1      -4.621  10.634  -9.124  1.00  0.00     0.047 A 
ATOM      5  C   UNL     1      -4.175  11.788  -7.046  1.00  0.00     0.047 A 
ATOM      6  C   UNL     1      -3.803  11.471  -8.355  1.00  0.00     0.115 A 
ENDROOT
BRANCH   1   7
ATOM      7  C   UNL     1      -7.459   9.873  -6.748  1.00  0.00     0.010 C 
ATOM      8  C   UNL     1      -8.101  10.348  -5.672  1.00  0.00     0.025 C 
BRANCH   8   9
ATOM      9  C   UNL     1      -9.358   9.752  -5.190  1.00  0.00     0.064 C 
ATOM     10  O   UNL     1      -9.746   8.654  -5.667  1.00  0.00    -0.545 OA
ATOM     11  O   UNL     1     -10.124  10.384  -4.218  1.00  0.00    -0.545 OA
ENDBRANCH   8   9
ENDBRANCH   1   7
BRANCH   6  12
ATOM     12  O   UNL     1      -2.621  11.986  -8.879  1.00  0.00    -0.508 OA
ATOM     13  H   UNL     1      -1.867  12.298  -8.277  1.00  0.00     0.293 HD
ENDBRANCH   6  12
TORSDOF 3
ENDMDL
