MODEL 1
REMARK VINA RESULT:    -6.620      0.000      0.000
REMARK INTER + INTRA:          -9.716
REMARK INTER:                  -8.942
REMARK INTRA:                  -0.773
REMARK UNBOUND:                -0.773
REMARK SMILES CC(=O)CCC=C(C)CCC=C(C)C
REMARK SMILES IDX 7 1 6 2 8 3 9 4 10 5 11 6 13 7 12 8 14 9 5 10 4 11 2 12 3 13
REMARK SMILES IDX 1 14
REMARK H PARENT
REMARK Flexibility Score: inf
ROOT
ATOM      1  C   UNL     1      -4.456  29.149  29.008  1.00  0.00    -0.077 C 
ATOM      2  C   UNL     1      -3.785  28.947  27.851  1.00  0.00    -0.028 C 
ATOM      3  C   UNL     1      -3.817  28.903  30.355  1.00  0.00     0.039 C 
ENDROOT
BRANCH   1   4
ATOM      4  C   UNL     1      -5.897  29.614  28.952  1.00  0.00     0.034 C 
BRANCH   4   5
ATOM      5  C   UNL     1      -6.002  31.142  28.841  1.00  0.00     0.032 C 
BRANCH   5   6
ATOM      6  C   UNL     1      -6.049  31.597  27.402  1.00  0.00    -0.028 C 
ATOM      7  C   UNL     1      -3.784  32.662  27.485  1.00  0.00     0.039 C 
ATOM      8  C   UNL     1      -5.076  32.305  26.788  1.00  0.00    -0.080 C 
ATOM      9  C   UNL     1      -5.291  32.732  25.359  1.00  0.00     0.039 C 
ENDBRANCH   5   6
ENDBRANCH   4   5
ENDBRANCH   1   4
BRANCH   2  10
ATOM     10  C   UNL     1      -2.338  28.526  27.760  1.00  0.00     0.035 C 
BRANCH  10  11
ATOM     11  C   UNL     1      -2.183  27.003  27.847  1.00  0.00     0.079 C 
BRANCH  11  12
ATOM     12  C   UNL     1      -0.880  26.613  28.498  1.00  0.00     0.130 C 
ATOM     13  O   UNL     1      -0.562  27.122  29.561  1.00  0.00    -0.300 OA
ATOM     14  C   UNL     1       0.037  25.609  27.863  1.00  0.00     0.087 C 
ENDBRANCH  11  12
ENDBRANCH  10  11
ENDBRANCH   2  10
TORSDOF 6
ENDMDL
MODEL 2
REMARK VINA RESULT:    -6.233      1.448      2.009
REMARK INTER + INTRA:          -9.192
REMARK INTER:                  -8.572
REMARK INTRA:                  -0.620
REMARK UNBOUND:                -0.773
REMARK SMILES CC(=O)CCC=C(C)CCC=C(C)C
REMARK SMILES IDX 7 1 6 2 8 3 9 4 10 5 11 6 13 7 12 8 14 9 5 10 4 11 2 12 3 13
REMARK SMILES IDX 1 14
REMARK H PARENT
REMARK Flexibility Score: inf
ROOT
ATOM      1  C   UNL     1      -4.030  28.027  29.790  1.00  0.00    -0.077 C 
ATOM      2  C   UNL     1      -2.708  28.300  29.875  1.00  0.00    -0.028 C 
ATOM      3  C   UNL     1      -4.557  26.611  29.805  1.00  0.00     0.039 C 
ENDROOT
BRANCH   1   4
ATOM      4  C   UNL     1      -5.011  29.175  29.655  1.00  0.00     0.034 C 
BRANCH   4   5
ATOM      5  C   UNL     1      -5.063  29.718  28.220  1.00  0.00     0.032 C 
BRANCH   5   6
ATOM      6  C   UNL     1      -4.250  30.982  28.070  1.00  0.00    -0.028 C 
ATOM      7  C   UNL     1      -5.809  31.990  26.388  1.00  0.00     0.039 C 
ATOM      8  C   UNL     1      -4.555  31.996  27.231  1.00  0.00    -0.080 C 
ATOM      9  C   UNL     1      -3.616  33.172  27.156  1.00  0.00     0.039 C 
ENDBRANCH   5   6
ENDBRANCH   4   5
ENDBRANCH   1   4
BRANCH   2  10
ATOM     10  C   UNL     1      -1.627  27.260  30.055  1.00  0.00     0.035 C 
BRANCH  10  11
ATOM     11  C   UNL     1      -0.543  27.377  28.977  1.00  0.00     0.079 C 
BRANCH  11  12
ATOM     12  C   UNL     1      -0.481  26.141  28.115  1.00  0.00     0.130 C 
ATOM     13  O   UNL     1       0.537  25.467  28.099  1.00  0.00    -0.300 OA
ATOM     14  C   UNL     1      -1.650  25.721  27.274  1.00  0.00     0.087 C 
ENDBRANCH  11  12
ENDBRANCH  10  11
ENDBRANCH   2  10
TORSDOF 6
ENDMDL
MODEL 3
REMARK VINA RESULT:    -6.221      2.814      6.440
REMARK INTER + INTRA:          -9.177
REMARK INTER:                  -8.725
REMARK INTRA:                  -0.452
REMARK UNBOUND:                -0.773
REMARK SMILES CC(=O)CCC=C(C)CCC=C(C)C
REMARK SMILES IDX 7 1 6 2 8 3 9 4 10 5 11 6 13 7 12 8 14 9 5 10 4 11 2 12 3 13
REMARK SMILES IDX 1 14
REMARK H PARENT
REMARK Flexibility Score: inf
ROOT
ATOM      1  C   UNL     1      -4.828  29.689  28.500  1.00  0.00    -0.077 C 
ATOM      2  C   UNL     1      -4.473  30.724  27.705  1.00  0.00    -0.028 C 
ATOM      3  C   UNL     1      -6.105  29.704  29.308  1.00  0.00     0.039 C 
ENDROOT
BRANCH   1   4
ATOM      4  C   UNL     1      -3.909  28.488  28.600  1.00  0.00     0.034 C 
BRANCH   4   5
ATOM      5  C   UNL     1      -2.638  28.668  27.757  1.00  0.00     0.032 C 
BRANCH   5   6
ATOM      6  C   UNL     1      -1.969  27.346  27.464  1.00  0.00    -0.028 C 
ATOM      7  C   UNL     1      -0.722  27.301  29.636  1.00  0.00     0.039 C 
ATOM      8  C   UNL     1      -1.085  26.734  28.283  1.00  0.00    -0.080 C 
ATOM      9  C   UNL     1      -0.462  25.440  27.828  1.00  0.00     0.039 C 
ENDBRANCH   5   6
ENDBRANCH   4   5
ENDBRANCH   1   4
BRANCH   2  10
ATOM     10  C   UNL     1      -5.311  31.960  27.480  1.00  0.00     0.035 C 
BRANCH  10  11
ATOM     11  C   UNL     1      -4.505  33.077  26.805  1.00  0.00     0.079 C 
BRANCH  11  12
ATOM     12  C   UNL     1      -5.234  33.645  25.613  1.00  0.00     0.130 C 
ATOM     13  O   UNL     1      -5.399  34.851  25.526  1.00  0.00    -0.300 OA
ATOM     14  C   UNL     1      -5.762  32.754  24.528  1.00  0.00     0.087 C 
ENDBRANCH  11  12
ENDBRANCH  10  11
ENDBRANCH   2  10
TORSDOF 6
ENDMDL
MODEL 4
REMARK VINA RESULT:    -6.214      1.111      2.072
REMARK INTER + INTRA:          -9.167
REMARK INTER:                  -8.712
REMARK INTRA:                  -0.454
REMARK UNBOUND:                -0.773
REMARK SMILES CC(=O)CCC=C(C)CCC=C(C)C
REMARK SMILES IDX 7 1 6 2 8 3 9 4 10 5 11 6 13 7 12 8 14 9 5 10 4 11 2 12 3 13
REMARK SMILES IDX 1 14
REMARK H PARENT
REMARK Flexibility Score: inf
ROOT
ATOM      1  C   UNL     1      -5.207  30.272  28.346  1.00  0.00    -0.077 C 
ATOM      2  C   UNL     1      -4.078  29.693  27.877  1.00  0.00    -0.028 C 
ATOM      3  C   UNL     1      -6.077  29.600  29.383  1.00  0.00     0.039 C 
ENDROOT
BRANCH   1   4
ATOM      4  C   UNL     1      -5.623  31.623  27.800  1.00  0.00     0.034 C 
BRANCH   4   5
ATOM      5  C   UNL     1      -4.572  32.203  26.842  1.00  0.00     0.032 C 
BRANCH   5   6
ATOM      6  C   UNL     1      -4.952  33.584  26.364  1.00  0.00    -0.028 C 
ATOM      7  C   UNL     1      -5.726  32.783  24.121  1.00  0.00     0.039 C 
ATOM      8  C   UNL     1      -5.442  33.865  25.137  1.00  0.00    -0.080 C 
ATOM      9  C   UNL     1      -5.726  35.303  24.789  1.00  0.00     0.039 C 
ENDBRANCH   5   6
ENDBRANCH   4   5
ENDBRANCH   1   4
BRANCH   2  10
ATOM     10  C   UNL     1      -3.525  28.373  28.360  1.00  0.00     0.035 C 
BRANCH  10  11
ATOM     11  C   UNL     1      -2.267  27.966  27.584  1.00  0.00     0.079 C 
BRANCH  11  12
ATOM     12  C   UNL     1      -1.350  27.111  28.422  1.00  0.00     0.130 C 
ATOM     13  O   UNL     1      -1.141  27.413  29.586  1.00  0.00    -0.300 OA
ATOM     14  C   UNL     1      -0.687  25.892  27.852  1.00  0.00     0.087 C 
ENDBRANCH  11  12
ENDBRANCH  10  11
ENDBRANCH   2  10
TORSDOF 6
ENDMDL
MODEL 5
REMARK VINA RESULT:    -6.186      1.886      5.778
REMARK INTER + INTRA:          -9.129
REMARK INTER:                  -8.520
REMARK INTRA:                  -0.609
REMARK UNBOUND:                -0.773
REMARK SMILES CC(=O)CCC=C(C)CCC=C(C)C
REMARK SMILES IDX 7 1 6 2 8 3 9 4 10 5 11 6 13 7 12 8 14 9 5 10 4 11 2 12 3 13
REMARK SMILES IDX 1 14
REMARK H PARENT
REMARK Flexibility Score: inf
ROOT
ATOM      1  C   UNL     1      -3.950  27.761  30.178  1.00  0.00    -0.077 C 
ATOM      2  C   UNL     1      -4.547  28.968  30.054  1.00  0.00    -0.028 C 
ATOM      3  C   UNL     1      -4.633  26.483  29.747  1.00  0.00     0.039 C 
ENDROOT
BRANCH   1   4
ATOM      4  C   UNL     1      -2.565  27.683  30.789  1.00  0.00     0.034 C 
BRANCH   4   5
ATOM      5  C   UNL     1      -1.491  28.245  29.847  1.00  0.00     0.032 C 
BRANCH   5   6
ATOM      6  C   UNL     1      -0.524  27.176  29.400  1.00  0.00    -0.028 C 
ATOM      7  C   UNL     1      -1.824  26.622  27.332  1.00  0.00     0.039 C 
ATOM      8  C   UNL     1      -0.674  26.418  28.291  1.00  0.00    -0.080 C 
ATOM      9  C   UNL     1       0.352  25.353  28.004  1.00  0.00     0.039 C 
ENDBRANCH   5   6
ENDBRANCH   4   5
ENDBRANCH   1   4
BRANCH   2  10
ATOM     10  C   UNL     1      -5.902  29.195  29.427  1.00  0.00     0.035 C 
BRANCH  10  11
ATOM     11  C   UNL     1      -5.952  30.513  28.644  1.00  0.00     0.079 C 
BRANCH  11  12
ATOM     12  C   UNL     1      -4.758  30.663  27.734  1.00  0.00     0.130 C 
ATOM     13  O   UNL     1      -4.332  29.690  27.134  1.00  0.00    -0.300 OA
ATOM     14  C   UNL     1      -4.082  31.990  27.552  1.00  0.00     0.087 C 
ENDBRANCH  11  12
ENDBRANCH  10  11
ENDBRANCH   2  10
TORSDOF 6
ENDMDL
MODEL 6
REMARK VINA RESULT:    -5.996      1.665      2.871
REMARK INTER + INTRA:          -8.872
REMARK INTER:                  -8.274
REMARK INTRA:                  -0.598
REMARK UNBOUND:                -0.773
REMARK SMILES CC(=O)CCC=C(C)CCC=C(C)C
REMARK SMILES IDX 7 1 6 2 8 3 9 4 10 5 11 6 13 7 12 8 14 9 5 10 4 11 2 12 3 13
REMARK SMILES IDX 1 14
REMARK H PARENT
REMARK Flexibility Score: inf
ROOT
ATOM      1  C   UNL     1      -4.970  30.453  28.146  1.00  0.00    -0.077 C 
ATOM      2  C   UNL     1      -5.322  29.928  29.341  1.00  0.00    -0.028 C 
ATOM      3  C   UNL     1      -4.172  29.667  27.132  1.00  0.00     0.039 C 
ENDROOT
BRANCH   1   4
ATOM      4  C   UNL     1      -5.368  31.879  27.822  1.00  0.00     0.034 C 
BRANCH   4   5
ATOM      5  C   UNL     1      -4.331  32.576  26.930  1.00  0.00     0.032 C 
BRANCH   5   6
ATOM      6  C   UNL     1      -4.864  33.866  26.355  1.00  0.00    -0.028 C 
ATOM      7  C   UNL     1      -5.521  32.824  24.175  1.00  0.00     0.039 C 
ATOM      8  C   UNL     1      -5.373  34.001  25.111  1.00  0.00    -0.080 C 
ATOM      9  C   UNL     1      -5.818  35.368  24.661  1.00  0.00     0.039 C 
ENDBRANCH   5   6
ENDBRANCH   4   5
ENDBRANCH   1   4
BRANCH   2  10
ATOM     10  C   UNL     1      -5.029  28.512  29.777  1.00  0.00     0.035 C 
BRANCH  10  11
ATOM     11  C   UNL     1      -3.683  28.409  30.505  1.00  0.00     0.079 C 
BRANCH  11  12
ATOM     12  C   UNL     1      -2.699  27.564  29.737  1.00  0.00     0.130 C 
ATOM     13  O   UNL     1      -3.100  26.831  28.847  1.00  0.00    -0.300 OA
ATOM     14  C   UNL     1      -1.231  27.605  30.045  1.00  0.00     0.087 C 
ENDBRANCH  11  12
ENDBRANCH  10  11
ENDBRANCH   2  10
TORSDOF 6
ENDMDL
MODEL 7
REMARK VINA RESULT:    -5.542      2.243      5.935
REMARK INTER + INTRA:          -8.259
REMARK INTER:                  -8.458
REMARK INTRA:                   0.199
REMARK UNBOUND:                -0.773
REMARK SMILES CC(=O)CCC=C(C)CCC=C(C)C
REMARK SMILES IDX 7 1 6 2 8 3 9 4 10 5 11 6 13 7 12 8 14 9 5 10 4 11 2 12 3 13
REMARK SMILES IDX 1 14
REMARK H PARENT
REMARK Flexibility Score: inf
ROOT
ATOM      1  C   UNL     1      -4.860  29.263  28.786  1.00  0.00    -0.077 C 
ATOM      2  C   UNL     1      -5.887  30.141  28.827  1.00  0.00    -0.028 C 
ATOM      3  C   UNL     1      -3.861  29.254  27.652  1.00  0.00     0.039 C 
ENDROOT
BRANCH   1   4
ATOM      4  C   UNL     1      -4.717  28.245  29.899  1.00  0.00     0.034 C 
BRANCH   4   5
ATOM      5  C   UNL     1      -3.278  27.724  30.019  1.00  0.00     0.032 C 
BRANCH   5   6
ATOM      6  C   UNL     1      -2.923  26.794  28.884  1.00  0.00    -0.028 C 
ATOM      7  C   UNL     1      -0.460  27.203  29.091  1.00  0.00     0.039 C 
ATOM      8  C   UNL     1      -1.667  26.573  28.436  1.00  0.00    -0.080 C 
ATOM      9  C   UNL     1      -1.477  25.654  27.257  1.00  0.00     0.039 C 
ENDBRANCH   5   6
ENDBRANCH   4   5
ENDBRANCH   1   4
BRANCH   2  10
ATOM     10  C   UNL     1      -6.124  31.233  27.809  1.00  0.00     0.035 C 
BRANCH  10  11
ATOM     11  C   UNL     1      -5.030  32.305  27.862  1.00  0.00     0.079 C 
BRANCH  11  12
ATOM     12  C   UNL     1      -4.658  32.788  26.482  1.00  0.00     0.130 C 
ATOM     13  O   UNL     1      -3.559  33.284  26.293  1.00  0.00    -0.300 OA
ATOM     14  C   UNL     1      -5.616  32.669  25.333  1.00  0.00     0.087 C 
ENDBRANCH  11  12
ENDBRANCH  10  11
ENDBRANCH   2  10
TORSDOF 6
ENDMDL
MODEL 8
REMARK VINA RESULT:    -5.533      2.960      6.319
REMARK INTER + INTRA:          -8.247
REMARK INTER:                  -8.023
REMARK INTRA:                  -0.224
REMARK UNBOUND:                -0.773
REMARK SMILES CC(=O)CCC=C(C)CCC=C(C)C
REMARK SMILES IDX 7 1 6 2 8 3 9 4 10 5 11 6 13 7 12 8 14 9 5 10 4 11 2 12 3 13
REMARK SMILES IDX 1 14
REMARK H PARENT
REMARK Flexibility Score: inf
ROOT
ATOM      1  C   UNL     1      -4.977  30.327  28.240  1.00  0.00    -0.077 C 
ATOM      2  C   UNL     1      -5.285  31.642  28.163  1.00  0.00    -0.028 C 
ATOM      3  C   UNL     1      -4.109  29.648  27.207  1.00  0.00     0.039 C 
ENDROOT
BRANCH   1   4
ATOM      4  C   UNL     1      -5.537  29.506  29.385  1.00  0.00     0.034 C 
BRANCH   4   5
ATOM      5  C   UNL     1      -4.937  28.093  29.424  1.00  0.00     0.032 C 
BRANCH   5   6
ATOM      6  C   UNL     1      -3.590  28.075  30.107  1.00  0.00    -0.028 C 
ATOM      7  C   UNL     1      -2.456  26.882  28.220  1.00  0.00     0.039 C 
ATOM      8  C   UNL     1      -2.475  27.510  29.594  1.00  0.00    -0.080 C 
ATOM      9  C   UNL     1      -1.216  27.528  30.421  1.00  0.00     0.039 C 
ENDBRANCH   5   6
ENDBRANCH   4   5
ENDBRANCH   1   4
BRANCH   2  10
ATOM     10  C   UNL     1      -4.765  32.584  27.104  1.00  0.00     0.035 C 
BRANCH  10  11
ATOM     11  C   UNL     1      -5.615  32.530  25.828  1.00  0.00     0.079 C 
BRANCH  11  12
ATOM     12  C   UNL     1      -5.304  33.680  24.904  1.00  0.00     0.130 C 
ATOM     13  O   UNL     1      -5.431  34.827  25.305  1.00  0.00    -0.300 OA
ATOM     14  C   UNL     1      -4.839  33.443  23.497  1.00  0.00     0.087 C 
ENDBRANCH  11  12
ENDBRANCH  10  11
ENDBRANCH   2  10
TORSDOF 6
ENDMDL
MODEL 9
REMARK VINA RESULT:    -4.334      1.181      3.384
REMARK INTER + INTRA:          -6.627
REMARK INTER:                  -7.319
REMARK INTRA:                   0.691
REMARK UNBOUND:                -0.773
REMARK SMILES CC(=O)CCC=C(C)CCC=C(C)C
REMARK SMILES IDX 7 1 6 2 8 3 9 4 10 5 11 6 13 7 12 8 14 9 5 10 4 11 2 12 3 13
REMARK SMILES IDX 1 14
REMARK H PARENT
REMARK Flexibility Score: inf
ROOT
ATOM      1  C   UNL     1      -4.442  30.464  27.826  1.00  0.00    -0.077 C 
ATOM      2  C   UNL     1      -3.876  29.237  27.760  1.00  0.00    -0.028 C 
ATOM      3  C   UNL     1      -3.674  31.718  27.474  1.00  0.00     0.039 C 
ENDROOT
BRANCH   1   4
ATOM      4  C   UNL     1      -5.880  30.588  28.287  1.00  0.00     0.034 C 
BRANCH   4   5
ATOM      5  C   UNL     1      -6.102  29.928  29.656  1.00  0.00     0.032 C 
BRANCH   5   6
ATOM      6  C   UNL     1      -5.756  28.458  29.631  1.00  0.00    -0.028 C 
ATOM      7  C   UNL     1      -3.638  28.759  30.935  1.00  0.00     0.039 C 
ATOM      8  C   UNL     1      -4.640  27.922  30.174  1.00  0.00    -0.080 C 
ATOM      9  C   UNL     1      -4.409  26.441  30.022  1.00  0.00     0.039 C 
ENDBRANCH   5   6
ENDBRANCH   4   5
ENDBRANCH   1   4
BRANCH   2  10
ATOM     10  C   UNL     1      -2.470  28.965  27.279  1.00  0.00     0.035 C 
BRANCH  10  11
ATOM     11  C   UNL     1      -2.181  27.461  27.193  1.00  0.00     0.079 C 
BRANCH  11  12
ATOM     12  C   UNL     1      -1.125  27.042  28.185  1.00  0.00     0.130 C 
ATOM     13  O   UNL     1      -0.929  27.721  29.180  1.00  0.00    -0.300 OA
ATOM     14  C   UNL     1      -0.308  25.801  27.972  1.00  0.00     0.087 C 
ENDBRANCH  11  12
ENDBRANCH  10  11
ENDBRANCH   2  10
TORSDOF 6
ENDMDL
