MODEL 1
REMARK VINA RESULT:    32.104      0.000      0.000
REMARK INTER + INTRA:          46.994
REMARK INTER:                  47.119
REMARK INTRA:                  -0.125
REMARK UNBOUND:                -0.125
REMARK SMILES O=c1c(O[C@@H]2O[C@H](CO)[C@@H](O)[C@@H](O)[C@H]2O)c(-c2ccc(O)c(O)c2)oc2cc(O)cc(O)c12
REMARK SMILES IDX 4 1 3 2 16 3 25 4 2 5 26 6 1 7 33 8 27 9 31 10 28 11 30 12
REMARK SMILES IDX 17 13 18 14 19 15 20 16 24 17 22 18 21 19 23 21 32 23 29 25
REMARK SMILES IDX 5 27 14 28 6 29 12 30 7 31 10 32 15 33 13 35 8 37 9 38 11 40
REMARK H PARENT 21 20 23 22 32 24 29 26 15 34 13 36 9 39 11 41
REMARK Flexibility Score: inf
ROOT
ATOM      1  O   UNL     1     135.946 128.730 128.606  1.00  0.00    -0.454 OA
ENDROOT
BRANCH   1   2
ATOM      2  C   UNL     1     134.829 129.131 127.860  1.00  0.00     0.214 A 
ATOM      3  C   UNL     1     135.028 129.926 126.727  1.00  0.00     0.180 A 
ATOM      4  O   UNL     1     133.998 130.291 125.976  1.00  0.00    -0.452 OA
ATOM      5  C   UNL     1     133.520 128.767 128.214  1.00  0.00     0.239 A 
ATOM      6  C   UNL     1     132.743 129.954 126.254  1.00  0.00     0.146 A 
ATOM      7  O   UNL     1     133.335 128.143 129.291  1.00  0.00    -0.285 OA
ATOM      8  C   UNL     1     132.434 129.153 127.387  1.00  0.00     0.111 A 
ATOM      9  C   UNL     1     131.729 130.422 125.416  1.00  0.00     0.094 A 
ATOM     10  C   UNL     1     131.066 128.818 127.629  1.00  0.00     0.134 A 
ATOM     11  C   UNL     1     130.393 130.125 125.687  1.00  0.00     0.123 A 
ATOM     12  C   UNL     1     130.071 129.333 126.787  1.00  0.00     0.093 A 
BRANCH   3  13
ATOM     13  C   UNL     1     136.382 130.354 126.341  1.00  0.00     0.025 A 
ATOM     14  C   UNL     1     137.444 129.434 126.361  1.00  0.00     0.016 A 
ATOM     15  C   UNL     1     138.721 129.830 125.958  1.00  0.00     0.051 A 
ATOM     16  C   UNL     1     138.949 131.145 125.528  1.00  0.00     0.157 A 
ATOM     17  C   UNL     1     136.610 131.672 125.917  1.00  0.00     0.062 A 
ATOM     18  C   UNL     1     137.890 132.066 125.504  1.00  0.00     0.158 A 
BRANCH  16  19
ATOM     19  O   UNL     1     140.219 131.543 125.114  1.00  0.00    -0.504 OA
ATOM     20  H   UNL     1     140.577 132.470 125.315  1.00  0.00     0.293 HD
ENDBRANCH  16  19
BRANCH  18  21
ATOM     21  O   UNL     1     138.118 133.364 125.049  1.00  0.00    -0.504 OA
ATOM     22  H   UNL     1     137.486 133.813 124.395  1.00  0.00     0.293 HD
ENDBRANCH  18  21
ENDBRANCH   3  13
BRANCH  10  23
ATOM     23  O   UNL     1     130.627 127.983 128.661  1.00  0.00    -0.507 OA
ATOM     24  H   UNL     1     130.965 127.053 128.852  1.00  0.00     0.293 HD
ENDBRANCH  10  23
BRANCH  11  25
ATOM     25  O   UNL     1     129.374 130.623 124.875  1.00  0.00    -0.508 OA
ATOM     26  H   UNL     1     129.220 131.619 124.766  1.00  0.00     0.293 HD
ENDBRANCH  11  25
ENDBRANCH   1   2
BRANCH   1  27
ATOM     27  C   UNL     1     135.884 127.864 129.741  1.00  0.00     0.339 C 
ATOM     28  C   UNL     1     136.561 126.526 129.382  1.00  0.00     0.214 C 
ATOM     29  O   UNL     1     136.454 128.508 130.878  1.00  0.00    -0.332 OA
ATOM     30  C   UNL     1     138.052 126.751 129.037  1.00  0.00     0.180 C 
ATOM     31  C   UNL     1     137.850 128.272 131.069  1.00  0.00     0.179 C 
ATOM     32  C   UNL     1     138.621 128.005 129.750  1.00  0.00     0.177 C 
BRANCH  28  33
ATOM     33  O   UNL     1     136.435 125.630 130.461  1.00  0.00    -0.384 OA
ATOM     34  H   UNL     1     136.430 124.715 130.078  1.00  0.00     0.211 HD
ENDBRANCH  28  33
BRANCH  30  35
ATOM     35  O   UNL     1     138.791 125.601 129.370  1.00  0.00    -0.387 OA
ATOM     36  H   UNL     1     139.752 125.855 129.354  1.00  0.00     0.211 HD
ENDBRANCH  30  35
BRANCH  31  37
ATOM     37  C   UNL     1     138.440 129.473 131.817  1.00  0.00     0.191 C 
BRANCH  37  38
ATOM     38  O   UNL     1     139.616 129.086 132.472  1.00  0.00    -0.394 OA
ATOM     39  H   UNL     1     139.384 129.011 133.436  1.00  0.00     0.210 HD
ENDBRANCH  37  38
ENDBRANCH  31  37
BRANCH  32  40
ATOM     40  O   UNL     1     139.995 127.850 130.007  1.00  0.00    -0.387 OA
ATOM     41  H   UNL     1     140.155 126.874 130.119  1.00  0.00     0.211 HD
ENDBRANCH  32  40
ENDBRANCH   1  27
TORSDOF 12
ENDMDL
MODEL 2
REMARK VINA RESULT:    32.437      1.145      1.688
REMARK INTER + INTRA:          47.482
REMARK INTER:                  47.905
REMARK INTRA:                  -0.424
REMARK UNBOUND:                -0.125
REMARK SMILES O=c1c(O[C@@H]2O[C@H](CO)[C@@H](O)[C@@H](O)[C@H]2O)c(-c2ccc(O)c(O)c2)oc2cc(O)cc(O)c12
REMARK SMILES IDX 4 1 3 2 16 3 25 4 2 5 26 6 1 7 33 8 27 9 31 10 28 11 30 12
REMARK SMILES IDX 17 13 18 14 19 15 20 16 24 17 22 18 21 19 23 21 32 23 29 25
REMARK SMILES IDX 5 27 14 28 6 29 12 30 7 31 10 32 15 33 13 35 8 37 9 38 11 40
REMARK H PARENT 21 20 23 22 32 24 29 26 15 34 13 36 9 39 11 41
REMARK Flexibility Score: inf
ROOT
ATOM      1  O   UNL     1     136.498 128.576 129.182  1.00  0.00    -0.454 OA
ENDROOT
BRANCH   1   2
ATOM      2  C   UNL     1     135.258 128.719 128.544  1.00  0.00     0.214 A 
ATOM      3  C   UNL     1     135.207 129.380 127.313  1.00  0.00     0.180 A 
ATOM      4  O   UNL     1     134.057 129.498 126.663  1.00  0.00    -0.452 OA
ATOM      5  C   UNL     1     134.066 128.227 129.101  1.00  0.00     0.239 A 
ATOM      6  C   UNL     1     132.907 129.030 127.135  1.00  0.00     0.146 A 
ATOM      7  O   UNL     1     134.098 127.729 130.256  1.00  0.00    -0.285 OA
ATOM      8  C   UNL     1     132.850 128.349 128.381  1.00  0.00     0.111 A 
ATOM      9  C   UNL     1     131.748 129.240 126.385  1.00  0.00     0.094 A 
ATOM     10  C   UNL     1     131.584 127.863 128.831  1.00  0.00     0.134 A 
ATOM     11  C   UNL     1     130.511 128.800 126.856  1.00  0.00     0.123 A 
ATOM     12  C   UNL     1     130.436 128.122 128.071  1.00  0.00     0.093 A 
BRANCH   3  13
ATOM     13  C   UNL     1     136.430 129.936 126.712  1.00  0.00     0.025 A 
ATOM     14  C   UNL     1     137.551 129.114 126.505  1.00  0.00     0.016 A 
ATOM     15  C   UNL     1     138.697 129.632 125.899  1.00  0.00     0.051 A 
ATOM     16  C   UNL     1     138.734 130.974 125.490  1.00  0.00     0.157 A 
ATOM     17  C   UNL     1     136.467 131.280 126.308  1.00  0.00     0.062 A 
ATOM     18  C   UNL     1     137.616 131.797 125.692  1.00  0.00     0.158 A 
BRANCH  16  19
ATOM     19  O   UNL     1     139.872 131.494 124.875  1.00  0.00    -0.504 OA
ATOM     20  H   UNL     1     139.988 131.472 123.868  1.00  0.00     0.293 HD
ENDBRANCH  16  19
BRANCH  18  21
ATOM     21  O   UNL     1     137.650 133.121 125.259  1.00  0.00    -0.504 OA
ATOM     22  H   UNL     1     138.260 133.414 124.503  1.00  0.00     0.293 HD
ENDBRANCH  18  21
ENDBRANCH   3  13
BRANCH  10  23
ATOM     23  O   UNL     1     131.393 127.117 129.999  1.00  0.00    -0.507 OA
ATOM     24  H   UNL     1     130.698 127.296 130.706  1.00  0.00     0.293 HD
ENDBRANCH  10  23
BRANCH  11  25
ATOM     25  O   UNL     1     129.345 129.043 126.130  1.00  0.00    -0.508 OA
ATOM     26  H   UNL     1     129.340 129.042 125.116  1.00  0.00     0.293 HD
ENDBRANCH  11  25
ENDBRANCH   1   2
BRANCH   1  27
ATOM     27  C   UNL     1     137.153 127.323 129.390  1.00  0.00     0.339 C 
ATOM     28  C   UNL     1     138.643 127.475 129.022  1.00  0.00     0.214 C 
ATOM     29  O   UNL     1     136.934 126.875 130.725  1.00  0.00    -0.332 OA
ATOM     30  C   UNL     1     139.320 128.524 129.937  1.00  0.00     0.180 C 
ATOM     31  C   UNL     1     137.926 127.282 131.670  1.00  0.00     0.179 C 
ATOM     32  C   UNL     1     138.608 128.629 131.311  1.00  0.00     0.177 C 
BRANCH  28  33
ATOM     33  O   UNL     1     139.287 126.229 129.142  1.00  0.00    -0.384 OA
ATOM     34  H   UNL     1     139.862 126.124 128.340  1.00  0.00     0.211 HD
ENDBRANCH  28  33
BRANCH  30  35
ATOM     35  O   UNL     1     140.680 128.202 130.096  1.00  0.00    -0.387 OA
ATOM     36  H   UNL     1     140.759 127.214 130.016  1.00  0.00     0.211 HD
ENDBRANCH  30  35
BRANCH  31  37
ATOM     37  C   UNL     1     137.269 127.350 133.053  1.00  0.00     0.191 C 
BRANCH  37  38
ATOM     38  O   UNL     1     138.212 127.025 134.036  1.00  0.00    -0.394 OA
ATOM     39  H   UNL     1     139.084 126.938 133.565  1.00  0.00     0.210 HD
ENDBRANCH  37  38
ENDBRANCH  31  37
BRANCH  32  40
ATOM     40  O   UNL     1     139.519 129.001 132.316  1.00  0.00    -0.387 OA
ATOM     41  H   UNL     1     139.257 128.502 133.136  1.00  0.00     0.211 HD
ENDBRANCH  32  40
ENDBRANCH   1  27
TORSDOF 12
ENDMDL
MODEL 3
REMARK VINA RESULT:    32.865      1.258      2.089
REMARK INTER + INTRA:          48.110
REMARK INTER:                  49.029
REMARK INTRA:                  -0.919
REMARK UNBOUND:                -0.125
REMARK SMILES O=c1c(O[C@@H]2O[C@H](CO)[C@@H](O)[C@@H](O)[C@H]2O)c(-c2ccc(O)c(O)c2)oc2cc(O)cc(O)c12
REMARK SMILES IDX 4 1 3 2 16 3 25 4 2 5 26 6 1 7 33 8 27 9 31 10 28 11 30 12
REMARK SMILES IDX 17 13 18 14 19 15 20 16 24 17 22 18 21 19 23 21 32 23 29 25
REMARK SMILES IDX 5 27 14 28 6 29 12 30 7 31 10 32 15 33 13 35 8 37 9 38 11 40
REMARK H PARENT 21 20 23 22 32 24 29 26 15 34 13 36 9 39 11 41
REMARK Flexibility Score: inf
ROOT
ATOM      1  O   UNL     1     136.575 128.703 129.023  1.00  0.00    -0.454 OA
ENDROOT
BRANCH   1   2
ATOM      2  C   UNL     1     135.308 128.807 128.431  1.00  0.00     0.214 A 
ATOM      3  C   UNL     1     135.190 129.481 127.211  1.00  0.00     0.180 A 
ATOM      4  O   UNL     1     134.014 129.563 126.604  1.00  0.00    -0.452 OA
ATOM      5  C   UNL     1     134.157 128.264 129.023  1.00  0.00     0.239 A 
ATOM      6  C   UNL     1     132.899 129.047 127.109  1.00  0.00     0.146 A 
ATOM      7  O   UNL     1     134.248 127.754 130.169  1.00  0.00    -0.285 OA
ATOM      8  C   UNL     1     132.912 128.348 128.347  1.00  0.00     0.111 A 
ATOM      9  C   UNL     1     131.707 129.222 126.404  1.00  0.00     0.094 A 
ATOM     10  C   UNL     1     131.681 127.810 128.835  1.00  0.00     0.134 A 
ATOM     11  C   UNL     1     130.505 128.730 126.912  1.00  0.00     0.123 A 
ATOM     12  C   UNL     1     130.498 128.035 128.119  1.00  0.00     0.093 A 
BRANCH   3  13
ATOM     13  C   UNL     1     136.369 130.090 126.575  1.00  0.00     0.025 A 
ATOM     14  C   UNL     1     136.525 131.486 126.570  1.00  0.00     0.016 A 
ATOM     15  C   UNL     1     137.663 132.062 126.001  1.00  0.00     0.051 A 
ATOM     16  C   UNL     1     138.656 131.249 125.436  1.00  0.00     0.157 A 
ATOM     17  C   UNL     1     137.360 129.275 126.005  1.00  0.00     0.062 A 
ATOM     18  C   UNL     1     138.506 129.854 125.441  1.00  0.00     0.158 A 
BRANCH  16  19
ATOM     19  O   UNL     1     139.800 131.817 124.876  1.00  0.00    -0.504 OA
ATOM     20  H   UNL     1     139.785 132.743 124.462  1.00  0.00     0.293 HD
ENDBRANCH  16  19
BRANCH  18  21
ATOM     21  O   UNL     1     139.510 129.052 124.902  1.00  0.00    -0.504 OA
ATOM     22  H   UNL     1     139.290 128.239 124.337  1.00  0.00     0.293 HD
ENDBRANCH  18  21
ENDBRANCH   3  13
BRANCH  10  23
ATOM     23  O   UNL     1     131.560 127.043 129.999  1.00  0.00    -0.507 OA
ATOM     24  H   UNL     1     130.729 126.951 130.561  1.00  0.00     0.293 HD
ENDBRANCH  10  23
BRANCH  11  25
ATOM     25  O   UNL     1     129.306 128.938 126.230  1.00  0.00    -0.508 OA
ATOM     26  H   UNL     1     128.924 129.867 126.096  1.00  0.00     0.293 HD
ENDBRANCH  11  25
ENDBRANCH   1   2
BRANCH   1  27
ATOM     27  C   UNL     1     137.270 127.470 129.218  1.00  0.00     0.339 C 
ATOM     28  C   UNL     1     138.773 127.702 128.962  1.00  0.00     0.214 C 
ATOM     29  O   UNL     1     136.983 126.949 130.514  1.00  0.00    -0.332 OA
ATOM     30  C   UNL     1     139.340 128.732 129.967  1.00  0.00     0.180 C 
ATOM     31  C   UNL     1     137.890 127.352 131.542  1.00  0.00     0.179 C 
ATOM     32  C   UNL     1     138.534 128.741 131.293  1.00  0.00     0.177 C 
BRANCH  28  33
ATOM     33  O   UNL     1     139.462 126.478 129.068  1.00  0.00    -0.384 OA
ATOM     34  H   UNL     1     140.329 126.674 129.510  1.00  0.00     0.211 HD
ENDBRANCH  28  33
BRANCH  30  35
ATOM     35  O   UNL     1     140.699 128.460 130.204  1.00  0.00    -0.387 OA
ATOM     36  H   UNL     1     141.138 129.324 130.425  1.00  0.00     0.211 HD
ENDBRANCH  30  35
BRANCH  31  37
ATOM     37  C   UNL     1     137.141 127.325 132.879  1.00  0.00     0.191 C 
BRANCH  37  38
ATOM     38  O   UNL     1     138.029 126.988 133.908  1.00  0.00    -0.394 OA
ATOM     39  H   UNL     1     138.655 126.318 133.524  1.00  0.00     0.210 HD
ENDBRANCH  37  38
ENDBRANCH  31  37
BRANCH  32  40
ATOM     40  O   UNL     1     139.359 129.101 132.373  1.00  0.00    -0.387 OA
ATOM     41  H   UNL     1     138.807 129.671 132.974  1.00  0.00     0.211 HD
ENDBRANCH  32  40
ENDBRANCH   1  27
TORSDOF 12
ENDMDL
MODEL 4
REMARK VINA RESULT:    33.679      0.597      1.187
REMARK INTER + INTRA:          49.305
REMARK INTER:                  49.892
REMARK INTRA:                  -0.587
REMARK UNBOUND:                -0.125
REMARK SMILES O=c1c(O[C@@H]2O[C@H](CO)[C@@H](O)[C@@H](O)[C@H]2O)c(-c2ccc(O)c(O)c2)oc2cc(O)cc(O)c12
REMARK SMILES IDX 4 1 3 2 16 3 25 4 2 5 26 6 1 7 33 8 27 9 31 10 28 11 30 12
REMARK SMILES IDX 17 13 18 14 19 15 20 16 24 17 22 18 21 19 23 21 32 23 29 25
REMARK SMILES IDX 5 27 14 28 6 29 12 30 7 31 10 32 15 33 13 35 8 37 9 38 11 40
REMARK H PARENT 21 20 23 22 32 24 29 26 15 34 13 36 9 39 11 41
REMARK Flexibility Score: inf
ROOT
ATOM      1  O   UNL     1     135.843 128.801 128.630  1.00  0.00    -0.454 OA
ENDROOT
BRANCH   1   2
ATOM      2  C   UNL     1     134.697 129.084 127.875  1.00  0.00     0.214 A 
ATOM      3  C   UNL     1     134.837 129.804 126.684  1.00  0.00     0.180 A 
ATOM      4  O   UNL     1     133.779 130.055 125.925  1.00  0.00    -0.452 OA
ATOM      5  C   UNL     1     133.414 128.675 128.275  1.00  0.00     0.239 A 
ATOM      6  C   UNL     1     132.549 129.670 126.246  1.00  0.00     0.146 A 
ATOM      7  O   UNL     1     133.277 128.123 129.397  1.00  0.00    -0.285 OA
ATOM      8  C   UNL     1     132.299 128.939 127.439  1.00  0.00     0.111 A 
ATOM      9  C   UNL     1     131.500 130.018 125.392  1.00  0.00     0.094 A 
ATOM     10  C   UNL     1     130.954 128.548 127.726  1.00  0.00     0.134 A 
ATOM     11  C   UNL     1     130.187 129.669 125.705  1.00  0.00     0.123 A 
ATOM     12  C   UNL     1     129.923 128.944 126.865  1.00  0.00     0.093 A 
BRANCH   3  13
ATOM     13  C   UNL     1     136.160 130.275 126.247  1.00  0.00     0.025 A 
ATOM     14  C   UNL     1     136.501 131.633 126.369  1.00  0.00     0.016 A 
ATOM     15  C   UNL     1     137.771 132.074 125.990  1.00  0.00     0.051 A 
ATOM     16  C   UNL     1     138.713 131.163 125.491  1.00  0.00     0.157 A 
ATOM     17  C   UNL     1     137.101 129.364 125.742  1.00  0.00     0.062 A 
ATOM     18  C   UNL     1     138.379 129.806 125.370  1.00  0.00     0.158 A 
BRANCH  16  19
ATOM     19  O   UNL     1     139.986 131.596 125.121  1.00  0.00    -0.504 OA
ATOM     20  H   UNL     1     140.367 131.402 124.202  1.00  0.00     0.293 HD
ENDBRANCH  16  19
BRANCH  18  21
ATOM     21  O   UNL     1     139.330 128.903 124.898  1.00  0.00    -0.504 OA
ATOM     22  H   UNL     1     140.159 128.680 125.438  1.00  0.00     0.293 HD
ENDBRANCH  18  21
ENDBRANCH   3  13
BRANCH  10  23
ATOM     23  O   UNL     1     130.575 127.768 128.823  1.00  0.00    -0.507 OA
ATOM     24  H   UNL     1     129.902 128.028 129.527  1.00  0.00     0.293 HD
ENDBRANCH  10  23
BRANCH  11  25
ATOM     25  O   UNL     1     129.132 130.049 124.875  1.00  0.00    -0.508 OA
ATOM     26  H   UNL     1     129.184 130.878 124.294  1.00  0.00     0.293 HD
ENDBRANCH  11  25
ENDBRANCH   1   2
BRANCH   1  27
ATOM     27  C   UNL     1     135.891 127.836 129.684  1.00  0.00     0.339 C 
ATOM     28  C   UNL     1     136.653 126.592 129.183  1.00  0.00     0.214 C 
ATOM     29  O   UNL     1     136.456 128.421 130.855  1.00  0.00    -0.332 OA
ATOM     30  C   UNL     1     138.108 126.964 128.811  1.00  0.00     0.180 C 
ATOM     31  C   UNL     1     137.873 128.280 130.978  1.00  0.00     0.179 C 
ATOM     32  C   UNL     1     138.609 128.192 129.616  1.00  0.00     0.177 C 
BRANCH  28  33
ATOM     33  O   UNL     1     136.638 125.598 130.180  1.00  0.00    -0.384 OA
ATOM     34  H   UNL     1     137.367 125.817 130.816  1.00  0.00     0.211 HD
ENDBRANCH  28  33
BRANCH  30  35
ATOM     35  O   UNL     1     138.945 125.851 129.013  1.00  0.00    -0.387 OA
ATOM     36  H   UNL     1     138.796 125.538 129.945  1.00  0.00     0.211 HD
ENDBRANCH  30  35
BRANCH  31  37
ATOM     37  C   UNL     1     138.399 129.453 131.813  1.00  0.00     0.191 C 
BRANCH  37  38
ATOM     38  O   UNL     1     139.513 129.039 132.553  1.00  0.00    -0.394 OA
ATOM     39  H   UNL     1     139.244 129.091 133.509  1.00  0.00     0.210 HD
ENDBRANCH  37  38
ENDBRANCH  31  37
BRANCH  32  40
ATOM     40  O   UNL     1     140.000 128.124 129.812  1.00  0.00    -0.387 OA
ATOM     41  H   UNL     1     140.196 128.641 130.639  1.00  0.00     0.211 HD
ENDBRANCH  32  40
ENDBRANCH   1  27
TORSDOF 12
ENDMDL
MODEL 5
REMARK VINA RESULT:    34.392      1.805      2.862
REMARK INTER + INTRA:          50.351
REMARK INTER:                  51.207
REMARK INTRA:                  -0.855
REMARK UNBOUND:                -0.125
REMARK SMILES O=c1c(O[C@@H]2O[C@H](CO)[C@@H](O)[C@@H](O)[C@H]2O)c(-c2ccc(O)c(O)c2)oc2cc(O)cc(O)c12
REMARK SMILES IDX 4 1 3 2 16 3 25 4 2 5 26 6 1 7 33 8 27 9 31 10 28 11 30 12
REMARK SMILES IDX 17 13 18 14 19 15 20 16 24 17 22 18 21 19 23 21 32 23 29 25
REMARK SMILES IDX 5 27 14 28 6 29 12 30 7 31 10 32 15 33 13 35 8 37 9 38 11 40
REMARK H PARENT 21 20 23 22 32 24 29 26 15 34 13 36 9 39 11 41
REMARK Flexibility Score: inf
ROOT
ATOM      1  O   UNL     1     137.319 128.113 129.841  1.00  0.00    -0.454 OA
ENDROOT
BRANCH   1   2
ATOM      2  C   UNL     1     136.016 128.168 129.327  1.00  0.00     0.214 A 
ATOM      3  C   UNL     1     135.823 128.671 128.036  1.00  0.00     0.180 A 
ATOM      4  O   UNL     1     134.610 128.701 127.503  1.00  0.00    -0.452 OA
ATOM      5  C   UNL     1     134.900 127.741 130.063  1.00  0.00     0.239 A 
ATOM      6  C   UNL     1     133.524 128.287 128.149  1.00  0.00     0.146 A 
ATOM      7  O   UNL     1     135.062 127.389 131.260  1.00  0.00    -0.285 OA
ATOM      8  C   UNL     1     133.613 127.764 129.468  1.00  0.00     0.111 A 
ATOM      9  C   UNL     1     132.289 128.395 127.507  1.00  0.00     0.094 A 
ATOM     10  C   UNL     1     132.410 127.329 130.107  1.00  0.00     0.134 A 
ATOM     11  C   UNL     1     131.117 128.008 128.158  1.00  0.00     0.123 A 
ATOM     12  C   UNL     1     131.184 127.484 129.447  1.00  0.00     0.093 A 
BRANCH   3  13
ATOM     13  C   UNL     1     136.965 129.157 127.245  1.00  0.00     0.025 A 
ATOM     14  C   UNL     1     138.084 128.333 127.042  1.00  0.00     0.016 A 
ATOM     15  C   UNL     1     139.151 128.779 126.259  1.00  0.00     0.051 A 
ATOM     16  C   UNL     1     139.107 130.050 125.667  1.00  0.00     0.157 A 
ATOM     17  C   UNL     1     136.923 130.432 126.658  1.00  0.00     0.062 A 
ATOM     18  C   UNL     1     137.990 130.876 125.864  1.00  0.00     0.158 A 
BRANCH  16  19
ATOM     19  O   UNL     1     140.164 130.497 124.875  1.00  0.00    -0.504 OA
ATOM     20  H   UNL     1     140.952 129.899 124.653  1.00  0.00     0.293 HD
ENDBRANCH  16  19
BRANCH  18  21
ATOM     21  O   UNL     1     137.942 132.127 125.251  1.00  0.00    -0.504 OA
ATOM     22  H   UNL     1     137.311 132.313 124.480  1.00  0.00     0.293 HD
ENDBRANCH  18  21
ENDBRANCH   3  13
BRANCH  10  23
ATOM     23  O   UNL     1     132.358 126.732 131.370  1.00  0.00    -0.507 OA
ATOM     24  H   UNL     1     131.857 127.086 132.170  1.00  0.00     0.293 HD
ENDBRANCH  10  23
BRANCH  11  25
ATOM     25  O   UNL     1     129.877 128.151 127.536  1.00  0.00    -0.508 OA
ATOM     26  H   UNL     1     129.722 127.845 126.582  1.00  0.00     0.293 HD
ENDBRANCH  11  25
ENDBRANCH   1   2
BRANCH   1  27
ATOM     27  C   UNL     1     137.986 129.218 130.454  1.00  0.00     0.339 C 
ATOM     28  C   UNL     1     138.001 129.002 131.981  1.00  0.00     0.214 C 
ATOM     29  O   UNL     1     139.283 129.381 129.886  1.00  0.00    -0.332 OA
ATOM     30  C   UNL     1     138.784 127.716 132.337  1.00  0.00     0.180 C 
ATOM     31  C   UNL     1     140.331 128.679 130.557  1.00  0.00     0.179 C 
ATOM     32  C   UNL     1     139.855 127.383 131.265  1.00  0.00     0.177 C 
BRANCH  28  33
ATOM     33  O   UNL     1     138.581 130.122 132.609  1.00  0.00    -0.384 OA
ATOM     34  H   UNL     1     137.960 130.401 133.331  1.00  0.00     0.211 HD
ENDBRANCH  28  33
BRANCH  30  35
ATOM     35  O   UNL     1     139.369 127.858 133.608  1.00  0.00    -0.387 OA
ATOM     36  H   UNL     1     140.042 127.132 133.704  1.00  0.00     0.211 HD
ENDBRANCH  30  35
BRANCH  31  37
ATOM     37  C   UNL     1     141.433 128.375 129.537  1.00  0.00     0.191 C 
BRANCH  37  38
ATOM     38  O   UNL     1     142.635 128.115 130.208  1.00  0.00    -0.394 OA
ATOM     39  H   UNL     1     142.616 127.149 130.444  1.00  0.00     0.210 HD
ENDBRANCH  37  38
ENDBRANCH  31  37
BRANCH  32  40
ATOM     40  O   UNL     1     140.945 126.710 131.844  1.00  0.00    -0.387 OA
ATOM     41  H   UNL     1     141.629 127.403 132.051  1.00  0.00     0.211 HD
ENDBRANCH  32  40
ENDBRANCH   1  27
TORSDOF 12
ENDMDL
