MODEL 1
REMARK VINA RESULT:    -6.616      0.000      0.000
REMARK INTER + INTRA:          -8.097
REMARK INTER:                  -7.776
REMARK INTRA:                  -0.321
REMARK UNBOUND:                -0.321
REMARK SMILES Oc1ccc(-c2[o+]c3cc(O)cc(O)c3cc2O)cc1
REMARK SMILES IDX 6 1 7 2 8 3 9 4 10 5 12 6 13 7 15 8 16 9 17 10 5 11 4 12
REMARK SMILES IDX 3 13 2 14 19 15 20 16 1 17 18 19 11 21 14 23
REMARK H PARENT 1 18 18 20 11 22 14 24
REMARK Flexibility Score: inf
ROOT
ATOM      1  C   UNL     1       6.728  10.662  46.744  1.00  0.00     0.401 A 
ATOM      2  O   UNL     1       7.298   9.468  46.889  1.00  0.00    -0.202 OA
ATOM      3  C   UNL     1       8.473   9.151  46.357  1.00  0.00     0.368 A 
ATOM      4  C   UNL     1       8.989   7.869  46.562  1.00  0.00     0.162 A 
ATOM      5  C   UNL     1      10.222   7.507  46.011  1.00  0.00     0.128 A 
ATOM      6  C   UNL     1      10.943   8.433  45.252  1.00  0.00     0.093 A 
ATOM      7  C   UNL     1      10.447   9.724  45.032  1.00  0.00     0.136 A 
ATOM      8  C   UNL     1       9.197  10.096  45.591  1.00  0.00     0.125 A 
ATOM      9  C   UNL     1       8.630  11.371  45.434  1.00  0.00     0.078 A 
ATOM     10  C   UNL     1       7.395  11.666  46.020  1.00  0.00     0.223 A 
ENDROOT
BRANCH   1  11
ATOM     11  C   UNL     1       5.409  10.889  47.378  1.00  0.00     0.084 A 
ATOM     12  C   UNL     1       4.211  10.732  46.656  1.00  0.00     0.022 A 
ATOM     13  C   UNL     1       2.978  10.930  47.283  1.00  0.00     0.047 A 
ATOM     14  C   UNL     1       2.922  11.274  48.636  1.00  0.00     0.115 A 
ATOM     15  C   UNL     1       5.345  11.215  48.743  1.00  0.00     0.022 A 
ATOM     16  C   UNL     1       4.110  11.413  49.366  1.00  0.00     0.047 A 
BRANCH  14  17
ATOM     17  O   UNL     1       1.686  11.469  49.247  1.00  0.00    -0.508 OA
ATOM     18  H   UNL     1       1.138  12.305  49.081  1.00  0.00     0.293 HD
ENDBRANCH  14  17
ENDBRANCH   1  11
BRANCH  10  19
ATOM     19  O   UNL     1       6.855  12.947  45.905  1.00  0.00    -0.500 OA
ATOM     20  H   UNL     1       6.379  13.251  45.064  1.00  0.00     0.294 HD
ENDBRANCH  10  19
BRANCH   5  21
ATOM     21  O   UNL     1      10.743   6.231  46.213  1.00  0.00    -0.507 OA
ATOM     22  H   UNL     1      11.411   6.041  46.950  1.00  0.00     0.293 HD
ENDBRANCH   5  21
BRANCH   7  23
ATOM     23  O   UNL     1      11.227  10.588  44.259  1.00  0.00    -0.507 OA
ATOM     24  H   UNL     1      10.922  11.493  43.932  1.00  0.00     0.293 HD
ENDBRANCH   7  23
TORSDOF 5
ENDMDL
MODEL 2
REMARK VINA RESULT:    -6.230      9.114     12.179
REMARK INTER + INTRA:          -7.643
REMARK INTER:                  -7.345
REMARK INTRA:                  -0.298
REMARK UNBOUND:                -0.321
REMARK SMILES Oc1ccc(-c2[o+]c3cc(O)cc(O)c3cc2O)cc1
REMARK SMILES IDX 6 1 7 2 8 3 9 4 10 5 12 6 13 7 15 8 16 9 17 10 5 11 4 12
REMARK SMILES IDX 3 13 2 14 19 15 20 16 1 17 18 19 11 21 14 23
REMARK H PARENT 1 18 18 20 11 22 14 24
REMARK Flexibility Score: inf
ROOT
ATOM      1  C   UNL     1      10.911   3.771  54.306  1.00  0.00     0.401 A 
ATOM      2  O   UNL     1      10.154   4.846  54.100  1.00  0.00    -0.202 OA
ATOM      3  C   UNL     1       8.853   4.783  53.841  1.00  0.00     0.368 A 
ATOM      4  C   UNL     1       8.142   5.968  53.634  1.00  0.00     0.162 A 
ATOM      5  C   UNL     1       6.773   5.932  53.357  1.00  0.00     0.128 A 
ATOM      6  C   UNL     1       6.111   4.703  53.286  1.00  0.00     0.093 A 
ATOM      7  C   UNL     1       6.800   3.501  53.490  1.00  0.00     0.136 A 
ATOM      8  C   UNL     1       8.190   3.534  53.773  1.00  0.00     0.125 A 
ATOM      9  C   UNL     1       8.958   2.382  54.004  1.00  0.00     0.078 A 
ATOM     10  C   UNL     1      10.324   2.493  54.283  1.00  0.00     0.223 A 
ENDROOT
BRANCH   1  11
ATOM     11  C   UNL     1      12.354   3.972  54.575  1.00  0.00     0.084 A 
ATOM     12  C   UNL     1      13.322   3.771  53.574  1.00  0.00     0.022 A 
ATOM     13  C   UNL     1      14.676   3.989  53.846  1.00  0.00     0.047 A 
ATOM     14  C   UNL     1      15.079   4.422  55.112  1.00  0.00     0.115 A 
ATOM     15  C   UNL     1      12.764   4.426  55.839  1.00  0.00     0.022 A 
ATOM     16  C   UNL     1      14.119   4.643  56.109  1.00  0.00     0.047 A 
BRANCH  14  17
ATOM     17  O   UNL     1      16.431   4.634  55.369  1.00  0.00    -0.508 OA
ATOM     18  H   UNL     1      16.955   5.356  54.890  1.00  0.00     0.293 HD
ENDBRANCH  14  17
ENDBRANCH   1  11
BRANCH  10  19
ATOM     19  O   UNL     1      11.077   1.352  54.560  1.00  0.00    -0.500 OA
ATOM     20  H   UNL     1      11.760   0.992  53.904  1.00  0.00     0.294 HD
ENDBRANCH  10  19
BRANCH   5  21
ATOM     21  O   UNL     1       6.058   7.110  53.151  1.00  0.00    -0.507 OA
ATOM     22  H   UNL     1       5.681   7.643  53.926  1.00  0.00     0.293 HD
ENDBRANCH   5  21
BRANCH   7  23
ATOM     23  O   UNL     1       6.066   2.316  53.398  1.00  0.00    -0.507 OA
ATOM     24  H   UNL     1       5.245   2.109  53.948  1.00  0.00     0.293 HD
ENDBRANCH   7  23
TORSDOF 5
ENDMDL
MODEL 3
REMARK VINA RESULT:    -6.180      2.952      5.132
REMARK INTER + INTRA:          -7.585
REMARK INTER:                  -7.301
REMARK INTRA:                  -0.284
REMARK UNBOUND:                -0.321
REMARK SMILES Oc1ccc(-c2[o+]c3cc(O)cc(O)c3cc2O)cc1
REMARK SMILES IDX 6 1 7 2 8 3 9 4 10 5 12 6 13 7 15 8 16 9 17 10 5 11 4 12
REMARK SMILES IDX 3 13 2 14 19 15 20 16 1 17 18 19 11 21 14 23
REMARK H PARENT 1 18 18 20 11 22 14 24
REMARK Flexibility Score: inf
ROOT
ATOM      1  C   UNL     1       2.610  11.075  48.054  1.00  0.00     0.401 A 
ATOM      2  O   UNL     1       3.482  10.723  47.112  1.00  0.00    -0.202 OA
ATOM      3  C   UNL     1       4.693  11.257  47.003  1.00  0.00     0.368 A 
ATOM      4  C   UNL     1       5.537  10.824  45.977  1.00  0.00     0.162 A 
ATOM      5  C   UNL     1       6.816  11.371  45.836  1.00  0.00     0.128 A 
ATOM      6  C   UNL     1       7.252  12.356  46.726  1.00  0.00     0.093 A 
ATOM      7  C   UNL     1       6.426  12.807  47.762  1.00  0.00     0.136 A 
ATOM      8  C   UNL     1       5.128  12.253  47.910  1.00  0.00     0.125 A 
ATOM      9  C   UNL     1       4.237  12.634  48.926  1.00  0.00     0.078 A 
ATOM     10  C   UNL     1       2.974  12.040  49.012  1.00  0.00     0.223 A 
ENDROOT
BRANCH   1  11
ATOM     11  C   UNL     1       1.285  10.414  48.065  1.00  0.00     0.084 A 
ATOM     12  C   UNL     1       0.131  11.076  47.608  1.00  0.00     0.022 A 
ATOM     13  C   UNL     1      -1.105  10.421  47.607  1.00  0.00     0.047 A 
ATOM     14  C   UNL     1      -1.203   9.099  48.048  1.00  0.00     0.115 A 
ATOM     15  C   UNL     1       1.183   9.078  48.488  1.00  0.00     0.022 A 
ATOM     16  C   UNL     1      -0.054   8.427  48.486  1.00  0.00     0.047 A 
BRANCH  14  17
ATOM     17  O   UNL     1      -2.440   8.460  48.042  1.00  0.00    -0.508 OA
ATOM     18  H   UNL     1      -3.221   8.823  47.510  1.00  0.00     0.293 HD
ENDBRANCH  14  17
ENDBRANCH   1  11
BRANCH  10  19
ATOM     19  O   UNL     1       2.108  12.382  50.051  1.00  0.00    -0.500 OA
ATOM     20  H   UNL     1       1.104  12.411  49.918  1.00  0.00     0.294 HD
ENDBRANCH  10  19
BRANCH   5  21
ATOM     21  O   UNL     1       7.662  10.943  44.816  1.00  0.00    -0.507 OA
ATOM     22  H   UNL     1       7.379  10.975  43.844  1.00  0.00     0.293 HD
ENDBRANCH   5  21
BRANCH   7  23
ATOM     23  O   UNL     1       6.936  13.797  48.607  1.00  0.00    -0.507 OA
ATOM     24  H   UNL     1       7.552  14.539  48.309  1.00  0.00     0.293 HD
ENDBRANCH   7  23
TORSDOF 5
ENDMDL
MODEL 4
REMARK VINA RESULT:    -6.093      1.116      1.204
REMARK INTER + INTRA:          -7.483
REMARK INTER:                  -7.206
REMARK INTRA:                  -0.276
REMARK UNBOUND:                -0.321
REMARK SMILES Oc1ccc(-c2[o+]c3cc(O)cc(O)c3cc2O)cc1
REMARK SMILES IDX 6 1 7 2 8 3 9 4 10 5 12 6 13 7 15 8 16 9 17 10 5 11 4 12
REMARK SMILES IDX 3 13 2 14 19 15 20 16 1 17 18 19 11 21 14 23
REMARK H PARENT 1 18 18 20 11 22 14 24
REMARK Flexibility Score: inf
ROOT
ATOM      1  C   UNL     1       6.561  10.572  47.305  1.00  0.00     0.401 A 
ATOM      2  O   UNL     1       7.163   9.535  47.882  1.00  0.00    -0.202 OA
ATOM      3  C   UNL     1       8.227   8.929  47.366  1.00  0.00     0.368 A 
ATOM      4  C   UNL     1       8.788   7.844  48.045  1.00  0.00     0.162 A 
ATOM      5  C   UNL     1       9.905   7.186  47.523  1.00  0.00     0.128 A 
ATOM      6  C   UNL     1      10.464   7.615  46.316  1.00  0.00     0.093 A 
ATOM      7  C   UNL     1       9.921   8.700  45.617  1.00  0.00     0.136 A 
ATOM      8  C   UNL     1       8.788   9.372  46.144  1.00  0.00     0.125 A 
ATOM      9  C   UNL     1       8.185  10.476  45.519  1.00  0.00     0.078 A 
ATOM     10  C   UNL     1       7.073  11.091  46.102  1.00  0.00     0.223 A 
ENDROOT
BRANCH   1  11
ATOM     11  C   UNL     1       5.376  11.154  47.974  1.00  0.00     0.084 A 
ATOM     12  C   UNL     1       4.074  10.936  47.484  1.00  0.00     0.022 A 
ATOM     13  C   UNL     1       2.969  11.477  48.148  1.00  0.00     0.047 A 
ATOM     14  C   UNL     1       3.145  12.231  49.311  1.00  0.00     0.115 A 
ATOM     15  C   UNL     1       5.543  11.896  49.156  1.00  0.00     0.022 A 
ATOM     16  C   UNL     1       4.436  12.437  49.816  1.00  0.00     0.047 A 
BRANCH  14  17
ATOM     17  O   UNL     1       2.036  12.765  49.960  1.00  0.00    -0.508 OA
ATOM     18  H   UNL     1       2.066  13.678  50.397  1.00  0.00     0.293 HD
ENDBRANCH  14  17
ENDBRANCH   1  11
BRANCH  10  19
ATOM     19  O   UNL     1       6.504  12.217  45.507  1.00  0.00    -0.500 OA
ATOM     20  H   UNL     1       7.056  12.865  44.956  1.00  0.00     0.294 HD
ENDBRANCH  10  19
BRANCH   5  21
ATOM     21  O   UNL     1      10.470   6.104  48.195  1.00  0.00    -0.507 OA
ATOM     22  H   UNL     1      10.761   6.176  49.163  1.00  0.00     0.293 HD
ENDBRANCH   5  21
BRANCH   7  23
ATOM     23  O   UNL     1      10.537   9.064  44.417  1.00  0.00    -0.507 OA
ATOM     24  H   UNL     1      10.158   8.874  43.501  1.00  0.00     0.293 HD
ENDBRANCH   7  23
TORSDOF 5
ENDMDL
MODEL 5
REMARK VINA RESULT:    -6.046      1.782      6.997
REMARK INTER + INTRA:          -7.427
REMARK INTER:                  -7.120
REMARK INTRA:                  -0.307
REMARK UNBOUND:                -0.321
REMARK SMILES Oc1ccc(-c2[o+]c3cc(O)cc(O)c3cc2O)cc1
REMARK SMILES IDX 6 1 7 2 8 3 9 4 10 5 12 6 13 7 15 8 16 9 17 10 5 11 4 12
REMARK SMILES IDX 3 13 2 14 19 15 20 16 1 17 18 19 11 21 14 23
REMARK H PARENT 1 18 18 20 11 22 14 24
REMARK Flexibility Score: inf
ROOT
ATOM      1  C   UNL     1       6.102  11.438  47.126  1.00  0.00     0.401 A 
ATOM      2  O   UNL     1       4.995  10.798  46.757  1.00  0.00    -0.202 OA
ATOM      3  C   UNL     1       3.816  10.984  47.340  1.00  0.00     0.368 A 
ATOM      4  C   UNL     1       2.710  10.262  46.885  1.00  0.00     0.162 A 
ATOM      5  C   UNL     1       1.458  10.436  47.482  1.00  0.00     0.128 A 
ATOM      6  C   UNL     1       1.312  11.337  48.539  1.00  0.00     0.093 A 
ATOM      7  C   UNL     1       2.405  12.073  49.014  1.00  0.00     0.136 A 
ATOM      8  C   UNL     1       3.677  11.901  48.410  1.00  0.00     0.125 A 
ATOM      9  C   UNL     1       4.824  12.605  48.811  1.00  0.00     0.078 A 
ATOM     10  C   UNL     1       6.043  12.386  48.164  1.00  0.00     0.223 A 
ENDROOT
BRANCH   1  11
ATOM     11  C   UNL     1       7.359  11.135  46.405  1.00  0.00     0.084 A 
ATOM     12  C   UNL     1       7.796  11.926  45.326  1.00  0.00     0.022 A 
ATOM     13  C   UNL     1       8.998  11.634  44.675  1.00  0.00     0.047 A 
ATOM     14  C   UNL     1       9.785  10.559  45.099  1.00  0.00     0.115 A 
ATOM     15  C   UNL     1       8.165  10.069  46.838  1.00  0.00     0.022 A 
ATOM     16  C   UNL     1       9.367   9.778  46.185  1.00  0.00     0.047 A 
BRANCH  14  17
ATOM     17  O   UNL     1      10.980  10.279  44.441  1.00  0.00    -0.508 OA
ATOM     18  H   UNL     1      11.024   9.606  43.686  1.00  0.00     0.293 HD
ENDBRANCH  14  17
ENDBRANCH   1  11
BRANCH  10  19
ATOM     19  O   UNL     1       7.172  13.121  48.529  1.00  0.00    -0.500 OA
ATOM     20  H   UNL     1       7.980  13.192  47.922  1.00  0.00     0.294 HD
ENDBRANCH  10  19
BRANCH   5  21
ATOM     21  O   UNL     1       0.352   9.720  47.031  1.00  0.00    -0.507 OA
ATOM     22  H   UNL     1       0.430   9.035  46.288  1.00  0.00     0.293 HD
ENDBRANCH   5  21
BRANCH   7  23
ATOM     23  O   UNL     1       2.175  12.950  50.078  1.00  0.00    -0.507 OA
ATOM     24  H   UNL     1       2.516  13.899  50.118  1.00  0.00     0.293 HD
ENDBRANCH   7  23
TORSDOF 5
ENDMDL
MODEL 6
REMARK VINA RESULT:    -5.913      7.210      9.303
REMARK INTER + INTRA:          -7.270
REMARK INTER:                  -6.962
REMARK INTRA:                  -0.309
REMARK UNBOUND:                -0.321
REMARK SMILES Oc1ccc(-c2[o+]c3cc(O)cc(O)c3cc2O)cc1
REMARK SMILES IDX 6 1 7 2 8 3 9 4 10 5 12 6 13 7 15 8 16 9 17 10 5 11 4 12
REMARK SMILES IDX 3 13 2 14 19 15 20 16 1 17 18 19 11 21 14 23
REMARK H PARENT 1 18 18 20 11 22 14 24
REMARK Flexibility Score: inf
ROOT
ATOM      1  C   UNL     1       9.438   4.588  52.680  1.00  0.00     0.401 A 
ATOM      2  O   UNL     1       9.267   4.511  51.363  1.00  0.00    -0.202 OA
ATOM      3  C   UNL     1       9.328   5.565  50.556  1.00  0.00     0.368 A 
ATOM      4  C   UNL     1       9.130   5.385  49.185  1.00  0.00     0.162 A 
ATOM      5  C   UNL     1       9.185   6.477  48.314  1.00  0.00     0.128 A 
ATOM      6  C   UNL     1       9.440   7.756  48.817  1.00  0.00     0.093 A 
ATOM      7  C   UNL     1       9.642   7.962  50.187  1.00  0.00     0.136 A 
ATOM      8  C   UNL     1       9.588   6.857  51.075  1.00  0.00     0.125 A 
ATOM      9  C   UNL     1       9.791   6.968  52.460  1.00  0.00     0.078 A 
ATOM     10  C   UNL     1       9.729   5.831  53.272  1.00  0.00     0.223 A 
ENDROOT
BRANCH   1  11
ATOM     11  C   UNL     1       9.336   3.342  53.473  1.00  0.00     0.084 A 
ATOM     12  C   UNL     1      10.476   2.589  53.809  1.00  0.00     0.022 A 
ATOM     13  C   UNL     1      10.355   1.428  54.579  1.00  0.00     0.047 A 
ATOM     14  C   UNL     1       9.101   1.011  55.033  1.00  0.00     0.115 A 
ATOM     15  C   UNL     1       8.081   2.928  53.950  1.00  0.00     0.022 A 
ATOM     16  C   UNL     1       7.963   1.766  54.719  1.00  0.00     0.047 A 
BRANCH  14  17
ATOM     17  O   UNL     1       8.996  -0.148  55.798  1.00  0.00    -0.508 OA
ATOM     18  H   UNL     1       9.333  -1.040  55.458  1.00  0.00     0.293 HD
ENDBRANCH  14  17
ENDBRANCH   1  11
BRANCH  10  19
ATOM     19  O   UNL     1       9.979   5.934  54.640  1.00  0.00    -0.500 OA
ATOM     20  H   UNL     1      10.854   6.301  54.995  1.00  0.00     0.294 HD
ENDBRANCH  10  19
BRANCH   5  21
ATOM     21  O   UNL     1       8.989   6.304  46.946  1.00  0.00    -0.507 OA
ATOM     22  H   UNL     1       9.308   6.992  46.274  1.00  0.00     0.293 HD
ENDBRANCH   5  21
BRANCH   7  23
ATOM     23  O   UNL     1       9.888   9.272  50.610  1.00  0.00    -0.507 OA
ATOM     24  H   UNL     1       9.809   9.587  51.566  1.00  0.00     0.293 HD
ENDBRANCH   7  23
TORSDOF 5
ENDMDL
MODEL 7
REMARK VINA RESULT:    -5.904      7.092      9.491
REMARK INTER + INTRA:          -7.260
REMARK INTER:                  -6.959
REMARK INTRA:                  -0.301
REMARK UNBOUND:                -0.321
REMARK SMILES Oc1ccc(-c2[o+]c3cc(O)cc(O)c3cc2O)cc1
REMARK SMILES IDX 6 1 7 2 8 3 9 4 10 5 12 6 13 7 15 8 16 9 17 10 5 11 4 12
REMARK SMILES IDX 3 13 2 14 19 15 20 16 1 17 18 19 11 21 14 23
REMARK H PARENT 1 18 18 20 11 22 14 24
REMARK Flexibility Score: inf
ROOT
ATOM      1  C   UNL     1       9.738   4.782  51.271  1.00  0.00     0.401 A 
ATOM      2  O   UNL     1       8.729   4.429  52.063  1.00  0.00    -0.202 OA
ATOM      3  C   UNL     1       8.872   3.629  53.114  1.00  0.00     0.368 A 
ATOM      4  C   UNL     1       7.751   3.311  53.886  1.00  0.00     0.162 A 
ATOM      5  C   UNL     1       7.873   2.469  54.995  1.00  0.00     0.128 A 
ATOM      6  C   UNL     1       9.122   1.942  55.334  1.00  0.00     0.093 A 
ATOM      7  C   UNL     1      10.260   2.245  54.577  1.00  0.00     0.136 A 
ATOM      8  C   UNL     1      10.142   3.101  53.452  1.00  0.00     0.125 A 
ATOM      9  C   UNL     1      11.230   3.469  52.644  1.00  0.00     0.078 A 
ATOM     10  C   UNL     1      11.037   4.322  51.553  1.00  0.00     0.223 A 
ENDROOT
BRANCH   1  11
ATOM     11  C   UNL     1       9.448   5.671  50.123  1.00  0.00     0.084 A 
ATOM     12  C   UNL     1       8.944   5.165  48.911  1.00  0.00     0.022 A 
ATOM     13  C   UNL     1       8.656   6.029  47.849  1.00  0.00     0.047 A 
ATOM     14  C   UNL     1       8.854   7.405  47.987  1.00  0.00     0.115 A 
ATOM     15  C   UNL     1       9.625   7.058  50.261  1.00  0.00     0.022 A 
ATOM     16  C   UNL     1       9.338   7.919  49.198  1.00  0.00     0.047 A 
BRANCH  14  17
ATOM     17  O   UNL     1       8.565   8.253  46.921  1.00  0.00    -0.508 OA
ATOM     18  H   UNL     1       7.717   8.806  46.899  1.00  0.00     0.293 HD
ENDBRANCH  14  17
ENDBRANCH   1  11
BRANCH  10  19
ATOM     19  O   UNL     1      12.125   4.727  50.780  1.00  0.00    -0.500 OA
ATOM     20  H   UNL     1      13.079   4.513  51.049  1.00  0.00     0.294 HD
ENDBRANCH  10  19
BRANCH   5  21
ATOM     21  O   UNL     1       6.759   2.150  55.769  1.00  0.00    -0.507 OA
ATOM     22  H   UNL     1       5.829   2.459  55.512  1.00  0.00     0.293 HD
ENDBRANCH   5  21
BRANCH   7  23
ATOM     23  O   UNL     1      11.471   1.675  54.981  1.00  0.00    -0.507 OA
ATOM     24  H   UNL     1      12.235   1.458  54.358  1.00  0.00     0.293 HD
ENDBRANCH   7  23
TORSDOF 5
ENDMDL
MODEL 8
REMARK VINA RESULT:    -5.577      2.552      6.995
REMARK INTER + INTRA:          -6.876
REMARK INTER:                  -6.568
REMARK INTRA:                  -0.308
REMARK UNBOUND:                -0.321
REMARK SMILES Oc1ccc(-c2[o+]c3cc(O)cc(O)c3cc2O)cc1
REMARK SMILES IDX 6 1 7 2 8 3 9 4 10 5 12 6 13 7 15 8 16 9 17 10 5 11 4 12
REMARK SMILES IDX 3 13 2 14 19 15 20 16 1 17 18 19 11 21 14 23
REMARK H PARENT 1 18 18 20 11 22 14 24
REMARK Flexibility Score: inf
ROOT
ATOM      1  C   UNL     1       9.338   7.614  47.241  1.00  0.00     0.401 A 
ATOM      2  O   UNL     1       8.669   8.351  48.124  1.00  0.00    -0.202 OA
ATOM      3  C   UNL     1       7.815   9.308  47.778  1.00  0.00     0.368 A 
ATOM      4  C   UNL     1       7.163  10.032  48.779  1.00  0.00     0.162 A 
ATOM      5  C   UNL     1       6.261  11.047  48.444  1.00  0.00     0.128 A 
ATOM      6  C   UNL     1       6.012  11.339  47.100  1.00  0.00     0.093 A 
ATOM      7  C   UNL     1       6.653  10.627  46.078  1.00  0.00     0.136 A 
ATOM      8  C   UNL     1       7.567   9.595  46.414  1.00  0.00     0.125 A 
ATOM      9  C   UNL     1       8.245   8.823  45.457  1.00  0.00     0.078 A 
ATOM     10  C   UNL     1       9.127   7.818  45.865  1.00  0.00     0.223 A 
ENDROOT
BRANCH   1  11
ATOM     11  C   UNL     1      10.270   6.584  47.752  1.00  0.00     0.084 A 
ATOM     12  C   UNL     1      11.658   6.813  47.809  1.00  0.00     0.022 A 
ATOM     13  C   UNL     1      12.515   5.833  48.318  1.00  0.00     0.047 A 
ATOM     14  C   UNL     1      12.002   4.621  48.786  1.00  0.00     0.115 A 
ATOM     15  C   UNL     1       9.759   5.371  48.243  1.00  0.00     0.022 A 
ATOM     16  C   UNL     1      10.619   4.393  48.751  1.00  0.00     0.047 A 
BRANCH  14  17
ATOM     17  O   UNL     1      12.868   3.654  49.289  1.00  0.00    -0.508 OA
ATOM     18  H   UNL     1      12.556   2.956  49.953  1.00  0.00     0.293 HD
ENDBRANCH  14  17
ENDBRANCH   1  11
BRANCH  10  19
ATOM     19  O   UNL     1       9.763   7.017  44.915  1.00  0.00    -0.500 OA
ATOM     20  H   UNL     1       9.809   6.010  45.013  1.00  0.00     0.294 HD
ENDBRANCH  10  19
BRANCH   5  21
ATOM     21  O   UNL     1       5.607  11.772  49.437  1.00  0.00    -0.507 OA
ATOM     22  H   UNL     1       6.103  12.133  50.243  1.00  0.00     0.293 HD
ENDBRANCH   5  21
BRANCH   7  23
ATOM     23  O   UNL     1       6.351  10.983  44.761  1.00  0.00    -0.507 OA
ATOM     24  H   UNL     1       7.037  11.253  44.071  1.00  0.00     0.293 HD
ENDBRANCH   7  23
TORSDOF 5
ENDMDL
