MODEL 1
REMARK VINA RESULT:    -3.660      0.000      0.000
REMARK INTER + INTRA:          -7.048
REMARK INTER:                  -5.800
REMARK INTRA:                  -1.248
REMARK UNBOUND:                -1.248
REMARK SMILES CCCCCCCCCCCC(=O)[O-]
REMARK SMILES IDX 7 1 8 2 9 3 10 4 11 5 12 6 13 7 14 8 6 9 5 10 4 11 3 12 2 13
REMARK SMILES IDX 1 14
REMARK H PARENT
REMARK Flexibility Score: inf
ROOT
ATOM      1  C   UNL     1      40.042  11.248  11.575  1.00  0.00     0.000 C 
ENDROOT
BRANCH   1   2
ATOM      2  C   UNL     1      40.137  12.247  12.743  1.00  0.00     0.000 C 
BRANCH   2   3
ATOM      3  C   UNL     1      41.336  11.981  13.665  1.00  0.00     0.000 C 
BRANCH   3   4
ATOM      4  C   UNL     1      41.085  12.546  15.070  1.00  0.00     0.006 C 
BRANCH   4   5
ATOM      5  C   UNL     1      42.014  11.923  16.122  1.00  0.00     0.053 C 
BRANCH   5   6
ATOM      6  C   UNL     1      42.042  12.726  17.385  1.00  0.00     0.041 C 
ATOM      7  O   UNL     1      41.161  13.599  17.599  1.00  0.00    -0.550 OA
ATOM      8  O   UNL     1      43.061  12.535  18.310  1.00  0.00    -0.550 OA
ENDBRANCH   5   6
ENDBRANCH   4   5
ENDBRANCH   3   4
ENDBRANCH   2   3
ENDBRANCH   1   2
BRANCH   1   9
ATOM      9  C   UNL     1      41.095  10.125  11.596  1.00  0.00     0.000 C 
BRANCH   9  10
ATOM     10  C   UNL     1      40.469   8.720  11.610  1.00  0.00    -0.000 C 
BRANCH  10  11
ATOM     11  C   UNL     1      38.997   8.725  12.060  1.00  0.00    -0.000 C 
BRANCH  11  12
ATOM     12  C   UNL     1      38.767   8.326  13.529  1.00  0.00    -0.000 C 
BRANCH  12  13
ATOM     13  C   UNL     1      38.275   9.494  14.397  1.00  0.00    -0.003 C 
ATOM     14  C   UNL     1      39.002   9.528  15.737  1.00  0.00     0.004 C 
ENDBRANCH  12  13
ENDBRANCH  11  12
ENDBRANCH  10  11
ENDBRANCH   9  10
ENDBRANCH   1   9
TORSDOF 10
ENDMDL
MODEL 2
REMARK VINA RESULT:    -3.453      1.872      2.727
REMARK INTER + INTRA:          -6.719
REMARK INTER:                  -5.416
REMARK INTRA:                  -1.303
REMARK UNBOUND:                -1.248
REMARK SMILES CCCCCCCCCCCC(=O)[O-]
REMARK SMILES IDX 7 1 8 2 9 3 10 4 11 5 12 6 13 7 14 8 6 9 5 10 4 11 3 12 2 13
REMARK SMILES IDX 1 14
REMARK H PARENT
REMARK Flexibility Score: inf
ROOT
ATOM      1  C   UNL     1      40.110  12.292  12.741  1.00  0.00     0.000 C 
ENDROOT
BRANCH   1   2
ATOM      2  C   UNL     1      41.252  11.992  13.728  1.00  0.00     0.000 C 
BRANCH   2   3
ATOM      3  C   UNL     1      40.775  11.880  15.184  1.00  0.00     0.000 C 
BRANCH   3   4
ATOM      4  C   UNL     1      39.412  12.562  15.369  1.00  0.00     0.006 C 
BRANCH   4   5
ATOM      5  C   UNL     1      39.503  13.811  16.257  1.00  0.00     0.053 C 
BRANCH   5   6
ATOM      6  C   UNL     1      39.605  15.065  15.444  1.00  0.00     0.041 C 
ATOM      7  O   UNL     1      40.699  15.387  14.911  1.00  0.00    -0.550 OA
ATOM      8  O   UNL     1      38.500  15.896  15.303  1.00  0.00    -0.550 OA
ENDBRANCH   5   6
ENDBRANCH   4   5
ENDBRANCH   3   4
ENDBRANCH   2   3
ENDBRANCH   1   2
BRANCH   1   9
ATOM      9  C   UNL     1      39.961  11.275  11.595  1.00  0.00     0.000 C 
BRANCH   9  10
ATOM     10  C   UNL     1      41.092  10.233  11.569  1.00  0.00    -0.000 C 
BRANCH  10  11
ATOM     11  C   UNL     1      40.572   8.785  11.546  1.00  0.00    -0.000 C 
BRANCH  11  12
ATOM     12  C   UNL     1      39.087   8.624  11.920  1.00  0.00    -0.000 C 
BRANCH  12  13
ATOM     13  C   UNL     1      38.884   8.074  13.341  1.00  0.00    -0.003 C 
ATOM     14  C   UNL     1      38.359   9.157  14.279  1.00  0.00     0.004 C 
ENDBRANCH  12  13
ENDBRANCH  11  12
ENDBRANCH  10  11
ENDBRANCH   9  10
ENDBRANCH   1   9
TORSDOF 10
ENDMDL
MODEL 3
REMARK VINA RESULT:    -3.410      1.412      1.939
REMARK INTER + INTRA:          -6.652
REMARK INTER:                  -5.411
REMARK INTRA:                  -1.241
REMARK UNBOUND:                -1.248
REMARK SMILES CCCCCCCCCCCC(=O)[O-]
REMARK SMILES IDX 7 1 8 2 9 3 10 4 11 5 12 6 13 7 14 8 6 9 5 10 4 11 3 12 2 13
REMARK SMILES IDX 1 14
REMARK H PARENT
REMARK Flexibility Score: inf
ROOT
ATOM      1  C   UNL     1      40.435  12.524  12.852  1.00  0.00     0.000 C 
ENDROOT
BRANCH   1   2
ATOM      2  C   UNL     1      38.924  12.315  13.062  1.00  0.00     0.000 C 
BRANCH   2   3
ATOM      3  C   UNL     1      38.469  12.618  14.497  1.00  0.00     0.000 C 
BRANCH   3   4
ATOM      4  C   UNL     1      39.671  12.936  15.399  1.00  0.00     0.006 C 
BRANCH   4   5
ATOM      5  C   UNL     1      39.981  11.796  16.378  1.00  0.00     0.053 C 
BRANCH   5   6
ATOM      6  C   UNL     1      41.453  11.631  16.592  1.00  0.00     0.041 C 
ATOM      7  O   UNL     1      42.271  12.293  15.900  1.00  0.00    -0.550 OA
ATOM      8  O   UNL     1      41.924  10.723  17.532  1.00  0.00    -0.550 OA
ENDBRANCH   5   6
ENDBRANCH   4   5
ENDBRANCH   3   4
ENDBRANCH   2   3
ENDBRANCH   1   2
BRANCH   1   9
ATOM      9  C   UNL     1      41.250  11.230  12.671  1.00  0.00     0.000 C 
BRANCH   9  10
ATOM     10  C   UNL     1      40.922  10.496  11.360  1.00  0.00    -0.000 C 
BRANCH  10  11
ATOM     11  C   UNL     1      40.567   9.015  11.576  1.00  0.00    -0.000 C 
BRANCH  11  12
ATOM     12  C   UNL     1      39.074   8.735  11.825  1.00  0.00    -0.000 C 
BRANCH  12  13
ATOM     13  C   UNL     1      38.819   7.948  13.119  1.00  0.00    -0.003 C 
ATOM     14  C   UNL     1      38.638   8.887  14.308  1.00  0.00     0.004 C 
ENDBRANCH  12  13
ENDBRANCH  11  12
ENDBRANCH  10  11
ENDBRANCH   9  10
ENDBRANCH   1   9
TORSDOF 10
ENDMDL
MODEL 4
REMARK VINA RESULT:    -3.386      2.182      3.957
REMARK INTER + INTRA:          -6.613
REMARK INTER:                  -5.611
REMARK INTRA:                  -1.002
REMARK UNBOUND:                -1.248
REMARK SMILES CCCCCCCCCCCC(=O)[O-]
REMARK SMILES IDX 7 1 8 2 9 3 10 4 11 5 12 6 13 7 14 8 6 9 5 10 4 11 3 12 2 13
REMARK SMILES IDX 1 14
REMARK H PARENT
REMARK Flexibility Score: inf
ROOT
ATOM      1  C   UNL     1      41.571  12.010  14.879  1.00  0.00     0.000 C 
ENDROOT
BRANCH   1   2
ATOM      2  C   UNL     1      42.009  12.573  16.243  1.00  0.00     0.000 C 
BRANCH   2   3
ATOM      3  C   UNL     1      40.834  12.802  17.205  1.00  0.00     0.000 C 
BRANCH   3   4
ATOM      4  C   UNL     1      40.861  14.227  17.777  1.00  0.00     0.006 C 
BRANCH   4   5
ATOM      5  C   UNL     1      39.852  15.151  17.081  1.00  0.00     0.053 C 
BRANCH   5   6
ATOM      6  C   UNL     1      40.506  16.003  16.038  1.00  0.00     0.041 C 
ATOM      7  O   UNL     1      40.914  17.158  16.329  1.00  0.00    -0.550 OA
ATOM      8  O   UNL     1      40.636  15.535  14.736  1.00  0.00    -0.550 OA
ENDBRANCH   5   6
ENDBRANCH   4   5
ENDBRANCH   3   4
ENDBRANCH   2   3
ENDBRANCH   1   2
BRANCH   1   9
ATOM      9  C   UNL     1      40.091  11.592  14.796  1.00  0.00     0.000 C 
BRANCH   9  10
ATOM     10  C   UNL     1      39.288  12.434  13.790  1.00  0.00    -0.000 C 
BRANCH  10  11
ATOM     11  C   UNL     1      39.853  12.358  12.361  1.00  0.00    -0.000 C 
BRANCH  11  12
ATOM     12  C   UNL     1      39.557  11.043  11.616  1.00  0.00    -0.000 C 
BRANCH  12  13
ATOM     13  C   UNL     1      40.776  10.113  11.535  1.00  0.00    -0.003 C 
ATOM     14  C   UNL     1      40.364   8.652  11.683  1.00  0.00     0.004 C 
ENDBRANCH  12  13
ENDBRANCH  11  12
ENDBRANCH  10  11
ENDBRANCH   9  10
ENDBRANCH   1   9
TORSDOF 10
ENDMDL
MODEL 5
REMARK VINA RESULT:    -3.318      3.305      5.793
REMARK INTER + INTRA:          -6.505
REMARK INTER:                  -5.337
REMARK INTRA:                  -1.168
REMARK UNBOUND:                -1.248
REMARK SMILES CCCCCCCCCCCC(=O)[O-]
REMARK SMILES IDX 7 1 8 2 9 3 10 4 11 5 12 6 13 7 14 8 6 9 5 10 4 11 3 12 2 13
REMARK SMILES IDX 1 14
REMARK H PARENT
REMARK Flexibility Score: inf
ROOT
ATOM      1  C   UNL     1      40.826  11.901  14.774  1.00  0.00     0.000 C 
ENDROOT
BRANCH   1   2
ATOM      2  C   UNL     1      40.796  12.837  13.552  1.00  0.00     0.000 C 
BRANCH   2   3
ATOM      3  C   UNL     1      39.502  12.713  12.732  1.00  0.00     0.000 C 
BRANCH   3   4
ATOM      4  C   UNL     1      39.001  11.262  12.713  1.00  0.00     0.006 C 
BRANCH   4   5
ATOM      5  C   UNL     1      39.406  10.524  11.429  1.00  0.00     0.053 C 
BRANCH   5   6
ATOM      6  C   UNL     1      40.606   9.655  11.643  1.00  0.00     0.041 C 
ATOM      7  O   UNL     1      41.760  10.159  11.646  1.00  0.00    -0.550 OA
ATOM      8  O   UNL     1      40.453   8.283  11.804  1.00  0.00    -0.550 OA
ENDBRANCH   5   6
ENDBRANCH   4   5
ENDBRANCH   3   4
ENDBRANCH   2   3
ENDBRANCH   1   2
BRANCH   1   9
ATOM      9  C   UNL     1      42.043  12.083  15.699  1.00  0.00     0.000 C 
BRANCH   9  10
ATOM     10  C   UNL     1      41.697  12.825  17.002  1.00  0.00    -0.000 C 
BRANCH  10  11
ATOM     11  C   UNL     1      40.193  13.114  17.145  1.00  0.00    -0.000 C 
BRANCH  11  12
ATOM     12  C   UNL     1      39.828  14.605  17.263  1.00  0.00    -0.000 C 
BRANCH  12  13
ATOM     13  C   UNL     1      39.247  15.184  15.964  1.00  0.00    -0.003 C 
ATOM     14  C   UNL     1      40.255  16.094  15.269  1.00  0.00     0.004 C 
ENDBRANCH  12  13
ENDBRANCH  11  12
ENDBRANCH  10  11
ENDBRANCH   9  10
ENDBRANCH   1   9
TORSDOF 10
ENDMDL
MODEL 6
REMARK VINA RESULT:    -3.285      1.138      3.015
REMARK INTER + INTRA:          -6.453
REMARK INTER:                  -5.035
REMARK INTRA:                  -1.418
REMARK UNBOUND:                -1.248
REMARK SMILES CCCCCCCCCCCC(=O)[O-]
REMARK SMILES IDX 7 1 8 2 9 3 10 4 11 5 12 6 13 7 14 8 6 9 5 10 4 11 3 12 2 13
REMARK SMILES IDX 1 14
REMARK H PARENT
REMARK Flexibility Score: inf
ROOT
ATOM      1  C   UNL     1      38.620   8.210  13.453  1.00  0.00     0.000 C 
ENDROOT
BRANCH   1   2
ATOM      2  C   UNL     1      38.202   9.406  14.328  1.00  0.00     0.000 C 
BRANCH   2   3
ATOM      3  C   UNL     1      39.180   9.679  15.480  1.00  0.00     0.000 C 
BRANCH   3   4
ATOM      4  C   UNL     1      39.059  11.128  15.973  1.00  0.00     0.006 C 
BRANCH   4   5
ATOM      5  C   UNL     1      39.944  11.402  17.197  1.00  0.00     0.053 C 
BRANCH   5   6
ATOM      6  C   UNL     1      41.114  12.270  16.854  1.00  0.00     0.041 C 
ATOM      7  O   UNL     1      40.968  13.516  16.746  1.00  0.00    -0.550 OA
ATOM      8  O   UNL     1      42.360  11.700  16.620  1.00  0.00    -0.550 OA
ENDBRANCH   5   6
ENDBRANCH   4   5
ENDBRANCH   3   4
ENDBRANCH   2   3
ENDBRANCH   1   2
BRANCH   1   9
ATOM      9  C   UNL     1      39.272   8.586  12.110  1.00  0.00     0.000 C 
BRANCH   9  10
ATOM     10  C   UNL     1      38.773   9.933  11.560  1.00  0.00    -0.000 C 
BRANCH  10  11
ATOM     11  C   UNL     1      39.918  10.917  11.259  1.00  0.00    -0.000 C 
BRANCH  11  12
ATOM     12  C   UNL     1      41.223  10.647  12.028  1.00  0.00    -0.000 C 
BRANCH  12  13
ATOM     13  C   UNL     1      41.462  11.645  13.172  1.00  0.00    -0.003 C 
ATOM     14  C   UNL     1      40.454  12.789  13.122  1.00  0.00     0.004 C 
ENDBRANCH  12  13
ENDBRANCH  11  12
ENDBRANCH  10  11
ENDBRANCH   9  10
ENDBRANCH   1   9
TORSDOF 10
ENDMDL
MODEL 7
REMARK VINA RESULT:    -3.278      1.805      2.888
REMARK INTER + INTRA:          -6.441
REMARK INTER:                  -5.293
REMARK INTRA:                  -1.149
REMARK UNBOUND:                -1.248
REMARK SMILES CCCCCCCCCCCC(=O)[O-]
REMARK SMILES IDX 7 1 8 2 9 3 10 4 11 5 12 6 13 7 14 8 6 9 5 10 4 11 3 12 2 13
REMARK SMILES IDX 1 14
REMARK H PARENT
REMARK Flexibility Score: inf
ROOT
ATOM      1  C   UNL     1      41.260  12.177  13.487  1.00  0.00     0.000 C 
ENDROOT
BRANCH   1   2
ATOM      2  C   UNL     1      41.098  11.792  14.970  1.00  0.00     0.000 C 
BRANCH   2   3
ATOM      3  C   UNL     1      39.643  11.488  15.356  1.00  0.00     0.000 C 
BRANCH   3   4
ATOM      4  C   UNL     1      39.534  11.123  16.844  1.00  0.00     0.006 C 
BRANCH   4   5
ATOM      5  C   UNL     1      39.937   9.668  17.116  1.00  0.00     0.053 C 
BRANCH   5   6
ATOM      6  C   UNL     1      41.148   9.581  17.993  1.00  0.00     0.041 C 
ATOM      7  O   UNL     1      41.653  10.627  18.479  1.00  0.00    -0.550 OA
ATOM      8  O   UNL     1      41.738   8.349  18.246  1.00  0.00    -0.550 OA
ENDBRANCH   5   6
ENDBRANCH   4   5
ENDBRANCH   3   4
ENDBRANCH   2   3
ENDBRANCH   1   2
BRANCH   1   9
ATOM      9  C   UNL     1      39.940  12.332  12.711  1.00  0.00     0.000 C 
BRANCH   9  10
ATOM     10  C   UNL     1      39.771  11.279  11.602  1.00  0.00    -0.000 C 
BRANCH  10  11
ATOM     11  C   UNL     1      40.917  10.253  11.572  1.00  0.00    -0.000 C 
BRANCH  11  12
ATOM     12  C   UNL     1      40.472   8.781  11.634  1.00  0.00    -0.000 C 
BRANCH  12  13
ATOM     13  C   UNL     1      38.999   8.618  12.042  1.00  0.00    -0.003 C 
ATOM     14  C   UNL     1      38.870   8.335  13.535  1.00  0.00     0.004 C 
ENDBRANCH  12  13
ENDBRANCH  11  12
ENDBRANCH  10  11
ENDBRANCH   9  10
ENDBRANCH   1   9
TORSDOF 10
ENDMDL
MODEL 8
REMARK VINA RESULT:    -3.200      1.502      3.633
REMARK INTER + INTRA:          -6.318
REMARK INTER:                  -5.101
REMARK INTRA:                  -1.217
REMARK UNBOUND:                -1.248
REMARK SMILES CCCCCCCCCCCC(=O)[O-]
REMARK SMILES IDX 7 1 8 2 9 3 10 4 11 5 12 6 13 7 14 8 6 9 5 10 4 11 3 12 2 13
REMARK SMILES IDX 1 14
REMARK H PARENT
REMARK Flexibility Score: inf
ROOT
ATOM      1  C   UNL     1      38.782  10.248  16.280  1.00  0.00     0.000 C 
ENDROOT
BRANCH   1   2
ATOM      2  C   UNL     1      39.623  10.947  17.365  1.00  0.00     0.000 C 
BRANCH   2   3
ATOM      3  C   UNL     1      41.126  10.658  17.239  1.00  0.00     0.000 C 
BRANCH   3   4
ATOM      4  C   UNL     1      41.939  11.960  17.256  1.00  0.00     0.006 C 
BRANCH   4   5
ATOM      5  C   UNL     1      42.013  12.617  15.870  1.00  0.00     0.053 C 
BRANCH   5   6
ATOM      6  C   UNL     1      41.115  13.810  15.772  1.00  0.00     0.041 C 
ATOM      7  O   UNL     1      40.901  14.352  14.656  1.00  0.00    -0.550 OA
ATOM      8  O   UNL     1      40.539  14.346  16.919  1.00  0.00    -0.550 OA
ENDBRANCH   5   6
ENDBRANCH   4   5
ENDBRANCH   3   4
ENDBRANCH   2   3
ENDBRANCH   1   2
BRANCH   1   9
ATOM      9  C   UNL     1      39.358  10.341  14.855  1.00  0.00     0.000 C 
BRANCH   9  10
ATOM     10  C   UNL     1      38.688  11.439  14.011  1.00  0.00    -0.000 C 
BRANCH  10  11
ATOM     11  C   UNL     1      39.497  11.802  12.753  1.00  0.00    -0.000 C 
BRANCH  11  12
ATOM     12  C   UNL     1      40.911  11.198  12.694  1.00  0.00    -0.000 C 
BRANCH  12  13
ATOM     13  C   UNL     1      41.128  10.296  11.470  1.00  0.00    -0.003 C 
ATOM     14  C   UNL     1      40.371   8.979  11.616  1.00  0.00     0.004 C 
ENDBRANCH  12  13
ENDBRANCH  11  12
ENDBRANCH  10  11
ENDBRANCH   9  10
ENDBRANCH   1   9
TORSDOF 10
ENDMDL
MODEL 9
REMARK VINA RESULT:    -3.175      3.589      5.776
REMARK INTER + INTRA:          -6.279
REMARK INTER:                  -4.875
REMARK INTRA:                  -1.403
REMARK UNBOUND:                -1.248
REMARK SMILES CCCCCCCCCCCC(=O)[O-]
REMARK SMILES IDX 7 1 8 2 9 3 10 4 11 5 12 6 13 7 14 8 6 9 5 10 4 11 3 12 2 13
REMARK SMILES IDX 1 14
REMARK H PARENT
REMARK Flexibility Score: inf
ROOT
ATOM      1  C   UNL     1      41.822  12.688  15.856  1.00  0.00     0.000 C 
ENDROOT
BRANCH   1   2
ATOM      2  C   UNL     1      41.348  11.882  14.633  1.00  0.00     0.000 C 
BRANCH   2   3
ATOM      3  C   UNL     1      40.976  12.769  13.435  1.00  0.00     0.000 C 
BRANCH   3   4
ATOM      4  C   UNL     1      39.860  12.125  12.600  1.00  0.00     0.006 C 
BRANCH   4   5
ATOM      5  C   UNL     1      39.762  10.610  12.829  1.00  0.00     0.053 C 
BRANCH   5   6
ATOM      6  C   UNL     1      40.381   9.837  11.706  1.00  0.00     0.041 C 
ATOM      7  O   UNL     1      40.353   8.578  11.714  1.00  0.00    -0.550 OA
ATOM      8  O   UNL     1      41.017  10.505  10.667  1.00  0.00    -0.550 OA
ENDBRANCH   5   6
ENDBRANCH   4   5
ENDBRANCH   3   4
ENDBRANCH   2   3
ENDBRANCH   1   2
BRANCH   1   9
ATOM      9  C   UNL     1      40.784  12.824  16.984  1.00  0.00     0.000 C 
BRANCH   9  10
ATOM     10  C   UNL     1      39.399  12.280  16.591  1.00  0.00    -0.000 C 
BRANCH  10  11
ATOM     11  C   UNL     1      38.312  13.369  16.576  1.00  0.00    -0.000 C 
BRANCH  11  12
ATOM     12  C   UNL     1      38.347  14.303  15.353  1.00  0.00    -0.000 C 
BRANCH  12  13
ATOM     13  C   UNL     1      38.766  15.738  15.706  1.00  0.00    -0.003 C 
ATOM     14  C   UNL     1      40.187  16.028  15.232  1.00  0.00     0.004 C 
ENDBRANCH  12  13
ENDBRANCH  11  12
ENDBRANCH  10  11
ENDBRANCH   9  10
ENDBRANCH   1   9
TORSDOF 10
ENDMDL
