MODEL 1
REMARK VINA RESULT:    -4.978      0.000      0.000
REMARK INTER + INTRA:          -6.498
REMARK INTER:                  -6.142
REMARK INTRA:                  -0.356
REMARK UNBOUND:                -0.356
REMARK SMILES O=C1c2c(O)cc(O)cc2O[C@@H](c2cc(O)c(O)c(O)c2)[C@H]1O
REMARK SMILES IDX 12 1 22 2 2 3 1 4 3 5 4 6 6 7 7 8 9 9 10 10 11 11 13 12
REMARK SMILES IDX 14 13 15 14 21 15 17 16 19 17 16 18 18 20 20 22 23 24 5 26
REMARK SMILES IDX 8 28
REMARK H PARENT 16 19 18 21 20 23 23 25 5 27 8 29
REMARK Flexibility Score: inf
ROOT
ATOM      1  C   UNL     1      -6.288  -5.634   0.706  1.00  0.00     0.240 C 
ATOM      2  C   UNL     1      -6.598  -6.622   1.850  1.00  0.00     0.231 C 
ATOM      3  C   UNL     1      -7.952  -7.239   1.617  1.00  0.00     0.202 C 
ATOM      4  O   UNL     1      -8.098  -8.479   1.775  1.00  0.00    -0.291 OA
ATOM      5  C   UNL     1      -9.067  -6.376   1.148  1.00  0.00     0.105 A 
ATOM      6  C   UNL     1     -10.439  -6.729   1.237  1.00  0.00     0.133 A 
ATOM      7  C   UNL     1     -11.409  -5.873   0.701  1.00  0.00     0.093 A 
ATOM      8  C   UNL     1     -11.050  -4.649   0.134  1.00  0.00     0.123 A 
ATOM      9  C   UNL     1      -9.705  -4.273   0.089  1.00  0.00     0.093 A 
ATOM     10  C   UNL     1      -8.717  -5.129   0.579  1.00  0.00     0.138 A 
ATOM     11  O   UNL     1      -7.376  -4.728   0.507  1.00  0.00    -0.481 OA
ENDROOT
BRANCH   1  12
ATOM     12  C   UNL     1      -5.002  -4.879   0.955  1.00  0.00     0.003 A 
ATOM     13  C   UNL     1      -3.754  -5.484   0.739  1.00  0.00     0.058 A 
ATOM     14  C   UNL     1      -2.565  -4.772   0.935  1.00  0.00     0.161 A 
ATOM     15  C   UNL     1      -5.049  -3.533   1.344  1.00  0.00     0.058 A 
ATOM     16  C   UNL     1      -2.620  -3.419   1.346  1.00  0.00     0.200 A 
ATOM     17  C   UNL     1      -3.867  -2.808   1.544  1.00  0.00     0.161 A 
BRANCH  14  18
ATOM     18  O   UNL     1      -1.360  -5.442   0.707  1.00  0.00    -0.504 OA
ATOM     19  H   UNL     1      -0.463  -5.122   1.042  1.00  0.00     0.293 HD
ENDBRANCH  14  18
BRANCH  16  20
ATOM     20  O   UNL     1      -1.472  -2.653   1.565  1.00  0.00    -0.502 OA
ATOM     21  H   UNL     1      -1.011  -2.108   0.852  1.00  0.00     0.293 HD
ENDBRANCH  16  20
BRANCH  17  22
ATOM     22  O   UNL     1      -3.923  -1.473   1.941  1.00  0.00    -0.504 OA
ATOM     23  H   UNL     1      -4.618  -0.836   1.568  1.00  0.00     0.293 HD
ENDBRANCH  17  22
ENDBRANCH   1  12
BRANCH   2  24
ATOM     24  O   UNL     1      -6.556  -5.999   3.111  1.00  0.00    -0.381 OA
ATOM     25  H   UNL     1      -6.106  -6.619   3.744  1.00  0.00     0.211 HD
ENDBRANCH   2  24
BRANCH   6  26
ATOM     26  O   UNL     1     -10.890  -7.889   1.873  1.00  0.00    -0.507 OA
ATOM     27  H   UNL     1     -11.834  -8.240   1.806  1.00  0.00     0.293 HD
ENDBRANCH   6  26
BRANCH   8  28
ATOM     28  O   UNL     1     -12.040  -3.810  -0.374  1.00  0.00    -0.508 OA
ATOM     29  H   UNL     1     -13.022  -4.042  -0.295  1.00  0.00     0.293 HD
ENDBRANCH   8  28
TORSDOF 7
ENDMDL
MODEL 2
REMARK VINA RESULT:    -4.884     11.066     15.158
REMARK INTER + INTRA:          -6.382
REMARK INTER:                  -6.294
REMARK INTRA:                  -0.088
REMARK UNBOUND:                -0.356
REMARK SMILES O=C1c2c(O)cc(O)cc2O[C@@H](c2cc(O)c(O)c(O)c2)[C@H]1O
REMARK SMILES IDX 12 1 22 2 2 3 1 4 3 5 4 6 6 7 7 8 9 9 10 10 11 11 13 12
REMARK SMILES IDX 14 13 15 14 21 15 17 16 19 17 16 18 18 20 20 22 23 24 5 26
REMARK SMILES IDX 8 28
REMARK H PARENT 16 19 18 21 20 23 23 25 5 27 8 29
REMARK Flexibility Score: inf
ROOT
ATOM      1  C   UNL     1       2.966   0.479   7.921  1.00  0.00     0.240 C 
ATOM      2  C   UNL     1       3.614  -0.496   6.916  1.00  0.00     0.231 C 
ATOM      3  C   UNL     1       4.961  -0.920   7.438  1.00  0.00     0.202 C 
ATOM      4  O   UNL     1       5.287  -2.135   7.383  1.00  0.00    -0.291 OA
ATOM      5  C   UNL     1       5.847   0.097   8.061  1.00  0.00     0.105 A 
ATOM      6  C   UNL     1       7.243  -0.076   8.256  1.00  0.00     0.133 A 
ATOM      7  C   UNL     1       7.976   0.918   8.918  1.00  0.00     0.093 A 
ATOM      8  C   UNL     1       7.364   2.102   9.334  1.00  0.00     0.123 A 
ATOM      9  C   UNL     1       6.001   2.299   9.100  1.00  0.00     0.093 A 
ATOM     10  C   UNL     1       5.242   1.304   8.480  1.00  0.00     0.138 A 
ATOM     11  O   UNL     1       3.874   1.528   8.271  1.00  0.00    -0.481 OA
ENDROOT
BRANCH   1  12
ATOM     12  C   UNL     1       1.671   1.050   7.388  1.00  0.00     0.003 A 
ATOM     13  C   UNL     1       0.430   0.551   7.814  1.00  0.00     0.058 A 
ATOM     14  C   UNL     1      -0.768   1.105   7.348  1.00  0.00     0.161 A 
ATOM     15  C   UNL     1       1.701   2.138   6.505  1.00  0.00     0.058 A 
ATOM     16  C   UNL     1      -0.729   2.191   6.441  1.00  0.00     0.200 A 
ATOM     17  C   UNL     1       0.510   2.702   6.029  1.00  0.00     0.161 A 
BRANCH  14  18
ATOM     18  O   UNL     1      -1.964   0.551   7.811  1.00  0.00    -0.504 OA
ATOM     19  H   UNL     1      -2.148  -0.441   7.854  1.00  0.00     0.293 HD
ENDBRANCH  14  18
BRANCH  16  20
ATOM     20  O   UNL     1      -1.886   2.786   5.932  1.00  0.00    -0.502 OA
ATOM     21  H   UNL     1      -2.505   2.345   5.268  1.00  0.00     0.293 HD
ENDBRANCH  16  20
BRANCH  17  22
ATOM     22  O   UNL     1       0.550   3.777   5.143  1.00  0.00    -0.504 OA
ATOM     23  H   UNL     1       1.112   3.751   4.299  1.00  0.00     0.293 HD
ENDBRANCH  17  22
ENDBRANCH   1  12
BRANCH   2  24
ATOM     24  O   UNL     1       3.745   0.075   5.636  1.00  0.00    -0.381 OA
ATOM     25  H   UNL     1       4.569   0.627   5.630  1.00  0.00     0.211 HD
ENDBRANCH   2  24
BRANCH   6  26
ATOM     26  O   UNL     1       7.949  -1.185   7.786  1.00  0.00    -0.507 OA
ATOM     27  H   UNL     1       8.935  -1.337   7.942  1.00  0.00     0.293 HD
ENDBRANCH   6  26
BRANCH   8  28
ATOM     28  O   UNL     1       8.124   3.080   9.973  1.00  0.00    -0.508 OA
ATOM     29  H   UNL     1       8.918   2.839  10.553  1.00  0.00     0.293 HD
ENDBRANCH   8  28
TORSDOF 7
ENDMDL
MODEL 3
REMARK VINA RESULT:    -4.644      1.913      7.129
REMARK INTER + INTRA:          -6.085
REMARK INTER:                  -5.772
REMARK INTRA:                  -0.314
REMARK UNBOUND:                -0.356
REMARK SMILES O=C1c2c(O)cc(O)cc2O[C@@H](c2cc(O)c(O)c(O)c2)[C@H]1O
REMARK SMILES IDX 12 1 22 2 2 3 1 4 3 5 4 6 6 7 7 8 9 9 10 10 11 11 13 12
REMARK SMILES IDX 14 13 15 14 21 15 17 16 19 17 16 18 18 20 20 22 23 24 5 26
REMARK SMILES IDX 8 28
REMARK H PARENT 16 19 18 21 20 23 23 25 5 27 8 29
REMARK Flexibility Score: inf
ROOT
ATOM      1  C   UNL     1      -5.092  -5.030   1.964  1.00  0.00     0.240 C 
ATOM      2  C   UNL     1      -4.421  -6.417   2.052  1.00  0.00     0.231 C 
ATOM      3  C   UNL     1      -2.996  -6.249   2.508  1.00  0.00     0.202 C 
ATOM      4  O   UNL     1      -2.539  -7.018   3.393  1.00  0.00    -0.291 OA
ATOM      5  C   UNL     1      -2.184  -5.139   1.944  1.00  0.00     0.105 A 
ATOM      6  C   UNL     1      -0.766  -5.082   2.000  1.00  0.00     0.133 A 
ATOM      7  C   UNL     1      -0.100  -3.956   1.500  1.00  0.00     0.093 A 
ATOM      8  C   UNL     1      -0.807  -2.917   0.893  1.00  0.00     0.123 A 
ATOM      9  C   UNL     1      -2.199  -2.990   0.790  1.00  0.00     0.093 A 
ATOM     10  C   UNL     1      -2.887  -4.084   1.319  1.00  0.00     0.138 A 
ATOM     11  O   UNL     1      -4.284  -4.121   1.211  1.00  0.00    -0.481 OA
ENDROOT
BRANCH   1  12
ATOM     12  C   UNL     1      -6.483  -5.120   1.378  1.00  0.00     0.003 A 
ATOM     13  C   UNL     1      -7.414  -6.051   1.863  1.00  0.00     0.058 A 
ATOM     14  C   UNL     1      -8.713  -6.108   1.345  1.00  0.00     0.161 A 
ATOM     15  C   UNL     1      -6.878  -4.219   0.379  1.00  0.00     0.058 A 
ATOM     16  C   UNL     1      -9.098  -5.208   0.323  1.00  0.00     0.200 A 
ATOM     17  C   UNL     1      -8.173  -4.265  -0.150  1.00  0.00     0.161 A 
BRANCH  14  18
ATOM     18  O   UNL     1      -9.582  -7.066   1.873  1.00  0.00    -0.504 OA
ATOM     19  H   UNL     1      -9.751  -7.193   2.860  1.00  0.00     0.293 HD
ENDBRANCH  14  18
BRANCH  16  20
ATOM     20  O   UNL     1     -10.376  -5.215  -0.242  1.00  0.00    -0.502 OA
ATOM     21  H   UNL     1     -10.566  -5.013  -1.212  1.00  0.00     0.293 HD
ENDBRANCH  16  20
BRANCH  17  22
ATOM     22  O   UNL     1      -8.554  -3.372  -1.150  1.00  0.00    -0.504 OA
ATOM     23  H   UNL     1      -9.528  -3.221  -1.387  1.00  0.00     0.293 HD
ENDBRANCH  17  22
ENDBRANCH   1  12
BRANCH   2  24
ATOM     24  O   UNL     1      -4.462  -7.102   0.823  1.00  0.00    -0.381 OA
ATOM     25  H   UNL     1      -3.975  -6.556   0.152  1.00  0.00     0.211 HD
ENDBRANCH   2  24
BRANCH   6  26
ATOM     26  O   UNL     1       0.021  -6.121   2.503  1.00  0.00    -0.507 OA
ATOM     27  H   UNL     1       0.568  -6.057   3.349  1.00  0.00     0.293 HD
ENDBRANCH   6  26
BRANCH   8  28
ATOM     28  O   UNL     1      -0.115  -1.818   0.388  1.00  0.00    -0.508 OA
ATOM     29  H   UNL     1       0.619  -1.365   0.919  1.00  0.00     0.293 HD
ENDBRANCH   8  28
TORSDOF 7
ENDMDL
MODEL 4
REMARK VINA RESULT:    -4.618      1.717      7.030
REMARK INTER + INTRA:          -6.053
REMARK INTER:                  -5.808
REMARK INTRA:                  -0.245
REMARK UNBOUND:                -0.356
REMARK SMILES O=C1c2c(O)cc(O)cc2O[C@@H](c2cc(O)c(O)c(O)c2)[C@H]1O
REMARK SMILES IDX 12 1 22 2 2 3 1 4 3 5 4 6 6 7 7 8 9 9 10 10 11 11 13 12
REMARK SMILES IDX 14 13 15 14 21 15 17 16 19 17 16 18 18 20 20 22 23 24 5 26
REMARK SMILES IDX 8 28
REMARK H PARENT 16 19 18 21 20 23 23 25 5 27 8 29
REMARK Flexibility Score: inf
ROOT
ATOM      1  C   UNL     1      -7.083  -5.887   0.745  1.00  0.00     0.240 C 
ATOM      2  C   UNL     1      -6.009  -6.722   0.017  1.00  0.00     0.231 C 
ATOM      3  C   UNL     1      -4.667  -6.459   0.647  1.00  0.00     0.202 C 
ATOM      4  O   UNL     1      -3.903  -7.428   0.892  1.00  0.00    -0.291 OA
ATOM      5  C   UNL     1      -4.305  -5.067   1.019  1.00  0.00     0.105 A 
ATOM      6  C   UNL     1      -2.977  -4.630   1.272  1.00  0.00     0.133 A 
ATOM      7  C   UNL     1      -2.751  -3.311   1.684  1.00  0.00     0.093 A 
ATOM      8  C   UNL     1      -3.806  -2.403   1.792  1.00  0.00     0.123 A 
ATOM      9  C   UNL     1      -5.108  -2.813   1.496  1.00  0.00     0.093 A 
ATOM     10  C   UNL     1      -5.363  -4.135   1.123  1.00  0.00     0.138 A 
ATOM     11  O   UNL     1      -6.682  -4.518   0.845  1.00  0.00    -0.481 OA
ENDROOT
BRANCH   1  12
ATOM     12  C   UNL     1      -8.431  -6.001   0.070  1.00  0.00     0.003 A 
ATOM     13  C   UNL     1      -9.214  -4.863  -0.180  1.00  0.00     0.058 A 
ATOM     14  C   UNL     1     -10.445  -4.965  -0.838  1.00  0.00     0.161 A 
ATOM     15  C   UNL     1      -8.884  -7.250  -0.376  1.00  0.00     0.058 A 
ATOM     16  C   UNL     1     -10.904  -6.233  -1.268  1.00  0.00     0.200 A 
ATOM     17  C   UNL     1     -10.114  -7.368  -1.035  1.00  0.00     0.161 A 
BRANCH  14  18
ATOM     18  O   UNL     1     -11.172  -3.790  -1.045  1.00  0.00    -0.504 OA
ATOM     19  H   UNL     1     -11.143  -2.992  -0.428  1.00  0.00     0.293 HD
ENDBRANCH  14  18
BRANCH  16  20
ATOM     20  O   UNL     1     -12.125  -6.407  -1.925  1.00  0.00    -0.502 OA
ATOM     21  H   UNL     1     -12.945  -6.811  -1.498  1.00  0.00     0.293 HD
ENDBRANCH  16  20
BRANCH  17  22
ATOM     22  O   UNL     1     -10.561  -8.617  -1.466  1.00  0.00    -0.504 OA
ATOM     23  H   UNL     1     -10.889  -8.766  -2.413  1.00  0.00     0.293 HD
ENDBRANCH  17  22
ENDBRANCH   1  12
BRANCH   2  24
ATOM     24  O   UNL     1      -5.965  -6.438  -1.361  1.00  0.00    -0.381 OA
ATOM     25  H   UNL     1      -5.854  -7.297  -1.847  1.00  0.00     0.211 HD
ENDBRANCH   2  24
BRANCH   6  26
ATOM     26  O   UNL     1      -1.858  -5.447   1.095  1.00  0.00    -0.507 OA
ATOM     27  H   UNL     1      -0.904  -5.126   1.182  1.00  0.00     0.293 HD
ENDBRANCH   6  26
BRANCH   8  28
ATOM     28  O   UNL     1      -3.547  -1.092   2.186  1.00  0.00    -0.508 OA
ATOM     29  H   UNL     1      -3.343  -0.366   1.510  1.00  0.00     0.293 HD
ENDBRANCH   8  28
TORSDOF 7
ENDMDL
MODEL 5
REMARK VINA RESULT:    -4.451     11.067     14.181
REMARK INTER + INTRA:          -5.848
REMARK INTER:                  -5.457
REMARK INTRA:                  -0.391
REMARK UNBOUND:                -0.356
REMARK SMILES O=C1c2c(O)cc(O)cc2O[C@@H](c2cc(O)c(O)c(O)c2)[C@H]1O
REMARK SMILES IDX 12 1 22 2 2 3 1 4 3 5 4 6 6 7 7 8 9 9 10 10 11 11 13 12
REMARK SMILES IDX 14 13 15 14 21 15 17 16 19 17 16 18 18 20 20 22 23 24 5 26
REMARK SMILES IDX 8 28
REMARK H PARENT 16 19 18 21 20 23 23 25 5 27 8 29
REMARK Flexibility Score: inf
ROOT
ATOM      1  C   UNL     1       2.996   0.601   6.719  1.00  0.00     0.240 C 
ATOM      2  C   UNL     1       4.008   1.147   7.749  1.00  0.00     0.231 C 
ATOM      3  C   UNL     1       5.318   0.422   7.586  1.00  0.00     0.202 C 
ATOM      4  O   UNL     1       6.390   1.082   7.593  1.00  0.00    -0.291 OA
ATOM      5  C   UNL     1       5.307  -1.046   7.361  1.00  0.00     0.105 A 
ATOM      6  C   UNL     1       6.434  -1.889   7.552  1.00  0.00     0.133 A 
ATOM      7  C   UNL     1       6.338  -3.252   7.243  1.00  0.00     0.093 A 
ATOM      8  C   UNL     1       5.132  -3.804   6.808  1.00  0.00     0.123 A 
ATOM      9  C   UNL     1       4.006  -2.989   6.666  1.00  0.00     0.093 A 
ATOM     10  C   UNL     1       4.090  -1.619   6.928  1.00  0.00     0.138 A 
ATOM     11  O   UNL     1       2.945  -0.827   6.764  1.00  0.00    -0.481 OA
ENDROOT
BRANCH   1  12
ATOM     12  C   UNL     1       1.619   1.191   6.924  1.00  0.00     0.003 A 
ATOM     13  C   UNL     1       1.354   2.534   6.614  1.00  0.00     0.058 A 
ATOM     14  C   UNL     1       0.070   3.070   6.769  1.00  0.00     0.161 A 
ATOM     15  C   UNL     1       0.570   0.375   7.369  1.00  0.00     0.058 A 
ATOM     16  C   UNL     1      -0.980   2.243   7.237  1.00  0.00     0.200 A 
ATOM     17  C   UNL     1      -0.719   0.897   7.530  1.00  0.00     0.161 A 
BRANCH  14  18
ATOM     18  O   UNL     1      -0.117   4.416   6.447  1.00  0.00    -0.504 OA
ATOM     19  H   UNL     1       0.214   4.845   5.595  1.00  0.00     0.293 HD
ENDBRANCH  14  18
BRANCH  16  20
ATOM     20  O   UNL     1      -2.282   2.715   7.420  1.00  0.00    -0.502 OA
ATOM     21  H   UNL     1      -2.672   3.505   6.929  1.00  0.00     0.293 HD
ENDBRANCH  16  20
BRANCH  17  22
ATOM     22  O   UNL     1      -1.754   0.080   7.983  1.00  0.00    -0.504 OA
ATOM     23  H   UNL     1      -2.491  -0.237   7.363  1.00  0.00     0.293 HD
ENDBRANCH  17  22
ENDBRANCH   1  12
BRANCH   2  24
ATOM     24  O   UNL     1       3.539   1.016   9.070  1.00  0.00    -0.381 OA
ATOM     25  H   UNL     1       2.556   0.887   9.034  1.00  0.00     0.211 HD
ENDBRANCH   2  24
BRANCH   6  26
ATOM     26  O   UNL     1       7.648  -1.435   8.073  1.00  0.00    -0.507 OA
ATOM     27  H   UNL     1       7.829  -0.477   8.334  1.00  0.00     0.293 HD
ENDBRANCH   6  26
BRANCH   8  28
ATOM     28  O   UNL     1       5.061  -5.167   6.527  1.00  0.00    -0.508 OA
ATOM     29  H   UNL     1       4.553  -5.517   5.724  1.00  0.00     0.293 HD
ENDBRANCH   8  28
TORSDOF 7
ENDMDL
MODEL 6
REMARK VINA RESULT:    -4.412     11.469     13.432
REMARK INTER + INTRA:          -5.799
REMARK INTER:                  -5.414
REMARK INTRA:                  -0.385
REMARK UNBOUND:                -0.356
REMARK SMILES O=C1c2c(O)cc(O)cc2O[C@@H](c2cc(O)c(O)c(O)c2)[C@H]1O
REMARK SMILES IDX 12 1 22 2 2 3 1 4 3 5 4 6 6 7 7 8 9 9 10 10 11 11 13 12
REMARK SMILES IDX 14 13 15 14 21 15 17 16 19 17 16 18 18 20 20 22 23 24 5 26
REMARK SMILES IDX 8 28
REMARK H PARENT 16 19 18 21 20 23 23 25 5 27 8 29
REMARK Flexibility Score: inf
ROOT
ATOM      1  C   UNL     1      -5.811   7.595   2.986  1.00  0.00     0.240 C 
ATOM      2  C   UNL     1      -5.960   6.065   3.118  1.00  0.00     0.231 C 
ATOM      3  C   UNL     1      -7.057   5.759   4.104  1.00  0.00     0.202 C 
ATOM      4  O   UNL     1      -7.902   4.868   3.827  1.00  0.00    -0.291 OA
ATOM      5  C   UNL     1      -7.148   6.558   5.354  1.00  0.00     0.105 A 
ATOM      6  C   UNL     1      -7.875   6.155   6.505  1.00  0.00     0.133 A 
ATOM      7  C   UNL     1      -7.955   7.015   7.607  1.00  0.00     0.093 A 
ATOM      8  C   UNL     1      -7.279   8.237   7.613  1.00  0.00     0.123 A 
ATOM      9  C   UNL     1      -6.521   8.616   6.503  1.00  0.00     0.093 A 
ATOM     10  C   UNL     1      -6.461   7.793   5.376  1.00  0.00     0.138 A 
ATOM     11  O   UNL     1      -5.702   8.209   4.274  1.00  0.00    -0.481 OA
ENDROOT
BRANCH   1  12
ATOM     12  C   UNL     1      -4.633   7.967   2.115  1.00  0.00     0.003 A 
ATOM     13  C   UNL     1      -3.525   8.646   2.648  1.00  0.00     0.058 A 
ATOM     14  C   UNL     1      -2.419   8.957   1.849  1.00  0.00     0.161 A 
ATOM     15  C   UNL     1      -4.609   7.575   0.770  1.00  0.00     0.058 A 
ATOM     16  C   UNL     1      -2.411   8.574   0.486  1.00  0.00     0.200 A 
ATOM     17  C   UNL     1      -3.509   7.880  -0.042  1.00  0.00     0.161 A 
BRANCH  14  18
ATOM     18  O   UNL     1      -1.356   9.640   2.446  1.00  0.00    -0.504 OA
ATOM     19  H   UNL     1      -0.631   9.194   2.989  1.00  0.00     0.293 HD
ENDBRANCH  14  18
BRANCH  16  20
ATOM     20  O   UNL     1      -1.342   8.859  -0.368  1.00  0.00    -0.502 OA
ATOM     21  H   UNL     1      -0.945   8.197  -1.018  1.00  0.00     0.293 HD
ENDBRANCH  16  20
BRANCH  17  22
ATOM     22  O   UNL     1      -3.499   7.495  -1.381  1.00  0.00    -0.504 OA
ATOM     23  H   UNL     1      -3.285   8.153  -2.123  1.00  0.00     0.293 HD
ENDBRANCH  17  22
ENDBRANCH   1  12
BRANCH   2  24
ATOM     24  O   UNL     1      -4.759   5.450   3.518  1.00  0.00    -0.381 OA
ATOM     25  H   UNL     1      -4.858   4.471   3.387  1.00  0.00     0.211 HD
ENDBRANCH   2  24
BRANCH   6  26
ATOM     26  O   UNL     1      -8.499   4.910   6.618  1.00  0.00    -0.507 OA
ATOM     27  H   UNL     1      -8.006   4.029   6.623  1.00  0.00     0.293 HD
ENDBRANCH   6  26
BRANCH   8  28
ATOM     28  O   UNL     1      -7.362   9.062   8.732  1.00  0.00    -0.508 OA
ATOM     29  H   UNL     1      -7.484   8.682   9.663  1.00  0.00     0.293 HD
ENDBRANCH   8  28
TORSDOF 7
ENDMDL
MODEL 7
REMARK VINA RESULT:    -4.385     11.795     13.585
REMARK INTER + INTRA:          -5.766
REMARK INTER:                  -5.641
REMARK INTRA:                  -0.125
REMARK UNBOUND:                -0.356
REMARK SMILES O=C1c2c(O)cc(O)cc2O[C@@H](c2cc(O)c(O)c(O)c2)[C@H]1O
REMARK SMILES IDX 12 1 22 2 2 3 1 4 3 5 4 6 6 7 7 8 9 9 10 10 11 11 13 12
REMARK SMILES IDX 14 13 15 14 21 15 17 16 19 17 16 18 18 20 20 22 23 24 5 26
REMARK SMILES IDX 8 28
REMARK H PARENT 16 19 18 21 20 23 23 25 5 27 8 29
REMARK Flexibility Score: inf
ROOT
ATOM      1  C   UNL     1      -4.925   8.497   2.510  1.00  0.00     0.240 C 
ATOM      2  C   UNL     1      -5.929   7.858   1.527  1.00  0.00     0.231 C 
ATOM      3  C   UNL     1      -7.126   7.364   2.295  1.00  0.00     0.202 C 
ATOM      4  O   UNL     1      -8.280   7.593   1.847  1.00  0.00    -0.291 OA
ATOM      5  C   UNL     1      -6.916   6.672   3.593  1.00  0.00     0.105 A 
ATOM      6  C   UNL     1      -7.890   5.855   4.225  1.00  0.00     0.133 A 
ATOM      7  C   UNL     1      -7.617   5.303   5.484  1.00  0.00     0.093 A 
ATOM      8  C   UNL     1      -6.378   5.497   6.097  1.00  0.00     0.123 A 
ATOM      9  C   UNL     1      -5.397   6.258   5.456  1.00  0.00     0.093 A 
ATOM     10  C   UNL     1      -5.662   6.853   4.220  1.00  0.00     0.138 A 
ATOM     11  O   UNL     1      -4.662   7.621   3.609  1.00  0.00    -0.481 OA
ENDROOT
BRANCH   1  12
ATOM     12  C   UNL     1      -3.639   8.888   1.818  1.00  0.00     0.003 A 
ATOM     13  C   UNL     1      -3.637   9.318   0.482  1.00  0.00     0.058 A 
ATOM     14  C   UNL     1      -2.451   9.715  -0.146  1.00  0.00     0.161 A 
ATOM     15  C   UNL     1      -2.434   8.885   2.534  1.00  0.00     0.058 A 
ATOM     16  C   UNL     1      -1.235   9.691   0.579  1.00  0.00     0.200 A 
ATOM     17  C   UNL     1      -1.239   9.278   1.919  1.00  0.00     0.161 A 
BRANCH  14  18
ATOM     18  O   UNL     1      -2.526  10.124  -1.479  1.00  0.00    -0.504 OA
ATOM     19  H   UNL     1      -1.827   9.913  -2.176  1.00  0.00     0.293 HD
ENDBRANCH  14  18
BRANCH  16  20
ATOM     20  O   UNL     1      -0.015  10.068   0.011  1.00  0.00    -0.502 OA
ATOM     21  H   UNL     1       0.653   9.418  -0.377  1.00  0.00     0.293 HD
ENDBRANCH  16  20
BRANCH  17  22
ATOM     22  O   UNL     1      -0.044   9.263   2.636  1.00  0.00    -0.504 OA
ATOM     23  H   UNL     1       0.769   9.785   2.327  1.00  0.00     0.293 HD
ENDBRANCH  17  22
ENDBRANCH   1  12
BRANCH   2  24
ATOM     24  O   UNL     1      -5.351   6.805   0.793  1.00  0.00    -0.381 OA
ATOM     25  H   UNL     1      -5.560   5.955   1.262  1.00  0.00     0.211 HD
ENDBRANCH   2  24
BRANCH   6  26
ATOM     26  O   UNL     1      -9.116   5.533   3.638  1.00  0.00    -0.507 OA
ATOM     27  H   UNL     1     -10.000   5.555   4.126  1.00  0.00     0.293 HD
ENDBRANCH   6  26
BRANCH   8  28
ATOM     28  O   UNL     1      -6.128   4.920   7.340  1.00  0.00    -0.508 OA
ATOM     29  H   UNL     1      -5.359   5.228   7.922  1.00  0.00     0.293 HD
ENDBRANCH   8  28
TORSDOF 7
ENDMDL
MODEL 8
REMARK VINA RESULT:    -4.316     11.531     13.170
REMARK INTER + INTRA:          -5.681
REMARK INTER:                  -5.352
REMARK INTRA:                  -0.330
REMARK UNBOUND:                -0.356
REMARK SMILES O=C1c2c(O)cc(O)cc2O[C@@H](c2cc(O)c(O)c(O)c2)[C@H]1O
REMARK SMILES IDX 12 1 22 2 2 3 1 4 3 5 4 6 6 7 7 8 9 9 10 10 11 11 13 12
REMARK SMILES IDX 14 13 15 14 21 15 17 16 19 17 16 18 18 20 20 22 23 24 5 26
REMARK SMILES IDX 8 28
REMARK H PARENT 16 19 18 21 20 23 23 25 5 27 8 29
REMARK Flexibility Score: inf
ROOT
ATOM      1  C   UNL     1      -5.851   7.505   3.626  1.00  0.00     0.240 C 
ATOM      2  C   UNL     1      -6.675   6.292   3.146  1.00  0.00     0.231 C 
ATOM      3  C   UNL     1      -7.481   5.754   4.298  1.00  0.00     0.202 C 
ATOM      4  O   UNL     1      -8.689   5.451   4.115  1.00  0.00    -0.291 OA
ATOM      5  C   UNL     1      -6.847   5.654   5.638  1.00  0.00     0.105 A 
ATOM      6  C   UNL     1      -7.347   4.851   6.698  1.00  0.00     0.133 A 
ATOM      7  C   UNL     1      -6.712   4.881   7.946  1.00  0.00     0.093 A 
ATOM      8  C   UNL     1      -5.560   5.643   8.145  1.00  0.00     0.123 A 
ATOM      9  C   UNL     1      -5.034   6.396   7.092  1.00  0.00     0.093 A 
ATOM     10  C   UNL     1      -5.674   6.414   5.850  1.00  0.00     0.138 A 
ATOM     11  O   UNL     1      -5.128   7.189   4.818  1.00  0.00    -0.481 OA
ENDROOT
BRANCH   1  12
ATOM     12  C   UNL     1      -4.914   8.004   2.549  1.00  0.00     0.003 A 
ATOM     13  C   UNL     1      -5.381   8.283   1.255  1.00  0.00     0.058 A 
ATOM     14  C   UNL     1      -4.521   8.780   0.270  1.00  0.00     0.161 A 
ATOM     15  C   UNL     1      -3.570   8.257   2.857  1.00  0.00     0.058 A 
ATOM     16  C   UNL     1      -3.161   9.014   0.584  1.00  0.00     0.200 A 
ATOM     17  C   UNL     1      -2.697   8.754   1.881  1.00  0.00     0.161 A 
BRANCH  14  18
ATOM     18  O   UNL     1      -5.056   9.026  -0.997  1.00  0.00    -0.504 OA
ATOM     19  H   UNL     1      -5.977   9.405  -1.157  1.00  0.00     0.293 HD
ENDBRANCH  14  18
BRANCH  16  20
ATOM     20  O   UNL     1      -2.247   9.503  -0.354  1.00  0.00    -0.502 OA
ATOM     21  H   UNL     1      -1.606   8.924  -0.874  1.00  0.00     0.293 HD
ENDBRANCH  16  20
BRANCH  17  22
ATOM     22  O   UNL     1      -1.360   8.993   2.194  1.00  0.00    -0.504 OA
ATOM     23  H   UNL     1      -0.658   8.264   2.122  1.00  0.00     0.293 HD
ENDBRANCH  17  22
ENDBRANCH   1  12
BRANCH   2  24
ATOM     24  O   UNL     1      -5.859   5.279   2.607  1.00  0.00    -0.381 OA
ATOM     25  H   UNL     1      -6.126   4.418   3.022  1.00  0.00     0.211 HD
ENDBRANCH   2  24
BRANCH   6  26
ATOM     26  O   UNL     1      -8.436   3.989   6.554  1.00  0.00    -0.507 OA
ATOM     27  H   UNL     1      -8.509   3.284   5.835  1.00  0.00     0.293 HD
ENDBRANCH   6  26
BRANCH   8  28
ATOM     28  O   UNL     1      -4.940   5.638   9.393  1.00  0.00    -0.508 OA
ATOM     29  H   UNL     1      -4.402   4.842   9.713  1.00  0.00     0.293 HD
ENDBRANCH   8  28
TORSDOF 7
ENDMDL
MODEL 9
REMARK VINA RESULT:    -4.316      4.402      7.338
REMARK INTER + INTRA:          -5.681
REMARK INTER:                  -5.280
REMARK INTRA:                  -0.401
REMARK UNBOUND:                -0.356
REMARK SMILES O=C1c2c(O)cc(O)cc2O[C@@H](c2cc(O)c(O)c(O)c2)[C@H]1O
REMARK SMILES IDX 12 1 22 2 2 3 1 4 3 5 4 6 6 7 7 8 9 9 10 10 11 11 13 12
REMARK SMILES IDX 14 13 15 14 21 15 17 16 19 17 16 18 18 20 20 22 23 24 5 26
REMARK SMILES IDX 8 28
REMARK H PARENT 16 19 18 21 20 23 23 25 5 27 8 29
REMARK Flexibility Score: inf
ROOT
ATOM      1  C   UNL     1       0.559  -5.153   0.620  1.00  0.00     0.240 C 
ATOM      2  C   UNL     1      -0.177  -6.428   1.082  1.00  0.00     0.231 C 
ATOM      3  C   UNL     1      -1.654  -6.263   0.837  1.00  0.00     0.202 C 
ATOM      4  O   UNL     1      -2.302  -7.213   0.325  1.00  0.00    -0.291 OA
ATOM      5  C   UNL     1      -2.296  -4.959   1.149  1.00  0.00     0.105 A 
ATOM      6  C   UNL     1      -3.695  -4.780   1.312  1.00  0.00     0.133 A 
ATOM      7  C   UNL     1      -4.205  -3.495   1.536  1.00  0.00     0.093 A 
ATOM      8  C   UNL     1      -3.352  -2.398   1.662  1.00  0.00     0.123 A 
ATOM      9  C   UNL     1      -1.970  -2.576   1.553  1.00  0.00     0.093 A 
ATOM     10  C   UNL     1      -1.442  -3.841   1.287  1.00  0.00     0.138 A 
ATOM     11  O   UNL     1      -0.053  -3.984   1.171  1.00  0.00    -0.481 OA
ENDROOT
BRANCH   1  12
ATOM     12  C   UNL     1       2.030  -5.201   0.968  1.00  0.00     0.003 A 
ATOM     13  C   UNL     1       2.888  -6.130   0.358  1.00  0.00     0.058 A 
ATOM     14  C   UNL     1       4.256  -6.149   0.654  1.00  0.00     0.161 A 
ATOM     15  C   UNL     1       2.565  -4.266   1.864  1.00  0.00     0.058 A 
ATOM     16  C   UNL     1       4.785  -5.213   1.574  1.00  0.00     0.200 A 
ATOM     17  C   UNL     1       3.931  -4.273   2.170  1.00  0.00     0.161 A 
BRANCH  14  18
ATOM     18  O   UNL     1       5.046  -7.106   0.013  1.00  0.00    -0.504 OA
ATOM     19  H   UNL     1       5.812  -6.885  -0.607  1.00  0.00     0.293 HD
ENDBRANCH  14  18
BRANCH  16  20
ATOM     20  O   UNL     1       6.139  -5.181   1.918  1.00  0.00    -0.502 OA
ATOM     21  H   UNL     1       6.728  -4.368   1.822  1.00  0.00     0.293 HD
ENDBRANCH  16  20
BRANCH  17  22
ATOM     22  O   UNL     1       4.453  -3.345   3.070  1.00  0.00    -0.504 OA
ATOM     23  H   UNL     1       4.235  -3.383   4.060  1.00  0.00     0.293 HD
ENDBRANCH  17  22
ENDBRANCH   1  12
BRANCH   2  24
ATOM     24  O   UNL     1       0.063  -6.713   2.440  1.00  0.00    -0.381 OA
ATOM     25  H   UNL     1       0.870  -7.288   2.494  1.00  0.00     0.211 HD
ENDBRANCH   2  24
BRANCH   6  26
ATOM     26  O   UNL     1      -4.608  -5.838   1.296  1.00  0.00    -0.507 OA
ATOM     27  H   UNL     1      -5.305  -5.972   0.579  1.00  0.00     0.293 HD
ENDBRANCH   6  26
BRANCH   8  28
ATOM     28  O   UNL     1      -3.888  -1.135   1.904  1.00  0.00    -0.508 OA
ATOM     29  H   UNL     1      -3.543  -0.548   2.653  1.00  0.00     0.293 HD
ENDBRANCH   8  28
TORSDOF 7
ENDMDL
