MODEL 1
REMARK VINA RESULT:     4.797      0.000      0.000
REMARK INTER + INTRA:           6.065
REMARK INTER:                   5.778
REMARK INTRA:                   0.287
REMARK UNBOUND:                 0.287
REMARK SMILES O=c1c(O)c(-c2ccc(O)c(O)c2)oc2cc(O)cc(O)c12
REMARK SMILES IDX 5 1 3 2 2 3 1 4 22 5 20 6 19 7 17 8 16 9 15 10 14 11 6 12
REMARK SMILES IDX 7 13 8 14 9 15 13 16 11 17 10 18 12 20 4 22 21 24 18 26
REMARK H PARENT 10 19 12 21 4 23 21 25 18 27
REMARK Flexibility Score: inf
ROOT
ATOM      1  C   UNL     1      -3.234   0.959  18.685  1.00  0.00     0.180 A 
ATOM      2  C   UNL     1      -3.162  -0.448  18.659  1.00  0.00     0.208 A 
ATOM      3  C   UNL     1      -3.074  -1.145  19.874  1.00  0.00     0.238 A 
ATOM      4  O   UNL     1      -3.020  -2.405  19.864  1.00  0.00    -0.285 OA
ATOM      5  C   UNL     1      -3.037  -0.428  21.088  1.00  0.00     0.111 A 
ATOM      6  C   UNL     1      -2.946  -1.054  22.354  1.00  0.00     0.134 A 
ATOM      7  C   UNL     1      -2.905  -0.268  23.516  1.00  0.00     0.093 A 
ATOM      8  C   UNL     1      -2.955   1.125  23.437  1.00  0.00     0.123 A 
ATOM      9  C   UNL     1      -3.047   1.749  22.189  1.00  0.00     0.094 A 
ATOM     10  C   UNL     1      -3.090   0.984  21.020  1.00  0.00     0.146 A 
ATOM     11  O   UNL     1      -3.182   1.601  19.847  1.00  0.00    -0.452 OA
ENDROOT
BRANCH   1  12
ATOM     12  C   UNL     1      -3.348   1.762  17.446  1.00  0.00     0.025 A 
ATOM     13  C   UNL     1      -2.925   3.101  17.450  1.00  0.00     0.016 A 
ATOM     14  C   UNL     1      -3.042   3.885  16.300  1.00  0.00     0.051 A 
ATOM     15  C   UNL     1      -3.601   3.346  15.134  1.00  0.00     0.157 A 
ATOM     16  C   UNL     1      -3.928   1.232  16.279  1.00  0.00     0.062 A 
ATOM     17  C   UNL     1      -4.048   2.020  15.124  1.00  0.00     0.158 A 
BRANCH  15  18
ATOM     18  O   UNL     1      -3.719   4.124  13.983  1.00  0.00    -0.504 OA
ATOM     19  H   UNL     1      -4.418   3.924  13.278  1.00  0.00     0.293 HD
ENDBRANCH  15  18
BRANCH  17  20
ATOM     20  O   UNL     1      -4.616   1.491  13.966  1.00  0.00    -0.504 OA
ATOM     21  H   UNL     1      -5.402   1.938  13.508  1.00  0.00     0.293 HD
ENDBRANCH  17  20
ENDBRANCH   1  12
BRANCH   2  22
ATOM     22  O   UNL     1      -3.150  -1.132  17.440  1.00  0.00    -0.502 OA
ATOM     23  H   UNL     1      -2.438  -1.815  17.209  1.00  0.00     0.293 HD
ENDBRANCH   2  22
BRANCH   6  24
ATOM     24  O   UNL     1      -2.892  -2.444  22.467  1.00  0.00    -0.507 OA
ATOM     25  H   UNL     1      -3.732  -3.009  22.481  1.00  0.00     0.293 HD
ENDBRANCH   6  24
BRANCH   8  26
ATOM     26  O   UNL     1      -2.913   1.880  24.607  1.00  0.00    -0.508 OA
ATOM     27  H   UNL     1      -3.725   2.387  24.939  1.00  0.00     0.293 HD
ENDBRANCH   8  26
TORSDOF 6
ENDMDL
