MODEL 1
REMARK VINA RESULT:    -7.825      0.000      0.000
REMARK INTER + INTRA:         -13.518
REMARK INTER:                 -10.799
REMARK INTRA:                  -2.720
REMARK UNBOUND:                -2.720
REMARK SMILES C[C@H]1O[C@@H](O[C@@H]2CC[C@@]3(C)[C@H](CC[C@]4(C)[C@H]3C=C[C@@]35OC[C@]6(CCC(C)(C)C[C@@H]63)[C@@H](O)C[C@]45C)[C@@]2(C)CO)[C@H](O)[C@@H](O[C@@H]2O[C@H](CO)[C@H](O)[C@H](O)[C@H]2O)[C@@H]1O
REMARK SMILES IDX 1 1 2 2 54 3 41 4 39 5 4 6 3 7 55 8 42 10 43 11 52 12 44 13
REMARK SMILES IDX 50 14 45 15 48 16 53 17 51 19 46 21 47 22 49 24 5 26 6 27
REMARK SMILES IDX 7 28 35 29 8 30 11 31 36 32 9 33 12 34 10 35 16 36 13 37
REMARK SMILES IDX 14 38 17 39 15 40 33 41 18 42 19 43 32 44 34 45 29 46 20 47
REMARK SMILES IDX 30 48 22 49 28 50 21 51 23 52 25 53 24 54 26 55 27 56 37 57
REMARK SMILES IDX 38 58 31 60 40 62
REMARK H PARENT 55 9 53 18 51 20 47 23 49 25 38 59 31 61 40 63
REMARK Flexibility Score: inf
ROOT
ATOM      1  C   UNL     1      27.456  -7.125  94.417  1.00  0.00     0.041 C 
ATOM      2  C   UNL     1      27.454  -5.941  95.823  1.00  0.00     0.150 C 
ATOM      3  C   UNL     1      28.534  -5.889  97.049  1.00  0.00     0.175 C 
ATOM      4  C   UNL     1      29.102  -4.263  97.476  1.00  0.00     0.186 C 
ATOM      5  C   UNL     1      27.661  -3.440  97.299  1.00  0.00     0.202 C 
ATOM      6  C   UNL     1      26.239  -4.392  97.399  1.00  0.00     0.282 C 
ATOM      7  O   UNL     1      26.267  -5.719  96.713  1.00  0.00    -0.344 OA
ENDROOT
BRANCH   3   8
ATOM      8  O   UNL     1      29.419  -6.934  96.766  1.00  0.00    -0.388 OA
ATOM      9  H   UNL     1      29.344  -7.291  95.800  1.00  0.00     0.211 HD
ENDBRANCH   3   8
BRANCH   4  10
ATOM     10  O   UNL     1      30.498  -3.831  98.162  1.00  0.00    -0.341 OA
BRANCH  10  11
ATOM     11  C   UNL     1      31.348  -4.783  99.084  1.00  0.00     0.282 C 
ATOM     12  C   UNL     1      33.207  -5.067  98.755  1.00  0.00     0.202 C 
ATOM     13  O   UNL     1      30.999  -4.281 100.451  1.00  0.00    -0.341 OA
ATOM     14  C   UNL     1      33.738  -3.601  99.304  1.00  0.00     0.179 C 
ATOM     15  C   UNL     1      31.497  -3.300 101.343  1.00  0.00     0.178 C 
ATOM     16  C   UNL     1      32.805  -3.895 101.565  1.00  0.00     0.177 C 
BRANCH  12  17
ATOM     17  O   UNL     1      33.700  -6.831  98.614  1.00  0.00    -0.385 OA
ATOM     18  H   UNL     1      34.584  -5.898  99.146  1.00  0.00     0.211 HD
ENDBRANCH  12  17
BRANCH  14  19
ATOM     19  O   UNL     1      34.054  -2.404  97.536  1.00  0.00    -0.387 OA
ATOM     20  H   UNL     1      33.900  -1.606  95.960  1.00  0.00     0.211 HD
ENDBRANCH  14  19
BRANCH  15  21
ATOM     21  C   UNL     1      31.429  -1.742 100.772  1.00  0.00     0.191 C 
BRANCH  21  22
ATOM     22  O   UNL     1      30.152  -1.464 100.244  1.00  0.00    -0.394 OA
ATOM     23  H   UNL     1      29.500  -1.184 100.977  1.00  0.00     0.210 HD
ENDBRANCH  21  22
ENDBRANCH  15  21
BRANCH  16  24
ATOM     24  O   UNL     1      34.012  -2.777 102.406  1.00  0.00    -0.387 OA
ATOM     25  H   UNL     1      32.904  -3.348 102.804  1.00  0.00     0.211 HD
ENDBRANCH  16  24
ENDBRANCH  10  11
ENDBRANCH   4  10
BRANCH   6  26
ATOM     26  O   UNL     1      26.068  -4.548  98.886  1.00  0.00    -0.346 OA
BRANCH  26  27
ATOM     27  C   UNL     1      24.733  -4.071  99.462  1.00  0.00     0.130 C 
ATOM     28  C   UNL     1      24.469  -2.292  99.610  1.00  0.00     0.033 C 
ATOM     29  C   UNL     1      24.178  -5.044 100.790  1.00  0.00     0.020 C 
ATOM     30  C   UNL     1      24.748  -1.191 101.018  1.00  0.00     0.010 C 
ATOM     31  C   UNL     1      24.104  -3.582 101.917  1.00  0.00     0.006 C 
ATOM     32  C   UNL     1      25.853  -5.718 101.895  1.00  0.00     0.017 C 
ATOM     33  C   UNL     1      24.998  -2.001 102.665  1.00  0.00    -0.022 C 
ATOM     34  C   UNL     1      26.070  -3.155 101.765  1.00  0.00     0.005 C 
ATOM     35  C   UNL     1      24.033  -0.649 103.150  1.00  0.00     0.012 C 
ATOM     36  C   UNL     1      26.309  -2.354 104.479  1.00  0.00     0.024 C 
ATOM     37  C   UNL     1      27.765  -2.785 102.526  1.00  0.00     0.008 C 
ATOM     38  C   UNL     1      27.968  -1.752 103.940  1.00  0.00    -0.017 C 
ATOM     39  C   UNL     1      26.714  -0.582 104.316  1.00  0.00    -0.024 C 
ATOM     40  C   UNL     1      28.749  -2.307 105.305  1.00  0.00     0.013 C 
ATOM     41  C   UNL     1      29.037   0.136 103.664  1.00  0.00     0.009 C 
ATOM     42  C   UNL     1      27.286   0.460 103.117  1.00  0.00     0.005 C 
ATOM     43  C   UNL     1      28.925   1.644 102.579  1.00  0.00     0.096 C 
ATOM     44  C   UNL     1      30.709  -0.065 103.834  1.00  0.00     0.043 C 
ATOM     45  C   UNL     1      28.879   0.908 105.116  1.00  0.00     0.015 C 
ATOM     46  C   UNL     1      29.706   2.923 103.191  1.00  0.00     0.037 C 
ATOM     47  O   UNL     1      29.528   1.181 101.425  1.00  0.00    -0.369 OA
ATOM     48  C   UNL     1      31.651   1.275 103.831  1.00  0.00     0.124 C 
ATOM     49  C   UNL     1      31.078   2.441 102.892  1.00  0.00     0.026 C 
ATOM     50  C   UNL     1      29.383   3.866 104.459  1.00  0.00     0.014 C 
ATOM     51  C   UNL     1      30.750   1.928 101.433  1.00  0.00     0.171 C 
ATOM     52  C   UNL     1      32.082   3.650 102.818  1.00  0.00     0.013 C 
ATOM     53  C   UNL     1      30.474   4.961 104.658  1.00  0.00    -0.035 C 
ATOM     54  C   UNL     1      31.724   4.945 103.639  1.00  0.00     0.007 C 
ATOM     55  C   UNL     1      31.057   4.934 106.115  1.00  0.00     0.011 C 
ATOM     56  C   UNL     1      29.755   6.348 104.508  1.00  0.00     0.011 C 
BRANCH  29  57
ATOM     57  C   UNL     1      24.379  -6.592 100.095  1.00  0.00     0.165 C 
BRANCH  57  58
ATOM     58  O   UNL     1      24.004  -6.818  98.676  1.00  0.00    -0.396 OA
ATOM     59  H   UNL     1      24.578  -7.599  98.400  1.00  0.00     0.210 HD
ENDBRANCH  57  58
ENDBRANCH  29  57
BRANCH  48  60
ATOM     60  O   UNL     1      31.861   1.705 105.180  1.00  0.00    -0.392 OA
ATOM     61  H   UNL     1      31.075   2.146 105.570  1.00  0.00     0.210 HD
ENDBRANCH  48  60
ENDBRANCH  26  27
ENDBRANCH   6  26
BRANCH   5  62
ATOM     62  O   UNL     1      27.720  -3.002  95.924  1.00  0.00    -0.385 OA
ATOM     63  H   UNL     1      27.372  -3.680  95.272  1.00  0.00     0.211 HD
ENDBRANCH   5  62
TORSDOF 14
ENDMDL
MODEL 2
REMARK VINA RESULT:    -7.158      3.437      9.714
REMARK INTER + INTRA:         -12.597
REMARK INTER:                 -10.320
REMARK INTRA:                  -2.277
REMARK UNBOUND:                -2.720
REMARK SMILES C[C@H]1O[C@@H](O[C@@H]2CC[C@@]3(C)[C@H](CC[C@]4(C)[C@H]3C=C[C@@]35OC[C@]6(CCC(C)(C)C[C@@H]63)[C@@H](O)C[C@]45C)[C@@]2(C)CO)[C@H](O)[C@@H](O[C@@H]2O[C@H](CO)[C@H](O)[C@H](O)[C@H]2O)[C@@H]1O
REMARK SMILES IDX 1 1 2 2 54 3 41 4 39 5 4 6 3 7 55 8 42 10 43 11 52 12 44 13
REMARK SMILES IDX 50 14 45 15 48 16 53 17 51 19 46 21 47 22 49 24 5 26 6 27
REMARK SMILES IDX 7 28 35 29 8 30 11 31 36 32 9 33 12 34 10 35 16 36 13 37
REMARK SMILES IDX 14 38 17 39 15 40 33 41 18 42 19 43 32 44 34 45 29 46 20 47
REMARK SMILES IDX 30 48 22 49 28 50 21 51 23 52 25 53 24 54 26 55 27 56 37 57
REMARK SMILES IDX 38 58 31 60 40 62
REMARK H PARENT 55 9 53 18 51 20 47 23 49 25 38 59 31 61 40 63
REMARK Flexibility Score: inf
ROOT
ATOM      1  C   UNL     1      32.434  -1.699 111.534  1.00  0.00     0.041 C 
ATOM      2  C   UNL     1      31.915  -1.619 109.773  1.00  0.00     0.150 C 
ATOM      3  C   UNL     1      32.642  -2.364 108.513  1.00  0.00     0.175 C 
ATOM      4  C   UNL     1      31.535  -3.150 107.369  1.00  0.00     0.186 C 
ATOM      5  C   UNL     1      30.324  -2.002 107.365  1.00  0.00     0.202 C 
ATOM      6  C   UNL     1      30.784  -0.427 107.860  1.00  0.00     0.282 C 
ATOM      7  O   UNL     1      31.705  -0.331 109.033  1.00  0.00    -0.344 OA
ENDROOT
BRANCH   3   8
ATOM      8  O   UNL     1      33.715  -3.046 109.094  1.00  0.00    -0.388 OA
ATOM      9  H   UNL     1      33.430  -3.745 109.799  1.00  0.00     0.211 HD
ENDBRANCH   3   8
BRANCH   4  10
ATOM     10  O   UNL     1      31.819  -4.404 106.393  1.00  0.00    -0.341 OA
BRANCH  10  11
ATOM     11  C   UNL     1      30.999  -5.747 106.436  1.00  0.00     0.282 C 
ATOM     12  C   UNL     1      29.109  -5.736 106.705  1.00  0.00     0.202 C 
ATOM     13  O   UNL     1      31.476  -6.439 105.196  1.00  0.00    -0.341 OA
ATOM     14  C   UNL     1      28.692  -5.203 105.195  1.00  0.00     0.179 C 
ATOM     15  C   UNL     1      31.096  -6.482 103.833  1.00  0.00     0.178 C 
ATOM     16  C   UNL     1      29.783  -7.076 104.023  1.00  0.00     0.177 C 
BRANCH  12  17
ATOM     17  O   UNL     1      28.525  -6.800 108.083  1.00  0.00    -0.385 OA
ATOM     18  H   UNL     1      27.699  -5.807 107.567  1.00  0.00     0.211 HD
ENDBRANCH  12  17
BRANCH  14  19
ATOM     19  O   UNL     1      28.297  -3.094 105.419  1.00  0.00    -0.387 OA
ATOM     20  H   UNL     1      28.434  -1.329 105.528  1.00  0.00     0.211 HD
ENDBRANCH  14  19
BRANCH  15  21
ATOM     21  C   UNL     1      31.192  -5.028 103.037  1.00  0.00     0.191 C 
BRANCH  21  22
ATOM     22  O   UNL     1      32.211  -4.228 103.592  1.00  0.00    -0.394 OA
ATOM     23  H   UNL     1      31.963  -3.238 103.559  1.00  0.00     0.210 HD
ENDBRANCH  21  22
ENDBRANCH  15  21
BRANCH  16  24
ATOM     24  O   UNL     1      28.698  -7.011 102.529  1.00  0.00    -0.387 OA
ATOM     25  H   UNL     1      29.159  -6.087 103.334  1.00  0.00     0.211 HD
ENDBRANCH  16  24
ENDBRANCH  10  11
ENDBRANCH   4  10
BRANCH   6  26
ATOM     26  O   UNL     1      31.427   0.119 106.613  1.00  0.00    -0.346 OA
BRANCH  26  27
ATOM     27  C   UNL     1      30.928   1.488 106.146  1.00  0.00     0.130 C 
ATOM     28  C   UNL     1      29.145   1.764 106.105  1.00  0.00     0.033 C 
ATOM     29  C   UNL     1      31.835   2.123 104.807  1.00  0.00     0.020 C 
ATOM     30  C   UNL     1      27.973   1.575 104.740  1.00  0.00     0.010 C 
ATOM     31  C   UNL     1      30.318   2.270 103.763  1.00  0.00     0.006 C 
ATOM     32  C   UNL     1      32.445   0.519 103.568  1.00  0.00     0.017 C 
ATOM     33  C   UNL     1      28.698   1.426 103.041  1.00  0.00    -0.022 C 
ATOM     34  C   UNL     1      29.891   0.299 103.814  1.00  0.00     0.005 C 
ATOM     35  C   UNL     1      27.328   2.422 102.686  1.00  0.00     0.012 C 
ATOM     36  C   UNL     1      28.953   0.230 101.134  1.00  0.00     0.024 C 
ATOM     37  C   UNL     1      29.475  -1.345 102.970  1.00  0.00     0.008 C 
ATOM     38  C   UNL     1      28.370  -1.458 101.600  1.00  0.00    -0.017 C 
ATOM     39  C   UNL     1      27.190  -0.181 101.361  1.00  0.00    -0.024 C 
ATOM     40  C   UNL     1      28.852  -2.154 100.162  1.00  0.00     0.013 C 
ATOM     41  C   UNL     1      26.494  -2.539 101.904  1.00  0.00     0.009 C 
ATOM     42  C   UNL     1      26.206  -0.825 102.574  1.00  0.00     0.005 C 
ATOM     43  C   UNL     1      25.043  -2.492 103.069  1.00  0.00     0.096 C 
ATOM     44  C   UNL     1      26.678  -4.198 101.621  1.00  0.00     0.043 C 
ATOM     45  C   UNL     1      25.651  -2.290 100.506  1.00  0.00     0.015 C 
ATOM     46  C   UNL     1      23.731  -3.232 102.475  1.00  0.00     0.037 C 
ATOM     47  O   UNL     1      25.561  -3.166 104.159  1.00  0.00    -0.369 OA
ATOM     48  C   UNL     1      25.335  -5.136 101.633  1.00  0.00     0.124 C 
ATOM     49  C   UNL     1      24.221  -4.620 102.663  1.00  0.00     0.026 C 
ATOM     50  C   UNL     1      22.727  -2.829 101.279  1.00  0.00     0.014 C 
ATOM     51  C   UNL     1      24.808  -4.384 104.112  1.00  0.00     0.171 C 
ATOM     52  C   UNL     1      23.012  -5.625 102.737  1.00  0.00     0.013 C 
ATOM     53  C   UNL     1      21.618  -3.904 101.068  1.00  0.00    -0.035 C 
ATOM     54  C   UNL     1      21.679  -5.214 102.006  1.00  0.00     0.007 C 
ATOM     55  C   UNL     1      21.568  -4.395  99.579  1.00  0.00     0.011 C 
ATOM     56  C   UNL     1      20.244  -3.193 101.333  1.00  0.00     0.011 C 
BRANCH  29  57
ATOM     57  C   UNL     1      33.415   1.877 105.410  1.00  0.00     0.165 C 
BRANCH  57  58
ATOM     58  O   UNL     1      34.036   2.896 106.293  1.00  0.00    -0.396 OA
ATOM     59  H   UNL     1      34.063   3.724 105.719  1.00  0.00     0.210 HD
ENDBRANCH  57  58
ENDBRANCH  29  57
BRANCH  48  60
ATOM     60  O   UNL     1      24.837  -5.261 100.298  1.00  0.00    -0.392 OA
ATOM     61  H   UNL     1      25.365  -4.756  99.641  1.00  0.00     0.210 HD
ENDBRANCH  48  60
ENDBRANCH  26  27
ENDBRANCH   6  26
BRANCH   5  62
ATOM     62  O   UNL     1      29.442  -2.477 108.406  1.00  0.00    -0.385 OA
ATOM     63  H   UNL     1      29.252  -3.460 108.352  1.00  0.00     0.211 HD
ENDBRANCH   5  62
TORSDOF 14
ENDMDL
MODEL 3
REMARK VINA RESULT:    -6.612      3.804      7.554
REMARK INTER + INTRA:         -11.844
REMARK INTER:                  -9.372
REMARK INTRA:                  -2.472
REMARK UNBOUND:                -2.720
REMARK SMILES C[C@H]1O[C@@H](O[C@@H]2CC[C@@]3(C)[C@H](CC[C@]4(C)[C@H]3C=C[C@@]35OC[C@]6(CCC(C)(C)C[C@@H]63)[C@@H](O)C[C@]45C)[C@@]2(C)CO)[C@H](O)[C@@H](O[C@@H]2O[C@H](CO)[C@H](O)[C@H](O)[C@H]2O)[C@@H]1O
REMARK SMILES IDX 1 1 2 2 54 3 41 4 39 5 4 6 3 7 55 8 42 10 43 11 52 12 44 13
REMARK SMILES IDX 50 14 45 15 48 16 53 17 51 19 46 21 47 22 49 24 5 26 6 27
REMARK SMILES IDX 7 28 35 29 8 30 11 31 36 32 9 33 12 34 10 35 16 36 13 37
REMARK SMILES IDX 14 38 17 39 15 40 33 41 18 42 19 43 32 44 34 45 29 46 20 47
REMARK SMILES IDX 30 48 22 49 28 50 21 51 23 52 25 53 24 54 26 55 27 56 37 57
REMARK SMILES IDX 38 58 31 60 40 62
REMARK H PARENT 55 9 53 18 51 20 47 23 49 25 38 59 31 61 40 63
REMARK Flexibility Score: inf
ROOT
ATOM      1  C   UNL     1      25.185   3.448 103.012  1.00  0.00     0.041 C 
ATOM      2  C   UNL     1      25.747   1.701 102.930  1.00  0.00     0.150 C 
ATOM      3  C   UNL     1      27.008   1.127 102.063  1.00  0.00     0.175 C 
ATOM      4  C   UNL     1      28.047  -0.024 102.926  1.00  0.00     0.186 C 
ATOM      5  C   UNL     1      26.862  -0.860 103.751  1.00  0.00     0.202 C 
ATOM      6  C   UNL     1      25.284  -0.773 103.086  1.00  0.00     0.282 C 
ATOM      7  O   UNL     1      24.841   0.559 102.574  1.00  0.00    -0.344 OA
ENDROOT
BRANCH   3   8
ATOM      8  O   UNL     1      27.525   2.259 101.425  1.00  0.00    -0.388 OA
ATOM      9  H   UNL     1      27.510   2.197 100.394  1.00  0.00     0.211 HD
ENDBRANCH   3   8
BRANCH   4  10
ATOM     10  O   UNL     1      29.609  -0.353 102.680  1.00  0.00    -0.341 OA
BRANCH  10  11
ATOM     11  C   UNL     1      30.596  -0.804 103.820  1.00  0.00     0.282 C 
ATOM     12  C   UNL     1      32.467  -0.447 103.698  1.00  0.00     0.202 C 
ATOM     13  O   UNL     1      29.912  -0.279 105.045  1.00  0.00    -0.341 OA
ATOM     14  C   UNL     1      32.387   1.173 104.023  1.00  0.00     0.179 C 
ATOM     15  C   UNL     1      29.919   0.926 105.788  1.00  0.00     0.178 C 
ATOM     16  C   UNL     1      31.307   0.874 106.217  1.00  0.00     0.177 C 
BRANCH  12  17
ATOM     17  O   UNL     1      33.544  -1.919 103.909  1.00  0.00    -0.385 OA
ATOM     18  H   UNL     1      33.422  -0.989 104.936  1.00  0.00     0.211 HD
ENDBRANCH  12  17
BRANCH  14  19
ATOM     19  O   UNL     1      32.518   2.152 102.104  1.00  0.00    -0.387 OA
ATOM     20  H   UNL     1      32.484   2.536 100.374  1.00  0.00     0.211 HD
ENDBRANCH  14  19
BRANCH  15  21
ATOM     21  C   UNL     1      29.405   2.264 104.950  1.00  0.00     0.191 C 
BRANCH  21  22
ATOM     22  O   UNL     1      28.090   2.607 105.323  1.00  0.00    -0.394 OA
ATOM     23  H   UNL     1      27.617   3.123 104.581  1.00  0.00     0.210 HD
ENDBRANCH  21  22
ENDBRANCH  15  21
BRANCH  16  24
ATOM     24  O   UNL     1      31.935   2.452 106.944  1.00  0.00    -0.387 OA
ATOM     25  H   UNL     1      30.739   1.927 106.858  1.00  0.00     0.211 HD
ENDBRANCH  16  24
ENDBRANCH  10  11
ENDBRANCH   4  10
BRANCH   6  26
ATOM     26  O   UNL     1      25.354  -1.789 101.977  1.00  0.00    -0.346 OA
BRANCH  26  27
ATOM     27  C   UNL     1      24.585  -3.091 102.212  1.00  0.00     0.130 C 
ATOM     28  C   UNL     1      24.468  -3.705 103.905  1.00  0.00     0.033 C 
ATOM     29  C   UNL     1      24.872  -4.283 100.981  1.00  0.00     0.020 C 
ATOM     30  C   UNL     1      25.506  -4.900 104.781  1.00  0.00     0.010 C 
ATOM     31  C   UNL     1      25.463  -5.519 102.221  1.00  0.00     0.006 C 
ATOM     32  C   UNL     1      26.872  -4.109 100.309  1.00  0.00     0.017 C 
ATOM     33  C   UNL     1      26.639  -5.932 103.739  1.00  0.00    -0.022 C 
ATOM     34  C   UNL     1      27.001  -4.383 102.867  1.00  0.00     0.005 C 
ATOM     35  C   UNL     1      26.132  -7.125 104.885  1.00  0.00     0.012 C 
ATOM     36  C   UNL     1      28.744  -6.595 103.228  1.00  0.00     0.024 C 
ATOM     37  C   UNL     1      28.831  -4.123 103.278  1.00  0.00     0.008 C 
ATOM     38  C   UNL     1      29.810  -5.353 104.079  1.00  0.00    -0.017 C 
ATOM     39  C   UNL     1      29.002  -6.583 105.034  1.00  0.00    -0.024 C 
ATOM     40  C   UNL     1      31.222  -5.910 103.389  1.00  0.00     0.013 C 
ATOM     41  C   UNL     1      30.551  -4.901 106.086  1.00  0.00     0.009 C 
ATOM     42  C   UNL     1      28.802  -5.500 106.314  1.00  0.00     0.005 C 
ATOM     43  C   UNL     1      29.857  -4.382 107.733  1.00  0.00     0.096 C 
ATOM     44  C   UNL     1      32.023  -4.066 106.033  1.00  0.00     0.043 C 
ATOM     45  C   UNL     1      31.252  -6.311 106.586  1.00  0.00     0.015 C 
ATOM     46  C   UNL     1      30.860  -4.690 108.967  1.00  0.00     0.037 C 
ATOM     47  O   UNL     1      29.695  -3.024 107.533  1.00  0.00    -0.369 OA
ATOM     48  C   UNL     1      32.810  -3.800 107.446  1.00  0.00     0.124 C 
ATOM     49  C   UNL     1      31.815  -3.590 108.685  1.00  0.00     0.026 C 
ATOM     50  C   UNL     1      31.321  -6.077 109.648  1.00  0.00     0.014 C 
ATOM     51  C   UNL     1      30.713  -2.495 108.390  1.00  0.00     0.171 C 
ATOM     52  C   UNL     1      32.611  -3.205 109.987  1.00  0.00     0.013 C 
ATOM     53  C   UNL     1      32.343  -5.842 110.802  1.00  0.00    -0.035 C 
ATOM     54  C   UNL     1      32.794  -4.320 111.084  1.00  0.00     0.007 C 
ATOM     55  C   UNL     1      33.649  -6.687 110.595  1.00  0.00     0.011 C 
ATOM     56  C   UNL     1      31.678  -6.392 112.113  1.00  0.00     0.011 C 
BRANCH  29  57
ATOM     57  C   UNL     1      24.629  -3.308  99.599  1.00  0.00     0.165 C 
BRANCH  57  58
ATOM     58  O   UNL     1      23.332  -3.360  98.877  1.00  0.00    -0.396 OA
ATOM     59  H   UNL     1      22.712  -2.825  99.464  1.00  0.00     0.210 HD
ENDBRANCH  57  58
ENDBRANCH  29  57
BRANCH  48  60
ATOM     60  O   UNL     1      33.751  -4.855 107.665  1.00  0.00    -0.392 OA
ATOM     61  H   UNL     1      33.412  -5.555 108.265  1.00  0.00     0.210 HD
ENDBRANCH  48  60
ENDBRANCH  26  27
ENDBRANCH   6  26
BRANCH   5  62
ATOM     62  O   UNL     1      26.781  -0.136 104.998  1.00  0.00    -0.385 OA
ATOM     63  H   UNL     1      26.220   0.694 104.944  1.00  0.00     0.211 HD
ENDBRANCH   5  62
TORSDOF 14
ENDMDL
MODEL 4
REMARK VINA RESULT:    -6.595      2.694      9.867
REMARK INTER + INTRA:         -11.821
REMARK INTER:                  -9.523
REMARK INTRA:                  -2.299
REMARK UNBOUND:                -2.720
REMARK SMILES C[C@H]1O[C@@H](O[C@@H]2CC[C@@]3(C)[C@H](CC[C@]4(C)[C@H]3C=C[C@@]35OC[C@]6(CCC(C)(C)C[C@@H]63)[C@@H](O)C[C@]45C)[C@@]2(C)CO)[C@H](O)[C@@H](O[C@@H]2O[C@H](CO)[C@H](O)[C@H](O)[C@H]2O)[C@@H]1O
REMARK SMILES IDX 1 1 2 2 54 3 41 4 39 5 4 6 3 7 55 8 42 10 43 11 52 12 44 13
REMARK SMILES IDX 50 14 45 15 48 16 53 17 51 19 46 21 47 22 49 24 5 26 6 27
REMARK SMILES IDX 7 28 35 29 8 30 11 31 36 32 9 33 12 34 10 35 16 36 13 37
REMARK SMILES IDX 14 38 17 39 15 40 33 41 18 42 19 43 32 44 34 45 29 46 20 47
REMARK SMILES IDX 30 48 22 49 28 50 21 51 23 52 25 53 24 54 26 55 27 56 37 57
REMARK SMILES IDX 38 58 31 60 40 62
REMARK H PARENT 55 9 53 18 51 20 47 23 49 25 38 59 31 61 40 63
REMARK Flexibility Score: inf
ROOT
ATOM      1  C   UNL     1      30.113   4.057 104.718  1.00  0.00     0.041 C 
ATOM      2  C   UNL     1      29.965   2.248 104.432  1.00  0.00     0.150 C 
ATOM      3  C   UNL     1      28.780   1.270 104.990  1.00  0.00     0.175 C 
ATOM      4  C   UNL     1      28.143   0.114 103.804  1.00  0.00     0.186 C 
ATOM      5  C   UNL     1      29.577  -0.285 103.050  1.00  0.00     0.202 C 
ATOM      6  C   UNL     1      31.004  -0.001 103.956  1.00  0.00     0.282 C 
ATOM      7  O   UNL     1      31.064   1.272 104.736  1.00  0.00    -0.344 OA
ENDROOT
BRANCH   3   8
ATOM      8  O   UNL     1      27.946   2.128 105.713  1.00  0.00    -0.388 OA
ATOM      9  H   UNL     1      28.448   2.720 106.394  1.00  0.00     0.211 HD
ENDBRANCH   3   8
BRANCH   4  10
ATOM     10  O   UNL     1      26.683  -0.572 103.750  1.00  0.00    -0.341 OA
BRANCH  10  11
ATOM     11  C   UNL     1      26.448  -2.103 103.474  1.00  0.00     0.282 C 
ATOM     12  C   UNL     1      24.690  -2.849 103.500  1.00  0.00     0.202 C 
ATOM     13  O   UNL     1      27.223  -2.311 102.209  1.00  0.00    -0.341 OA
ATOM     14  C   UNL     1      24.182  -2.224 102.056  1.00  0.00     0.179 C 
ATOM     15  C   UNL     1      26.965  -2.224 100.820  1.00  0.00     0.178 C 
ATOM     16  C   UNL     1      25.978  -3.288 100.746  1.00  0.00     0.177 C 
BRANCH  12  17
ATOM     17  O   UNL     1      24.491  -4.302 104.605  1.00  0.00    -0.385 OA
ATOM     18  H   UNL     1      25.662  -4.136 103.872  1.00  0.00     0.211 HD
ENDBRANCH  12  17
BRANCH  14  19
ATOM     19  O   UNL     1      22.987  -0.500 102.563  1.00  0.00    -0.387 OA
ATOM     20  H   UNL     1      22.137   1.055 102.552  1.00  0.00     0.211 HD
ENDBRANCH  14  19
BRANCH  15  21
ATOM     21  C   UNL     1      26.533  -0.712 100.286  1.00  0.00     0.191 C 
BRANCH  21  22
ATOM     22  O   UNL     1      25.899  -0.794  99.030  1.00  0.00    -0.394 OA
ATOM     23  H   UNL     1      25.289  -1.611  98.975  1.00  0.00     0.210 HD
ENDBRANCH  21  22
ENDBRANCH  15  21
BRANCH  16  24
ATOM     24  O   UNL     1      25.036  -3.339  99.157  1.00  0.00    -0.387 OA
ATOM     25  H   UNL     1      25.861  -2.463  99.674  1.00  0.00     0.211 HD
ENDBRANCH  16  24
ENDBRANCH  10  11
ENDBRANCH   4  10
BRANCH   6  26
ATOM     26  O   UNL     1      31.045  -1.201 104.864  1.00  0.00    -0.346 OA
BRANCH  26  27
ATOM     27  C   UNL     1      32.380  -1.944 104.932  1.00  0.00     0.130 C 
ATOM     28  C   UNL     1      33.370  -2.037 103.426  1.00  0.00     0.033 C 
ATOM     29  C   UNL     1      32.306  -3.390 105.893  1.00  0.00     0.020 C 
ATOM     30  C   UNL     1      33.438  -3.327 102.160  1.00  0.00     0.010 C 
ATOM     31  C   UNL     1      32.878  -4.437 104.483  1.00  0.00     0.006 C 
ATOM     32  C   UNL     1      30.392  -4.265 105.671  1.00  0.00     0.017 C 
ATOM     33  C   UNL     1      32.677  -4.959 102.600  1.00  0.00    -0.022 C 
ATOM     34  C   UNL     1      31.321  -3.970 103.287  1.00  0.00     0.005 C 
ATOM     35  C   UNL     1      34.071  -5.512 101.735  1.00  0.00     0.012 C 
ATOM     36  C   UNL     1      31.148  -6.571 102.162  1.00  0.00     0.024 C 
ATOM     37  C   UNL     1      29.879  -4.447 102.156  1.00  0.00     0.008 C 
ATOM     38  C   UNL     1      29.986  -5.759 100.981  1.00  0.00    -0.017 C 
ATOM     39  C   UNL     1      31.570  -6.257 100.415  1.00  0.00    -0.024 C 
ATOM     40  C   UNL     1      28.893  -7.019 100.999  1.00  0.00     0.013 C 
ATOM     41  C   UNL     1      29.877  -5.227  98.863  1.00  0.00     0.009 C 
ATOM     42  C   UNL     1      31.645  -4.933  99.370  1.00  0.00     0.005 C 
ATOM     43  C   UNL     1      30.753  -4.093  97.674  1.00  0.00     0.096 C 
ATOM     44  C   UNL     1      28.275  -5.154  98.321  1.00  0.00     0.043 C 
ATOM     45  C   UNL     1      30.188  -6.644  98.073  1.00  0.00     0.015 C 
ATOM     46  C   UNL     1      30.538  -4.514  96.126  1.00  0.00     0.037 C 
ATOM     47  O   UNL     1      30.143  -2.888  97.966  1.00  0.00    -0.369 OA
ATOM     48  C   UNL     1      28.013  -4.940  96.717  1.00  0.00     0.124 C 
ATOM     49  C   UNL     1      29.136  -4.038  96.015  1.00  0.00     0.026 C 
ATOM     50  C   UNL     1      31.092  -5.764  95.272  1.00  0.00     0.014 C 
ATOM     51  C   UNL     1      29.372  -2.673  96.777  1.00  0.00     0.171 C 
ATOM     52  C   UNL     1      28.770  -3.750  94.512  1.00  0.00     0.013 C 
ATOM     53  C   UNL     1      30.567  -5.740  93.804  1.00  0.00    -0.035 C 
ATOM     54  C   UNL     1      29.557  -4.547  93.406  1.00  0.00     0.007 C 
ATOM     55  C   UNL     1      29.870  -7.092  93.419  1.00  0.00     0.011 C 
ATOM     56  C   UNL     1      31.828  -5.626  92.875  1.00  0.00     0.011 C 
BRANCH  29  57
ATOM     57  C   UNL     1      31.535  -2.755 107.279  1.00  0.00     0.165 C 
BRANCH  57  58
ATOM     58  O   UNL     1      32.265  -2.702 108.572  1.00  0.00    -0.396 OA
ATOM     59  H   UNL     1      31.634  -2.206 109.181  1.00  0.00     0.210 HD
ENDBRANCH  57  58
ENDBRANCH  29  57
BRANCH  48  60
ATOM     60  O   UNL     1      27.859  -6.217  96.092  1.00  0.00    -0.392 OA
ATOM     61  H   UNL     1      28.108  -6.213  95.141  1.00  0.00     0.210 HD
ENDBRANCH  48  60
ENDBRANCH  26  27
ENDBRANCH   6  26
BRANCH   5  62
ATOM     62  O   UNL     1      29.631   0.664 101.962  1.00  0.00    -0.385 OA
ATOM     63  H   UNL     1      29.499   1.614 102.253  1.00  0.00     0.211 HD
ENDBRANCH   5  62
TORSDOF 14
ENDMDL
MODEL 5
REMARK VINA RESULT:    -6.546      2.588      9.160
REMARK INTER + INTRA:         -11.753
REMARK INTER:                  -9.436
REMARK INTRA:                  -2.317
REMARK UNBOUND:                -2.720
REMARK SMILES C[C@H]1O[C@@H](O[C@@H]2CC[C@@]3(C)[C@H](CC[C@]4(C)[C@H]3C=C[C@@]35OC[C@]6(CCC(C)(C)C[C@@H]63)[C@@H](O)C[C@]45C)[C@@]2(C)CO)[C@H](O)[C@@H](O[C@@H]2O[C@H](CO)[C@H](O)[C@H](O)[C@H]2O)[C@@H]1O
REMARK SMILES IDX 1 1 2 2 54 3 41 4 39 5 4 6 3 7 55 8 42 10 43 11 52 12 44 13
REMARK SMILES IDX 50 14 45 15 48 16 53 17 51 19 46 21 47 22 49 24 5 26 6 27
REMARK SMILES IDX 7 28 35 29 8 30 11 31 36 32 9 33 12 34 10 35 16 36 13 37
REMARK SMILES IDX 14 38 17 39 15 40 33 41 18 42 19 43 32 44 34 45 29 46 20 47
REMARK SMILES IDX 30 48 22 49 28 50 21 51 23 52 25 53 24 54 26 55 27 56 37 57
REMARK SMILES IDX 38 58 31 60 40 62
REMARK H PARENT 55 9 53 18 51 20 47 23 49 25 38 59 31 61 40 63
REMARK Flexibility Score: inf
ROOT
ATOM      1  C   UNL     1      23.338   1.300 102.999  1.00  0.00     0.041 C 
ATOM      2  C   UNL     1      25.085   0.748 102.859  1.00  0.00     0.150 C 
ATOM      3  C   UNL     1      25.730  -0.607 103.506  1.00  0.00     0.175 C 
ATOM      4  C   UNL     1      26.801  -1.517 102.422  1.00  0.00     0.186 C 
ATOM      5  C   UNL     1      27.564  -0.228 101.686  1.00  0.00     0.202 C 
ATOM      6  C   UNL     1      27.537   1.251 102.551  1.00  0.00     0.282 C 
ATOM      7  O   UNL     1      26.255   1.613 103.228  1.00  0.00    -0.344 OA
ENDROOT
BRANCH   3   8
ATOM      8  O   UNL     1      24.656  -1.211 104.167  1.00  0.00    -0.388 OA
ATOM      9  H   UNL     1      24.816  -1.348 105.179  1.00  0.00     0.211 HD
ENDBRANCH   3   8
BRANCH   4  10
ATOM     10  O   UNL     1      27.147  -3.094 102.438  1.00  0.00    -0.341 OA
BRANCH  10  11
ATOM     11  C   UNL     1      27.734  -3.871 101.202  1.00  0.00     0.282 C 
ATOM     12  C   UNL     1      27.523  -5.762 101.039  1.00  0.00     0.202 C 
ATOM     13  O   UNL     1      27.220  -3.058 100.054  1.00  0.00    -0.341 OA
ATOM     14  C   UNL     1      25.921  -5.753 100.628  1.00  0.00     0.179 C 
ATOM     15  C   UNL     1      26.059  -3.044  99.243  1.00  0.00     0.178 C 
ATOM     16  C   UNL     1      26.245  -4.349  98.629  1.00  0.00     0.177 C 
BRANCH  12  17
ATOM     17  O   UNL     1      29.086  -6.687 100.772  1.00  0.00    -0.385 OA
ATOM     18  H   UNL     1      27.956  -6.991 100.020  1.00  0.00     0.211 HD
ENDBRANCH  12  17
BRANCH  14  19
ATOM     19  O   UNL     1      24.858  -6.229 102.444  1.00  0.00    -0.387 OA
ATOM     20  H   UNL     1      24.418  -6.697 104.097  1.00  0.00     0.211 HD
ENDBRANCH  14  19
BRANCH  15  21
ATOM     21  C   UNL     1      24.643  -2.755 100.060  1.00  0.00     0.191 C 
BRANCH  21  22
ATOM     22  O   UNL     1      24.125  -1.489  99.719  1.00  0.00    -0.394 OA
ATOM     23  H   UNL     1      23.107  -1.512  99.649  1.00  0.00     0.210 HD
ENDBRANCH  21  22
ENDBRANCH  15  21
BRANCH  16  24
ATOM     24  O   UNL     1      24.762  -4.978  97.724  1.00  0.00    -0.387 OA
ATOM     25  H   UNL     1      24.903  -4.196  98.764  1.00  0.00     0.211 HD
ENDBRANCH  16  24
ENDBRANCH  10  11
ENDBRANCH   4  10
BRANCH   6  26
ATOM     26  O   UNL     1      28.645   1.051 103.551  1.00  0.00    -0.346 OA
BRANCH  26  27
ATOM     27  C   UNL     1      29.876   1.943 103.375  1.00  0.00     0.130 C 
ATOM     28  C   UNL     1      30.460   2.248 101.695  1.00  0.00     0.033 C 
ATOM     29  C   UNL     1      31.101   1.657 104.573  1.00  0.00     0.020 C 
ATOM     30  C   UNL     1      31.727   1.388 100.732  1.00  0.00     0.010 C 
ATOM     31  C   UNL     1      32.368   1.274 103.284  1.00  0.00     0.006 C 
ATOM     32  C   UNL     1      31.101  -0.398 105.080  1.00  0.00     0.017 C 
ATOM     33  C   UNL     1      32.861   0.264 101.674  1.00  0.00    -0.022 C 
ATOM     34  C   UNL     1      31.357  -0.295 102.519  1.00  0.00     0.005 C 
ATOM     35  C   UNL     1      33.995   0.961 100.568  1.00  0.00     0.012 C 
ATOM     36  C   UNL     1      33.702  -1.812 102.008  1.00  0.00     0.024 C 
ATOM     37  C   UNL     1      31.246  -2.101 101.960  1.00  0.00     0.008 C 
ATOM     38  C   UNL     1      32.543  -2.906 101.078  1.00  0.00    -0.017 C 
ATOM     39  C   UNL     1      33.692  -1.922 100.187  1.00  0.00    -0.024 C 
ATOM     40  C   UNL     1      33.224  -4.318 101.647  1.00  0.00     0.013 C 
ATOM     41  C   UNL     1      32.134  -3.517  99.018  1.00  0.00     0.009 C 
ATOM     42  C   UNL     1      32.582  -1.711  98.932  1.00  0.00     0.005 C 
ATOM     43  C   UNL     1      31.541  -2.737  97.435  1.00  0.00     0.096 C 
ATOM     44  C   UNL     1      31.425  -5.053  98.954  1.00  0.00     0.043 C 
ATOM     45  C   UNL     1      33.591  -4.054  98.457  1.00  0.00     0.015 C 
ATOM     46  C   UNL     1      31.917  -3.607  96.123  1.00  0.00     0.037 C 
ATOM     47  O   UNL     1      30.177  -2.706  97.654  1.00  0.00    -0.369 OA
ATOM     48  C   UNL     1      31.209  -5.742  97.483  1.00  0.00     0.124 C 
ATOM     49  C   UNL     1      30.904  -4.671  96.330  1.00  0.00     0.026 C 
ATOM     50  C   UNL     1      33.330  -3.894  95.400  1.00  0.00     0.014 C 
ATOM     51  C   UNL     1      29.725  -3.692  96.718  1.00  0.00     0.171 C 
ATOM     52  C   UNL     1      30.572  -5.388  94.968  1.00  0.00     0.013 C 
ATOM     53  C   UNL     1      33.169  -4.835  94.168  1.00  0.00    -0.035 C 
ATOM     54  C   UNL     1      31.687  -5.387  93.856  1.00  0.00     0.007 C 
ATOM     55  C   UNL     1      34.122  -6.078  94.264  1.00  0.00     0.011 C 
ATOM     56  C   UNL     1      33.648  -4.022  92.913  1.00  0.00     0.011 C 
BRANCH  29  57
ATOM     57  C   UNL     1      30.124   1.705 105.975  1.00  0.00     0.165 C 
BRANCH  57  58
ATOM     58  O   UNL     1      29.987   2.972 106.737  1.00  0.00    -0.396 OA
ATOM     59  H   UNL     1      29.186   2.810 107.326  1.00  0.00     0.210 HD
ENDBRANCH  57  58
ENDBRANCH  29  57
BRANCH  48  60
ATOM     60  O   UNL     1      32.336  -6.571  97.183  1.00  0.00    -0.392 OA
ATOM     61  H   UNL     1      33.140  -6.057  96.946  1.00  0.00     0.210 HD
ENDBRANCH  48  60
ENDBRANCH  26  27
ENDBRANCH   6  26
BRANCH   5  62
ATOM     62  O   UNL     1      26.735   0.003 100.526  1.00  0.00    -0.385 OA
ATOM     63  H   UNL     1      25.761  -0.173 100.688  1.00  0.00     0.211 HD
ENDBRANCH   5  62
TORSDOF 14
ENDMDL
MODEL 6
REMARK VINA RESULT:    -6.241      2.594      9.279
REMARK INTER + INTRA:         -11.332
REMARK INTER:                  -8.747
REMARK INTRA:                  -2.585
REMARK UNBOUND:                -2.720
REMARK SMILES C[C@H]1O[C@@H](O[C@@H]2CC[C@@]3(C)[C@H](CC[C@]4(C)[C@H]3C=C[C@@]35OC[C@]6(CCC(C)(C)C[C@@H]63)[C@@H](O)C[C@]45C)[C@@]2(C)CO)[C@H](O)[C@@H](O[C@@H]2O[C@H](CO)[C@H](O)[C@H](O)[C@H]2O)[C@@H]1O
REMARK SMILES IDX 1 1 2 2 54 3 41 4 39 5 4 6 3 7 55 8 42 10 43 11 52 12 44 13
REMARK SMILES IDX 50 14 45 15 48 16 53 17 51 19 46 21 47 22 49 24 5 26 6 27
REMARK SMILES IDX 7 28 35 29 8 30 11 31 36 32 9 33 12 34 10 35 16 36 13 37
REMARK SMILES IDX 14 38 17 39 15 40 33 41 18 42 19 43 32 44 34 45 29 46 20 47
REMARK SMILES IDX 30 48 22 49 28 50 21 51 23 52 25 53 24 54 26 55 27 56 37 57
REMARK SMILES IDX 38 58 31 60 40 62
REMARK H PARENT 55 9 53 18 51 20 47 23 49 25 38 59 31 61 40 63
REMARK Flexibility Score: inf
ROOT
ATOM      1  C   UNL     1      23.361   0.935 103.226  1.00  0.00     0.041 C 
ATOM      2  C   UNL     1      25.120   0.450 103.006  1.00  0.00     0.150 C 
ATOM      3  C   UNL     1      25.829  -0.909 103.572  1.00  0.00     0.175 C 
ATOM      4  C   UNL     1      26.892  -1.736 102.415  1.00  0.00     0.186 C 
ATOM      5  C   UNL     1      27.588  -0.392 101.712  1.00  0.00     0.202 C 
ATOM      6  C   UNL     1      27.542   1.048 102.641  1.00  0.00     0.282 C 
ATOM      7  O   UNL     1      26.272   1.337 103.374  1.00  0.00    -0.344 OA
ENDROOT
BRANCH   3   8
ATOM      8  O   UNL     1      24.799  -1.577 104.241  1.00  0.00    -0.388 OA
ATOM      9  H   UNL     1      24.415  -1.050 105.042  1.00  0.00     0.211 HD
ENDBRANCH   3   8
BRANCH   4  10
ATOM     10  O   UNL     1      27.290  -3.299 102.352  1.00  0.00    -0.341 OA
BRANCH  10  11
ATOM     11  C   UNL     1      26.238  -4.469 102.390  1.00  0.00     0.282 C 
ATOM     12  C   UNL     1      24.431  -4.185 101.845  1.00  0.00     0.202 C 
ATOM     13  O   UNL     1      26.969  -5.563 101.674  1.00  0.00    -0.341 OA
ATOM     14  C   UNL     1      24.717  -4.120 100.217  1.00  0.00     0.179 C 
ATOM     15  C   UNL     1      27.110  -5.999 100.334  1.00  0.00     0.178 C 
ATOM     16  C   UNL     1      25.721  -6.367 100.110  1.00  0.00     0.177 C 
BRANCH  12  17
ATOM     17  O   UNL     1      23.169  -4.692 103.079  1.00  0.00    -0.385 OA
ATOM     18  H   UNL     1      24.359  -4.102 103.496  1.00  0.00     0.211 HD
ENDBRANCH  12  17
BRANCH  14  19
ATOM     19  O   UNL     1      24.739  -2.020  99.721  1.00  0.00    -0.387 OA
ATOM     20  H   UNL     1      25.194  -0.396  99.173  1.00  0.00     0.211 HD
ENDBRANCH  14  19
BRANCH  15  21
ATOM     21  C   UNL     1      27.804  -4.891  99.312  1.00  0.00     0.191 C 
BRANCH  21  22
ATOM     22  O   UNL     1      28.579  -3.965 100.038  1.00  0.00    -0.394 OA
ATOM     23  H   UNL     1      29.287  -3.529  99.446  1.00  0.00     0.210 HD
ENDBRANCH  21  22
ENDBRANCH  15  21
BRANCH  16  24
ATOM     24  O   UNL     1      25.295  -6.672  98.339  1.00  0.00    -0.387 OA
ATOM     25  H   UNL     1      24.580  -6.657  99.435  1.00  0.00     0.211 HD
ENDBRANCH  16  24
ENDBRANCH  10  11
ENDBRANCH   4  10
BRANCH   6  26
ATOM     26  O   UNL     1      28.689   0.844 103.595  1.00  0.00    -0.346 OA
BRANCH  26  27
ATOM     27  C   UNL     1      29.899   1.758 103.394  1.00  0.00     0.130 C 
ATOM     28  C   UNL     1      30.445   2.069 101.702  1.00  0.00     0.033 C 
ATOM     29  C   UNL     1      31.152   1.498 104.569  1.00  0.00     0.020 C 
ATOM     30  C   UNL     1      31.711   1.231 100.718  1.00  0.00     0.010 C 
ATOM     31  C   UNL     1      32.401   1.136 103.258  1.00  0.00     0.006 C 
ATOM     32  C   UNL     1      31.200  -0.555 105.081  1.00  0.00     0.017 C 
ATOM     33  C   UNL     1      32.883   0.131 101.641  1.00  0.00    -0.022 C 
ATOM     34  C   UNL     1      31.406  -0.454 102.515  1.00  0.00     0.005 C 
ATOM     35  C   UNL     1      33.983   0.847 100.512  1.00  0.00     0.012 C 
ATOM     36  C   UNL     1      33.769  -1.928 101.964  1.00  0.00     0.024 C 
ATOM     37  C   UNL     1      31.318  -2.264 101.963  1.00  0.00     0.008 C 
ATOM     38  C   UNL     1      32.614  -3.046 101.058  1.00  0.00    -0.017 C 
ATOM     39  C   UNL     1      33.728  -2.043 100.144  1.00  0.00    -0.024 C 
ATOM     40  C   UNL     1      33.332  -4.443 101.618  1.00  0.00     0.013 C 
ATOM     41  C   UNL     1      32.178  -3.670  99.008  1.00  0.00     0.009 C 
ATOM     42  C   UNL     1      32.590  -1.856  98.909  1.00  0.00     0.005 C 
ATOM     43  C   UNL     1      31.541  -2.905  97.435  1.00  0.00     0.096 C 
ATOM     44  C   UNL     1      31.497  -5.219  98.961  1.00  0.00     0.043 C 
ATOM     45  C   UNL     1      33.635  -4.181  98.420  1.00  0.00     0.015 C 
ATOM     46  C   UNL     1      31.909  -3.772  96.117  1.00  0.00     0.037 C 
ATOM     47  O   UNL     1      30.180  -2.900  97.679  1.00  0.00    -0.369 OA
ATOM     48  C   UNL     1      31.267  -5.916  97.495  1.00  0.00     0.124 C 
ATOM     49  C   UNL     1      30.920  -4.854  96.346  1.00  0.00     0.026 C 
ATOM     50  C   UNL     1      33.313  -4.034  95.369  1.00  0.00     0.014 C 
ATOM     51  C   UNL     1      29.730  -3.897  96.754  1.00  0.00     0.171 C 
ATOM     52  C   UNL     1      30.577  -5.581  94.992  1.00  0.00     0.013 C 
ATOM     53  C   UNL     1      33.147  -4.981  94.142  1.00  0.00    -0.035 C 
ATOM     54  C   UNL     1      31.670  -5.562  93.860  1.00  0.00     0.007 C 
ATOM     55  C   UNL     1      34.125  -6.205  94.223  1.00  0.00     0.011 C 
ATOM     56  C   UNL     1      33.587  -4.162  92.877  1.00  0.00     0.011 C 
BRANCH  29  57
ATOM     57  C   UNL     1      30.200   1.531 105.989  1.00  0.00     0.165 C 
BRANCH  57  58
ATOM     58  O   UNL     1      29.950   2.822 106.680  1.00  0.00    -0.396 OA
ATOM     59  H   UNL     1      29.474   2.550 107.526  1.00  0.00     0.210 HD
ENDBRANCH  57  58
ENDBRANCH  29  57
BRANCH  48  60
ATOM     60  O   UNL     1      32.403  -6.724  97.176  1.00  0.00    -0.392 OA
ATOM     61  H   UNL     1      32.242  -7.684  97.309  1.00  0.00     0.210 HD
ENDBRANCH  48  60
ENDBRANCH  26  27
ENDBRANCH   6  26
BRANCH   5  62
ATOM     62  O   UNL     1      26.714  -0.140 100.590  1.00  0.00    -0.385 OA
ATOM     63  H   UNL     1      26.909  -0.715  99.793  1.00  0.00     0.211 HD
ENDBRANCH   5  62
TORSDOF 14
ENDMDL
MODEL 7
REMARK VINA RESULT:    -6.057      3.448      7.213
REMARK INTER + INTRA:         -11.079
REMARK INTER:                  -8.722
REMARK INTRA:                  -2.357
REMARK UNBOUND:                -2.720
REMARK SMILES C[C@H]1O[C@@H](O[C@@H]2CC[C@@]3(C)[C@H](CC[C@]4(C)[C@H]3C=C[C@@]35OC[C@]6(CCC(C)(C)C[C@@H]63)[C@@H](O)C[C@]45C)[C@@]2(C)CO)[C@H](O)[C@@H](O[C@@H]2O[C@H](CO)[C@H](O)[C@H](O)[C@H]2O)[C@@H]1O
REMARK SMILES IDX 1 1 2 2 54 3 41 4 39 5 4 6 3 7 55 8 42 10 43 11 52 12 44 13
REMARK SMILES IDX 50 14 45 15 48 16 53 17 51 19 46 21 47 22 49 24 5 26 6 27
REMARK SMILES IDX 7 28 35 29 8 30 11 31 36 32 9 33 12 34 10 35 16 36 13 37
REMARK SMILES IDX 14 38 17 39 15 40 33 41 18 42 19 43 32 44 34 45 29 46 20 47
REMARK SMILES IDX 30 48 22 49 28 50 21 51 23 52 25 53 24 54 26 55 27 56 37 57
REMARK SMILES IDX 38 58 31 60 40 62
REMARK H PARENT 55 9 53 18 51 20 47 23 49 25 38 59 31 61 40 63
REMARK Flexibility Score: inf
ROOT
ATOM      1  C   UNL     1      22.417  -3.832 101.158  1.00  0.00     0.041 C 
ATOM      2  C   UNL     1      24.240  -3.627 101.043  1.00  0.00     0.150 C 
ATOM      3  C   UNL     1      25.033  -2.388 100.331  1.00  0.00     0.175 C 
ATOM      4  C   UNL     1      26.405  -1.748 101.257  1.00  0.00     0.186 C 
ATOM      5  C   UNL     1      27.004  -3.190 101.845  1.00  0.00     0.202 C 
ATOM      6  C   UNL     1      26.567  -4.596 100.967  1.00  0.00     0.282 C 
ATOM      7  O   UNL     1      25.154  -4.678 100.486  1.00  0.00    -0.344 OA
ENDROOT
BRANCH   3   8
ATOM      8  O   UNL     1      24.012  -1.562  99.850  1.00  0.00    -0.388 OA
ATOM      9  H   UNL     1      23.655  -0.894 100.551  1.00  0.00     0.211 HD
ENDBRANCH   3   8
BRANCH   4  10
ATOM     10  O   UNL     1      27.044  -0.265 101.217  1.00  0.00    -0.341 OA
BRANCH  10  11
ATOM     11  C   UNL     1      28.511   0.066 101.679  1.00  0.00     0.282 C 
ATOM     12  C   UNL     1      29.148   1.865 101.716  1.00  0.00     0.202 C 
ATOM     13  O   UNL     1      28.603  -0.683 102.973  1.00  0.00    -0.341 OA
ATOM     14  C   UNL     1      28.317   2.348 103.061  1.00  0.00     0.179 C 
ATOM     15  C   UNL     1      28.326  -0.417 104.336  1.00  0.00     0.178 C 
ATOM     16  C   UNL     1      29.311   0.634 104.526  1.00  0.00     0.177 C 
BRANCH  12  17
ATOM     17  O   UNL     1      30.715   2.142 100.799  1.00  0.00    -0.385 OA
ATOM     18  H   UNL     1      30.556   1.005 101.585  1.00  0.00     0.211 HD
ENDBRANCH  12  17
BRANCH  14  19
ATOM     19  O   UNL     1      26.603   3.430 102.321  1.00  0.00    -0.387 OA
ATOM     20  H   UNL     1      25.058   4.286 102.160  1.00  0.00     0.211 HD
ENDBRANCH  14  19
BRANCH  15  21
ATOM     21  C   UNL     1      26.736  -0.073 104.668  1.00  0.00     0.191 C 
BRANCH  21  22
ATOM     22  O   UNL     1      26.008  -1.260 104.889  1.00  0.00    -0.394 OA
ATOM     23  H   UNL     1      25.306  -1.405 104.163  1.00  0.00     0.210 HD
ENDBRANCH  21  22
ENDBRANCH  15  21
BRANCH  16  24
ATOM     24  O   UNL     1      29.104   1.592 106.092  1.00  0.00    -0.387 OA
ATOM     25  H   UNL     1      29.249   1.953 104.842  1.00  0.00     0.211 HD
ENDBRANCH  16  24
ENDBRANCH  10  11
ENDBRANCH   4  10
BRANCH   6  26
ATOM     26  O   UNL     1      27.536  -4.561  99.816  1.00  0.00    -0.346 OA
BRANCH  26  27
ATOM     27  C   UNL     1      28.422  -5.797  99.649  1.00  0.00     0.130 C 
ATOM     28  C   UNL     1      28.747  -6.803 101.111  1.00  0.00     0.033 C 
ATOM     29  C   UNL     1      29.770  -5.530  98.586  1.00  0.00     0.020 C 
ATOM     30  C   UNL     1      30.132  -6.747 102.275  1.00  0.00     0.010 C 
ATOM     31  C   UNL     1      30.983  -6.006  99.895  1.00  0.00     0.006 C 
ATOM     32  C   UNL     1      30.430  -3.530  98.803  1.00  0.00     0.017 C 
ATOM     33  C   UNL     1      31.624  -5.787 101.738  1.00  0.00    -0.022 C 
ATOM     34  C   UNL     1      30.433  -4.543 101.171  1.00  0.00     0.005 C 
ATOM     35  C   UNL     1      32.401  -7.125 102.514  1.00  0.00     0.012 C 
ATOM     36  C   UNL     1      33.076  -4.087 102.103  1.00  0.00     0.024 C 
ATOM     37  C   UNL     1      30.825  -3.081 102.309  1.00  0.00     0.008 C 
ATOM     38  C   UNL     1      32.228  -3.058 103.378  1.00  0.00    -0.017 C 
ATOM     39  C   UNL     1      32.951  -4.584 103.854  1.00  0.00    -0.024 C 
ATOM     40  C   UNL     1      33.346  -1.822 103.301  1.00  0.00     0.013 C 
ATOM     41  C   UNL     1      31.854  -3.062 105.532  1.00  0.00     0.009 C 
ATOM     42  C   UNL     1      31.730  -4.840 104.992  1.00  0.00     0.005 C 
ATOM     43  C   UNL     1      30.927  -4.093 106.774  1.00  0.00     0.096 C 
ATOM     44  C   UNL     1      31.638  -1.493 106.130  1.00  0.00     0.043 C 
ATOM     45  C   UNL     1      33.355  -3.221 106.204  1.00  0.00     0.015 C 
ATOM     46  C   UNL     1      31.439  -3.866 108.293  1.00  0.00     0.037 C 
ATOM     47  O   UNL     1      29.639  -3.624 106.593  1.00  0.00    -0.369 OA
ATOM     48  C   UNL     1      31.520  -1.295 107.752  1.00  0.00     0.124 C 
ATOM     49  C   UNL     1      30.813  -2.533 108.484  1.00  0.00     0.026 C 
ATOM     50  C   UNL     1      32.808  -4.286 109.033  1.00  0.00     0.014 C 
ATOM     51  C   UNL     1      29.430  -2.912 107.819  1.00  0.00     0.171 C 
ATOM     52  C   UNL     1      30.603  -2.238 110.015  1.00  0.00     0.013 C 
ATOM     53  C   UNL     1      32.838  -3.802 110.514  1.00  0.00    -0.035 C 
ATOM     54  C   UNL     1      31.570  -2.951 111.033  1.00  0.00     0.007 C 
ATOM     55  C   UNL     1      34.125  -2.958 110.819  1.00  0.00     0.011 C 
ATOM     56  C   UNL     1      32.945  -5.088 111.408  1.00  0.00     0.011 C 
BRANCH  29  57
ATOM     57  C   UNL     1      28.942  -4.808  97.276  1.00  0.00     0.165 C 
BRANCH  57  58
ATOM     58  O   UNL     1      29.129  -5.339  95.902  1.00  0.00    -0.396 OA
ATOM     59  H   UNL     1      29.872  -6.012  96.006  1.00  0.00     0.210 HD
ENDBRANCH  57  58
ENDBRANCH  29  57
BRANCH  48  60
ATOM     60  O   UNL     1      32.816  -1.004 108.285  1.00  0.00    -0.392 OA
ATOM     61  H   UNL     1      32.796  -0.326 108.995  1.00  0.00     0.210 HD
ENDBRANCH  48  60
ENDBRANCH  26  27
ENDBRANCH   6  26
BRANCH   5  62
ATOM     62  O   UNL     1      26.323  -3.316 103.113  1.00  0.00    -0.385 OA
ATOM     63  H   UNL     1      26.137  -4.266 103.375  1.00  0.00     0.211 HD
ENDBRANCH   5  62
TORSDOF 14
ENDMDL
MODEL 8
REMARK VINA RESULT:    -5.830      2.787      9.434
REMARK INTER + INTRA:         -10.765
REMARK INTER:                  -8.786
REMARK INTRA:                  -1.978
REMARK UNBOUND:                -2.720
REMARK SMILES C[C@H]1O[C@@H](O[C@@H]2CC[C@@]3(C)[C@H](CC[C@]4(C)[C@H]3C=C[C@@]35OC[C@]6(CCC(C)(C)C[C@@H]63)[C@@H](O)C[C@]45C)[C@@]2(C)CO)[C@H](O)[C@@H](O[C@@H]2O[C@H](CO)[C@H](O)[C@H](O)[C@H]2O)[C@@H]1O
REMARK SMILES IDX 1 1 2 2 54 3 41 4 39 5 4 6 3 7 55 8 42 10 43 11 52 12 44 13
REMARK SMILES IDX 50 14 45 15 48 16 53 17 51 19 46 21 47 22 49 24 5 26 6 27
REMARK SMILES IDX 7 28 35 29 8 30 11 31 36 32 9 33 12 34 10 35 16 36 13 37
REMARK SMILES IDX 14 38 17 39 15 40 33 41 18 42 19 43 32 44 34 45 29 46 20 47
REMARK SMILES IDX 30 48 22 49 28 50 21 51 23 52 25 53 24 54 26 55 27 56 37 57
REMARK SMILES IDX 38 58 31 60 40 62
REMARK H PARENT 55 9 53 18 51 20 47 23 49 25 38 59 31 61 40 63
REMARK Flexibility Score: inf
ROOT
ATOM      1  C   UNL     1      25.706   3.596 102.735  1.00  0.00     0.041 C 
ATOM      2  C   UNL     1      26.441   1.912 102.687  1.00  0.00     0.150 C 
ATOM      3  C   UNL     1      25.674   0.509 103.024  1.00  0.00     0.175 C 
ATOM      4  C   UNL     1      26.003  -0.815 101.889  1.00  0.00     0.186 C 
ATOM      5  C   UNL     1      27.628  -0.531 101.639  1.00  0.00     0.202 C 
ATOM      6  C   UNL     1      28.428   0.368 102.860  1.00  0.00     0.282 C 
ATOM      7  O   UNL     1      27.689   1.536 103.430  1.00  0.00    -0.344 OA
ENDROOT
BRANCH   3   8
ATOM      8  O   UNL     1      24.372   0.903 103.347  1.00  0.00    -0.388 OA
ATOM      9  H   UNL     1      23.859   0.212 103.919  1.00  0.00     0.211 HD
ENDBRANCH   3   8
BRANCH   4  10
ATOM     10  O   UNL     1      25.074  -2.085 101.525  1.00  0.00    -0.341 OA
BRANCH  10  11
ATOM     11  C   UNL     1      25.351  -3.545 102.043  1.00  0.00     0.282 C 
ATOM     12  C   UNL     1      23.936  -4.818 102.198  1.00  0.00     0.202 C 
ATOM     13  O   UNL     1      26.509  -3.961 101.188  1.00  0.00    -0.341 OA
ATOM     14  C   UNL     1      23.759  -5.123 100.582  1.00  0.00     0.179 C 
ATOM     15  C   UNL     1      26.684  -4.586  99.930  1.00  0.00     0.178 C 
ATOM     16  C   UNL     1      26.088  -5.867 100.272  1.00  0.00     0.177 C 
BRANCH  12  17
ATOM     17  O   UNL     1      23.793  -5.607 103.850  1.00  0.00    -0.385 OA
ATOM     18  H   UNL     1      24.818  -5.976 102.985  1.00  0.00     0.211 HD
ENDBRANCH  12  17
BRANCH  14  19
ATOM     19  O   UNL     1      22.055  -3.956  99.960  1.00  0.00    -0.387 OA
ATOM     20  H   UNL     1      20.478  -3.419  99.351  1.00  0.00     0.211 HD
ENDBRANCH  14  19
BRANCH  15  21
ATOM     21  C   UNL     1      26.057  -3.747  98.642  1.00  0.00     0.191 C 
BRANCH  21  22
ATOM     22  O   UNL     1      26.969  -2.767  98.199  1.00  0.00    -0.394 OA
ATOM     23  H   UNL     1      27.930  -3.109  98.240  1.00  0.00     0.210 HD
ENDBRANCH  21  22
ENDBRANCH  15  21
BRANCH  16  24
ATOM     24  O   UNL     1      25.739  -6.953  98.819  1.00  0.00    -0.387 OA
ATOM     25  H   UNL     1      26.589  -7.041  99.810  1.00  0.00     0.211 HD
ENDBRANCH  16  24
ENDBRANCH  10  11
ENDBRANCH   4  10
BRANCH   6  26
ATOM     26  O   UNL     1      28.683  -0.682 103.908  1.00  0.00    -0.346 OA
BRANCH  26  27
ATOM     27  C   UNL     1      30.133  -0.827 104.373  1.00  0.00     0.130 C 
ATOM     28  C   UNL     1      31.437  -0.586 103.148  1.00  0.00     0.033 C 
ATOM     29  C   UNL     1      30.362  -2.137 105.491  1.00  0.00     0.020 C 
ATOM     30  C   UNL     1      32.307  -1.799 102.126  1.00  0.00     0.010 C 
ATOM     31  C   UNL     1      31.627  -2.931 104.405  1.00  0.00     0.006 C 
ATOM     32  C   UNL     1      29.043  -3.712 104.984  1.00  0.00     0.017 C 
ATOM     33  C   UNL     1      32.128  -3.576 102.618  1.00  0.00    -0.022 C 
ATOM     34  C   UNL     1      30.373  -3.180 102.844  1.00  0.00     0.005 C 
ATOM     35  C   UNL     1      33.800  -3.566 102.168  1.00  0.00     0.012 C 
ATOM     36  C   UNL     1      31.484  -5.683 102.093  1.00  0.00     0.024 C 
ATOM     37  C   UNL     1      29.559  -4.244 101.505  1.00  0.00     0.008 C 
ATOM     38  C   UNL     1      30.448  -5.457 100.583  1.00  0.00    -0.017 C 
ATOM     39  C   UNL     1      32.192  -5.307 100.454  1.00  0.00    -0.024 C 
ATOM     40  C   UNL     1      29.943  -7.046 100.543  1.00  0.00     0.013 C 
ATOM     41  C   UNL     1      30.697  -5.110  98.439  1.00  0.00     0.009 C 
ATOM     42  C   UNL     1      32.030  -4.112  99.272  1.00  0.00     0.005 C 
ATOM     43  C   UNL     1      31.357  -3.777  97.320  1.00  0.00     0.096 C 
ATOM     44  C   UNL     1      29.383  -5.708  97.555  1.00  0.00     0.043 C 
ATOM     45  C   UNL     1      31.709  -6.320  97.947  1.00  0.00     0.015 C 
ATOM     46  C   UNL     1      31.722  -4.319  95.838  1.00  0.00     0.037 C 
ATOM     47  O   UNL     1      30.287  -2.903  97.295  1.00  0.00    -0.369 OA
ATOM     48  C   UNL     1      29.481  -5.690  95.919  1.00  0.00     0.124 C 
ATOM     49  C   UNL     1      30.324  -4.448  95.357  1.00  0.00     0.026 C 
ATOM     50  C   UNL     1      32.904  -5.283  95.314  1.00  0.00     0.014 C 
ATOM     51  C   UNL     1      29.826  -3.069  95.948  1.00  0.00     0.171 C 
ATOM     52  C   UNL     1      30.277  -4.399  93.785  1.00  0.00     0.013 C 
ATOM     53  C   UNL     1      32.806  -5.537  93.780  1.00  0.00    -0.035 C 
ATOM     54  C   UNL     1      31.562  -4.866  93.004  1.00  0.00     0.007 C 
ATOM     55  C   UNL     1      32.791  -7.071  93.450  1.00  0.00     0.011 C 
ATOM     56  C   UNL     1      34.125  -4.973  93.142  1.00  0.00     0.011 C 
BRANCH  29  57
ATOM     57  C   UNL     1      29.080  -1.798 106.569  1.00  0.00     0.165 C 
BRANCH  57  58
ATOM     58  O   UNL     1      29.318  -1.839 108.035  1.00  0.00    -0.396 OA
ATOM     59  H   UNL     1      29.395  -2.824 108.236  1.00  0.00     0.210 HD
ENDBRANCH  57  58
ENDBRANCH  29  57
BRANCH  48  60
ATOM     60  O   UNL     1      29.984  -6.950  95.465  1.00  0.00    -0.392 OA
ATOM     61  H   UNL     1      30.913  -6.902  95.148  1.00  0.00     0.210 HD
ENDBRANCH  48  60
ENDBRANCH  26  27
ENDBRANCH   6  26
BRANCH   5  62
ATOM     62  O   UNL     1      27.618   0.337 100.484  1.00  0.00    -0.385 OA
ATOM     63  H   UNL     1      27.504   1.307 100.712  1.00  0.00     0.211 HD
ENDBRANCH   5  62
TORSDOF 14
ENDMDL
MODEL 9
REMARK VINA RESULT:    -5.825      3.990      7.975
REMARK INTER + INTRA:         -10.758
REMARK INTER:                  -8.451
REMARK INTRA:                  -2.306
REMARK UNBOUND:                -2.720
REMARK SMILES C[C@H]1O[C@@H](O[C@@H]2CC[C@@]3(C)[C@H](CC[C@]4(C)[C@H]3C=C[C@@]35OC[C@]6(CCC(C)(C)C[C@@H]63)[C@@H](O)C[C@]45C)[C@@]2(C)CO)[C@H](O)[C@@H](O[C@@H]2O[C@H](CO)[C@H](O)[C@H](O)[C@H]2O)[C@@H]1O
REMARK SMILES IDX 1 1 2 2 54 3 41 4 39 5 4 6 3 7 55 8 42 10 43 11 52 12 44 13
REMARK SMILES IDX 50 14 45 15 48 16 53 17 51 19 46 21 47 22 49 24 5 26 6 27
REMARK SMILES IDX 7 28 35 29 8 30 11 31 36 32 9 33 12 34 10 35 16 36 13 37
REMARK SMILES IDX 14 38 17 39 15 40 33 41 18 42 19 43 32 44 34 45 29 46 20 47
REMARK SMILES IDX 30 48 22 49 28 50 21 51 23 52 25 53 24 54 26 55 27 56 37 57
REMARK SMILES IDX 38 58 31 60 40 62
REMARK H PARENT 55 9 53 18 51 20 47 23 49 25 38 59 31 61 40 63
REMARK Flexibility Score: inf
ROOT
ATOM      1  C   UNL     1      23.260   1.875 103.090  1.00  0.00     0.041 C 
ATOM      2  C   UNL     1      24.759   0.820 102.961  1.00  0.00     0.150 C 
ATOM      3  C   UNL     1      26.255   1.309 102.521  1.00  0.00     0.175 C 
ATOM      4  C   UNL     1      27.575   0.668 103.520  1.00  0.00     0.186 C 
ATOM      5  C   UNL     1      26.990  -0.878 103.744  1.00  0.00     0.202 C 
ATOM      6  C   UNL     1      25.850  -1.423 102.586  1.00  0.00     0.282 C 
ATOM      7  O   UNL     1      24.812  -0.440 102.148  1.00  0.00    -0.344 OA
ENDROOT
BRANCH   3   8
ATOM      8  O   UNL     1      26.107   2.678 102.277  1.00  0.00    -0.388 OA
ATOM      9  H   UNL     1      25.192   2.929 101.867  1.00  0.00     0.211 HD
ENDBRANCH   3   8
BRANCH   4  10
ATOM     10  O   UNL     1      29.032   1.308 103.796  1.00  0.00    -0.341 OA
BRANCH  10  11
ATOM     11  C   UNL     1      30.340   0.452 103.979  1.00  0.00     0.282 C 
ATOM     12  C   UNL     1      31.945   0.898 103.045  1.00  0.00     0.202 C 
ATOM     13  O   UNL     1      30.454   0.379 105.470  1.00  0.00    -0.341 OA
ATOM     14  C   UNL     1      32.348   2.221 103.952  1.00  0.00     0.179 C 
ATOM     15  C   UNL     1      31.054   1.153 106.494  1.00  0.00     0.178 C 
ATOM     16  C   UNL     1      32.436   0.975 106.077  1.00  0.00     0.177 C 
BRANCH  12  17
ATOM     17  O   UNL     1      32.680  -0.483 102.083  1.00  0.00    -0.385 OA
ATOM     18  H   UNL     1      31.618  -0.721 102.950  1.00  0.00     0.211 HD
ENDBRANCH  12  17
BRANCH  14  19
ATOM     19  O   UNL     1      31.715   3.927 102.793  1.00  0.00    -0.387 OA
ATOM     20  H   UNL     1      31.130   5.516 102.266  1.00  0.00     0.211 HD
ENDBRANCH  14  19
BRANCH  15  21
ATOM     21  C   UNL     1      30.468   2.699 106.632  1.00  0.00     0.191 C 
BRANCH  21  22
ATOM     22  O   UNL     1      30.993   3.328 107.778  1.00  0.00    -0.394 OA
ATOM     23  H   UNL     1      30.406   3.158 108.596  1.00  0.00     0.210 HD
ENDBRANCH  21  22
ENDBRANCH  15  21
BRANCH  16  24
ATOM     24  O   UNL     1      33.629   2.116 106.906  1.00  0.00    -0.387 OA
ATOM     25  H   UNL     1      32.732   1.282 107.366  1.00  0.00     0.211 HD
ENDBRANCH  16  24
ENDBRANCH  10  11
ENDBRANCH   4  10
BRANCH   6  26
ATOM     26  O   UNL     1      26.736  -1.829 101.439  1.00  0.00    -0.346 OA
BRANCH  26  27
ATOM     27  C   UNL     1      26.693  -3.308 101.049  1.00  0.00     0.130 C 
ATOM     28  C   UNL     1      26.512  -4.521 102.373  1.00  0.00     0.033 C 
ATOM     29  C   UNL     1      27.813  -3.712  99.784  1.00  0.00     0.020 C 
ATOM     30  C   UNL     1      27.775  -5.449 103.278  1.00  0.00     0.010 C 
ATOM     31  C   UNL     1      28.638  -4.990 100.832  1.00  0.00     0.006 C 
ATOM     32  C   UNL     1      29.549  -2.520  99.997  1.00  0.00     0.017 C 
ATOM     33  C   UNL     1      29.477  -5.459 102.545  1.00  0.00    -0.022 C 
ATOM     34  C   UNL     1      29.204  -3.688 102.266  1.00  0.00     0.005 C 
ATOM     35  C   UNL     1      29.387  -7.098 103.095  1.00  0.00     0.012 C 
ATOM     36  C   UNL     1      31.683  -4.987 102.747  1.00  0.00     0.024 C 
ATOM     37  C   UNL     1      30.507  -2.911 103.400  1.00  0.00     0.008 C 
ATOM     38  C   UNL     1      31.754  -3.861 104.207  1.00  0.00    -0.017 C 
ATOM     39  C   UNL     1      31.476  -5.575 104.461  1.00  0.00    -0.024 C 
ATOM     40  C   UNL     1      33.371  -3.503 104.006  1.00  0.00     0.013 C 
ATOM     41  C   UNL     1      31.685  -3.970 106.390  1.00  0.00     0.009 C 
ATOM     42  C   UNL     1      30.472  -5.245 105.779  1.00  0.00     0.005 C 
ATOM     43  C   UNL     1      30.466  -4.448 107.713  1.00  0.00     0.096 C 
ATOM     44  C   UNL     1      32.507  -2.675 107.104  1.00  0.00     0.043 C 
ATOM     45  C   UNL     1      32.860  -5.064 106.779  1.00  0.00     0.015 C 
ATOM     46  C   UNL     1      31.173  -4.788 109.130  1.00  0.00     0.037 C 
ATOM     47  O   UNL     1      29.698  -3.302 107.787  1.00  0.00    -0.369 OA
ATOM     48  C   UNL     1      32.705  -2.690 108.731  1.00  0.00     0.124 C 
ATOM     49  C   UNL     1      31.484  -3.386 109.503  1.00  0.00     0.026 C 
ATOM     50  C   UNL     1      32.095  -6.027 109.594  1.00  0.00     0.014 C 
ATOM     51  C   UNL     1      30.085  -2.792 109.069  1.00  0.00     0.171 C 
ATOM     52  C   UNL     1      31.656  -3.256 111.062  1.00  0.00     0.013 C 
ATOM     53  C   UNL     1      32.565  -5.876 111.072  1.00  0.00    -0.035 C 
ATOM     54  C   UNL     1      32.114  -4.538 111.852  1.00  0.00     0.007 C 
ATOM     55  C   UNL     1      34.125  -5.986 111.195  1.00  0.00     0.011 C 
ATOM     56  C   UNL     1      31.983  -7.104 111.859  1.00  0.00     0.011 C 
BRANCH  29  57
ATOM     57  C   UNL     1      27.440  -2.460  98.683  1.00  0.00     0.165 C 
BRANCH  57  58
ATOM     58  O   UNL     1      27.498  -2.720  97.222  1.00  0.00    -0.396 OA
ATOM     59  H   UNL     1      26.829  -3.461  97.086  1.00  0.00     0.210 HD
ENDBRANCH  57  58
ENDBRANCH  29  57
BRANCH  48  60
ATOM     60  O   UNL     1      33.968  -3.284 109.045  1.00  0.00    -0.392 OA
ATOM     61  H   UNL     1      34.380  -3.741 108.279  1.00  0.00     0.210 HD
ENDBRANCH  48  60
ENDBRANCH  26  27
ENDBRANCH   6  26
BRANCH   5  62
ATOM     62  O   UNL     1      26.241  -0.753 104.973  1.00  0.00    -0.385 OA
ATOM     63  H   UNL     1      26.126   0.196 105.277  1.00  0.00     0.211 HD
ENDBRANCH   5  62
TORSDOF 14
ENDMDL
