MODEL 1
REMARK VINA RESULT:    -3.016      0.000      0.000
REMARK INTER + INTRA:          -5.075
REMARK INTER:                  -4.250
REMARK INTRA:                  -0.824
REMARK UNBOUND:                -0.824
REMARK SMILES CCCCCCCCC(=O)[O-]
REMARK SMILES IDX 6 1 7 2 8 3 9 4 10 5 11 6 5 7 4 8 3 9 2 10 1 11
REMARK H PARENT
REMARK Flexibility Score: inf
ROOT
ATOM      1  C   UNL     1      86.102  29.759  26.907  1.00  0.00     0.000 C 
ENDROOT
BRANCH   1   2
ATOM      2  C   UNL     1      85.543  28.540  27.655  1.00  0.00     0.006 C 
BRANCH   2   3
ATOM      3  C   UNL     1      86.218  27.250  27.181  1.00  0.00     0.053 C 
BRANCH   3   4
ATOM      4  C   UNL     1      86.446  26.323  28.334  1.00  0.00     0.041 C 
ATOM      5  O   UNL     1      86.137  25.106  28.238  1.00  0.00    -0.550 OA
ATOM      6  O   UNL     1      87.045  26.793  29.496  1.00  0.00    -0.550 OA
ENDBRANCH   3   4
ENDBRANCH   2   3
ENDBRANCH   1   2
BRANCH   1   7
ATOM      7  C   UNL     1      86.617  30.852  27.857  1.00  0.00     0.000 C 
BRANCH   7   8
ATOM      8  C   UNL     1      87.471  30.288  29.002  1.00  0.00    -0.000 C 
BRANCH   8   9
ATOM      9  C   UNL     1      88.960  30.304  28.635  1.00  0.00    -0.000 C 
BRANCH   9  10
ATOM     10  C   UNL     1      89.457  28.896  28.289  1.00  0.00    -0.003 C 
ATOM     11  C   UNL     1      89.731  28.760  26.794  1.00  0.00     0.004 C 
ENDBRANCH   9  10
ENDBRANCH   8   9
ENDBRANCH   7   8
ENDBRANCH   1   7
TORSDOF 7
ENDMDL
MODEL 2
REMARK VINA RESULT:    -2.973      1.576      2.143
REMARK INTER + INTRA:          -5.014
REMARK INTER:                  -4.319
REMARK INTRA:                  -0.696
REMARK UNBOUND:                -0.824
REMARK SMILES CCCCCCCCC(=O)[O-]
REMARK SMILES IDX 6 1 7 2 8 3 9 4 10 5 11 6 5 7 4 8 3 9 2 10 1 11
REMARK H PARENT
REMARK Flexibility Score: inf
ROOT
ATOM      1  C   UNL     1      87.589  27.892  29.136  1.00  0.00     0.000 C 
ENDROOT
BRANCH   1   2
ATOM      2  C   UNL     1      86.273  27.629  28.389  1.00  0.00     0.006 C 
BRANCH   2   3
ATOM      3  C   UNL     1      86.332  26.303  27.627  1.00  0.00     0.053 C 
BRANCH   3   4
ATOM      4  C   UNL     1      85.676  25.214  28.417  1.00  0.00     0.041 C 
ATOM      5  O   UNL     1      84.724  25.483  29.196  1.00  0.00    -0.550 OA
ATOM      6  O   UNL     1      86.082  23.895  28.254  1.00  0.00    -0.550 OA
ENDBRANCH   3   4
ENDBRANCH   2   3
ENDBRANCH   1   2
BRANCH   1   7
ATOM      7  C   UNL     1      87.923  29.388  29.240  1.00  0.00     0.000 C 
BRANCH   7   8
ATOM      8  C   UNL     1      88.839  29.871  28.105  1.00  0.00    -0.000 C 
BRANCH   8   9
ATOM      9  C   UNL     1      89.763  28.744  27.629  1.00  0.00    -0.000 C 
BRANCH   9  10
ATOM     10  C   UNL     1      89.847  28.710  26.099  1.00  0.00    -0.003 C 
ATOM     11  C   UNL     1      88.458  28.629  25.472  1.00  0.00     0.004 C 
ENDBRANCH   9  10
ENDBRANCH   8   9
ENDBRANCH   7   8
ENDBRANCH   1   7
TORSDOF 7
ENDMDL
MODEL 3
REMARK VINA RESULT:    -2.859      1.879      2.320
REMARK INTER + INTRA:          -4.853
REMARK INTER:                  -4.397
REMARK INTRA:                  -0.456
REMARK UNBOUND:                -0.824
REMARK SMILES CCCCCCCCC(=O)[O-]
REMARK SMILES IDX 6 1 7 2 8 3 9 4 10 5 11 6 5 7 4 8 3 9 2 10 1 11
REMARK H PARENT
REMARK Flexibility Score: inf
ROOT
ATOM      1  C   UNL     1      86.436  27.876  27.919  1.00  0.00     0.000 C 
ENDROOT
BRANCH   1   2
ATOM      2  C   UNL     1      86.092  26.442  27.489  1.00  0.00     0.006 C 
BRANCH   2   3
ATOM      3  C   UNL     1      85.921  25.532  28.709  1.00  0.00     0.053 C 
BRANCH   3   4
ATOM      4  C   UNL     1      85.468  24.170  28.287  1.00  0.00     0.041 C 
ATOM      5  O   UNL     1      85.926  23.646  27.238  1.00  0.00    -0.550 OA
ATOM      6  O   UNL     1      84.576  23.457  29.080  1.00  0.00    -0.550 OA
ENDBRANCH   3   4
ENDBRANCH   2   3
ENDBRANCH   1   2
BRANCH   1   7
ATOM      7  C   UNL     1      87.407  27.922  29.109  1.00  0.00     0.000 C 
BRANCH   7   8
ATOM      8  C   UNL     1      88.290  29.179  29.105  1.00  0.00    -0.000 C 
BRANCH   8   9
ATOM      9  C   UNL     1      89.604  28.923  28.358  1.00  0.00    -0.000 C 
BRANCH   9  10
ATOM     10  C   UNL     1      89.604  29.618  26.991  1.00  0.00    -0.003 C 
ATOM     11  C   UNL     1      89.541  28.600  25.856  1.00  0.00     0.004 C 
ENDBRANCH   9  10
ENDBRANCH   8   9
ENDBRANCH   7   8
ENDBRANCH   1   7
TORSDOF 7
ENDMDL
MODEL 4
REMARK VINA RESULT:    -2.849      2.588      4.815
REMARK INTER + INTRA:          -4.839
REMARK INTER:                  -4.501
REMARK INTRA:                  -0.338
REMARK UNBOUND:                -0.824
REMARK SMILES CCCCCCCCC(=O)[O-]
REMARK SMILES IDX 6 1 7 2 8 3 9 4 10 5 11 6 5 7 4 8 3 9 2 10 1 11
REMARK H PARENT
REMARK Flexibility Score: inf
ROOT
ATOM      1  C   UNL     1      87.545  29.264  29.098  1.00  0.00     0.000 C 
ENDROOT
BRANCH   1   2
ATOM      2  C   UNL     1      88.944  29.812  28.778  1.00  0.00     0.006 C 
BRANCH   2   3
ATOM      3  C   UNL     1      89.722  28.839  27.888  1.00  0.00     0.053 C 
BRANCH   3   4
ATOM      4  C   UNL     1      89.544  29.190  26.445  1.00  0.00     0.041 C 
ATOM      5  O   UNL     1      90.182  30.154  25.944  1.00  0.00    -0.550 OA
ATOM      6  O   UNL     1      88.712  28.422  25.640  1.00  0.00    -0.550 OA
ENDBRANCH   3   4
ENDBRANCH   2   3
ENDBRANCH   1   2
BRANCH   1   7
ATOM      7  C   UNL     1      87.501  27.728  29.122  1.00  0.00     0.000 C 
BRANCH   7   8
ATOM      8  C   UNL     1      86.460  27.149  28.151  1.00  0.00    -0.000 C 
BRANCH   8   9
ATOM      9  C   UNL     1      85.952  25.788  28.639  1.00  0.00    -0.000 C 
BRANCH   9  10
ATOM     10  C   UNL     1      85.715  24.835  27.462  1.00  0.00    -0.003 C 
ATOM     11  C   UNL     1      85.879  23.379  27.889  1.00  0.00     0.004 C 
ENDBRANCH   9  10
ENDBRANCH   8   9
ENDBRANCH   7   8
ENDBRANCH   1   7
TORSDOF 7
ENDMDL
MODEL 5
REMARK VINA RESULT:    -2.799      0.958      2.217
REMARK INTER + INTRA:          -4.769
REMARK INTER:                  -3.993
REMARK INTRA:                  -0.776
REMARK UNBOUND:                -0.824
REMARK SMILES CCCCCCCCC(=O)[O-]
REMARK SMILES IDX 6 1 7 2 8 3 9 4 10 5 11 6 5 7 4 8 3 9 2 10 1 11
REMARK H PARENT
REMARK Flexibility Score: inf
ROOT
ATOM      1  C   UNL     1      86.503  28.800  25.994  1.00  0.00     0.000 C 
ENDROOT
BRANCH   1   2
ATOM      2  C   UNL     1      85.631  27.830  26.805  1.00  0.00     0.006 C 
BRANCH   2   3
ATOM      3  C   UNL     1      86.386  26.531  27.100  1.00  0.00     0.053 C 
BRANCH   3   4
ATOM      4  C   UNL     1      86.278  26.179  28.550  1.00  0.00     0.041 C 
ATOM      5  O   UNL     1      86.979  26.785  29.402  1.00  0.00    -0.550 OA
ATOM      6  O   UNL     1      85.367  25.216  28.966  1.00  0.00    -0.550 OA
ENDBRANCH   3   4
ENDBRANCH   2   3
ENDBRANCH   1   2
BRANCH   1   7
ATOM      7  C   UNL     1      87.947  28.301  25.827  1.00  0.00     0.000 C 
BRANCH   7   8
ATOM      8  C   UNL     1      88.982  29.278  26.404  1.00  0.00    -0.000 C 
BRANCH   8   9
ATOM      9  C   UNL     1      89.260  28.973  27.880  1.00  0.00    -0.000 C 
BRANCH   9  10
ATOM     10  C   UNL     1      88.970  30.196  28.759  1.00  0.00    -0.003 C 
ATOM     11  C   UNL     1      87.499  30.251  29.159  1.00  0.00     0.004 C 
ENDBRANCH   9  10
ENDBRANCH   8   9
ENDBRANCH   7   8
ENDBRANCH   1   7
TORSDOF 7
ENDMDL
MODEL 6
REMARK VINA RESULT:    -2.779      2.712      4.386
REMARK INTER + INTRA:          -4.741
REMARK INTER:                  -3.952
REMARK INTRA:                  -0.789
REMARK UNBOUND:                -0.824
REMARK SMILES CCCCCCCCC(=O)[O-]
REMARK SMILES IDX 6 1 7 2 8 3 9 4 10 5 11 6 5 7 4 8 3 9 2 10 1 11
REMARK H PARENT
REMARK Flexibility Score: inf
ROOT
ATOM      1  C   UNL     1      87.676  29.392  29.188  1.00  0.00     0.000 C 
ENDROOT
BRANCH   1   2
ATOM      2  C   UNL     1      88.992  29.934  28.610  1.00  0.00     0.006 C 
BRANCH   2   3
ATOM      3  C   UNL     1      89.660  28.897  27.703  1.00  0.00     0.053 C 
BRANCH   3   4
ATOM      4  C   UNL     1      89.650  29.360  26.280  1.00  0.00     0.041 C 
ATOM      5  O   UNL     1      88.857  30.267  25.915  1.00  0.00    -0.550 OA
ATOM      6  O   UNL     1      90.551  28.825  25.368  1.00  0.00    -0.550 OA
ENDBRANCH   3   4
ENDBRANCH   2   3
ENDBRANCH   1   2
BRANCH   1   7
ATOM      7  C   UNL     1      87.599  27.857  29.149  1.00  0.00     0.000 C 
BRANCH   7   8
ATOM      8  C   UNL     1      86.215  27.345  28.721  1.00  0.00    -0.000 C 
BRANCH   8   9
ATOM      9  C   UNL     1      86.320  26.460  27.474  1.00  0.00    -0.000 C 
BRANCH   9  10
ATOM     10  C   UNL     1      86.572  27.303  26.219  1.00  0.00    -0.003 C 
ATOM     11  C   UNL     1      85.610  28.485  26.147  1.00  0.00     0.004 C 
ENDBRANCH   9  10
ENDBRANCH   8   9
ENDBRANCH   7   8
ENDBRANCH   1   7
TORSDOF 7
ENDMDL
MODEL 7
REMARK VINA RESULT:    -2.778      1.554      2.947
REMARK INTER + INTRA:          -4.739
REMARK INTER:                  -4.117
REMARK INTRA:                  -0.622
REMARK UNBOUND:                -0.824
REMARK SMILES CCCCCCCCC(=O)[O-]
REMARK SMILES IDX 6 1 7 2 8 3 9 4 10 5 11 6 5 7 4 8 3 9 2 10 1 11
REMARK H PARENT
REMARK Flexibility Score: inf
ROOT
ATOM      1  C   UNL     1      87.736  28.037  28.098  1.00  0.00     0.000 C 
ENDROOT
BRANCH   1   2
ATOM      2  C   UNL     1      87.096  27.118  29.150  1.00  0.00     0.006 C 
BRANCH   2   3
ATOM      3  C   UNL     1      85.596  26.950  28.890  1.00  0.00     0.053 C 
BRANCH   3   4
ATOM      4  C   UNL     1      85.227  25.500  28.870  1.00  0.00     0.041 C 
ATOM      5  O   UNL     1      84.154  25.113  29.403  1.00  0.00    -0.550 OA
ATOM      6  O   UNL     1      86.044  24.583  28.220  1.00  0.00    -0.550 OA
ENDBRANCH   3   4
ENDBRANCH   2   3
ENDBRANCH   1   2
BRANCH   1   7
ATOM      7  C   UNL     1      88.935  28.825  28.651  1.00  0.00     0.000 C 
BRANCH   7   8
ATOM      8  C   UNL     1      88.680  30.339  28.693  1.00  0.00    -0.000 C 
BRANCH   8   9
ATOM      9  C   UNL     1      87.241  30.664  28.277  1.00  0.00    -0.000 C 
BRANCH   9  10
ATOM     10  C   UNL     1      86.399  31.085  29.487  1.00  0.00    -0.003 C 
ATOM     11  C   UNL     1      84.959  30.602  29.352  1.00  0.00     0.004 C 
ENDBRANCH   9  10
ENDBRANCH   8   9
ENDBRANCH   7   8
ENDBRANCH   1   7
TORSDOF 7
ENDMDL
MODEL 8
REMARK VINA RESULT:    -2.770      3.792      4.907
REMARK INTER + INTRA:          -4.729
REMARK INTER:                  -4.413
REMARK INTRA:                  -0.316
REMARK UNBOUND:                -0.824
REMARK SMILES CCCCCCCCC(=O)[O-]
REMARK SMILES IDX 6 1 7 2 8 3 9 4 10 5 11 6 5 7 4 8 3 9 2 10 1 11
REMARK H PARENT
REMARK Flexibility Score: inf
ROOT
ATOM      1  C   UNL     1      85.408  31.579  28.790  1.00  0.00     0.000 C 
ENDROOT
BRANCH   1   2
ATOM      2  C   UNL     1      85.463  31.435  30.318  1.00  0.00     0.006 C 
BRANCH   2   3
ATOM      3  C   UNL     1      85.525  32.807  30.995  1.00  0.00     0.053 C 
BRANCH   3   4
ATOM      4  C   UNL     1      85.405  32.665  32.480  1.00  0.00     0.041 C 
ATOM      5  O   UNL     1      86.252  33.206  33.238  1.00  0.00    -0.550 OA
ATOM      6  O   UNL     1      84.330  31.977  33.029  1.00  0.00    -0.550 OA
ENDBRANCH   3   4
ENDBRANCH   2   3
ENDBRANCH   1   2
BRANCH   1   7
ATOM      7  C   UNL     1      86.606  30.919  28.089  1.00  0.00     0.000 C 
BRANCH   7   8
ATOM      8  C   UNL     1      87.427  30.027  29.033  1.00  0.00    -0.000 C 
BRANCH   8   9
ATOM      9  C   UNL     1      88.928  30.180  28.766  1.00  0.00    -0.000 C 
BRANCH   9  10
ATOM     10  C   UNL     1      89.540  28.858  28.289  1.00  0.00    -0.003 C 
ATOM     11  C   UNL     1      89.461  28.728  26.771  1.00  0.00     0.004 C 
ENDBRANCH   9  10
ENDBRANCH   8   9
ENDBRANCH   7   8
ENDBRANCH   1   7
TORSDOF 7
ENDMDL
MODEL 9
REMARK VINA RESULT:    -2.753      2.838      4.453
REMARK INTER + INTRA:          -4.703
REMARK INTER:                  -3.987
REMARK INTRA:                  -0.716
REMARK UNBOUND:                -0.824
REMARK SMILES CCCCCCCCC(=O)[O-]
REMARK SMILES IDX 6 1 7 2 8 3 9 4 10 5 11 6 5 7 4 8 3 9 2 10 1 11
REMARK H PARENT
REMARK Flexibility Score: inf
ROOT
ATOM      1  C   UNL     1      89.432  28.669  28.393  1.00  0.00     0.000 C 
ENDROOT
BRANCH   1   2
ATOM      2  C   UNL     1      89.646  28.683  26.872  1.00  0.00     0.006 C 
BRANCH   2   3
ATOM      3  C   UNL     1      89.587  30.112  26.325  1.00  0.00     0.053 C 
BRANCH   3   4
ATOM      4  C   UNL     1      88.599  30.205  25.205  1.00  0.00     0.041 C 
ATOM      5  O   UNL     1      88.936  30.715  24.104  1.00  0.00    -0.550 OA
ATOM      6  O   UNL     1      87.320  29.685  25.361  1.00  0.00    -0.550 OA
ENDBRANCH   3   4
ENDBRANCH   2   3
ENDBRANCH   1   2
BRANCH   1   7
ATOM      7  C   UNL     1      88.201  29.482  28.826  1.00  0.00     0.000 C 
BRANCH   7   8
ATOM      8  C   UNL     1      86.913  28.645  28.837  1.00  0.00    -0.000 C 
BRANCH   8   9
ATOM      9  C   UNL     1      87.194  27.211  29.296  1.00  0.00    -0.000 C 
BRANCH   9  10
ATOM     10  C   UNL     1      86.394  26.200  28.466  1.00  0.00    -0.003 C 
ATOM     11  C   UNL     1      86.304  26.634  27.006  1.00  0.00     0.004 C 
ENDBRANCH   9  10
ENDBRANCH   8   9
ENDBRANCH   7   8
ENDBRANCH   1   7
TORSDOF 7
ENDMDL
