MODEL 1
REMARK VINA RESULT:    -3.802      0.000      0.000
REMARK INTER + INTRA:          -4.092
REMARK INTER:                  -4.024
REMARK INTRA:                  -0.068
REMARK UNBOUND:                -0.068
REMARK SMILES CC(=O)c1ccccc1
REMARK SMILES IDX 4 1 5 2 6 3 7 4 8 5 9 6 2 7 1 8 3 9
REMARK H PARENT
REMARK Flexibility Score: inf
ROOT
ATOM      1  C   UNL     1      31.313 167.571 156.738  1.00  0.00     0.017 A 
ATOM      2  C   UNL     1      32.563 167.482 156.091  1.00  0.00     0.012 A 
ATOM      3  C   UNL     1      33.669 166.939 156.753  1.00  0.00     0.001 A 
ATOM      4  C   UNL     1      33.545 166.481 158.066  1.00  0.00     0.000 A 
ATOM      5  C   UNL     1      32.314 166.563 158.719  1.00  0.00     0.001 A 
ATOM      6  C   UNL     1      31.204 167.104 158.062  1.00  0.00     0.012 A 
ENDROOT
BRANCH   1   7
ATOM      7  C   UNL     1      30.125 168.145 156.051  1.00  0.00     0.159 C 
ATOM      8  C   UNL     1      30.258 169.071 154.878  1.00  0.00     0.093 C 
ATOM      9  O   UNL     1      28.966 167.852 156.455  1.00  0.00    -0.295 OA
ENDBRANCH   1   7
TORSDOF 1
ENDMDL
MODEL 2
REMARK VINA RESULT:    -3.795      0.475      1.680
REMARK INTER + INTRA:          -4.085
REMARK INTER:                  -4.022
REMARK INTRA:                  -0.063
REMARK UNBOUND:                -0.068
REMARK SMILES CC(=O)c1ccccc1
REMARK SMILES IDX 4 1 5 2 6 3 7 4 8 5 9 6 2 7 1 8 3 9
REMARK H PARENT
REMARK Flexibility Score: inf
ROOT
ATOM      1  C   UNL     1      31.121 167.590 156.462  1.00  0.00     0.017 A 
ATOM      2  C   UNL     1      30.921 167.150 157.787  1.00  0.00     0.012 A 
ATOM      3  C   UNL     1      31.988 166.644 158.536  1.00  0.00     0.001 A 
ATOM      4  C   UNL     1      33.264 166.569 157.977  1.00  0.00     0.000 A 
ATOM      5  C   UNL     1      33.477 167.000 156.666  1.00  0.00     0.001 A 
ATOM      6  C   UNL     1      32.415 167.507 155.912  1.00  0.00     0.012 A 
ENDROOT
BRANCH   1   7
ATOM      7  C   UNL     1      29.999 168.131 155.648  1.00  0.00     0.159 C 
ATOM      8  C   UNL     1      30.082 169.467 154.972  1.00  0.00     0.093 C 
ATOM      9  O   UNL     1      28.942 167.456 155.514  1.00  0.00    -0.295 OA
ENDBRANCH   1   7
TORSDOF 1
ENDMDL
MODEL 3
REMARK VINA RESULT:    -3.701      2.112      3.437
REMARK INTER + INTRA:          -3.986
REMARK INTER:                  -3.919
REMARK INTRA:                  -0.067
REMARK UNBOUND:                -0.068
REMARK SMILES CC(=O)c1ccccc1
REMARK SMILES IDX 4 1 5 2 6 3 7 4 8 5 9 6 2 7 1 8 3 9
REMARK H PARENT
REMARK Flexibility Score: inf
ROOT
ATOM      1  C   UNL     1      31.659 166.854 158.380  1.00  0.00     0.017 A 
ATOM      2  C   UNL     1      33.004 166.758 157.965  1.00  0.00     0.012 A 
ATOM      3  C   UNL     1      33.364 167.047 156.645  1.00  0.00     0.001 A 
ATOM      4  C   UNL     1      32.391 167.434 155.722  1.00  0.00     0.000 A 
ATOM      5  C   UNL     1      31.055 167.532 156.117  1.00  0.00     0.001 A 
ATOM      6  C   UNL     1      30.690 167.245 157.435  1.00  0.00     0.012 A 
ENDROOT
BRANCH   1   7
ATOM      7  C   UNL     1      31.256 166.550 159.779  1.00  0.00     0.159 C 
ATOM      8  C   UNL     1      30.176 167.321 160.478  1.00  0.00     0.093 C 
ATOM      9  O   UNL     1      31.831 165.619 160.407  1.00  0.00    -0.295 OA
ENDBRANCH   1   7
TORSDOF 1
ENDMDL
MODEL 4
REMARK VINA RESULT:    -3.694      2.121      3.557
REMARK INTER + INTRA:          -3.978
REMARK INTER:                  -3.912
REMARK INTRA:                  -0.066
REMARK UNBOUND:                -0.068
REMARK SMILES CC(=O)c1ccccc1
REMARK SMILES IDX 4 1 5 2 6 3 7 4 8 5 9 6 2 7 1 8 3 9
REMARK H PARENT
REMARK Flexibility Score: inf
ROOT
ATOM      1  C   UNL     1      31.629 166.855 158.407  1.00  0.00     0.017 A 
ATOM      2  C   UNL     1      30.680 167.257 157.443  1.00  0.00     0.012 A 
ATOM      3  C   UNL     1      31.074 167.531 156.129  1.00  0.00     0.001 A 
ATOM      4  C   UNL     1      32.414 167.409 155.759  1.00  0.00     0.000 A 
ATOM      5  C   UNL     1      33.365 167.013 156.701  1.00  0.00     0.001 A 
ATOM      6  C   UNL     1      32.977 166.737 158.016  1.00  0.00     0.012 A 
ENDROOT
BRANCH   1   7
ATOM      7  C   UNL     1      31.231 166.559 159.809  1.00  0.00     0.159 C 
ATOM      8  C   UNL     1      30.150 167.332 160.506  1.00  0.00     0.093 C 
ATOM      9  O   UNL     1      31.809 165.634 160.441  1.00  0.00    -0.295 OA
ENDBRANCH   1   7
TORSDOF 1
ENDMDL
MODEL 5
REMARK VINA RESULT:    -3.572      1.729      3.593
REMARK INTER + INTRA:          -3.849
REMARK INTER:                  -3.780
REMARK INTRA:                  -0.069
REMARK UNBOUND:                -0.068
REMARK SMILES CC(=O)c1ccccc1
REMARK SMILES IDX 4 1 5 2 6 3 7 4 8 5 9 6 2 7 1 8 3 9
REMARK H PARENT
REMARK Flexibility Score: inf
ROOT
ATOM      1  C   UNL     1      31.749 166.885 157.120  1.00  0.00     0.017 A 
ATOM      2  C   UNL     1      32.437 167.233 155.938  1.00  0.00     0.012 A 
ATOM      3  C   UNL     1      31.775 167.896 154.899  1.00  0.00     0.001 A 
ATOM      4  C   UNL     1      30.423 168.218 155.023  1.00  0.00     0.000 A 
ATOM      5  C   UNL     1      29.728 167.879 156.185  1.00  0.00     0.001 A 
ATOM      6  C   UNL     1      30.385 167.218 157.228  1.00  0.00     0.012 A 
ENDROOT
BRANCH   1   7
ATOM      7  C   UNL     1      32.435 166.181 158.235  1.00  0.00     0.159 C 
ATOM      8  C   UNL     1      33.754 165.491 158.046  1.00  0.00     0.093 C 
ATOM      9  O   UNL     1      31.905 166.156 159.380  1.00  0.00    -0.295 OA
ENDBRANCH   1   7
TORSDOF 1
ENDMDL
MODEL 6
REMARK VINA RESULT:    -3.509     22.539     23.502
REMARK INTER + INTRA:          -3.782
REMARK INTER:                  -3.723
REMARK INTRA:                  -0.059
REMARK UNBOUND:                -0.068
REMARK SMILES CC(=O)c1ccccc1
REMARK SMILES IDX 4 1 5 2 6 3 7 4 8 5 9 6 2 7 1 8 3 9
REMARK H PARENT
REMARK Flexibility Score: inf
ROOT
ATOM      1  C   UNL     1      40.882 180.463 173.646  1.00  0.00     0.017 A 
ATOM      2  C   UNL     1      39.763 180.142 172.849  1.00  0.00     0.012 A 
ATOM      3  C   UNL     1      38.710 181.051 172.703  1.00  0.00     0.001 A 
ATOM      4  C   UNL     1      38.757 182.288 173.348  1.00  0.00     0.000 A 
ATOM      5  C   UNL     1      39.857 182.619 174.141  1.00  0.00     0.001 A 
ATOM      6  C   UNL     1      40.913 181.715 174.290  1.00  0.00     0.012 A 
ENDROOT
BRANCH   1   7
ATOM      7  C   UNL     1      42.011 179.510 173.814  1.00  0.00     0.159 C 
ATOM      8  C   UNL     1      41.950 178.372 174.789  1.00  0.00     0.093 C 
ATOM      9  O   UNL     1      43.057 179.651 173.122  1.00  0.00    -0.295 OA
ENDBRANCH   1   7
TORSDOF 1
ENDMDL
MODEL 7
REMARK VINA RESULT:    -3.506     22.538     23.509
REMARK INTER + INTRA:          -3.779
REMARK INTER:                  -3.721
REMARK INTRA:                  -0.058
REMARK UNBOUND:                -0.068
REMARK SMILES CC(=O)c1ccccc1
REMARK SMILES IDX 4 1 5 2 6 3 7 4 8 5 9 6 2 7 1 8 3 9
REMARK H PARENT
REMARK Flexibility Score: inf
ROOT
ATOM      1  C   UNL     1      40.907 180.478 173.652  1.00  0.00     0.017 A 
ATOM      2  C   UNL     1      40.893 181.744 174.275  1.00  0.00     0.012 A 
ATOM      3  C   UNL     1      39.814 182.614 174.093  1.00  0.00     0.001 A 
ATOM      4  C   UNL     1      38.737 182.238 173.289  1.00  0.00     0.000 A 
ATOM      5  C   UNL     1      38.737 180.989 172.665  1.00  0.00     0.001 A 
ATOM      6  C   UNL     1      39.812 180.114 172.843  1.00  0.00     0.012 A 
ENDROOT
BRANCH   1   7
ATOM      7  C   UNL     1      42.045 179.538 173.832  1.00  0.00     0.159 C 
ATOM      8  C   UNL     1      42.031 178.469 174.884  1.00  0.00     0.093 C 
ATOM      9  O   UNL     1      43.057 179.631 173.085  1.00  0.00    -0.295 OA
ENDBRANCH   1   7
TORSDOF 1
ENDMDL
MODEL 8
REMARK VINA RESULT:    -3.370     21.914     22.649
REMARK INTER + INTRA:          -3.635
REMARK INTER:                  -3.576
REMARK INTRA:                  -0.060
REMARK UNBOUND:                -0.068
REMARK SMILES CC(=O)c1ccccc1
REMARK SMILES IDX 4 1 5 2 6 3 7 4 8 5 9 6 2 7 1 8 3 9
REMARK H PARENT
REMARK Flexibility Score: inf
ROOT
ATOM      1  C   UNL     1      39.215 181.208 172.815  1.00  0.00     0.017 A 
ATOM      2  C   UNL     1      39.664 182.241 173.665  1.00  0.00     0.012 A 
ATOM      3  C   UNL     1      40.741 182.030 174.532  1.00  0.00     0.001 A 
ATOM      4  C   UNL     1      41.383 180.791 174.565  1.00  0.00     0.000 A 
ATOM      5  C   UNL     1      40.949 179.759 173.731  1.00  0.00     0.001 A 
ATOM      6  C   UNL     1      39.874 179.963 172.862  1.00  0.00     0.012 A 
ENDROOT
BRANCH   1   7
ATOM      7  C   UNL     1      38.072 181.412 171.887  1.00  0.00     0.159 C 
ATOM      8  C   UNL     1      36.670 181.608 172.385  1.00  0.00     0.093 C 
ATOM      9  O   UNL     1      38.272 181.424 170.641  1.00  0.00    -0.295 OA
ENDBRANCH   1   7
TORSDOF 1
ENDMDL
MODEL 9
REMARK VINA RESULT:    -3.316     22.209     22.866
REMARK INTER + INTRA:          -3.578
REMARK INTER:                  -3.520
REMARK INTRA:                  -0.058
REMARK UNBOUND:                -0.068
REMARK SMILES CC(=O)c1ccccc1
REMARK SMILES IDX 4 1 5 2 6 3 7 4 8 5 9 6 2 7 1 8 3 9
REMARK H PARENT
REMARK Flexibility Score: inf
ROOT
ATOM      1  C   UNL     1      37.938 182.150 172.791  1.00  0.00     0.017 A 
ATOM      2  C   UNL     1      37.988 183.314 173.586  1.00  0.00     0.012 A 
ATOM      3  C   UNL     1      39.193 183.735 174.156  1.00  0.00     0.001 A 
ATOM      4  C   UNL     1      40.362 183.003 173.944  1.00  0.00     0.000 A 
ATOM      5  C   UNL     1      40.329 181.849 173.160  1.00  0.00     0.001 A 
ATOM      6  C   UNL     1      39.127 181.423 172.587  1.00  0.00     0.012 A 
ENDROOT
BRANCH   1   7
ATOM      7  C   UNL     1      36.666 181.686 172.176  1.00  0.00     0.159 C 
ATOM      8  C   UNL     1      36.173 182.230 170.868  1.00  0.00     0.093 C 
ATOM      9  O   UNL     1      35.973 180.809 172.760  1.00  0.00    -0.295 OA
ENDBRANCH   1   7
TORSDOF 1
ENDMDL
