MODEL 1
REMARK VINA RESULT:    -3.389      0.000      0.000
REMARK INTER + INTRA:          -8.233
REMARK INTER:                  -6.162
REMARK INTRA:                  -2.071
REMARK UNBOUND:                -2.071
REMARK SMILES CCCCCCCCCCCCCCCC(=O)[O-]
REMARK SMILES IDX 9 1 10 2 11 3 12 4 13 5 14 6 15 7 16 8 17 9 18 10 8 11 7 12
REMARK SMILES IDX 6 13 5 14 4 15 3 16 2 17 1 18
REMARK H PARENT
REMARK Flexibility Score: inf
ROOT
ATOM      1  C   UNL     1       2.507 -61.612  -7.874  1.00  0.00     0.000 C 
ENDROOT
BRANCH   1   2
ATOM      2  C   UNL     1       2.748 -60.731  -9.106  1.00  0.00     0.000 C 
BRANCH   2   3
ATOM      3  C   UNL     1       3.713 -59.582  -8.779  1.00  0.00     0.000 C 
BRANCH   3   4
ATOM      4  C   UNL     1       5.146 -59.859  -9.259  1.00  0.00     0.000 C 
BRANCH   4   5
ATOM      5  C   UNL     1       6.007 -60.544  -8.184  1.00  0.00     0.000 C 
BRANCH   5   6
ATOM      6  C   UNL     1       6.385 -61.985  -8.559  1.00  0.00     0.006 C 
BRANCH   6   7
ATOM      7  C   UNL     1       7.491 -62.049  -9.620  1.00  0.00     0.053 C 
BRANCH   7   8
ATOM      8  C   UNL     1       8.229 -63.346  -9.525  1.00  0.00     0.041 C 
ATOM      9  O   UNL     1       8.331 -63.939  -8.419  1.00  0.00    -0.550 OA
ATOM     10  O   UNL     1       8.848 -63.878 -10.651  1.00  0.00    -0.550 OA
ENDBRANCH   7   8
ENDBRANCH   6   7
ENDBRANCH   5   6
ENDBRANCH   4   5
ENDBRANCH   3   4
ENDBRANCH   2   3
ENDBRANCH   1   2
BRANCH   1  11
ATOM     11  C   UNL     1       2.472 -60.770  -6.592  1.00  0.00     0.000 C 
BRANCH  11  12
ATOM     12  C   UNL     1       3.483 -61.297  -5.562  1.00  0.00    -0.000 C 
BRANCH  12  13
ATOM     13  C   UNL     1       3.994 -62.707  -5.897  1.00  0.00    -0.000 C 
BRANCH  13  14
ATOM     14  C   UNL     1       3.939 -63.657  -4.687  1.00  0.00    -0.000 C 
BRANCH  14  15
ATOM     15  C   UNL     1       2.632 -64.470  -4.624  1.00  0.00    -0.000 C 
BRANCH  15  16
ATOM     16  C   UNL     1       2.247 -65.193  -5.927  1.00  0.00    -0.000 C 
BRANCH  16  17
ATOM     17  C   UNL     1       0.942 -64.665  -6.543  1.00  0.00    -0.003 C 
ATOM     18  C   UNL     1       0.130 -63.880  -5.517  1.00  0.00     0.004 C 
ENDBRANCH  16  17
ENDBRANCH  15  16
ENDBRANCH  14  15
ENDBRANCH  13  14
ENDBRANCH  12  13
ENDBRANCH  11  12
ENDBRANCH   1  11
TORSDOF 14
ENDMDL
MODEL 2
REMARK VINA RESULT:    -3.382      2.887      6.661
REMARK INTER + INTRA:          -8.221
REMARK INTER:                  -6.974
REMARK INTRA:                  -1.247
REMARK UNBOUND:                -2.071
REMARK SMILES CCCCCCCCCCCCCCCC(=O)[O-]
REMARK SMILES IDX 9 1 10 2 11 3 12 4 13 5 14 6 15 7 16 8 17 9 18 10 8 11 7 12
REMARK SMILES IDX 6 13 5 14 4 15 3 16 2 17 1 18
REMARK H PARENT
REMARK Flexibility Score: inf
ROOT
ATOM      1  C   UNL     1       6.095 -61.835  -8.109  1.00  0.00     0.000 C 
ENDROOT
BRANCH   1   2
ATOM      2  C   UNL     1       6.272 -60.430  -8.696  1.00  0.00     0.000 C 
BRANCH   2   3
ATOM      3  C   UNL     1       5.004 -59.979  -9.436  1.00  0.00     0.000 C 
BRANCH   3   4
ATOM      4  C   UNL     1       3.718 -60.499  -8.775  1.00  0.00     0.000 C 
BRANCH   4   5
ATOM      5  C   UNL     1       3.139 -59.509  -7.749  1.00  0.00     0.000 C 
BRANCH   5   6
ATOM      6  C   UNL     1       2.555 -60.211  -6.513  1.00  0.00     0.006 C 
BRANCH   6   7
ATOM      7  C   UNL     1       3.639 -60.809  -5.607  1.00  0.00     0.053 C 
BRANCH   7   8
ATOM      8  C   UNL     1       3.322 -62.235  -5.287  1.00  0.00     0.041 C 
ATOM      9  O   UNL     1       3.397 -63.118  -6.183  1.00  0.00    -0.550 OA
ATOM     10  O   UNL     1       2.894 -62.583  -4.012  1.00  0.00    -0.550 OA
ENDBRANCH   7   8
ENDBRANCH   6   7
ENDBRANCH   5   6
ENDBRANCH   4   5
ENDBRANCH   3   4
ENDBRANCH   2   3
ENDBRANCH   1   2
BRANCH   1  11
ATOM     11  C   UNL     1       6.634 -62.905  -9.067  1.00  0.00     0.000 C 
BRANCH  11  12
ATOM     12  C   UNL     1       8.150 -62.750  -9.266  1.00  0.00    -0.000 C 
BRANCH  12  13
ATOM     13  C   UNL     1       8.657 -63.444 -10.540  1.00  0.00    -0.000 C 
BRANCH  13  14
ATOM     14  C   UNL     1       7.516 -63.814 -11.504  1.00  0.00    -0.000 C 
BRANCH  14  15
ATOM     15  C   UNL     1       7.910 -64.920 -12.502  1.00  0.00    -0.000 C 
BRANCH  15  16
ATOM     16  C   UNL     1       8.077 -66.322 -11.891  1.00  0.00    -0.000 C 
BRANCH  16  17
ATOM     17  C   UNL     1       9.517 -66.612 -11.440  1.00  0.00    -0.003 C 
ATOM     18  C   UNL     1       9.563 -66.998  -9.964  1.00  0.00     0.004 C 
ENDBRANCH  16  17
ENDBRANCH  15  16
ENDBRANCH  14  15
ENDBRANCH  13  14
ENDBRANCH  12  13
ENDBRANCH  11  12
ENDBRANCH   1  11
TORSDOF 14
ENDMDL
MODEL 3
REMARK VINA RESULT:    -3.378      3.241      6.477
REMARK INTER + INTRA:          -8.214
REMARK INTER:                  -6.994
REMARK INTRA:                  -1.219
REMARK UNBOUND:                -2.071
REMARK SMILES CCCCCCCCCCCCCCCC(=O)[O-]
REMARK SMILES IDX 9 1 10 2 11 3 12 4 13 5 14 6 15 7 16 8 17 9 18 10 8 11 7 12
REMARK SMILES IDX 6 13 5 14 4 15 3 16 2 17 1 18
REMARK H PARENT
REMARK Flexibility Score: inf
ROOT
ATOM      1  C   UNL     1       5.437 -59.726  -8.009  1.00  0.00     0.000 C 
ENDROOT
BRANCH   1   2
ATOM      2  C   UNL     1       3.956 -59.682  -7.612  1.00  0.00     0.000 C 
BRANCH   2   3
ATOM      3  C   UNL     1       3.252 -60.999  -7.970  1.00  0.00     0.000 C 
BRANCH   3   4
ATOM      4  C   UNL     1       2.867 -61.820  -6.729  1.00  0.00     0.000 C 
BRANCH   4   5
ATOM      5  C   UNL     1       3.405 -63.261  -6.784  1.00  0.00     0.000 C 
BRANCH   5   6
ATOM      6  C   UNL     1       4.393 -63.567  -5.648  1.00  0.00     0.006 C 
BRANCH   6   7
ATOM      7  C   UNL     1       3.902 -64.688  -4.724  1.00  0.00     0.053 C 
BRANCH   7   8
ATOM      8  C   UNL     1       3.479 -64.126  -3.404  1.00  0.00     0.041 C 
ATOM      9  O   UNL     1       2.675 -63.158  -3.354  1.00  0.00    -0.550 OA
ATOM     10  O   UNL     1       4.012 -64.639  -2.227  1.00  0.00    -0.550 OA
ENDBRANCH   7   8
ENDBRANCH   6   7
ENDBRANCH   5   6
ENDBRANCH   4   5
ENDBRANCH   3   4
ENDBRANCH   2   3
ENDBRANCH   1   2
BRANCH   1  11
ATOM     11  C   UNL     1       5.600 -60.097  -9.489  1.00  0.00     0.000 C 
BRANCH  11  12
ATOM     12  C   UNL     1       6.692 -61.163  -9.670  1.00  0.00    -0.000 C 
BRANCH  12  13
ATOM     13  C   UNL     1       6.650 -62.248  -8.583  1.00  0.00    -0.000 C 
BRANCH  13  14
ATOM     14  C   UNL     1       7.722 -63.333  -8.790  1.00  0.00    -0.000 C 
BRANCH  14  15
ATOM     15  C   UNL     1       8.195 -63.436 -10.253  1.00  0.00    -0.000 C 
BRANCH  15  16
ATOM     16  C   UNL     1       9.193 -64.573 -10.539  1.00  0.00    -0.000 C 
BRANCH  16  17
ATOM     17  C   UNL     1       8.567 -65.736 -11.324  1.00  0.00    -0.003 C 
ATOM     18  C   UNL     1       9.270 -67.053 -11.008  1.00  0.00     0.004 C 
ENDBRANCH  16  17
ENDBRANCH  15  16
ENDBRANCH  14  15
ENDBRANCH  13  14
ENDBRANCH  12  13
ENDBRANCH  11  12
ENDBRANCH   1  11
TORSDOF 14
ENDMDL
MODEL 4
REMARK VINA RESULT:    -3.308      9.194     12.161
REMARK INTER + INTRA:          -8.086
REMARK INTER:                  -5.776
REMARK INTRA:                  -2.311
REMARK UNBOUND:                -2.071
REMARK SMILES CCCCCCCCCCCCCCCC(=O)[O-]
REMARK SMILES IDX 9 1 10 2 11 3 12 4 13 5 14 6 15 7 16 8 17 9 18 10 8 11 7 12
REMARK SMILES IDX 6 13 5 14 4 15 3 16 2 17 1 18
REMARK H PARENT
REMARK Flexibility Score: inf
ROOT
ATOM      1  C   UNL     1       2.725 -64.724   1.944  1.00  0.00     0.000 C 
ENDROOT
BRANCH   1   2
ATOM      2  C   UNL     1       1.762 -63.608   2.366  1.00  0.00     0.000 C 
BRANCH   2   3
ATOM      3  C   UNL     1       0.485 -63.633   1.514  1.00  0.00     0.000 C 
BRANCH   3   4
ATOM      4  C   UNL     1      -0.680 -64.348   2.217  1.00  0.00     0.000 C 
BRANCH   4   5
ATOM      5  C   UNL     1      -0.534 -64.349   3.749  1.00  0.00     0.000 C 
BRANCH   5   6
ATOM      6  C   UNL     1      -1.705 -63.646   4.454  1.00  0.00     0.006 C 
BRANCH   6   7
ATOM      7  C   UNL     1      -1.286 -62.332   5.125  1.00  0.00     0.053 C 
BRANCH   7   8
ATOM      8  C   UNL     1      -0.990 -61.292   4.092  1.00  0.00     0.041 C 
ATOM      9  O   UNL     1       0.165 -60.795   4.005  1.00  0.00    -0.550 OA
ATOM     10  O   UNL     1      -2.001 -60.833   3.257  1.00  0.00    -0.550 OA
ENDBRANCH   7   8
ENDBRANCH   6   7
ENDBRANCH   5   6
ENDBRANCH   4   5
ENDBRANCH   3   4
ENDBRANCH   2   3
ENDBRANCH   1   2
BRANCH   1  11
ATOM     11  C   UNL     1       3.068 -65.635   3.130  1.00  0.00     0.000 C 
BRANCH  11  12
ATOM     12  C   UNL     1       2.841 -67.111   2.770  1.00  0.00    -0.000 C 
BRANCH  12  13
ATOM     13  C   UNL     1       1.352 -67.488   2.715  1.00  0.00    -0.000 C 
BRANCH  13  14
ATOM     14  C   UNL     1       0.949 -68.103   1.362  1.00  0.00    -0.000 C 
BRANCH  14  15
ATOM     15  C   UNL     1      -0.529 -67.851   1.007  1.00  0.00    -0.000 C 
BRANCH  15  16
ATOM     16  C   UNL     1      -0.767 -67.159  -0.348  1.00  0.00    -0.000 C 
BRANCH  16  17
ATOM     17  C   UNL     1       0.452 -66.361  -0.835  1.00  0.00    -0.003 C 
ATOM     18  C   UNL     1       0.195 -65.750  -2.209  1.00  0.00     0.004 C 
ENDBRANCH  16  17
ENDBRANCH  15  16
ENDBRANCH  14  15
ENDBRANCH  13  14
ENDBRANCH  12  13
ENDBRANCH  11  12
ENDBRANCH   1  11
TORSDOF 14
ENDMDL
MODEL 5
REMARK VINA RESULT:    -3.278      9.780     11.997
REMARK INTER + INTRA:          -8.032
REMARK INTER:                  -6.079
REMARK INTRA:                  -1.953
REMARK UNBOUND:                -2.071
REMARK SMILES CCCCCCCCCCCCCCCC(=O)[O-]
REMARK SMILES IDX 9 1 10 2 11 3 12 4 13 5 14 6 15 7 16 8 17 9 18 10 8 11 7 12
REMARK SMILES IDX 6 13 5 14 4 15 3 16 2 17 1 18
REMARK H PARENT
REMARK Flexibility Score: inf
ROOT
ATOM      1  C   UNL     1       2.185 -66.112   0.511  1.00  0.00     0.000 C 
ENDROOT
BRANCH   1   2
ATOM      2  C   UNL     1       2.153 -67.621   0.778  1.00  0.00     0.000 C 
BRANCH   2   3
ATOM      3  C   UNL     1       2.795 -67.953   2.133  1.00  0.00     0.000 C 
BRANCH   3   4
ATOM      4  C   UNL     1       1.792 -67.883   3.296  1.00  0.00     0.000 C 
BRANCH   4   5
ATOM      5  C   UNL     1       2.198 -66.851   4.364  1.00  0.00     0.000 C 
BRANCH   5   6
ATOM      6  C   UNL     1       3.374 -65.969   3.917  1.00  0.00     0.006 C 
BRANCH   6   7
ATOM      7  C   UNL     1       3.223 -64.510   4.368  1.00  0.00     0.053 C 
BRANCH   7   8
ATOM      8  C   UNL     1       4.099 -63.619   3.546  1.00  0.00     0.041 C 
ATOM      9  O   UNL     1       4.984 -62.914   4.100  1.00  0.00    -0.550 OA
ATOM     10  O   UNL     1       3.904 -63.526   2.173  1.00  0.00    -0.550 OA
ENDBRANCH   7   8
ENDBRANCH   6   7
ENDBRANCH   5   6
ENDBRANCH   4   5
ENDBRANCH   3   4
ENDBRANCH   2   3
ENDBRANCH   1   2
BRANCH   1  11
ATOM     11  C   UNL     1       0.767 -65.527   0.481  1.00  0.00     0.000 C 
BRANCH  11  12
ATOM     12  C   UNL     1       0.618 -64.395   1.510  1.00  0.00    -0.000 C 
BRANCH  12  13
ATOM     13  C   UNL     1      -0.661 -64.521   2.352  1.00  0.00    -0.000 C 
BRANCH  13  14
ATOM     14  C   UNL     1      -0.391 -64.385   3.861  1.00  0.00    -0.000 C 
BRANCH  14  15
ATOM     15  C   UNL     1      -1.271 -63.314   4.533  1.00  0.00    -0.000 C 
BRANCH  15  16
ATOM     16  C   UNL     1      -1.827 -62.236   3.586  1.00  0.00    -0.000 C 
BRANCH  16  17
ATOM     17  C   UNL     1      -3.338 -62.013   3.752  1.00  0.00    -0.003 C 
ATOM     18  C   UNL     1      -4.125 -63.251   3.330  1.00  0.00     0.004 C 
ENDBRANCH  16  17
ENDBRANCH  15  16
ENDBRANCH  14  15
ENDBRANCH  13  14
ENDBRANCH  12  13
ENDBRANCH  11  12
ENDBRANCH   1  11
TORSDOF 14
ENDMDL
MODEL 6
REMARK VINA RESULT:    -3.265      1.975      3.055
REMARK INTER + INTRA:          -8.008
REMARK INTER:                  -7.060
REMARK INTRA:                  -0.947
REMARK UNBOUND:                -2.071
REMARK SMILES CCCCCCCCCCCCCCCC(=O)[O-]
REMARK SMILES IDX 9 1 10 2 11 3 12 4 13 5 14 6 15 7 16 8 17 9 18 10 8 11 7 12
REMARK SMILES IDX 6 13 5 14 4 15 3 16 2 17 1 18
REMARK H PARENT
REMARK Flexibility Score: inf
ROOT
ATOM      1  C   UNL     1       5.408 -60.196  -7.580  1.00  0.00     0.000 C 
ENDROOT
BRANCH   1   2
ATOM      2  C   UNL     1       5.297 -59.875  -9.075  1.00  0.00     0.000 C 
BRANCH   2   3
ATOM      3  C   UNL     1       6.358 -60.638  -9.881  1.00  0.00     0.000 C 
BRANCH   3   4
ATOM      4  C   UNL     1       6.875 -61.884  -9.147  1.00  0.00     0.000 C 
BRANCH   4   5
ATOM      5  C   UNL     1       8.216 -62.388  -9.709  1.00  0.00     0.000 C 
BRANCH   5   6
ATOM      6  C   UNL     1       8.089 -63.750 -10.410  1.00  0.00     0.006 C 
BRANCH   6   7
ATOM      7  C   UNL     1       7.672 -63.620 -11.881  1.00  0.00     0.053 C 
BRANCH   7   8
ATOM      8  C   UNL     1       7.615 -64.968 -12.526  1.00  0.00     0.041 C 
ATOM      9  O   UNL     1       8.047 -65.983 -11.917  1.00  0.00    -0.550 OA
ATOM     10  O   UNL     1       7.130 -65.099 -13.822  1.00  0.00    -0.550 OA
ENDBRANCH   7   8
ENDBRANCH   6   7
ENDBRANCH   5   6
ENDBRANCH   4   5
ENDBRANCH   3   4
ENDBRANCH   2   3
ENDBRANCH   1   2
BRANCH   1  11
ATOM     11  C   UNL     1       4.020 -60.327  -6.939  1.00  0.00     0.000 C 
BRANCH  11  12
ATOM     12  C   UNL     1       3.342 -61.640  -7.361  1.00  0.00    -0.000 C 
BRANCH  12  13
ATOM     13  C   UNL     1       4.225 -62.872  -7.112  1.00  0.00    -0.000 C 
BRANCH  13  14
ATOM     14  C   UNL     1       4.548 -63.076  -5.621  1.00  0.00    -0.000 C 
BRANCH  14  15
ATOM     15  C   UNL     1       3.775 -64.253  -4.997  1.00  0.00    -0.000 C 
BRANCH  15  16
ATOM     16  C   UNL     1       3.740 -64.270  -3.458  1.00  0.00    -0.000 C 
BRANCH  16  17
ATOM     17  C   UNL     1       3.351 -65.640  -2.882  1.00  0.00    -0.003 C 
ATOM     18  C   UNL     1       3.624 -66.756  -3.886  1.00  0.00     0.004 C 
ENDBRANCH  16  17
ENDBRANCH  15  16
ENDBRANCH  14  15
ENDBRANCH  13  14
ENDBRANCH  12  13
ENDBRANCH  11  12
ENDBRANCH   1  11
TORSDOF 14
ENDMDL
MODEL 7
REMARK VINA RESULT:    -3.254      7.057     10.298
REMARK INTER + INTRA:          -7.987
REMARK INTER:                  -5.897
REMARK INTRA:                  -2.091
REMARK UNBOUND:                -2.071
REMARK SMILES CCCCCCCCCCCCCCCC(=O)[O-]
REMARK SMILES IDX 9 1 10 2 11 3 12 4 13 5 14 6 15 7 16 8 17 9 18 10 8 11 7 12
REMARK SMILES IDX 6 13 5 14 4 15 3 16 2 17 1 18
REMARK H PARENT
REMARK Flexibility Score: inf
ROOT
ATOM      1  C   UNL     1       2.629 -67.476   1.276  1.00  0.00     0.000 C 
ENDROOT
BRANCH   1   2
ATOM      2  C   UNL     1       1.271 -68.125   0.983  1.00  0.00     0.000 C 
BRANCH   2   3
ATOM      3  C   UNL     1       0.118 -67.209   1.421  1.00  0.00     0.000 C 
BRANCH   3   4
ATOM      4  C   UNL     1      -0.729 -66.717   0.237  1.00  0.00     0.000 C 
BRANCH   4   5
ATOM      5  C   UNL     1       0.130 -66.295  -0.968  1.00  0.00     0.000 C 
BRANCH   5   6
ATOM      6  C   UNL     1       0.876 -64.973  -0.728  1.00  0.00     0.006 C 
BRANCH   6   7
ATOM      7  C   UNL     1       1.502 -64.407  -2.009  1.00  0.00     0.053 C 
BRANCH   7   8
ATOM      8  C   UNL     1       2.947 -64.784  -2.093  1.00  0.00     0.041 C 
ATOM      9  O   UNL     1       3.804 -63.939  -2.464  1.00  0.00    -0.550 OA
ATOM     10  O   UNL     1       3.343 -66.087  -1.810  1.00  0.00    -0.550 OA
ENDBRANCH   7   8
ENDBRANCH   6   7
ENDBRANCH   5   6
ENDBRANCH   4   5
ENDBRANCH   3   4
ENDBRANCH   2   3
ENDBRANCH   1   2
BRANCH   1  11
ATOM     11  C   UNL     1       2.977 -67.574   2.766  1.00  0.00     0.000 C 
BRANCH  11  12
ATOM     12  C   UNL     1       3.038 -66.179   3.408  1.00  0.00    -0.000 C 
BRANCH  12  13
ATOM     13  C   UNL     1       3.003 -65.045   2.372  1.00  0.00    -0.000 C 
BRANCH  13  14
ATOM     14  C   UNL     1       1.926 -63.992   2.686  1.00  0.00    -0.000 C 
BRANCH  14  15
ATOM     15  C   UNL     1       1.139 -64.305   3.973  1.00  0.00    -0.000 C 
BRANCH  15  16
ATOM     16  C   UNL     1      -0.380 -64.471   3.787  1.00  0.00    -0.000 C 
BRANCH  16  17
ATOM     17  C   UNL     1      -0.902 -63.809   2.502  1.00  0.00    -0.003 C 
ATOM     18  C   UNL     1      -1.951 -62.748   2.817  1.00  0.00     0.004 C 
ENDBRANCH  16  17
ENDBRANCH  15  16
ENDBRANCH  14  15
ENDBRANCH  13  14
ENDBRANCH  12  13
ENDBRANCH  11  12
ENDBRANCH   1  11
TORSDOF 14
ENDMDL
MODEL 8
REMARK VINA RESULT:    -3.205      1.760      3.060
REMARK INTER + INTRA:          -7.898
REMARK INTER:                  -6.482
REMARK INTRA:                  -1.416
REMARK UNBOUND:                -2.071
REMARK SMILES CCCCCCCCCCCCCCCC(=O)[O-]
REMARK SMILES IDX 9 1 10 2 11 3 12 4 13 5 14 6 15 7 16 8 17 9 18 10 8 11 7 12
REMARK SMILES IDX 6 13 5 14 4 15 3 16 2 17 1 18
REMARK H PARENT
REMARK Flexibility Score: inf
ROOT
ATOM      1  C   UNL     1       3.914 -59.869  -9.409  1.00  0.00     0.000 C 
ENDROOT
BRANCH   1   2
ATOM      2  C   UNL     1       4.503 -59.862  -7.993  1.00  0.00     0.000 C 
BRANCH   2   3
ATOM      3  C   UNL     1       5.999 -60.208  -8.019  1.00  0.00     0.000 C 
BRANCH   3   4
ATOM      4  C   UNL     1       6.370 -61.139  -9.183  1.00  0.00     0.000 C 
BRANCH   4   5
ATOM      5  C   UNL     1       6.639 -62.583  -8.723  1.00  0.00     0.000 C 
BRANCH   5   6
ATOM      6  C   UNL     1       7.780 -63.250  -9.507  1.00  0.00     0.006 C 
BRANCH   6   7
ATOM      7  C   UNL     1       7.806 -62.832 -10.982  1.00  0.00     0.053 C 
BRANCH   7   8
ATOM      8  C   UNL     1       7.761 -64.038 -11.866  1.00  0.00     0.041 C 
ATOM      9  O   UNL     1       8.121 -65.162 -11.425  1.00  0.00    -0.550 OA
ATOM     10  O   UNL     1       7.369 -63.913 -13.193  1.00  0.00    -0.550 OA
ENDBRANCH   7   8
ENDBRANCH   6   7
ENDBRANCH   5   6
ENDBRANCH   4   5
ENDBRANCH   3   4
ENDBRANCH   2   3
ENDBRANCH   1   2
BRANCH   1  11
ATOM     11  C   UNL     1       2.604 -59.072  -9.465  1.00  0.00     0.000 C 
BRANCH  11  12
ATOM     12  C   UNL     1       1.700 -59.417  -8.271  1.00  0.00    -0.000 C 
BRANCH  12  13
ATOM     13  C   UNL     1       0.915 -60.722  -8.475  1.00  0.00    -0.000 C 
BRANCH  13  14
ATOM     14  C   UNL     1       0.596 -61.433  -7.148  1.00  0.00    -0.000 C 
BRANCH  14  15
ATOM     15  C   UNL     1       1.384 -62.744  -6.967  1.00  0.00    -0.000 C 
BRANCH  15  16
ATOM     16  C   UNL     1       2.784 -62.585  -6.349  1.00  0.00    -0.000 C 
BRANCH  16  17
ATOM     17  C   UNL     1       2.815 -61.580  -5.187  1.00  0.00    -0.003 C 
ATOM     18  C   UNL     1       2.252 -62.198  -3.910  1.00  0.00     0.004 C 
ENDBRANCH  16  17
ENDBRANCH  15  16
ENDBRANCH  14  15
ENDBRANCH  13  14
ENDBRANCH  12  13
ENDBRANCH  11  12
ENDBRANCH   1  11
TORSDOF 14
ENDMDL
MODEL 9
REMARK VINA RESULT:    -3.193      9.213     11.327
REMARK INTER + INTRA:          -7.877
REMARK INTER:                  -5.542
REMARK INTRA:                  -2.335
REMARK UNBOUND:                -2.071
REMARK SMILES CCCCCCCCCCCCCCCC(=O)[O-]
REMARK SMILES IDX 9 1 10 2 11 3 12 4 13 5 14 6 15 7 16 8 17 9 18 10 8 11 7 12
REMARK SMILES IDX 6 13 5 14 4 15 3 16 2 17 1 18
REMARK H PARENT
REMARK Flexibility Score: inf
ROOT
ATOM      1  C   UNL     1       1.500 -67.134   0.584  1.00  0.00     0.000 C 
ENDROOT
BRANCH   1   2
ATOM      2  C   UNL     1       0.165 -66.905   1.304  1.00  0.00     0.000 C 
BRANCH   2   3
ATOM      3  C   UNL     1      -0.155 -65.406   1.404  1.00  0.00     0.000 C 
BRANCH   3   4
ATOM      4  C   UNL     1       0.776 -64.544   0.537  1.00  0.00     0.000 C 
BRANCH   4   5
ATOM      5  C   UNL     1       1.559 -63.507   1.361  1.00  0.00     0.000 C 
BRANCH   5   6
ATOM      6  C   UNL     1       3.026 -63.910   1.579  1.00  0.00     0.006 C 
BRANCH   6   7
ATOM      7  C   UNL     1       4.010 -62.822   1.131  1.00  0.00     0.053 C 
BRANCH   7   8
ATOM      8  C   UNL     1       4.978 -62.512   2.227  1.00  0.00     0.041 C 
ATOM      9  O   UNL     1       5.966 -61.762   2.009  1.00  0.00    -0.550 OA
ATOM     10  O   UNL     1       4.817 -63.091   3.481  1.00  0.00    -0.550 OA
ENDBRANCH   7   8
ENDBRANCH   6   7
ENDBRANCH   5   6
ENDBRANCH   4   5
ENDBRANCH   3   4
ENDBRANCH   2   3
ENDBRANCH   1   2
BRANCH   1  11
ATOM     11  C   UNL     1       2.476 -67.919   1.470  1.00  0.00     0.000 C 
BRANCH  11  12
ATOM     12  C   UNL     1       1.911 -68.093   2.889  1.00  0.00    -0.000 C 
BRANCH  12  13
ATOM     13  C   UNL     1       2.706 -67.311   3.946  1.00  0.00    -0.000 C 
BRANCH  13  14
ATOM     14  C   UNL     1       1.796 -66.510   4.894  1.00  0.00    -0.000 C 
BRANCH  14  15
ATOM     15  C   UNL     1       2.185 -65.021   4.982  1.00  0.00    -0.000 C 
BRANCH  15  16
ATOM     16  C   UNL     1       1.009 -64.032   4.882  1.00  0.00    -0.000 C 
BRANCH  16  17
ATOM     17  C   UNL     1      -0.361 -64.715   5.010  1.00  0.00    -0.003 C 
ATOM     18  C   UNL     1      -1.485 -63.774   4.586  1.00  0.00     0.004 C 
ENDBRANCH  16  17
ENDBRANCH  15  16
ENDBRANCH  14  15
ENDBRANCH  13  14
ENDBRANCH  12  13
ENDBRANCH  11  12
ENDBRANCH   1  11
TORSDOF 14
ENDMDL
