MODEL 1
REMARK VINA RESULT:    -3.156      0.000      0.000
REMARK INTER + INTRA:          -4.020
REMARK INTER:                  -3.802
REMARK INTRA:                  -0.219
REMARK UNBOUND:                -0.219
REMARK SMILES OCC(O)CO
REMARK SMILES IDX 3 1 5 2 6 3 2 5 1 6 4 8
REMARK H PARENT 6 4 1 7 4 9
REMARK Flexibility Score: inf
ROOT
ATOM      1  C   UNL     1     129.125 131.847 103.139  1.00  0.00     0.165 C 
ENDROOT
BRANCH   1   2
ATOM      2  C   UNL     1     127.754 131.276 103.522  1.00  0.00     0.190 C 
BRANCH   2   3
ATOM      3  O   UNL     1     127.133 132.082 104.489  1.00  0.00    -0.394 OA
ATOM      4  H   UNL     1     127.240 133.023 104.194  1.00  0.00     0.210 HD
ENDBRANCH   2   3
ENDBRANCH   1   2
BRANCH   1   5
ATOM      5  C   UNL     1     129.138 133.382 103.235  1.00  0.00     0.190 C 
BRANCH   5   6
ATOM      6  O   UNL     1     129.419 133.792 104.546  1.00  0.00    -0.394 OA
ATOM      7  H   UNL     1     130.407 133.874 104.611  1.00  0.00     0.210 HD
ENDBRANCH   5   6
ENDBRANCH   1   5
BRANCH   1   8
ATOM      8  O   UNL     1     130.092 131.309 104.003  1.00  0.00    -0.388 OA
ATOM      9  H   UNL     1     130.911 131.862 103.901  1.00  0.00     0.211 HD
ENDBRANCH   1   8
TORSDOF 5
ENDMDL
MODEL 2
REMARK VINA RESULT:    -3.152      0.615      2.533
REMARK INTER + INTRA:          -4.016
REMARK INTER:                  -3.793
REMARK INTRA:                  -0.223
REMARK UNBOUND:                -0.219
REMARK SMILES OCC(O)CO
REMARK SMILES IDX 3 1 5 2 6 3 2 5 1 6 4 8
REMARK H PARENT 6 4 1 7 4 9
REMARK Flexibility Score: inf
ROOT
ATOM      1  C   UNL     1     128.198 132.047 103.322  1.00  0.00     0.165 C 
ENDROOT
BRANCH   1   2
ATOM      2  C   UNL     1     129.069 133.309 103.305  1.00  0.00     0.190 C 
BRANCH   2   3
ATOM      3  O   UNL     1     129.366 133.725 104.612  1.00  0.00    -0.394 OA
ATOM      4  H   UNL     1     128.608 133.441 105.186  1.00  0.00     0.210 HD
ENDBRANCH   2   3
ENDBRANCH   1   2
BRANCH   1   5
ATOM      5  C   UNL     1     129.059 130.776 103.423  1.00  0.00     0.190 C 
BRANCH   5   6
ATOM      6  O   UNL     1     130.352 131.089 103.865  1.00  0.00    -0.394 OA
ATOM      7  H   UNL     1     130.248 131.554 104.737  1.00  0.00     0.210 HD
ENDBRANCH   5   6
ENDBRANCH   1   5
BRANCH   1   8
ATOM      8  O   UNL     1     127.325 132.118 104.419  1.00  0.00    -0.388 OA
ATOM      9  H   UNL     1     127.885 132.265 105.226  1.00  0.00     0.211 HD
ENDBRANCH   1   8
TORSDOF 5
ENDMDL
MODEL 3
REMARK VINA RESULT:    -3.145     19.270     19.600
REMARK INTER + INTRA:          -4.007
REMARK INTER:                  -3.788
REMARK INTRA:                  -0.219
REMARK UNBOUND:                -0.219
REMARK SMILES OCC(O)CO
REMARK SMILES IDX 3 1 5 2 6 3 2 5 1 6 4 8
REMARK H PARENT 6 4 1 7 4 9
REMARK Flexibility Score: inf
ROOT
ATOM      1  C   UNL     1     131.364 126.698 122.263  1.00  0.00     0.165 C 
ENDROOT
BRANCH   1   2
ATOM      2  C   UNL     1     132.807 126.566 122.765  1.00  0.00     0.190 C 
BRANCH   2   3
ATOM      3  O   UNL     1     133.125 125.222 123.016  1.00  0.00    -0.394 OA
ATOM      4  H   UNL     1     134.113 125.144 122.968  1.00  0.00     0.210 HD
ENDBRANCH   2   3
ENDBRANCH   1   2
BRANCH   1   5
ATOM      5  C   UNL     1     131.299 126.639 120.727  1.00  0.00     0.190 C 
BRANCH   5   6
ATOM      6  O   UNL     1     131.992 125.519 120.246  1.00  0.00    -0.394 OA
ATOM      7  H   UNL     1     132.745 125.865 119.699  1.00  0.00     0.210 HD
ENDBRANCH   5   6
ENDBRANCH   1   5
BRANCH   1   8
ATOM      8  O   UNL     1     130.601 125.654 122.810  1.00  0.00    -0.388 OA
ATOM      9  H   UNL     1     130.173 126.009 123.633  1.00  0.00     0.211 HD
ENDBRANCH   1   8
TORSDOF 5
ENDMDL
MODEL 4
REMARK VINA RESULT:    -3.025     19.475     20.129
REMARK INTER + INTRA:          -3.863
REMARK INTER:                  -3.646
REMARK INTRA:                  -0.217
REMARK UNBOUND:                -0.219
REMARK SMILES OCC(O)CO
REMARK SMILES IDX 3 1 5 2 6 3 2 5 1 6 4 8
REMARK H PARENT 6 4 1 7 4 9
REMARK Flexibility Score: inf
ROOT
ATOM      1  C   UNL     1     122.227 129.154 122.540  1.00  0.00     0.165 C 
ENDROOT
BRANCH   1   2
ATOM      2  C   UNL     1     120.803 129.573 122.928  1.00  0.00     0.190 C 
BRANCH   2   3
ATOM      3  O   UNL     1     119.893 129.240 121.912  1.00  0.00    -0.394 OA
ATOM      4  H   UNL     1     119.400 130.070 121.682  1.00  0.00     0.210 HD
ENDBRANCH   2   3
ENDBRANCH   1   2
BRANCH   1   5
ATOM      5  C   UNL     1     122.421 127.634 122.682  1.00  0.00     0.190 C 
BRANCH   5   6
ATOM      6  O   UNL     1     121.862 126.961 121.586  1.00  0.00    -0.394 OA
ATOM      7  H   UNL     1     120.973 127.373 121.424  1.00  0.00     0.210 HD
ENDBRANCH   5   6
ENDBRANCH   1   5
BRANCH   1   8
ATOM      8  O   UNL     1     122.462 129.540 121.210  1.00  0.00    -0.388 OA
ATOM      9  H   UNL     1     123.393 129.884 121.168  1.00  0.00     0.211 HD
ENDBRANCH   1   8
TORSDOF 5
ENDMDL
MODEL 5
REMARK VINA RESULT:    -3.012     19.050     19.347
REMARK INTER + INTRA:          -3.847
REMARK INTER:                  -3.623
REMARK INTRA:                  -0.224
REMARK UNBOUND:                -0.219
REMARK SMILES OCC(O)CO
REMARK SMILES IDX 3 1 5 2 6 3 2 5 1 6 4 8
REMARK H PARENT 6 4 1 7 4 9
REMARK Flexibility Score: inf
ROOT
ATOM      1  C   UNL     1     131.354 126.887 122.171  1.00  0.00     0.165 C 
ENDROOT
BRANCH   1   2
ATOM      2  C   UNL     1     131.270 126.695 120.652  1.00  0.00     0.190 C 
BRANCH   2   3
ATOM      3  O   UNL     1     131.978 125.551 120.255  1.00  0.00    -0.394 OA
ATOM      4  H   UNL     1     131.396 125.054 119.624  1.00  0.00     0.210 HD
ENDBRANCH   2   3
ENDBRANCH   1   2
BRANCH   1   5
ATOM      5  C   UNL     1     132.791 126.684 122.682  1.00  0.00     0.190 C 
BRANCH   5   6
ATOM      6  O   UNL     1     133.025 125.332 122.973  1.00  0.00    -0.394 OA
ATOM      7  H   UNL     1     133.977 125.155 122.753  1.00  0.00     0.210 HD
ENDBRANCH   5   6
ENDBRANCH   1   5
BRANCH   1   8
ATOM      8  O   UNL     1     130.917 128.184 122.486  1.00  0.00    -0.388 OA
ATOM      9  H   UNL     1     130.115 128.088 123.063  1.00  0.00     0.211 HD
ENDBRANCH   1   8
TORSDOF 5
ENDMDL
MODEL 6
REMARK VINA RESULT:    -3.012      7.827      8.740
REMARK INTER + INTRA:          -3.847
REMARK INTER:                  -3.625
REMARK INTRA:                  -0.222
REMARK UNBOUND:                -0.219
REMARK SMILES OCC(O)CO
REMARK SMILES IDX 3 1 5 2 6 3 2 5 1 6 4 8
REMARK H PARENT 6 4 1 7 4 9
REMARK Flexibility Score: inf
ROOT
ATOM      1  C   UNL     1     126.612 124.116 104.611  1.00  0.00     0.165 C 
ENDROOT
BRANCH   1   2
ATOM      2  C   UNL     1     127.663 124.088 103.495  1.00  0.00     0.190 C 
BRANCH   2   3
ATOM      3  O   UNL     1     128.677 125.026 103.744  1.00  0.00    -0.394 OA
ATOM      4  H   UNL     1     129.304 124.986 102.976  1.00  0.00     0.210 HD
ENDBRANCH   2   3
ENDBRANCH   1   2
BRANCH   1   5
ATOM      5  C   UNL     1     126.939 123.095 105.714  1.00  0.00     0.190 C 
BRANCH   5   6
ATOM      6  O   UNL     1     128.326 122.956 105.862  1.00  0.00    -0.394 OA
ATOM      7  H   UNL     1     128.511 122.980 106.837  1.00  0.00     0.210 HD
ENDBRANCH   5   6
ENDBRANCH   1   5
BRANCH   1   8
ATOM      8  O   UNL     1     126.572 125.409 105.158  1.00  0.00    -0.388 OA
ATOM      9  H   UNL     1     125.679 125.787 104.943  1.00  0.00     0.211 HD
ENDBRANCH   1   8
TORSDOF 5
ENDMDL
MODEL 7
REMARK VINA RESULT:    -3.008      5.730      6.878
REMARK INTER + INTRA:          -3.843
REMARK INTER:                  -3.633
REMARK INTRA:                  -0.210
REMARK UNBOUND:                -0.219
REMARK SMILES OCC(O)CO
REMARK SMILES IDX 3 1 5 2 6 3 2 5 1 6 4 8
REMARK H PARENT 6 4 1 7 4 9
REMARK Flexibility Score: inf
ROOT
ATOM      1  C   UNL     1     126.303 125.557 103.692  1.00  0.00     0.165 C 
ENDROOT
BRANCH   1   2
ATOM      2  C   UNL     1     126.258 126.996 103.165  1.00  0.00     0.190 C 
BRANCH   2   3
ATOM      3  O   UNL     1     127.013 127.849 103.985  1.00  0.00    -0.394 OA
ATOM      4  H   UNL     1     126.489 127.991 104.816  1.00  0.00     0.210 HD
ENDBRANCH   2   3
ENDBRANCH   1   2
BRANCH   1   5
ATOM      5  C   UNL     1     127.480 124.775 103.082  1.00  0.00     0.190 C 
BRANCH   5   6
ATOM      6  O   UNL     1     128.702 125.342 103.469  1.00  0.00    -0.394 OA
ATOM      7  H   UNL     1     129.414 124.730 103.145  1.00  0.00     0.210 HD
ENDBRANCH   5   6
ENDBRANCH   1   5
BRANCH   1   8
ATOM      8  O   UNL     1     126.432 125.594 105.090  1.00  0.00    -0.388 OA
ATOM      9  H   UNL     1     127.323 125.984 105.289  1.00  0.00     0.211 HD
ENDBRANCH   1   8
TORSDOF 5
ENDMDL
MODEL 8
REMARK VINA RESULT:    -2.983      5.931      6.929
REMARK INTER + INTRA:          -3.812
REMARK INTER:                  -3.629
REMARK INTRA:                  -0.183
REMARK UNBOUND:                -0.219
REMARK SMILES OCC(O)CO
REMARK SMILES IDX 3 1 5 2 6 3 2 5 1 6 4 8
REMARK H PARENT 6 4 1 7 4 9
REMARK Flexibility Score: inf
ROOT
ATOM      1  C   UNL     1     126.024 125.745 103.627  1.00  0.00     0.165 C 
ENDROOT
BRANCH   1   2
ATOM      2  C   UNL     1     124.567 125.292 103.468  1.00  0.00     0.190 C 
BRANCH   2   3
ATOM      3  O   UNL     1     123.746 125.920 104.417  1.00  0.00    -0.394 OA
ATOM      4  H   UNL     1     123.911 125.469 105.286  1.00  0.00     0.210 HD
ENDBRANCH   2   3
ENDBRANCH   1   2
BRANCH   1   5
ATOM      5  C   UNL     1     126.230 127.168 103.080  1.00  0.00     0.190 C 
BRANCH   5   6
ATOM      6  O   UNL     1     125.204 128.017 103.517  1.00  0.00    -0.394 OA
ATOM      7  H   UNL     1     125.536 128.946 103.399  1.00  0.00     0.210 HD
ENDBRANCH   5   6
ENDBRANCH   1   5
BRANCH   1   8
ATOM      8  O   UNL     1     126.360 125.707 104.990  1.00  0.00    -0.388 OA
ATOM      9  H   UNL     1     127.138 126.311 105.114  1.00  0.00     0.211 HD
ENDBRANCH   1   8
TORSDOF 5
ENDMDL
MODEL 9
REMARK VINA RESULT:    -2.979      8.321      9.047
REMARK INTER + INTRA:          -3.807
REMARK INTER:                  -3.805
REMARK INTRA:                  -0.003
REMARK UNBOUND:                -0.219
REMARK SMILES OCC(O)CO
REMARK SMILES IDX 3 1 5 2 6 3 2 5 1 6 4 8
REMARK H PARENT 6 4 1 7 4 9
REMARK Flexibility Score: inf
ROOT
ATOM      1  C   UNL     1     125.247 124.486 105.746  1.00  0.00     0.165 C 
ENDROOT
BRANCH   1   2
ATOM      2  C   UNL     1     124.102 124.744 104.759  1.00  0.00     0.190 C 
BRANCH   2   3
ATOM      3  O   UNL     1     124.078 126.092 104.366  1.00  0.00    -0.394 OA
ATOM      4  H   UNL     1     124.716 126.576 104.953  1.00  0.00     0.210 HD
ENDBRANCH   2   3
ENDBRANCH   1   2
BRANCH   1   5
ATOM      5  C   UNL     1     125.590 122.988 105.825  1.00  0.00     0.190 C 
BRANCH   5   6
ATOM      6  O   UNL     1     126.761 122.789 106.570  1.00  0.00    -0.394 OA
ATOM      7  H   UNL     1     126.538 123.008 107.512  1.00  0.00     0.210 HD
ENDBRANCH   5   6
ENDBRANCH   1   5
BRANCH   1   8
ATOM      8  O   UNL     1     126.375 125.210 105.324  1.00  0.00    -0.388 OA
ATOM      9  H   UNL     1     126.121 125.678 104.485  1.00  0.00     0.211 HD
ENDBRANCH   1   8
TORSDOF 5
ENDMDL
