MODEL 1
REMARK VINA RESULT:    -0.936      0.000      0.000
REMARK INTER + INTRA:          -0.327
REMARK INTER:                  -1.100
REMARK INTRA:                   0.773
REMARK UNBOUND:                 0.773
REMARK SMILES COc1cc2ccc(=O)oc2c(OC)c1OC
REMARK SMILES IDX 3 1 15 2 12 3 11 4 5 5 4 6 6 7 7 8 8 9 9 10 10 11 2 12 1 13
REMARK SMILES IDX 16 14 17 15 13 16 14 17
REMARK H PARENT
REMARK Flexibility Score: inf
ROOT
ATOM      1  C   UNL     1       7.987 -19.974   6.227  1.00  0.00     0.165 A 
ATOM      2  C   UNL     1       9.048 -19.998   7.176  1.00  0.00     0.207 A 
ATOM      3  C   UNL     1       8.740 -20.034   8.566  1.00  0.00     0.208 A 
ATOM      4  C   UNL     1       7.402 -20.045   8.981  1.00  0.00     0.184 A 
ATOM      5  C   UNL     1       6.360 -20.021   8.037  1.00  0.00     0.025 A 
ATOM      6  C   UNL     1       6.654 -19.985   6.674  1.00  0.00     0.062 A 
ATOM      7  C   UNL     1       5.037 -20.032   8.496  1.00  0.00     0.020 A 
ATOM      8  C   UNL     1       4.787 -20.068   9.865  1.00  0.00     0.094 A 
ATOM      9  C   UNL     1       5.870 -20.091  10.748  1.00  0.00     0.336 A 
ATOM     10  O   UNL     1       5.669 -20.123  11.990  1.00  0.00    -0.246 OA
ATOM     11  O   UNL     1       7.117 -20.079  10.283  1.00  0.00    -0.419 OA
ENDROOT
BRANCH   1  12
ATOM     12  O   UNL     1       8.276 -19.938   4.853  1.00  0.00    -0.493 OA
ATOM     13  C   UNL     1       8.194 -18.783   4.025  1.00  0.00     0.278 C 
ENDBRANCH   1  12
BRANCH   2  14
ATOM     14  O   UNL     1      10.405 -19.988   6.795  1.00  0.00    -0.490 OA
ATOM     15  C   UNL     1      11.233 -18.851   6.577  1.00  0.00     0.278 C 
ENDBRANCH   2  14
BRANCH   3  16
ATOM     16  O   UNL     1       9.711 -20.061   9.587  1.00  0.00    -0.490 OA
ATOM     17  C   UNL     1      11.124 -20.092   9.426  1.00  0.00     0.278 C 
ENDBRANCH   3  16
TORSDOF 3
ENDMDL
MODEL 2
REMARK VINA RESULT:    -0.449      2.570      5.239
REMARK INTER + INTRA:           0.245
REMARK INTER:                   0.280
REMARK INTRA:                  -0.035
REMARK UNBOUND:                 0.773
REMARK SMILES COc1cc2ccc(=O)oc2c(OC)c1OC
REMARK SMILES IDX 3 1 15 2 12 3 11 4 5 5 4 6 6 7 7 8 8 9 9 10 10 11 2 12 1 13
REMARK SMILES IDX 16 14 17 15 13 16 14 17
REMARK H PARENT
REMARK Flexibility Score: inf
ROOT
ATOM      1  C   UNL     1       9.238 -17.975   6.427  1.00  0.00     0.165 A 
ATOM      2  C   UNL     1       9.267 -18.988   7.427  1.00  0.00     0.207 A 
ATOM      3  C   UNL     1      10.330 -19.003   8.375  1.00  0.00     0.208 A 
ATOM      4  C   UNL     1      11.330 -18.024   8.313  1.00  0.00     0.184 A 
ATOM      5  C   UNL     1      11.293 -17.026   7.322  1.00  0.00     0.025 A 
ATOM      6  C   UNL     1      10.256 -17.006   6.390  1.00  0.00     0.062 A 
ATOM      7  C   UNL     1      12.313 -16.068   7.297  1.00  0.00     0.020 A 
ATOM      8  C   UNL     1      13.331 -16.123   8.247  1.00  0.00     0.094 A 
ATOM      9  C   UNL     1      13.305 -17.142   9.203  1.00  0.00     0.336 A 
ATOM     10  O   UNL     1      14.213 -17.213  10.071  1.00  0.00    -0.246 OA
ATOM     11  O   UNL     1      12.322 -18.039   9.202  1.00  0.00    -0.419 OA
ENDROOT
BRANCH   1  12
ATOM     12  O   UNL     1       8.197 -17.949   5.485  1.00  0.00    -0.493 OA
ATOM     13  C   UNL     1       7.936 -18.961   4.519  1.00  0.00     0.278 C 
ENDBRANCH   1  12
BRANCH   2  14
ATOM     14  O   UNL     1       8.279 -19.988   7.520  1.00  0.00    -0.490 OA
ATOM     15  C   UNL     1       6.975 -19.865   8.077  1.00  0.00     0.278 C 
ENDBRANCH   2  14
BRANCH   3  16
ATOM     16  O   UNL     1      10.454 -19.958   9.404  1.00  0.00    -0.490 OA
ATOM     17  C   UNL     1       9.599 -20.121  10.530  1.00  0.00     0.278 C 
ENDBRANCH   3  16
TORSDOF 3
ENDMDL
MODEL 3
REMARK VINA RESULT:    -0.272      2.833      4.831
REMARK INTER + INTRA:           0.453
REMARK INTER:                  -0.610
REMARK INTRA:                   1.063
REMARK UNBOUND:                 0.773
REMARK SMILES COc1cc2ccc(=O)oc2c(OC)c1OC
REMARK SMILES IDX 3 1 15 2 12 3 11 4 5 5 4 6 6 7 7 8 8 9 9 10 10 11 2 12 1 13
REMARK SMILES IDX 16 14 17 15 13 16 14 17
REMARK H PARENT
REMARK Flexibility Score: inf
ROOT
ATOM      1  C   UNL     1      12.065 -16.547   7.844  1.00  0.00     0.165 A 
ATOM      2  C   UNL     1      12.031 -17.667   8.722  1.00  0.00     0.207 A 
ATOM      3  C   UNL     1      10.953 -18.593   8.630  1.00  0.00     0.208 A 
ATOM      4  C   UNL     1       9.944 -18.393   7.679  1.00  0.00     0.184 A 
ATOM      5  C   UNL     1       9.986 -17.284   6.814  1.00  0.00     0.025 A 
ATOM      6  C   UNL     1      11.038 -16.372   6.900  1.00  0.00     0.062 A 
ATOM      7  C   UNL     1       8.957 -17.122   5.880  1.00  0.00     0.020 A 
ATOM      8  C   UNL     1       7.924 -18.056   5.827  1.00  0.00     0.094 A 
ATOM      9  C   UNL     1       7.946 -19.135   6.716  1.00  0.00     0.336 A 
ATOM     10  O   UNL     1       7.024 -19.991   6.688  1.00  0.00    -0.246 OA
ATOM     11  O   UNL     1       8.938 -19.262   7.594  1.00  0.00    -0.419 OA
ENDROOT
BRANCH   1  12
ATOM     12  O   UNL     1      13.121 -15.624   7.924  1.00  0.00    -0.493 OA
ATOM     13  C   UNL     1      14.162 -15.480   6.963  1.00  0.00     0.278 C 
ENDBRANCH   1  12
BRANCH   2  14
ATOM     14  O   UNL     1      13.028 -17.900   9.690  1.00  0.00    -0.490 OA
ATOM     15  C   UNL     1      14.223 -17.155   9.896  1.00  0.00     0.278 C 
ENDBRANCH   2  14
BRANCH   3  16
ATOM     16  O   UNL     1      10.823 -19.733   9.448  1.00  0.00    -0.490 OA
ATOM     17  C   UNL     1       9.677 -20.125  10.195  1.00  0.00     0.278 C 
ENDBRANCH   3  16
TORSDOF 3
ENDMDL
MODEL 4
REMARK VINA RESULT:     0.728      2.278      3.095
REMARK INTER + INTRA:           1.628
REMARK INTER:                   0.771
REMARK INTRA:                   0.857
REMARK UNBOUND:                 0.773
REMARK SMILES COc1cc2ccc(=O)oc2c(OC)c1OC
REMARK SMILES IDX 3 1 15 2 12 3 11 4 5 5 4 6 6 7 7 8 8 9 9 10 10 11 2 12 1 13
REMARK SMILES IDX 16 14 17 15 13 16 14 17
REMARK H PARENT
REMARK Flexibility Score: inf
ROOT
ATOM      1  C   UNL     1      10.464 -19.150   6.994  1.00  0.00     0.165 A 
ATOM      2  C   UNL     1      10.397 -18.119   7.972  1.00  0.00     0.207 A 
ATOM      3  C   UNL     1       9.137 -17.775   8.538  1.00  0.00     0.208 A 
ATOM      4  C   UNL     1       7.982 -18.453   8.128  1.00  0.00     0.184 A 
ATOM      5  C   UNL     1       8.057 -19.471   7.160  1.00  0.00     0.025 A 
ATOM      6  C   UNL     1       9.287 -19.813   6.601  1.00  0.00     0.062 A 
ATOM      7  C   UNL     1       6.878 -20.123   6.779  1.00  0.00     0.020 A 
ATOM      8  C   UNL     1       5.669 -19.751   7.362  1.00  0.00     0.094 A 
ATOM      9  C   UNL     1       5.667 -18.730   8.318  1.00  0.00     0.336 A 
ATOM     10  O   UNL     1       4.587 -18.377   8.858  1.00  0.00    -0.246 OA
ATOM     11  O   UNL     1       6.804 -18.129   8.660  1.00  0.00    -0.419 OA
ENDROOT
BRANCH   1  12
ATOM     12  O   UNL     1      11.700 -19.500   6.426  1.00  0.00    -0.493 OA
ATOM     13  C   UNL     1      11.878 -20.081   5.138  1.00  0.00     0.278 C 
ENDBRANCH   1  12
BRANCH   2  14
ATOM     14  O   UNL     1      11.537 -17.416   8.409  1.00  0.00    -0.490 OA
ATOM     15  C   UNL     1      12.466 -16.692   7.609  1.00  0.00     0.278 C 
ENDBRANCH   2  14
BRANCH   3  16
ATOM     16  O   UNL     1       8.959 -16.772   9.513  1.00  0.00    -0.490 OA
ATOM     17  C   UNL     1       7.771 -16.033   9.775  1.00  0.00     0.278 C 
ENDBRANCH   3  16
TORSDOF 3
ENDMDL
MODEL 5
REMARK VINA RESULT:     0.927      2.319      5.592
REMARK INTER + INTRA:           1.863
REMARK INTER:                   1.870
REMARK INTRA:                  -0.007
REMARK UNBOUND:                 0.773
REMARK SMILES COc1cc2ccc(=O)oc2c(OC)c1OC
REMARK SMILES IDX 3 1 15 2 12 3 11 4 5 5 4 6 6 7 7 8 8 9 9 10 10 11 2 12 1 13
REMARK SMILES IDX 16 14 17 15 13 16 14 17
REMARK H PARENT
REMARK Flexibility Score: inf
ROOT
ATOM      1  C   UNL     1       7.414 -17.286   8.627  1.00  0.00     0.165 A 
ATOM      2  C   UNL     1       7.045 -18.368   7.779  1.00  0.00     0.207 A 
ATOM      3  C   UNL     1       8.051 -19.041   7.029  1.00  0.00     0.208 A 
ATOM      4  C   UNL     1       9.387 -18.633   7.134  1.00  0.00     0.184 A 
ATOM      5  C   UNL     1       9.743 -17.563   7.975  1.00  0.00     0.025 A 
ATOM      6  C   UNL     1       8.764 -16.898   8.712  1.00  0.00     0.062 A 
ATOM      7  C   UNL     1      11.090 -17.187   8.049  1.00  0.00     0.020 A 
ATOM      8  C   UNL     1      12.037 -17.878   7.297  1.00  0.00     0.094 A 
ATOM      9  C   UNL     1      11.613 -18.932   6.483  1.00  0.00     0.336 A 
ATOM     10  O   UNL     1      12.451 -19.570   5.794  1.00  0.00    -0.246 OA
ATOM     11  O   UNL     1      10.326 -19.266   6.432  1.00  0.00    -0.419 OA
ENDROOT
BRANCH   1  12
ATOM     12  O   UNL     1       6.433 -16.611   9.372  1.00  0.00    -0.493 OA
ATOM     13  C   UNL     1       5.539 -15.630   8.857  1.00  0.00     0.278 C 
ENDBRANCH   1  12
BRANCH   2  14
ATOM     14  O   UNL     1       5.712 -18.806   7.648  1.00  0.00    -0.490 OA
ATOM     15  C   UNL     1       4.987 -19.645   8.541  1.00  0.00     0.278 C 
ENDBRANCH   2  14
BRANCH   3  16
ATOM     16  O   UNL     1       7.795 -20.123   6.162  1.00  0.00    -0.490 OA
ATOM     17  C   UNL     1       7.892 -20.125   4.743  1.00  0.00     0.278 C 
ENDBRANCH   3  16
TORSDOF 3
ENDMDL
MODEL 6
REMARK VINA RESULT:     1.457      3.481      5.969
REMARK INTER + INTRA:           2.485
REMARK INTER:                   1.988
REMARK INTRA:                   0.497
REMARK UNBOUND:                 0.773
REMARK SMILES COc1cc2ccc(=O)oc2c(OC)c1OC
REMARK SMILES IDX 3 1 15 2 12 3 11 4 5 5 4 6 6 7 7 8 8 9 9 10 10 11 2 12 1 13
REMARK SMILES IDX 16 14 17 15 13 16 14 17
REMARK H PARENT
REMARK Flexibility Score: inf
ROOT
ATOM      1  C   UNL     1      13.208 -17.527   9.165  1.00  0.00     0.165 A 
ATOM      2  C   UNL     1      12.888 -16.454   8.286  1.00  0.00     0.207 A 
ATOM      3  C   UNL     1      11.651 -16.476   7.580  1.00  0.00     0.208 A 
ATOM      4  C   UNL     1      10.768 -17.549   7.757  1.00  0.00     0.184 A 
ATOM      5  C   UNL     1      11.092 -18.605   8.628  1.00  0.00     0.025 A 
ATOM      6  C   UNL     1      12.302 -18.590   9.323  1.00  0.00     0.062 A 
ATOM      7  C   UNL     1      10.181 -19.657   8.775  1.00  0.00     0.020 A 
ATOM      8  C   UNL     1       8.984 -19.633   8.063  1.00  0.00     0.094 A 
ATOM      9  C   UNL     1       8.726 -18.551   7.215  1.00  0.00     0.336 A 
ATOM     10  O   UNL     1       7.652 -18.508   6.561  1.00  0.00    -0.246 OA
ATOM     11  O   UNL     1       9.612 -17.566   7.096  1.00  0.00    -0.419 OA
ENDROOT
BRANCH   1  12
ATOM     12  O   UNL     1      14.424 -17.519   9.868  1.00  0.00    -0.493 OA
ATOM     13  C   UNL     1      14.554 -17.514  11.285  1.00  0.00     0.278 C 
ENDBRANCH   1  12
BRANCH   2  14
ATOM     14  O   UNL     1      13.751 -15.359   8.083  1.00  0.00    -0.490 OA
ATOM     15  C   UNL     1      14.873 -15.293   7.209  1.00  0.00     0.278 C 
ENDBRANCH   2  14
BRANCH   3  16
ATOM     16  O   UNL     1      11.236 -15.466   6.688  1.00  0.00    -0.490 OA
ATOM     17  C   UNL     1      12.061 -14.695   5.822  1.00  0.00     0.278 C 
ENDBRANCH   3  16
TORSDOF 3
ENDMDL
