MODEL 1
REMARK VINA RESULT:    -6.118      0.000      0.000
REMARK INTER + INTRA:          -7.701
REMARK INTER:                  -7.370
REMARK INTRA:                  -0.331
REMARK UNBOUND:                -0.331
REMARK SMILES O=c1c(O)c(-c2ccc(O)c(O)c2)oc2cc(O)cc(O)c12
REMARK SMILES IDX 5 1 3 2 2 3 1 4 22 5 20 6 19 7 17 8 16 9 15 10 14 11 6 12
REMARK SMILES IDX 7 13 8 14 9 15 13 16 11 17 10 18 12 20 4 22 21 24 18 26
REMARK H PARENT 10 19 12 21 4 23 21 25 18 27
REMARK Flexibility Score: inf
ROOT
ATOM      1  C   UNL     1      30.235  40.654  31.204  1.00  0.00     0.180 A 
ATOM      2  C   UNL     1      31.479  40.001  31.160  1.00  0.00     0.208 A 
ATOM      3  C   UNL     1      32.650  40.772  31.083  1.00  0.00     0.238 A 
ATOM      4  O   UNL     1      33.763  40.184  31.099  1.00  0.00    -0.285 OA
ATOM      5  C   UNL     1      32.562  42.185  31.035  1.00  0.00     0.111 A 
ATOM      6  C   UNL     1      33.681  43.062  30.916  1.00  0.00     0.134 A 
ATOM      7  C   UNL     1      33.485  44.447  31.009  1.00  0.00     0.093 A 
ATOM      8  C   UNL     1      32.205  44.985  31.151  1.00  0.00     0.123 A 
ATOM      9  C   UNL     1      31.100  44.138  31.209  1.00  0.00     0.094 A 
ATOM     10  C   UNL     1      31.266  42.752  31.155  1.00  0.00     0.146 A 
ATOM     11  O   UNL     1      30.188  41.981  31.223  1.00  0.00    -0.452 OA
ENDROOT
BRANCH   1  12
ATOM     12  C   UNL     1      28.956  39.909  31.260  1.00  0.00     0.025 A 
ATOM     13  C   UNL     1      28.281  39.524  30.089  1.00  0.00     0.016 A 
ATOM     14  C   UNL     1      27.064  38.844  30.167  1.00  0.00     0.051 A 
ATOM     15  C   UNL     1      26.496  38.549  31.413  1.00  0.00     0.157 A 
ATOM     16  C   UNL     1      28.373  39.630  32.507  1.00  0.00     0.062 A 
ATOM     17  C   UNL     1      27.153  38.948  32.589  1.00  0.00     0.158 A 
BRANCH  15  18
ATOM     18  O   UNL     1      25.281  37.868  31.487  1.00  0.00    -0.504 OA
ATOM     19  H   UNL     1      25.240  36.856  31.490  1.00  0.00     0.293 HD
ENDBRANCH  15  18
BRANCH  17  20
ATOM     20  O   UNL     1      26.611  38.677  33.845  1.00  0.00    -0.504 OA
ATOM     21  H   UNL     1      25.637  38.856  34.061  1.00  0.00     0.293 HD
ENDBRANCH  17  20
ENDBRANCH   1  12
BRANCH   2  22
ATOM     22  O   UNL     1      31.544  38.607  31.232  1.00  0.00    -0.502 OA
ATOM     23  H   UNL     1      31.025  38.073  31.917  1.00  0.00     0.293 HD
ENDBRANCH   2  22
BRANCH   6  24
ATOM     24  O   UNL     1      34.990  42.632  30.680  1.00  0.00    -0.507 OA
ATOM     25  H   UNL     1      35.754  42.736  31.330  1.00  0.00     0.293 HD
ENDBRANCH   6  24
BRANCH   8  26
ATOM     26  O   UNL     1      32.018  46.364  31.227  1.00  0.00    -0.508 OA
ATOM     27  H   UNL     1      32.195  46.876  32.083  1.00  0.00     0.293 HD
ENDBRANCH   8  26
TORSDOF 6
ENDMDL
MODEL 2
REMARK VINA RESULT:    -5.853      1.774      7.273
REMARK INTER + INTRA:          -7.382
REMARK INTER:                  -7.080
REMARK INTRA:                  -0.302
REMARK UNBOUND:                -0.331
REMARK SMILES O=c1c(O)c(-c2ccc(O)c(O)c2)oc2cc(O)cc(O)c12
REMARK SMILES IDX 5 1 3 2 2 3 1 4 22 5 20 6 19 7 17 8 16 9 15 10 14 11 6 12
REMARK SMILES IDX 7 13 8 14 9 15 13 16 11 17 10 18 12 20 4 22 21 24 18 26
REMARK H PARENT 10 19 12 21 4 23 21 25 18 27
REMARK Flexibility Score: inf
ROOT
ATOM      1  C   UNL     1      29.363  39.819  31.783  1.00  0.00     0.180 A 
ATOM      2  C   UNL     1      28.608  39.350  30.694  1.00  0.00     0.208 A 
ATOM      3  C   UNL     1      27.530  38.482  30.936  1.00  0.00     0.238 A 
ATOM      4  O   UNL     1      26.825  38.109  29.963  1.00  0.00    -0.285 OA
ATOM      5  C   UNL     1      27.233  38.082  32.262  1.00  0.00     0.111 A 
ATOM      6  C   UNL     1      26.191  37.174  32.618  1.00  0.00     0.134 A 
ATOM      7  C   UNL     1      25.903  36.951  33.971  1.00  0.00     0.093 A 
ATOM      8  C   UNL     1      26.663  37.551  34.978  1.00  0.00     0.123 A 
ATOM      9  C   UNL     1      27.720  38.392  34.638  1.00  0.00     0.094 A 
ATOM     10  C   UNL     1      28.008  38.663  33.298  1.00  0.00     0.146 A 
ATOM     11  O   UNL     1      29.018  39.477  33.019  1.00  0.00    -0.452 OA
ENDROOT
BRANCH   1  12
ATOM     12  C   UNL     1      30.528  40.717  31.605  1.00  0.00     0.025 A 
ATOM     13  C   UNL     1      31.843  40.222  31.634  1.00  0.00     0.016 A 
ATOM     14  C   UNL     1      32.927  41.091  31.489  1.00  0.00     0.051 A 
ATOM     15  C   UNL     1      32.715  42.466  31.325  1.00  0.00     0.157 A 
ATOM     16  C   UNL     1      30.320  42.098  31.461  1.00  0.00     0.062 A 
ATOM     17  C   UNL     1      31.404  42.972  31.315  1.00  0.00     0.158 A 
BRANCH  15  18
ATOM     18  O   UNL     1      33.800  43.331  31.178  1.00  0.00    -0.504 OA
ATOM     19  H   UNL     1      34.221  43.793  31.975  1.00  0.00     0.293 HD
ENDBRANCH  15  18
BRANCH  17  20
ATOM     20  O   UNL     1      31.159  44.336  31.162  1.00  0.00    -0.504 OA
ATOM     21  H   UNL     1      31.514  44.861  30.371  1.00  0.00     0.293 HD
ENDBRANCH  17  20
ENDBRANCH   1  12
BRANCH   2  22
ATOM     22  O   UNL     1      28.904  39.776  29.396  1.00  0.00    -0.502 OA
ATOM     23  H   UNL     1      28.577  40.659  29.025  1.00  0.00     0.293 HD
ENDBRANCH   2  22
BRANCH   6  24
ATOM     24  O   UNL     1      25.432  36.452  31.692  1.00  0.00    -0.507 OA
ATOM     25  H   UNL     1      24.504  36.706  31.388  1.00  0.00     0.293 HD
ENDBRANCH   6  24
BRANCH   8  26
ATOM     26  O   UNL     1      26.379  37.311  36.320  1.00  0.00    -0.508 OA
ATOM     27  H   UNL     1      25.616  37.780  36.793  1.00  0.00     0.293 HD
ENDBRANCH   8  26
TORSDOF 6
ENDMDL
MODEL 3
REMARK VINA RESULT:    -5.791      2.206      3.371
REMARK INTER + INTRA:          -7.307
REMARK INTER:                  -6.999
REMARK INTRA:                  -0.307
REMARK UNBOUND:                -0.331
REMARK SMILES O=c1c(O)c(-c2ccc(O)c(O)c2)oc2cc(O)cc(O)c12
REMARK SMILES IDX 5 1 3 2 2 3 1 4 22 5 20 6 19 7 17 8 16 9 15 10 14 11 6 12
REMARK SMILES IDX 7 13 8 14 9 15 13 16 11 17 10 18 12 20 4 22 21 24 18 26
REMARK H PARENT 10 19 12 21 4 23 21 25 18 27
REMARK Flexibility Score: inf
ROOT
ATOM      1  C   UNL     1      29.050  39.254  32.255  1.00  0.00     0.180 A 
ATOM      2  C   UNL     1      29.069  38.646  30.988  1.00  0.00     0.208 A 
ATOM      3  C   UNL     1      29.967  39.122  30.018  1.00  0.00     0.238 A 
ATOM      4  O   UNL     1      30.017  38.539  28.903  1.00  0.00    -0.285 OA
ATOM      5  C   UNL     1      30.823  40.209  30.323  1.00  0.00     0.111 A 
ATOM      6  C   UNL     1      31.741  40.797  29.404  1.00  0.00     0.134 A 
ATOM      7  C   UNL     1      32.631  41.783  29.853  1.00  0.00     0.093 A 
ATOM      8  C   UNL     1      32.588  42.245  31.170  1.00  0.00     0.123 A 
ATOM      9  C   UNL     1      31.654  41.718  32.059  1.00  0.00     0.094 A 
ATOM     10  C   UNL     1      30.779  40.709  31.650  1.00  0.00     0.146 A 
ATOM     11  O   UNL     1      29.911  40.227  32.531  1.00  0.00    -0.452 OA
ENDROOT
BRANCH   1  12
ATOM     12  C   UNL     1      28.116  38.824  33.321  1.00  0.00     0.025 A 
ATOM     13  C   UNL     1      26.772  39.235  33.324  1.00  0.00     0.016 A 
ATOM     14  C   UNL     1      25.915  38.838  34.353  1.00  0.00     0.051 A 
ATOM     15  C   UNL     1      26.388  38.036  35.399  1.00  0.00     0.157 A 
ATOM     16  C   UNL     1      28.592  38.037  34.382  1.00  0.00     0.062 A 
ATOM     17  C   UNL     1      27.736  37.636  35.414  1.00  0.00     0.158 A 
BRANCH  15  18
ATOM     18  O   UNL     1      25.529  37.638  36.423  1.00  0.00    -0.504 OA
ATOM     19  H   UNL     1      24.831  38.266  36.804  1.00  0.00     0.293 HD
ENDBRANCH  15  18
BRANCH  17  20
ATOM     20  O   UNL     1      28.240  36.844  36.445  1.00  0.00    -0.504 OA
ATOM     21  H   UNL     1      27.763  36.010  36.766  1.00  0.00     0.293 HD
ENDBRANCH  17  20
ENDBRANCH   1  12
BRANCH   2  22
ATOM     22  O   UNL     1      28.232  37.561  30.715  1.00  0.00    -0.502 OA
ATOM     23  H   UNL     1      27.299  37.484  31.098  1.00  0.00     0.293 HD
ENDBRANCH   2  22
BRANCH   6  24
ATOM     24  O   UNL     1      31.804  40.474  28.045  1.00  0.00    -0.507 OA
ATOM     25  H   UNL     1      32.565  40.722  27.431  1.00  0.00     0.293 HD
ENDBRANCH   6  24
BRANCH   8  26
ATOM     26  O   UNL     1      33.466  43.236  31.603  1.00  0.00    -0.508 OA
ATOM     27  H   UNL     1      33.554  44.118  31.113  1.00  0.00     0.293 HD
ENDBRANCH   8  26
TORSDOF 6
ENDMDL
MODEL 4
REMARK VINA RESULT:    -5.529      2.926      7.452
REMARK INTER + INTRA:          -6.992
REMARK INTER:                  -6.708
REMARK INTRA:                  -0.283
REMARK UNBOUND:                -0.331
REMARK SMILES O=c1c(O)c(-c2ccc(O)c(O)c2)oc2cc(O)cc(O)c12
REMARK SMILES IDX 5 1 3 2 2 3 1 4 22 5 20 6 19 7 17 8 16 9 15 10 14 11 6 12
REMARK SMILES IDX 7 13 8 14 9 15 13 16 11 17 10 18 12 20 4 22 21 24 18 26
REMARK H PARENT 10 19 12 21 4 23 21 25 18 27
REMARK Flexibility Score: inf
ROOT
ATOM      1  C   UNL     1      28.234  38.791  33.064  1.00  0.00     0.180 A 
ATOM      2  C   UNL     1      28.530  37.663  33.848  1.00  0.00     0.208 A 
ATOM      3  C   UNL     1      27.619  37.266  34.841  1.00  0.00     0.238 A 
ATOM      4  O   UNL     1      27.864  36.224  35.503  1.00  0.00    -0.285 OA
ATOM      5  C   UNL     1      26.432  38.011  35.046  1.00  0.00     0.111 A 
ATOM      6  C   UNL     1      25.460  37.722  36.050  1.00  0.00     0.134 A 
ATOM      7  C   UNL     1      24.261  38.447  36.078  1.00  0.00     0.093 A 
ATOM      8  C   UNL     1      24.030  39.492  35.180  1.00  0.00     0.123 A 
ATOM      9  C   UNL     1      25.000  39.820  34.235  1.00  0.00     0.094 A 
ATOM     10  C   UNL     1      26.189  39.091  34.159  1.00  0.00     0.146 A 
ATOM     11  O   UNL     1      27.082  39.430  33.237  1.00  0.00    -0.452 OA
ENDROOT
BRANCH   1  12
ATOM     12  C   UNL     1      29.156  39.286  32.015  1.00  0.00     0.025 A 
ATOM     13  C   UNL     1      30.329  39.987  32.344  1.00  0.00     0.016 A 
ATOM     14  C   UNL     1      31.171  40.465  31.338  1.00  0.00     0.051 A 
ATOM     15  C   UNL     1      30.849  40.263  29.990  1.00  0.00     0.157 A 
ATOM     16  C   UNL     1      28.826  39.103  30.662  1.00  0.00     0.062 A 
ATOM     17  C   UNL     1      29.668  39.581  29.651  1.00  0.00     0.158 A 
BRANCH  15  18
ATOM     18  O   UNL     1      31.694  40.740  28.987  1.00  0.00    -0.504 OA
ATOM     19  H   UNL     1      31.529  41.630  28.535  1.00  0.00     0.293 HD
ENDBRANCH  15  18
BRANCH  17  20
ATOM     20  O   UNL     1      29.315  39.370  28.319  1.00  0.00    -0.504 OA
ATOM     21  H   UNL     1      29.267  40.127  27.648  1.00  0.00     0.293 HD
ENDBRANCH  17  20
ENDBRANCH   1  12
BRANCH   2  22
ATOM     22  O   UNL     1      29.696  36.929  33.613  1.00  0.00    -0.502 OA
ATOM     23  H   UNL     1      30.427  36.833  34.306  1.00  0.00     0.293 HD
ENDBRANCH   2  22
BRANCH   6  24
ATOM     24  O   UNL     1      25.631  36.762  37.051  1.00  0.00    -0.507 OA
ATOM     25  H   UNL     1      26.469  36.216  37.186  1.00  0.00     0.293 HD
ENDBRANCH   6  24
BRANCH   8  26
ATOM     26  O   UNL     1      22.842  40.218  35.225  1.00  0.00    -0.508 OA
ATOM     27  H   UNL     1      21.977  39.842  34.855  1.00  0.00     0.293 HD
ENDBRANCH   8  26
TORSDOF 6
ENDMDL
MODEL 5
REMARK VINA RESULT:    -5.431      2.730      7.499
REMARK INTER + INTRA:          -6.874
REMARK INTER:                  -6.546
REMARK INTRA:                  -0.328
REMARK UNBOUND:                -0.331
REMARK SMILES O=c1c(O)c(-c2ccc(O)c(O)c2)oc2cc(O)cc(O)c12
REMARK SMILES IDX 5 1 3 2 2 3 1 4 22 5 20 6 19 7 17 8 16 9 15 10 14 11 6 12
REMARK SMILES IDX 7 13 8 14 9 15 13 16 11 17 10 18 12 20 4 22 21 24 18 26
REMARK H PARENT 10 19 12 21 4 23 21 25 18 27
REMARK Flexibility Score: inf
ROOT
ATOM      1  C   UNL     1      28.368  38.658  31.539  1.00  0.00     0.180 A 
ATOM      2  C   UNL     1      27.015  38.749  31.171  1.00  0.00     0.208 A 
ATOM      3  C   UNL     1      26.029  38.391  32.105  1.00  0.00     0.238 A 
ATOM      4  O   UNL     1      24.819  38.526  31.788  1.00  0.00    -0.285 OA
ATOM      5  C   UNL     1      26.410  37.932  33.390  1.00  0.00     0.111 A 
ATOM      6  C   UNL     1      25.497  37.504  34.399  1.00  0.00     0.134 A 
ATOM      7  C   UNL     1      25.979  37.194  35.678  1.00  0.00     0.093 A 
ATOM      8  C   UNL     1      27.346  37.232  35.962  1.00  0.00     0.123 A 
ATOM      9  C   UNL     1      28.250  37.591  34.965  1.00  0.00     0.094 A 
ATOM     10  C   UNL     1      27.797  37.942  33.691  1.00  0.00     0.146 A 
ATOM     11  O   UNL     1      28.691  38.287  32.773  1.00  0.00    -0.452 OA
ENDROOT
BRANCH   1  12
ATOM     12  C   UNL     1      29.465  38.995  30.601  1.00  0.00     0.025 A 
ATOM     13  C   UNL     1      29.952  38.053  29.679  1.00  0.00     0.016 A 
ATOM     14  C   UNL     1      31.003  38.385  28.821  1.00  0.00     0.051 A 
ATOM     15  C   UNL     1      31.591  39.655  28.879  1.00  0.00     0.157 A 
ATOM     16  C   UNL     1      30.070  40.260  30.671  1.00  0.00     0.062 A 
ATOM     17  C   UNL     1      31.123  40.596  29.812  1.00  0.00     0.158 A 
BRANCH  15  18
ATOM     18  O   UNL     1      32.638  39.984  28.019  1.00  0.00    -0.504 OA
ATOM     19  H   UNL     1      33.223  40.795  28.181  1.00  0.00     0.293 HD
ENDBRANCH  15  18
BRANCH  17  20
ATOM     20  O   UNL     1      31.691  41.867  29.901  1.00  0.00    -0.504 OA
ATOM     21  H   UNL     1      31.751  42.369  30.778  1.00  0.00     0.293 HD
ENDBRANCH  17  20
ENDBRANCH   1  12
BRANCH   2  22
ATOM     22  O   UNL     1      26.661  39.226  29.906  1.00  0.00    -0.502 OA
ATOM     23  H   UNL     1      27.003  40.106  29.541  1.00  0.00     0.293 HD
ENDBRANCH   2  22
BRANCH   6  24
ATOM     24  O   UNL     1      24.124  37.342  34.195  1.00  0.00    -0.507 OA
ATOM     25  H   UNL     1      23.541  36.692  34.700  1.00  0.00     0.293 HD
ENDBRANCH   6  24
BRANCH   8  26
ATOM     26  O   UNL     1      27.817  36.907  37.232  1.00  0.00    -0.508 OA
ATOM     27  H   UNL     1      28.693  37.275  37.584  1.00  0.00     0.293 HD
ENDBRANCH   8  26
TORSDOF 6
ENDMDL
MODEL 6
REMARK VINA RESULT:    -5.409      3.881      5.781
REMARK INTER + INTRA:          -6.846
REMARK INTER:                  -6.576
REMARK INTRA:                  -0.271
REMARK UNBOUND:                -0.331
REMARK SMILES O=c1c(O)c(-c2ccc(O)c(O)c2)oc2cc(O)cc(O)c12
REMARK SMILES IDX 5 1 3 2 2 3 1 4 22 5 20 6 19 7 17 8 16 9 15 10 14 11 6 12
REMARK SMILES IDX 7 13 8 14 9 15 13 16 11 17 10 18 12 20 4 22 21 24 18 26
REMARK H PARENT 10 19 12 21 4 23 21 25 18 27
REMARK Flexibility Score: inf
ROOT
ATOM      1  C   UNL     1      25.753  38.871  32.218  1.00  0.00     0.180 A 
ATOM      2  C   UNL     1      26.652  38.758  33.293  1.00  0.00     0.208 A 
ATOM      3  C   UNL     1      28.032  38.737  33.027  1.00  0.00     0.238 A 
ATOM      4  O   UNL     1      28.833  38.691  33.996  1.00  0.00    -0.285 OA
ATOM      5  C   UNL     1      28.493  38.812  31.690  1.00  0.00     0.111 A 
ATOM      6  C   UNL     1      29.865  38.758  31.303  1.00  0.00     0.134 A 
ATOM      7  C   UNL     1      30.213  38.972  29.963  1.00  0.00     0.093 A 
ATOM      8  C   UNL     1      29.234  39.172  28.987  1.00  0.00     0.123 A 
ATOM      9  C   UNL     1      27.888  39.168  29.347  1.00  0.00     0.094 A 
ATOM     10  C   UNL     1      27.512  38.993  30.681  1.00  0.00     0.146 A 
ATOM     11  O   UNL     1      26.219  39.005  30.981  1.00  0.00    -0.452 OA
ENDROOT
BRANCH   1  12
ATOM     12  C   UNL     1      24.285  38.875  32.416  1.00  0.00     0.025 A 
ATOM     13  C   UNL     1      23.588  37.700  32.747  1.00  0.00     0.016 A 
ATOM     14  C   UNL     1      22.201  37.724  32.905  1.00  0.00     0.051 A 
ATOM     15  C   UNL     1      21.488  38.916  32.723  1.00  0.00     0.157 A 
ATOM     16  C   UNL     1      23.564  40.064  32.215  1.00  0.00     0.062 A 
ATOM     17  C   UNL     1      22.174  40.091  32.373  1.00  0.00     0.158 A 
BRANCH  15  18
ATOM     18  O   UNL     1      20.102  38.936  32.884  1.00  0.00    -0.504 OA
ATOM     19  H   UNL     1      19.524  39.626  32.420  1.00  0.00     0.293 HD
ENDBRANCH  15  18
BRANCH  17  20
ATOM     20  O   UNL     1      21.493  41.292  32.178  1.00  0.00    -0.504 OA
ATOM     21  H   UNL     1      20.620  41.339  31.666  1.00  0.00     0.293 HD
ENDBRANCH  17  20
ENDBRANCH   1  12
BRANCH   2  22
ATOM     22  O   UNL     1      26.177  38.709  34.606  1.00  0.00    -0.502 OA
ATOM     23  H   UNL     1      25.997  39.542  35.151  1.00  0.00     0.293 HD
ENDBRANCH   2  22
BRANCH   6  24
ATOM     24  O   UNL     1      30.914  38.472  32.182  1.00  0.00    -0.507 OA
ATOM     25  H   UNL     1      31.861  38.805  32.072  1.00  0.00     0.293 HD
ENDBRANCH   6  24
BRANCH   8  26
ATOM     26  O   UNL     1      29.589  39.369  27.655  1.00  0.00    -0.508 OA
ATOM     27  H   UNL     1      29.047  39.969  27.045  1.00  0.00     0.293 HD
ENDBRANCH   8  26
TORSDOF 6
ENDMDL
MODEL 7
REMARK VINA RESULT:    -5.387      4.174      7.809
REMARK INTER + INTRA:          -6.820
REMARK INTER:                  -6.515
REMARK INTRA:                  -0.305
REMARK UNBOUND:                -0.331
REMARK SMILES O=c1c(O)c(-c2ccc(O)c(O)c2)oc2cc(O)cc(O)c12
REMARK SMILES IDX 5 1 3 2 2 3 1 4 22 5 20 6 19 7 17 8 16 9 15 10 14 11 6 12
REMARK SMILES IDX 7 13 8 14 9 15 13 16 11 17 10 18 12 20 4 22 21 24 18 26
REMARK H PARENT 10 19 12 21 4 23 21 25 18 27
REMARK Flexibility Score: inf
ROOT
ATOM      1  C   UNL     1      28.198  38.306  31.168  1.00  0.00     0.180 A 
ATOM      2  C   UNL     1      28.239  39.188  32.262  1.00  0.00     0.208 A 
ATOM      3  C   UNL     1      27.226  39.115  33.234  1.00  0.00     0.238 A 
ATOM      4  O   UNL     1      27.298  39.870  34.238  1.00  0.00    -0.285 OA
ATOM      5  C   UNL     1      26.179  38.173  33.089  1.00  0.00     0.111 A 
ATOM      6  C   UNL     1      25.081  38.041  33.991  1.00  0.00     0.134 A 
ATOM      7  C   UNL     1      24.172  36.988  33.821  1.00  0.00     0.093 A 
ATOM      8  C   UNL     1      24.285  36.105  32.744  1.00  0.00     0.123 A 
ATOM      9  C   UNL     1      25.320  36.263  31.825  1.00  0.00     0.094 A 
ATOM     10  C   UNL     1      26.263  37.281  31.989  1.00  0.00     0.146 A 
ATOM     11  O   UNL     1      27.239  37.391  31.096  1.00  0.00    -0.452 OA
ENDROOT
BRANCH   1  12
ATOM     12  C   UNL     1      29.215  38.339  30.092  1.00  0.00     0.025 A 
ATOM     13  C   UNL     1      30.457  37.696  30.239  1.00  0.00     0.016 A 
ATOM     14  C   UNL     1      31.410  37.761  29.220  1.00  0.00     0.051 A 
ATOM     15  C   UNL     1      31.144  38.477  28.047  1.00  0.00     0.157 A 
ATOM     16  C   UNL     1      28.961  39.073  28.922  1.00  0.00     0.062 A 
ATOM     17  C   UNL     1      29.914  39.140  27.899  1.00  0.00     0.158 A 
BRANCH  15  18
ATOM     18  O   UNL     1      32.098  38.538  27.030  1.00  0.00    -0.504 OA
ATOM     19  H   UNL     1      32.640  39.376  26.861  1.00  0.00     0.293 HD
ENDBRANCH  15  18
BRANCH  17  20
ATOM     20  O   UNL     1      29.621  39.868  26.746  1.00  0.00    -0.504 OA
ATOM     21  H   UNL     1      28.959  40.635  26.748  1.00  0.00     0.293 HD
ENDBRANCH  17  20
ENDBRANCH   1  12
BRANCH   2  22
ATOM     22  O   UNL     1      29.294  40.094  32.397  1.00  0.00    -0.502 OA
ATOM     23  H   UNL     1      29.734  40.539  31.601  1.00  0.00     0.293 HD
ENDBRANCH   2  22
BRANCH   6  24
ATOM     24  O   UNL     1      24.823  38.923  35.044  1.00  0.00    -0.507 OA
ATOM     25  H   UNL     1      24.142  39.667  35.015  1.00  0.00     0.293 HD
ENDBRANCH   6  24
BRANCH   8  26
ATOM     26  O   UNL     1      23.368  35.071  32.575  1.00  0.00    -0.508 OA
ATOM     27  H   UNL     1      23.480  34.180  33.043  1.00  0.00     0.293 HD
ENDBRANCH   8  26
TORSDOF 6
ENDMDL
MODEL 8
REMARK VINA RESULT:    -5.327      3.233      8.458
REMARK INTER + INTRA:          -6.748
REMARK INTER:                  -6.413
REMARK INTRA:                  -0.335
REMARK UNBOUND:                -0.331
REMARK SMILES O=c1c(O)c(-c2ccc(O)c(O)c2)oc2cc(O)cc(O)c12
REMARK SMILES IDX 5 1 3 2 2 3 1 4 22 5 20 6 19 7 17 8 16 9 15 10 14 11 6 12
REMARK SMILES IDX 7 13 8 14 9 15 13 16 11 17 10 18 12 20 4 22 21 24 18 26
REMARK H PARENT 10 19 12 21 4 23 21 25 18 27
REMARK Flexibility Score: inf
ROOT
ATOM      1  C   UNL     1      26.143  38.592  31.910  1.00  0.00     0.180 A 
ATOM      2  C   UNL     1      25.896  37.269  32.317  1.00  0.00     0.208 A 
ATOM      3  C   UNL     1      24.613  36.925  32.774  1.00  0.00     0.238 A 
ATOM      4  O   UNL     1      24.384  35.728  33.086  1.00  0.00    -0.285 OA
ATOM      5  C   UNL     1      23.599  37.912  32.834  1.00  0.00     0.111 A 
ATOM      6  C   UNL     1      22.276  37.684  33.319  1.00  0.00     0.134 A 
ATOM      7  C   UNL     1      21.317  38.700  33.210  1.00  0.00     0.093 A 
ATOM      8  C   UNL     1      21.651  39.954  32.695  1.00  0.00     0.123 A 
ATOM      9  C   UNL     1      22.956  40.204  32.274  1.00  0.00     0.094 A 
ATOM     10  C   UNL     1      23.925  39.200  32.336  1.00  0.00     0.146 A 
ATOM     11  O   UNL     1      25.153  39.477  31.916  1.00  0.00    -0.452 OA
ENDROOT
BRANCH   1  12
ATOM     12  C   UNL     1      27.475  39.036  31.439  1.00  0.00     0.025 A 
ATOM     13  C   UNL     1      28.441  39.527  32.335  1.00  0.00     0.016 A 
ATOM     14  C   UNL     1      29.682  39.963  31.865  1.00  0.00     0.051 A 
ATOM     15  C   UNL     1      29.972  39.927  30.496  1.00  0.00     0.157 A 
ATOM     16  C   UNL     1      27.763  39.021  30.065  1.00  0.00     0.062 A 
ATOM     17  C   UNL     1      29.005  39.457  29.591  1.00  0.00     0.158 A 
BRANCH  15  18
ATOM     18  O   UNL     1      31.214  40.361  30.030  1.00  0.00    -0.504 OA
ATOM     19  H   UNL     1      31.559  41.293  30.229  1.00  0.00     0.293 HD
ENDBRANCH  15  18
BRANCH  17  20
ATOM     20  O   UNL     1      29.261  39.415  28.220  1.00  0.00    -0.504 OA
ATOM     21  H   UNL     1      30.135  39.741  27.826  1.00  0.00     0.293 HD
ENDBRANCH  17  20
ENDBRANCH   1  12
BRANCH   2  22
ATOM     22  O   UNL     1      26.905  36.306  32.229  1.00  0.00    -0.502 OA
ATOM     23  H   UNL     1      26.786  35.439  31.720  1.00  0.00     0.293 HD
ENDBRANCH   2  22
BRANCH   6  24
ATOM     24  O   UNL     1      21.863  36.499  33.935  1.00  0.00    -0.507 OA
ATOM     25  H   UNL     1      22.478  35.744  34.199  1.00  0.00     0.293 HD
ENDBRANCH   6  24
BRANCH   8  26
ATOM     26  O   UNL     1      20.695  40.963  32.605  1.00  0.00    -0.508 OA
ATOM     27  H   UNL     1      20.428  41.515  33.411  1.00  0.00     0.293 HD
ENDBRANCH   8  26
TORSDOF 6
ENDMDL
MODEL 9
REMARK VINA RESULT:    -5.268      2.939      5.042
REMARK INTER + INTRA:          -6.677
REMARK INTER:                  -6.375
REMARK INTRA:                  -0.302
REMARK UNBOUND:                -0.331
REMARK SMILES O=c1c(O)c(-c2ccc(O)c(O)c2)oc2cc(O)cc(O)c12
REMARK SMILES IDX 5 1 3 2 2 3 1 4 22 5 20 6 19 7 17 8 16 9 15 10 14 11 6 12
REMARK SMILES IDX 7 13 8 14 9 15 13 16 11 17 10 18 12 20 4 22 21 24 18 26
REMARK H PARENT 10 19 12 21 4 23 21 25 18 27
REMARK Flexibility Score: inf
ROOT
ATOM      1  C   UNL     1      27.031  39.112  33.164  1.00  0.00     0.180 A 
ATOM      2  C   UNL     1      27.648  38.008  33.778  1.00  0.00     0.208 A 
ATOM      3  C   UNL     1      28.967  37.681  33.423  1.00  0.00     0.238 A 
ATOM      4  O   UNL     1      29.532  36.725  34.015  1.00  0.00    -0.285 OA
ATOM      5  C   UNL     1      29.646  38.451  32.448  1.00  0.00     0.111 A 
ATOM      6  C   UNL     1      30.968  38.184  31.983  1.00  0.00     0.134 A 
ATOM      7  C   UNL     1      31.589  39.089  31.111  1.00  0.00     0.093 A 
ATOM      8  C   UNL     1      30.911  40.215  30.638  1.00  0.00     0.123 A 
ATOM      9  C   UNL     1      29.598  40.451  31.040  1.00  0.00     0.094 A 
ATOM     10  C   UNL     1      28.965  39.587  31.937  1.00  0.00     0.146 A 
ATOM     11  O   UNL     1      27.717  39.854  32.302  1.00  0.00    -0.452 OA
ENDROOT
BRANCH   1  12
ATOM     12  C   UNL     1      25.636  39.505  33.468  1.00  0.00     0.025 A 
ATOM     13  C   UNL     1      25.322  40.270  34.604  1.00  0.00     0.016 A 
ATOM     14  C   UNL     1      23.996  40.608  34.884  1.00  0.00     0.051 A 
ATOM     15  C   UNL     1      22.963  40.177  34.041  1.00  0.00     0.157 A 
ATOM     16  C   UNL     1      24.596  39.058  32.637  1.00  0.00     0.062 A 
ATOM     17  C   UNL     1      23.266  39.395  32.914  1.00  0.00     0.158 A 
BRANCH  15  18
ATOM     18  O   UNL     1      21.641  40.518  34.322  1.00  0.00    -0.504 OA
ATOM     19  H   UNL     1      21.123  40.068  35.068  1.00  0.00     0.293 HD
ENDBRANCH  15  18
BRANCH  17  20
ATOM     20  O   UNL     1      22.260  38.944  32.059  1.00  0.00    -0.504 OA
ATOM     21  H   UNL     1      21.998  37.967  32.005  1.00  0.00     0.293 HD
ENDBRANCH  17  20
ENDBRANCH   1  12
BRANCH   2  22
ATOM     22  O   UNL     1      26.968  37.275  34.754  1.00  0.00    -0.502 OA
ATOM     23  H   UNL     1      27.254  36.346  35.034  1.00  0.00     0.293 HD
ENDBRANCH   2  22
BRANCH   6  24
ATOM     24  O   UNL     1      31.701  37.043  32.321  1.00  0.00    -0.507 OA
ATOM     25  H   UNL     1      31.980  36.326  31.667  1.00  0.00     0.293 HD
ENDBRANCH   6  24
BRANCH   8  26
ATOM     26  O   UNL     1      31.530  41.100  29.760  1.00  0.00    -0.508 OA
ATOM     27  H   UNL     1      32.265  40.798  29.132  1.00  0.00     0.293 HD
ENDBRANCH   8  26
TORSDOF 6
ENDMDL
