MODEL 1
REMARK VINA RESULT:    -4.305      0.000      0.000
REMARK INTER + INTRA:          -6.897
REMARK INTER:                  -6.570
REMARK INTRA:                  -0.327
REMARK UNBOUND:                -0.327
REMARK SMILES CC1=CCC[C@@H](C)C(=O)C[C@H](C(C)C)C(=O)C1
REMARK SMILES IDX 8 1 9 2 6 3 7 4 5 5 4 6 3 7 2 8 1 9 10 11 11 12 15 13 16 14
REMARK SMILES IDX 17 15 12 17 13 18 14 19
REMARK H PARENT
REMARK Flexibility Score: 70.00
ROOT
ATOM      1  C   UNL     1       4.767 -19.566  -6.815  1.00  0.00     0.136 C 
ATOM      2  O   UNL     1       4.852 -18.373  -6.571  1.00  0.00    -0.299 OA
ENDROOT
BRANCH   1   3
ATOM      3  C   UNL     1       5.913 -20.476  -6.400  1.00  0.00     0.053 C 
ATOM      4  C   UNL     1       5.738 -21.886  -6.975  1.00  0.00     0.016 C 
BRANCH   3   5
ATOM      5  C   UNL     1       6.083 -20.514  -4.868  1.00  0.00     0.015 C 
BRANCH   5   6
ATOM      6  C   UNL     1       4.792 -20.986  -4.176  1.00  0.00     0.028 C 
BRANCH   6   7
ATOM      7  C   UNL     1       4.219 -19.991  -3.197  1.00  0.00    -0.028 C 
ATOM      8  C   UNL     1       2.992 -19.412  -3.256  1.00  0.00    -0.070 CG0
ATOM      9  C   UNL     1       2.706 -18.314  -2.259  1.00  0.00     0.039 C 
ATOM     10  G   UNL     1       1.853 -19.869  -4.164  1.00  0.00     0.000 G0
ENDBRANCH   6   7
ENDBRANCH   5   6
ENDBRANCH   3   5
ENDBRANCH   1   3
BRANCH   1  11
ATOM     11  C   UNL     1       3.547 -20.092  -7.549  1.00  0.00     0.087 C 
BRANCH  11  12
ATOM     12  C   UNL     1       2.350 -20.525  -6.654  1.00  0.00     0.066 C 
BRANCH  12  13
ATOM     13  C   UNL     1       1.940 -19.472  -5.631  1.00  0.00     0.140 C 
ATOM     14  O   UNL     1       1.597 -18.355  -5.989  1.00  0.00    -0.299 OA
BRANCH  13  15
ATOM     15  C   UNL     1       1.834 -19.861  -4.176  1.00  0.00     0.106 CG0
ATOM     16  G   UNL     1       2.988 -19.420  -3.279  1.00  0.00     0.000 G0
ENDBRANCH  13  15
ENDBRANCH  12  13
BRANCH  12  17
ATOM     17  C   UNL     1       1.171 -21.193  -7.433  1.00  0.00    -0.006 C 
ATOM     18  C   UNL     1       0.907 -22.662  -7.069  1.00  0.00     0.008 C 
ATOM     19  C   UNL     1       1.336 -21.040  -8.956  1.00  0.00     0.008 C 
ENDBRANCH  12  17
ENDBRANCH  11  12
ENDBRANCH   1  11
TORSDOF 1
ENDMDL
MODEL 2
REMARK VINA RESULT:    -3.995      1.674      2.651
REMARK INTER + INTRA:          -6.424
REMARK INTER:                  -6.170
REMARK INTRA:                  -0.253
REMARK UNBOUND:                -0.327
REMARK SMILES CC1=CCC[C@@H](C)C(=O)C[C@H](C(C)C)C(=O)C1
REMARK SMILES IDX 8 1 9 2 6 3 7 4 5 5 4 6 3 7 2 8 1 9 10 11 11 12 15 13 16 14
REMARK SMILES IDX 17 15 12 17 13 18 14 19
REMARK H PARENT
REMARK Flexibility Score: 70.00
ROOT
ATOM      1  C   UNL     1       3.149 -19.875  -7.233  1.00  0.00     0.136 C 
ATOM      2  O   UNL     1       2.679 -20.456  -8.198  1.00  0.00    -0.299 OA
ENDROOT
BRANCH   1   3
ATOM      3  C   UNL     1       4.654 -19.926  -7.017  1.00  0.00     0.053 C 
ATOM      4  C   UNL     1       5.409 -19.443  -8.262  1.00  0.00     0.016 C 
BRANCH   3   5
ATOM      5  C   UNL     1       5.120 -21.333  -6.592  1.00  0.00     0.015 C 
BRANCH   5   6
ATOM      6  C   UNL     1       4.985 -21.529  -5.072  1.00  0.00     0.028 C 
BRANCH   6   7
ATOM      7  C   UNL     1       5.771 -20.537  -4.251  1.00  0.00    -0.028 C 
ATOM      8  C   UNL     1       5.265 -19.620  -3.386  1.00  0.00    -0.070 CG0
ATOM      9  C   UNL     1       6.235 -18.616  -2.809  1.00  0.00     0.039 C 
ATOM     10  G   UNL     1       3.829 -19.606  -2.868  1.00  0.00     0.000 G0
ENDBRANCH   6   7
ENDBRANCH   5   6
ENDBRANCH   3   5
ENDBRANCH   1   3
BRANCH   1  11
ATOM     11  C   UNL     1       2.222 -19.158  -6.269  1.00  0.00     0.087 C 
BRANCH  11  12
ATOM     12  C   UNL     1       2.119 -19.772  -4.842  1.00  0.00     0.066 C 
BRANCH  12  13
ATOM     13  C   UNL     1       2.800 -18.933  -3.766  1.00  0.00     0.140 C 
ATOM     14  O   UNL     1       2.450 -17.780  -3.559  1.00  0.00    -0.299 OA
BRANCH  13  15
ATOM     15  C   UNL     1       3.823 -19.581  -2.865  1.00  0.00     0.106 CG0
ATOM     16  G   UNL     1       5.253 -19.624  -3.397  1.00  0.00     0.000 G0
ENDBRANCH  13  15
ENDBRANCH  12  13
BRANCH  12  17
ATOM     17  C   UNL     1       0.698 -20.306  -4.472  1.00  0.00    -0.006 C 
ATOM     18  C   UNL     1       0.499 -20.632  -2.983  1.00  0.00     0.008 C 
ATOM     19  C   UNL     1       0.299 -21.511  -5.342  1.00  0.00     0.008 C 
ENDBRANCH  12  17
ENDBRANCH  11  12
ENDBRANCH   1  11
TORSDOF 1
ENDMDL
MODEL 3
REMARK VINA RESULT:    -3.942      2.148      3.997
REMARK INTER + INTRA:          -6.342
REMARK INTER:                  -6.091
REMARK INTRA:                  -0.252
REMARK UNBOUND:                -0.327
REMARK SMILES CC1=CCC[C@@H](C)C(=O)C[C@H](C(C)C)C(=O)C1
REMARK SMILES IDX 8 1 9 2 6 3 7 4 5 5 4 6 3 7 2 8 1 9 10 11 11 12 15 13 16 14
REMARK SMILES IDX 17 15 12 17 13 18 14 19
REMARK H PARENT
REMARK Flexibility Score: 70.00
ROOT
ATOM      1  C   UNL     1       1.309 -19.599  -4.097  1.00  0.00     0.136 C 
ATOM      2  O   UNL     1       0.209 -19.409  -3.603  1.00  0.00    -0.299 OA
ENDROOT
BRANCH   1   3
ATOM      3  C   UNL     1       2.403 -18.572  -3.851  1.00  0.00     0.053 C 
ATOM      4  C   UNL     1       2.695 -18.422  -2.353  1.00  0.00     0.016 C 
BRANCH   3   5
ATOM      5  C   UNL     1       2.062 -17.212  -4.493  1.00  0.00     0.015 C 
BRANCH   5   6
ATOM      6  C   UNL     1       2.656 -17.099  -5.908  1.00  0.00     0.028 C 
BRANCH   6   7
ATOM      7  C   UNL     1       4.134 -17.393  -5.979  1.00  0.00    -0.028 C 
ATOM      8  C   UNL     1       4.718 -18.481  -6.547  1.00  0.00    -0.070 CG0
ATOM      9  C   UNL     1       6.205 -18.644  -6.343  1.00  0.00     0.039 C 
ATOM     10  G   UNL     1       4.009 -19.472  -7.467  1.00  0.00     0.000 G0
ENDBRANCH   6   7
ENDBRANCH   5   6
ENDBRANCH   3   5
ENDBRANCH   1   3
BRANCH   1  11
ATOM     11  C   UNL     1       1.535 -20.825  -4.963  1.00  0.00     0.087 C 
BRANCH  11  12
ATOM     12  C   UNL     1       1.851 -20.549  -6.462  1.00  0.00     0.066 C 
BRANCH  12  13
ATOM     13  C   UNL     1       3.334 -20.647  -6.802  1.00  0.00     0.140 C 
ATOM     14  O   UNL     1       3.945 -21.693  -6.634  1.00  0.00    -0.299 OA
BRANCH  13  15
ATOM     15  C   UNL     1       4.015 -19.479  -7.472  1.00  0.00     0.106 CG0
ATOM     16  G   UNL     1       4.723 -18.494  -6.545  1.00  0.00     0.000 G0
ENDBRANCH  13  15
ENDBRANCH  12  13
BRANCH  12  17
ATOM     17  C   UNL     1       0.888 -21.263  -7.465  1.00  0.00    -0.006 C 
ATOM     18  C   UNL     1       0.646 -22.753  -7.178  1.00  0.00     0.008 C 
ATOM     19  C   UNL     1       1.337 -21.064  -8.924  1.00  0.00     0.008 C 
ENDBRANCH  12  17
ENDBRANCH  11  12
ENDBRANCH   1  11
TORSDOF 1
ENDMDL
MODEL 4
REMARK VINA RESULT:    -3.757      1.499      3.858
REMARK INTER + INTRA:          -6.060
REMARK INTER:                  -5.778
REMARK INTRA:                  -0.282
REMARK UNBOUND:                -0.327
REMARK SMILES CC1=CCC[C@@H](C)C(=O)C[C@H](C(C)C)C(=O)C1
REMARK SMILES IDX 8 1 9 2 6 3 7 4 5 5 4 6 3 7 2 8 1 9 10 11 11 12 15 13 16 14
REMARK SMILES IDX 17 15 12 17 13 18 14 19
REMARK H PARENT
REMARK Flexibility Score: 70.00
ROOT
ATOM      1  C   UNL     1       3.030 -21.050  -6.950  1.00  0.00     0.136 C 
ATOM      2  O   UNL     1       3.041 -20.443  -8.009  1.00  0.00    -0.299 OA
ENDROOT
BRANCH   1   3
ATOM      3  C   UNL     1       1.699 -21.558  -6.417  1.00  0.00     0.053 C 
ATOM      4  C   UNL     1       0.882 -22.236  -7.524  1.00  0.00     0.016 C 
BRANCH   3   5
ATOM      5  C   UNL     1       0.893 -20.435  -5.735  1.00  0.00     0.015 C 
BRANCH   5   6
ATOM      6  C   UNL     1       0.890 -20.601  -4.205  1.00  0.00     0.028 C 
BRANCH   6   7
ATOM      7  C   UNL     1       1.537 -19.459  -3.461  1.00  0.00    -0.028 C 
ATOM      8  C   UNL     1       2.811 -19.418  -2.990  1.00  0.00    -0.070 CG0
ATOM      9  C   UNL     1       3.181 -18.238  -2.124  1.00  0.00     0.039 C 
ATOM     10  G   UNL     1       3.915 -20.402  -3.368  1.00  0.00     0.000 G0
ENDBRANCH   6   7
ENDBRANCH   5   6
ENDBRANCH   3   5
ENDBRANCH   1   3
BRANCH   1  11
ATOM     11  C   UNL     1       4.329 -21.244  -6.188  1.00  0.00     0.087 C 
BRANCH  11  12
ATOM     12  C   UNL     1       5.020 -19.945  -5.681  1.00  0.00     0.066 C 
BRANCH  12  13
ATOM     13  C   UNL     1       5.071 -19.834  -4.161  1.00  0.00     0.140 C 
ATOM     14  O   UNL     1       5.967 -19.210  -3.611  1.00  0.00    -0.299 OA
BRANCH  13  15
ATOM     15  C   UNL     1       3.931 -20.391  -3.344  1.00  0.00     0.106 CG0
ATOM     16  G   UNL     1       2.815 -19.410  -2.995  1.00  0.00     0.000 G0
ENDBRANCH  13  15
ENDBRANCH  12  13
BRANCH  12  17
ATOM     17  C   UNL     1       6.350 -19.591  -6.421  1.00  0.00    -0.006 C 
ATOM     18  C   UNL     1       6.167 -18.861  -7.761  1.00  0.00     0.008 C 
ATOM     19  C   UNL     1       7.247 -20.828  -6.603  1.00  0.00     0.008 C 
ENDBRANCH  12  17
ENDBRANCH  11  12
ENDBRANCH   1  11
TORSDOF 1
ENDMDL
MODEL 5
REMARK VINA RESULT:    -3.697      1.824      4.567
REMARK INTER + INTRA:          -5.969
REMARK INTER:                  -5.680
REMARK INTRA:                  -0.289
REMARK UNBOUND:                -0.327
REMARK SMILES CC1=CCC[C@@H](C)C(=O)C[C@H](C(C)C)C(=O)C1
REMARK SMILES IDX 8 1 9 2 6 3 7 4 5 5 4 6 3 7 2 8 1 9 10 11 11 12 15 13 16 14
REMARK SMILES IDX 17 15 12 17 13 18 14 19
REMARK H PARENT
REMARK Flexibility Score: 70.00
ROOT
ATOM      1  C   UNL     1       1.698 -19.979  -5.766  1.00  0.00     0.136 C 
ATOM      2  O   UNL     1       0.735 -20.351  -5.114  1.00  0.00    -0.299 OA
ENDROOT
BRANCH   1   3
ATOM      3  C   UNL     1       1.834 -20.464  -7.201  1.00  0.00     0.053 C 
ATOM      4  C   UNL     1       1.341 -21.908  -7.347  1.00  0.00     0.016 C 
BRANCH   3   5
ATOM      5  C   UNL     1       3.279 -20.312  -7.718  1.00  0.00     0.015 C 
BRANCH   5   6
ATOM      6  C   UNL     1       4.199 -21.393  -7.125  1.00  0.00     0.028 C 
BRANCH   6   7
ATOM      7  C   UNL     1       5.656 -21.002  -7.075  1.00  0.00    -0.028 C 
ATOM      8  C   UNL     1       6.345 -20.585  -5.981  1.00  0.00    -0.070 CG0
ATOM      9  C   UNL     1       7.750 -20.081  -6.210  1.00  0.00     0.039 C 
ATOM     10  G   UNL     1       5.853 -20.701  -4.541  1.00  0.00     0.000 G0
ENDBRANCH   6   7
ENDBRANCH   5   6
ENDBRANCH   3   5
ENDBRANCH   1   3
BRANCH   1  11
ATOM     11  C   UNL     1       2.735 -19.081  -5.118  1.00  0.00     0.087 C 
BRANCH  11  12
ATOM     12  C   UNL     1       3.515 -19.698  -3.921  1.00  0.00     0.066 C 
BRANCH  12  13
ATOM     13  C   UNL     1       5.027 -19.532  -4.026  1.00  0.00     0.140 C 
ATOM     14  O   UNL     1       5.574 -18.521  -3.611  1.00  0.00    -0.299 OA
BRANCH  13  15
ATOM     15  C   UNL     1       5.860 -20.685  -4.530  1.00  0.00     0.106 CG0
ATOM     16  G   UNL     1       6.329 -20.590  -5.980  1.00  0.00     0.000 G0
ENDBRANCH  13  15
ENDBRANCH  12  13
BRANCH  12  17
ATOM     17  C   UNL     1       2.905 -19.374  -2.518  1.00  0.00    -0.006 C 
ATOM     18  C   UNL     1       2.067 -20.506  -1.904  1.00  0.00     0.008 C 
ATOM     19  C   UNL     1       2.102 -18.062  -2.536  1.00  0.00     0.008 C 
ENDBRANCH  12  17
ENDBRANCH  11  12
ENDBRANCH   1  11
TORSDOF 1
ENDMDL
MODEL 6
REMARK VINA RESULT:    -3.643     10.691     12.633
REMARK INTER + INTRA:          -5.887
REMARK INTER:                  -5.876
REMARK INTRA:                  -0.011
REMARK UNBOUND:                -0.327
REMARK SMILES CC1=CCC[C@@H](C)C(=O)C[C@H](C(C)C)C(=O)C1
REMARK SMILES IDX 8 1 9 2 6 3 7 4 5 5 4 6 3 7 2 8 1 9 10 11 11 12 15 13 16 14
REMARK SMILES IDX 17 15 12 17 13 18 14 19
REMARK H PARENT
REMARK Flexibility Score: 70.00
ROOT
ATOM      1  C   UNL     1       5.051 -25.504   6.825  1.00  0.00     0.136 C 
ATOM      2  O   UNL     1       3.843 -25.382   6.699  1.00  0.00    -0.299 OA
ENDROOT
BRANCH   1   3
ATOM      3  C   UNL     1       5.727 -24.847   8.019  1.00  0.00     0.053 C 
ATOM      4  C   UNL     1       5.169 -25.390   9.340  1.00  0.00     0.016 C 
BRANCH   3   5
ATOM      5  C   UNL     1       5.621 -23.310   7.958  1.00  0.00     0.015 C 
BRANCH   5   6
ATOM      6  C   UNL     1       5.369 -22.825   6.519  1.00  0.00     0.028 C 
BRANCH   6   7
ATOM      7  C   UNL     1       6.624 -22.460   5.765  1.00  0.00    -0.028 C 
ATOM      8  C   UNL     1       6.996 -22.918   4.541  1.00  0.00    -0.070 CG0
ATOM      9  C   UNL     1       8.380 -22.546   4.063  1.00  0.00     0.039 C 
ATOM     10  G   UNL     1       6.084 -23.671   3.575  1.00  0.00     0.000 G0
ENDBRANCH   6   7
ENDBRANCH   5   6
ENDBRANCH   3   5
ENDBRANCH   1   3
BRANCH   1  11
ATOM     11  C   UNL     1       5.837 -26.269   5.776  1.00  0.00     0.087 C 
BRANCH  11  12
ATOM     12  C   UNL     1       5.371 -26.075   4.303  1.00  0.00     0.066 C 
BRANCH  12  13
ATOM     13  C   UNL     1       6.290 -25.174   3.485  1.00  0.00     0.140 C 
ATOM     14  O   UNL     1       7.105 -25.653   2.710  1.00  0.00    -0.299 OA
BRANCH  13  15
ATOM     15  C   UNL     1       6.096 -23.679   3.543  1.00  0.00     0.106 CG0
ATOM     16  G   UNL     1       6.978 -22.926   4.536  1.00  0.00     0.000 G0
ENDBRANCH  13  15
ENDBRANCH  12  13
BRANCH  12  17
ATOM     17  C   UNL     1       4.921 -27.392   3.591  1.00  0.00    -0.006 C 
ATOM     18  C   UNL     1       3.434 -27.739   3.758  1.00  0.00     0.008 C 
ATOM     19  C   UNL     1       5.800 -28.588   3.998  1.00  0.00     0.008 C 
ENDBRANCH  12  17
ENDBRANCH  11  12
ENDBRANCH   1  11
TORSDOF 1
ENDMDL
MODEL 7
REMARK VINA RESULT:    -3.617      1.724      3.704
REMARK INTER + INTRA:          -5.846
REMARK INTER:                  -5.903
REMARK INTRA:                   0.057
REMARK UNBOUND:                -0.327
REMARK SMILES CC1=CCC[C@@H](C)C(=O)C[C@H](C(C)C)C(=O)C1
REMARK SMILES IDX 8 1 9 2 6 3 7 4 5 5 4 6 3 7 2 8 1 9 10 11 11 12 15 13 16 14
REMARK SMILES IDX 17 15 12 17 13 18 14 19
REMARK H PARENT
REMARK Flexibility Score: 70.00
ROOT
ATOM      1  C   UNL     1       2.761 -19.803  -4.477  1.00  0.00     0.136 C 
ATOM      2  O   UNL     1       2.761 -18.670  -4.932  1.00  0.00    -0.299 OA
ENDROOT
BRANCH   1   3
ATOM      3  C   UNL     1       3.110 -19.996  -3.009  1.00  0.00     0.053 C 
ATOM      4  C   UNL     1       2.255 -19.092  -2.113  1.00  0.00     0.016 C 
BRANCH   3   5
ATOM      5  C   UNL     1       4.614 -19.779  -2.749  1.00  0.00     0.015 C 
BRANCH   5   6
ATOM      6  C   UNL     1       5.463 -20.835  -3.478  1.00  0.00     0.028 C 
BRANCH   6   7
ATOM      7  C   UNL     1       6.320 -20.277  -4.587  1.00  0.00    -0.028 C 
ATOM      8  C   UNL     1       6.266 -20.616  -5.901  1.00  0.00    -0.070 CG0
ATOM      9  C   UNL     1       7.342 -20.051  -6.798  1.00  0.00     0.039 C 
ATOM     10  G   UNL     1       5.142 -21.418  -6.551  1.00  0.00     0.000 G0
ENDBRANCH   6   7
ENDBRANCH   5   6
ENDBRANCH   3   5
ENDBRANCH   1   3
BRANCH   1  11
ATOM     11  C   UNL     1       2.449 -20.974  -5.391  1.00  0.00     0.087 C 
BRANCH  11  12
ATOM     12  C   UNL     1       2.646 -20.718  -6.914  1.00  0.00     0.066 C 
BRANCH  12  13
ATOM     13  C   UNL     1       4.109 -20.638  -7.335  1.00  0.00     0.140 C 
ATOM     14  O   UNL     1       4.464 -19.866  -8.214  1.00  0.00    -0.299 OA
BRANCH  13  15
ATOM     15  C   UNL     1       5.141 -21.427  -6.567  1.00  0.00     0.106 CG0
ATOM     16  G   UNL     1       6.259 -20.615  -5.918  1.00  0.00     0.000 G0
ENDBRANCH  13  15
ENDBRANCH  12  13
BRANCH  12  17
ATOM     17  C   UNL     1       1.732 -21.588  -7.837  1.00  0.00    -0.006 C 
ATOM     18  C   UNL     1       1.011 -20.810  -8.948  1.00  0.00     0.008 C 
ATOM     19  C   UNL     1       0.724 -22.417  -7.021  1.00  0.00     0.008 C 
ENDBRANCH  12  17
ENDBRANCH  11  12
ENDBRANCH   1  11
TORSDOF 1
ENDMDL
MODEL 8
REMARK VINA RESULT:    -3.581     11.374     13.011
REMARK INTER + INTRA:          -5.791
REMARK INTER:                  -5.461
REMARK INTRA:                  -0.330
REMARK UNBOUND:                -0.327
REMARK SMILES CC1=CCC[C@@H](C)C(=O)C[C@H](C(C)C)C(=O)C1
REMARK SMILES IDX 8 1 9 2 6 3 7 4 5 5 4 6 3 7 2 8 1 9 10 11 11 12 15 13 16 14
REMARK SMILES IDX 17 15 12 17 13 18 14 19
REMARK H PARENT
REMARK Flexibility Score: 70.00
ROOT
ATOM      1  C   UNL     1       4.514 -23.868   4.736  1.00  0.00     0.136 C 
ATOM      2  O   UNL     1       3.447 -23.857   5.329  1.00  0.00    -0.299 OA
ENDROOT
BRANCH   1   3
ATOM      3  C   UNL     1       5.459 -22.690   4.919  1.00  0.00     0.053 C 
ATOM      4  C   UNL     1       6.834 -22.982   4.307  1.00  0.00     0.016 C 
BRANCH   3   5
ATOM      5  C   UNL     1       5.581 -22.284   6.401  1.00  0.00     0.015 C 
BRANCH   5   6
ATOM      6  C   UNL     1       6.502 -23.248   7.169  1.00  0.00     0.028 C 
BRANCH   6   7
ATOM      7  C   UNL     1       5.795 -24.066   8.222  1.00  0.00    -0.028 C 
ATOM      8  C   UNL     1       5.447 -25.376   8.132  1.00  0.00    -0.070 CG0
ATOM      9  C   UNL     1       4.592 -25.934   9.244  1.00  0.00     0.039 C 
ATOM     10  G   UNL     1       5.953 -26.343   7.065  1.00  0.00     0.000 G0
ENDBRANCH   6   7
ENDBRANCH   5   6
ENDBRANCH   3   5
ENDBRANCH   1   3
BRANCH   1  11
ATOM     11  C   UNL     1       4.845 -25.030   3.817  1.00  0.00     0.087 C 
BRANCH  11  12
ATOM     12  C   UNL     1       5.575 -26.234   4.480  1.00  0.00     0.066 C 
BRANCH  12  13
ATOM     13  C   UNL     1       5.052 -26.574   5.871  1.00  0.00     0.140 C 
ATOM     14  O   UNL     1       3.963 -27.109   6.015  1.00  0.00    -0.299 OA
BRANCH  13  15
ATOM     15  C   UNL     1       5.950 -26.365   7.066  1.00  0.00     0.106 CG0
ATOM     16  G   UNL     1       5.442 -25.388   8.124  1.00  0.00     0.000 G0
ENDBRANCH  13  15
ENDBRANCH  12  13
BRANCH  12  17
ATOM     17  C   UNL     1       5.792 -27.457   3.531  1.00  0.00    -0.006 C 
ATOM     18  C   UNL     1       6.475 -28.667   4.186  1.00  0.00     0.008 C 
ATOM     19  C   UNL     1       6.534 -27.054   2.244  1.00  0.00     0.008 C 
ENDBRANCH  12  17
ENDBRANCH  11  12
ENDBRANCH   1  11
TORSDOF 1
ENDMDL
MODEL 9
REMARK VINA RESULT:    -3.501     13.003     15.185
REMARK INTER + INTRA:          -5.669
REMARK INTER:                  -5.249
REMARK INTRA:                  -0.421
REMARK UNBOUND:                -0.327
REMARK SMILES CC1=CCC[C@@H](C)C(=O)C[C@H](C(C)C)C(=O)C1
REMARK SMILES IDX 8 1 9 2 6 3 7 4 5 5 4 6 3 7 2 8 1 9 10 11 11 12 15 13 16 14
REMARK SMILES IDX 17 15 12 17 13 18 14 19
REMARK H PARENT
REMARK Flexibility Score: 70.00
ROOT
ATOM      1  C   UNL     1      -7.409 -27.584  -3.067  1.00  0.00     0.136 C 
ATOM      2  O   UNL     1      -7.762 -27.340  -4.210  1.00  0.00    -0.299 OA
ENDROOT
BRANCH   1   3
ATOM      3  C   UNL     1      -6.434 -28.728  -2.836  1.00  0.00     0.053 C 
ATOM      4  C   UNL     1      -5.045 -28.392  -3.392  1.00  0.00     0.016 C 
BRANCH   3   5
ATOM      5  C   UNL     1      -6.964 -30.054  -3.419  1.00  0.00     0.015 C 
BRANCH   5   6
ATOM      6  C   UNL     1      -8.225 -30.524  -2.674  1.00  0.00     0.028 C 
BRANCH   6   7
ATOM      7  C   UNL     1      -8.038 -30.683  -1.186  1.00  0.00    -0.028 C 
ATOM      8  C   UNL     1      -8.714 -30.024  -0.209  1.00  0.00    -0.070 CG0
ATOM      9  C   UNL     1      -8.232 -30.221   1.208  1.00  0.00     0.039 C 
ATOM     10  G   UNL     1      -9.983 -29.204  -0.426  1.00  0.00     0.000 G0
ENDBRANCH   6   7
ENDBRANCH   5   6
ENDBRANCH   3   5
ENDBRANCH   1   3
BRANCH   1  11
ATOM     11  C   UNL     1      -7.979 -26.768  -1.921  1.00  0.00     0.087 C 
BRANCH  11  12
ATOM     12  C   UNL     1      -9.502 -26.943  -1.653  1.00  0.00     0.066 C 
BRANCH  12  13
ATOM     13  C   UNL     1      -9.813 -27.694  -0.363  1.00  0.00     0.140 C 
ATOM     14  O   UNL     1     -10.019 -27.086   0.678  1.00  0.00    -0.299 OA
BRANCH  13  15
ATOM     15  C   UNL     1      -9.995 -29.191  -0.408  1.00  0.00     0.106 CG0
ATOM     16  G   UNL     1      -8.733 -30.026  -0.208  1.00  0.00     0.000 G0
ENDBRANCH  13  15
ENDBRANCH  12  13
BRANCH  12  17
ATOM     17  C   UNL     1     -10.351 -25.654  -1.896  1.00  0.00    -0.006 C 
ATOM     18  C   UNL     1     -10.769 -25.423  -3.357  1.00  0.00     0.008 C 
ATOM     19  C   UNL     1      -9.658 -24.401  -1.333  1.00  0.00     0.008 C 
ENDBRANCH  12  17
ENDBRANCH  11  12
ENDBRANCH   1  11
TORSDOF 1
ENDMDL
