MODEL 1
REMARK VINA RESULT:    35.049      0.000      0.000
REMARK INTER + INTRA:          42.901
REMARK INTER:                  43.245
REMARK INTRA:                  -0.345
REMARK UNBOUND:                -0.345
REMARK SMILES Oc1cc(O)c2cc(O)c(-c3cc(O)c(O)c(O)c3)[o+]c2c1
REMARK SMILES IDX 10 1 20 2 21 3 22 4 2 5 3 6 4 7 6 8 7 9 8 10 11 11 12 12
REMARK SMILES IDX 13 13 19 14 15 15 17 16 14 17 16 19 18 21 9 23 1 25 5 27
REMARK H PARENT 14 18 16 20 18 22 9 24 1 26 5 28
REMARK Flexibility Score: inf
ROOT
ATOM      1  C   UNL     1      96.339  73.899  54.503  1.00  0.00     0.402 A 
ATOM      2  O   UNL     1      96.787  73.227  53.446  1.00  0.00    -0.202 OA
ATOM      3  C   UNL     1      96.970  71.911  53.444  1.00  0.00     0.368 A 
ATOM      4  C   UNL     1      97.447  71.293  52.284  1.00  0.00     0.162 A 
ATOM      5  C   UNL     1      97.651  69.910  52.255  1.00  0.00     0.128 A 
ATOM      6  C   UNL     1      97.378  69.142  53.389  1.00  0.00     0.093 A 
ATOM      7  C   UNL     1      96.899  69.737  54.562  1.00  0.00     0.136 A 
ATOM      8  C   UNL     1      96.687  71.140  54.597  1.00  0.00     0.125 A 
ATOM      9  C   UNL     1      96.197  71.819  55.724  1.00  0.00     0.078 A 
ATOM     10  C   UNL     1      96.010  73.204  55.681  1.00  0.00     0.223 A 
ENDROOT
BRANCH   1  11
ATOM     11  C   UNL     1      96.187  75.368  54.386  1.00  0.00     0.091 A 
ATOM     12  C   UNL     1      95.137  75.894  53.617  1.00  0.00     0.068 A 
ATOM     13  C   UNL     1      94.980  77.275  53.472  1.00  0.00     0.162 A 
ATOM     14  C   UNL     1      97.104  76.249  54.983  1.00  0.00     0.068 A 
ATOM     15  C   UNL     1      95.888  78.153  54.088  1.00  0.00     0.200 A 
ATOM     16  C   UNL     1      96.956  77.636  54.842  1.00  0.00     0.162 A 
BRANCH  13  17
ATOM     17  O   UNL     1      93.915  77.758  52.712  1.00  0.00    -0.504 OA
ATOM     18  H   UNL     1      93.770  77.480  51.749  1.00  0.00     0.293 HD
ENDBRANCH  13  17
BRANCH  15  19
ATOM     19  O   UNL     1      95.723  79.531  53.941  1.00  0.00    -0.502 OA
ATOM     20  H   UNL     1      96.504  80.155  53.781  1.00  0.00     0.293 HD
ENDBRANCH  15  19
BRANCH  16  21
ATOM     21  O   UNL     1      97.869  78.500  55.443  1.00  0.00    -0.504 OA
ATOM     22  H   UNL     1      98.334  79.232  54.918  1.00  0.00     0.293 HD
ENDBRANCH  16  21
ENDBRANCH   1  11
BRANCH  10  23
ATOM     23  O   UNL     1      95.477  73.873  56.784  1.00  0.00    -0.500 OA
ATOM     24  H   UNL     1      95.924  73.841  57.692  1.00  0.00     0.294 HD
ENDBRANCH  10  23
BRANCH   5  25
ATOM     25  O   UNL     1      98.127  69.289  51.102  1.00  0.00    -0.507 OA
ATOM     26  H   UNL     1      98.579  68.382  51.136  1.00  0.00     0.293 HD
ENDBRANCH   5  25
BRANCH   7  27
ATOM     27  O   UNL     1      96.652  68.899  55.654  1.00  0.00    -0.507 OA
ATOM     28  H   UNL     1      95.735  68.706  56.029  1.00  0.00     0.293 HD
ENDBRANCH   7  27
TORSDOF 7
ENDMDL
MODEL 2
REMARK VINA RESULT:    35.363      3.108      6.870
REMARK INTER + INTRA:          43.288
REMARK INTER:                  43.541
REMARK INTRA:                  -0.253
REMARK UNBOUND:                -0.345
REMARK SMILES Oc1cc(O)c2cc(O)c(-c3cc(O)c(O)c(O)c3)[o+]c2c1
REMARK SMILES IDX 10 1 20 2 21 3 22 4 2 5 3 6 4 7 6 8 7 9 8 10 11 11 12 12
REMARK SMILES IDX 13 13 19 14 15 15 17 16 14 17 16 19 18 21 9 23 1 25 5 27
REMARK H PARENT 14 18 16 20 18 22 9 24 1 26 5 28
REMARK Flexibility Score: inf
ROOT
ATOM      1  C   UNL     1      95.982  72.715  55.683  1.00  0.00     0.402 A 
ATOM      2  O   UNL     1      96.756  73.617  56.281  1.00  0.00    -0.202 OA
ATOM      3  C   UNL     1      96.341  74.385  57.283  1.00  0.00     0.368 A 
ATOM      4  C   UNL     1      97.229  75.305  57.845  1.00  0.00     0.162 A 
ATOM      5  C   UNL     1      96.818  76.128  58.899  1.00  0.00     0.128 A 
ATOM      6  C   UNL     1      95.514  76.029  59.391  1.00  0.00     0.093 A 
ATOM      7  C   UNL     1      94.606  75.114  58.844  1.00  0.00     0.136 A 
ATOM      8  C   UNL     1      95.019  74.275  57.776  1.00  0.00     0.125 A 
ATOM      9  C   UNL     1      94.182  73.321  57.177  1.00  0.00     0.078 A 
ATOM     10  C   UNL     1      94.661  72.526  56.132  1.00  0.00     0.223 A 
ENDROOT
BRANCH   1  11
ATOM     11  C   UNL     1      96.556  71.926  54.569  1.00  0.00     0.091 A 
ATOM     12  C   UNL     1      96.818  70.560  54.754  1.00  0.00     0.068 A 
ATOM     13  C   UNL     1      97.377  69.793  53.728  1.00  0.00     0.162 A 
ATOM     14  C   UNL     1      96.898  72.527  53.346  1.00  0.00     0.068 A 
ATOM     15  C   UNL     1      97.699  70.395  52.499  1.00  0.00     0.200 A 
ATOM     16  C   UNL     1      97.461  71.768  52.311  1.00  0.00     0.162 A 
BRANCH  13  17
ATOM     17  O   UNL     1      97.609  68.436  53.947  1.00  0.00    -0.504 OA
ATOM     18  H   UNL     1      98.408  68.103  54.473  1.00  0.00     0.293 HD
ENDBRANCH  13  17
BRANCH  15  19
ATOM     19  O   UNL     1      98.255  69.623  51.478  1.00  0.00    -0.502 OA
ATOM     20  H   UNL     1      97.730  69.358  50.654  1.00  0.00     0.293 HD
ENDBRANCH  15  19
BRANCH  16  21
ATOM     21  O   UNL     1      97.791  72.373  51.101  1.00  0.00    -0.504 OA
ATOM     22  H   UNL     1      98.184  73.307  51.062  1.00  0.00     0.293 HD
ENDBRANCH  16  21
ENDBRANCH   1  11
BRANCH  10  23
ATOM     23  O   UNL     1      93.846  71.544  55.568  1.00  0.00    -0.500 OA
ATOM     24  H   UNL     1      92.999  71.780  55.065  1.00  0.00     0.294 HD
ENDBRANCH  10  23
BRANCH   5  25
ATOM     25  O   UNL     1      97.697  77.049  59.464  1.00  0.00    -0.507 OA
ATOM     26  H   UNL     1      97.415  78.003  59.657  1.00  0.00     0.293 HD
ENDBRANCH   5  25
BRANCH   7  27
ATOM     27  O   UNL     1      93.320  75.079  59.391  1.00  0.00    -0.507 OA
ATOM     28  H   UNL     1      93.116  75.178  60.375  1.00  0.00     0.293 HD
ENDBRANCH   7  27
TORSDOF 7
ENDMDL
MODEL 3
REMARK VINA RESULT:    36.696      3.040      7.038
REMARK INTER + INTRA:          44.933
REMARK INTER:                  45.077
REMARK INTRA:                  -0.144
REMARK UNBOUND:                -0.345
REMARK SMILES Oc1cc(O)c2cc(O)c(-c3cc(O)c(O)c(O)c3)[o+]c2c1
REMARK SMILES IDX 10 1 20 2 21 3 22 4 2 5 3 6 4 7 6 8 7 9 8 10 11 11 12 12
REMARK SMILES IDX 13 13 19 14 15 15 17 16 14 17 16 19 18 21 9 23 1 25 5 27
REMARK H PARENT 14 18 16 20 18 22 9 24 1 26 5 28
REMARK Flexibility Score: inf
ROOT
ATOM      1  C   UNL     1      96.348  73.140  55.916  1.00  0.00     0.402 A 
ATOM      2  O   UNL     1      95.115  73.156  56.414  1.00  0.00    -0.202 OA
ATOM      3  C   UNL     1      94.731  73.980  57.383  1.00  0.00     0.368 A 
ATOM      4  C   UNL     1      93.412  73.920  57.843  1.00  0.00     0.162 A 
ATOM      5  C   UNL     1      92.982  74.773  58.863  1.00  0.00     0.128 A 
ATOM      6  C   UNL     1      93.873  75.690  59.426  1.00  0.00     0.093 A 
ATOM      7  C   UNL     1      95.199  75.769  58.983  1.00  0.00     0.136 A 
ATOM      8  C   UNL     1      95.640  74.907  57.946  1.00  0.00     0.125 A 
ATOM      9  C   UNL     1      96.946  74.926  57.430  1.00  0.00     0.078 A 
ATOM     10  C   UNL     1      97.307  74.049  56.403  1.00  0.00     0.223 A 
ENDROOT
BRANCH   1  11
ATOM     11  C   UNL     1      96.659  72.167  54.844  1.00  0.00     0.091 A 
ATOM     12  C   UNL     1      96.529  70.793  55.101  1.00  0.00     0.068 A 
ATOM     13  C   UNL     1      96.834  69.850  54.115  1.00  0.00     0.162 A 
ATOM     14  C   UNL     1      97.136  72.585  53.591  1.00  0.00     0.068 A 
ATOM     15  C   UNL     1      97.291  70.274  52.856  1.00  0.00     0.200 A 
ATOM     16  C   UNL     1      97.445  71.647  52.596  1.00  0.00     0.162 A 
BRANCH  13  17
ATOM     17  O   UNL     1      96.678  68.495  54.405  1.00  0.00    -0.504 OA
ATOM     18  H   UNL     1      96.473  68.163  55.339  1.00  0.00     0.293 HD
ENDBRANCH  13  17
BRANCH  15  19
ATOM     19  O   UNL     1      97.590  69.326  51.875  1.00  0.00    -0.502 OA
ATOM     20  H   UNL     1      98.229  68.559  52.043  1.00  0.00     0.293 HD
ENDBRANCH  15  19
BRANCH  16  21
ATOM     21  O   UNL     1      97.912  72.074  51.354  1.00  0.00    -0.504 OA
ATOM     22  H   UNL     1      98.897  72.240  51.185  1.00  0.00     0.293 HD
ENDBRANCH  16  21
ENDBRANCH   1  11
BRANCH  10  23
ATOM     23  O   UNL     1      98.589  74.101  55.856  1.00  0.00    -0.500 OA
ATOM     24  H   UNL     1      99.417  74.008  56.432  1.00  0.00     0.294 HD
ENDBRANCH  10  23
BRANCH   5  25
ATOM     25  O   UNL     1      91.669  74.718  59.326  1.00  0.00    -0.507 OA
ATOM     26  H   UNL     1      91.447  74.832  60.309  1.00  0.00     0.293 HD
ENDBRANCH   5  25
BRANCH   7  27
ATOM     27  O   UNL     1      96.027  76.711  59.600  1.00  0.00    -0.507 OA
ATOM     28  H   UNL     1      95.887  77.710  59.557  1.00  0.00     0.293 HD
ENDBRANCH   7  27
TORSDOF 7
ENDMDL
