MODEL 1
REMARK VINA RESULT:    -3.272      0.000      0.000
REMARK INTER + INTRA:          -5.399
REMARK INTER:                  -4.515
REMARK INTRA:                  -0.884
REMARK UNBOUND:                -0.884
REMARK SMILES OC[C@@H](O)[C@H](O)[C@@H](O)CO
REMARK SMILES IDX 5 1 3 2 2 3 1 4 4 6 7 8 9 9 10 10 8 12 6 14
REMARK H PARENT 1 5 4 7 10 11 8 13 6 15
REMARK Flexibility Score: inf
ROOT
ATOM      1  C   UNL     1     144.096 143.277 109.681  1.00  0.00     0.176 C 
ENDROOT
BRANCH   1   2
ATOM      2  C   UNL     1     143.942 144.660 110.378  1.00  0.00     0.171 C 
BRANCH   2   3
ATOM      3  C   UNL     1     144.802 144.800 111.648  1.00  0.00     0.190 C 
BRANCH   3   4
ATOM      4  O   UNL     1     146.143 144.474 111.397  1.00  0.00    -0.394 OA
ATOM      5  H   UNL     1     146.240 144.402 110.411  1.00  0.00     0.210 HD
ENDBRANCH   3   4
ENDBRANCH   2   3
BRANCH   2   6
ATOM      6  O   UNL     1     144.303 145.681 109.482  1.00  0.00    -0.388 OA
ATOM      7  H   UNL     1     144.966 145.296 108.851  1.00  0.00     0.211 HD
ENDBRANCH   2   6
ENDBRANCH   1   2
BRANCH   1   8
ATOM      8  C   UNL     1     144.966 143.325 108.391  1.00  0.00     0.171 C 
BRANCH   8   9
ATOM      9  C   UNL     1     145.020 141.975 107.647  1.00  0.00     0.190 C 
BRANCH   9  10
ATOM     10  O   UNL     1     146.083 141.175 108.098  1.00  0.00    -0.394 OA
ATOM     11  H   UNL     1     146.856 141.359 107.502  1.00  0.00     0.210 HD
ENDBRANCH   9  10
ENDBRANCH   8   9
BRANCH   8  12
ATOM     12  O   UNL     1     146.258 143.826 108.637  1.00  0.00    -0.388 OA
ATOM     13  H   UNL     1     146.253 144.800 108.450  1.00  0.00     0.211 HD
ENDBRANCH   8  12
ENDBRANCH   1   8
BRANCH   1  14
ATOM     14  O   UNL     1     144.586 142.320 110.588  1.00  0.00    -0.388 OA
ATOM     15  H   UNL     1     145.495 142.054 110.293  1.00  0.00     0.211 HD
ENDBRANCH   1  14
TORSDOF 9
ENDMDL
MODEL 2
REMARK VINA RESULT:    -3.226      2.103      2.923
REMARK INTER + INTRA:          -5.336
REMARK INTER:                  -4.403
REMARK INTRA:                  -0.933
REMARK UNBOUND:                -0.884
REMARK SMILES OC[C@@H](O)[C@H](O)[C@@H](O)CO
REMARK SMILES IDX 5 1 3 2 2 3 1 4 4 6 7 8 9 9 10 10 8 12 6 14
REMARK H PARENT 1 5 4 7 10 11 8 13 6 15
REMARK Flexibility Score: inf
ROOT
ATOM      1  C   UNL     1     144.877 144.295 110.424  1.00  0.00     0.176 C 
ENDROOT
BRANCH   1   2
ATOM      2  C   UNL     1     145.405 144.637 111.847  1.00  0.00     0.171 C 
BRANCH   2   3
ATOM      3  C   UNL     1     146.854 145.157 111.851  1.00  0.00     0.190 C 
BRANCH   3   4
ATOM      4  O   UNL     1     146.985 146.313 111.065  1.00  0.00    -0.394 OA
ATOM      5  H   UNL     1     146.942 146.020 110.118  1.00  0.00     0.210 HD
ENDBRANCH   3   4
ENDBRANCH   2   3
BRANCH   2   6
ATOM      6  O   UNL     1     144.580 145.615 112.432  1.00  0.00    -0.388 OA
ATOM      7  H   UNL     1     144.196 146.154 111.692  1.00  0.00     0.211 HD
ENDBRANCH   2   6
ENDBRANCH   1   2
BRANCH   1   8
ATOM      8  C   UNL     1     143.803 145.294 109.903  1.00  0.00     0.171 C 
BRANCH   8   9
ATOM      9  C   UNL     1     143.267 144.930 108.502  1.00  0.00     0.190 C 
BRANCH   9  10
ATOM     10  O   UNL     1     144.147 145.338 107.487  1.00  0.00    -0.394 OA
ATOM     11  H   UNL     1     143.621 145.373 106.646  1.00  0.00     0.210 HD
ENDBRANCH   9  10
ENDBRANCH   8   9
BRANCH   8  12
ATOM     12  O   UNL     1     144.248 146.629 109.949  1.00  0.00    -0.388 OA
ATOM     13  H   UNL     1     144.018 147.000 110.839  1.00  0.00     0.211 HD
ENDBRANCH   8  12
ENDBRANCH   1   8
BRANCH   1  14
ATOM     14  O   UNL     1     145.947 144.181 109.517  1.00  0.00    -0.388 OA
ATOM     15  H   UNL     1     146.041 143.225 109.271  1.00  0.00     0.211 HD
ENDBRANCH   1  14
TORSDOF 9
ENDMDL
MODEL 3
REMARK VINA RESULT:    -3.210      1.347      4.228
REMARK INTER + INTRA:          -5.313
REMARK INTER:                  -4.622
REMARK INTRA:                  -0.692
REMARK UNBOUND:                -0.884
REMARK SMILES OC[C@@H](O)[C@H](O)[C@@H](O)CO
REMARK SMILES IDX 5 1 3 2 2 3 1 4 4 6 7 8 9 9 10 10 8 12 6 14
REMARK H PARENT 1 5 4 7 10 11 8 13 6 15
REMARK Flexibility Score: inf
ROOT
ATOM      1  C   UNL     1     145.154 144.649 110.917  1.00  0.00     0.176 C 
ENDROOT
BRANCH   1   2
ATOM      2  C   UNL     1     144.330 143.688 110.012  1.00  0.00     0.171 C 
BRANCH   2   3
ATOM      3  C   UNL     1     144.781 143.702 108.540  1.00  0.00     0.190 C 
BRANCH   3   4
ATOM      4  O   UNL     1     145.856 142.825 108.326  1.00  0.00    -0.394 OA
ATOM      5  H   UNL     1     146.506 142.988 109.058  1.00  0.00     0.210 HD
ENDBRANCH   3   4
ENDBRANCH   2   3
BRANCH   2   6
ATOM      6  O   UNL     1     144.439 142.374 110.498  1.00  0.00    -0.388 OA
ATOM      7  H   UNL     1     143.593 142.166 110.974  1.00  0.00     0.211 HD
ENDBRANCH   2   6
ENDBRANCH   1   2
BRANCH   1   8
ATOM      8  C   UNL     1     145.073 144.297 112.432  1.00  0.00     0.171 C 
BRANCH   8   9
ATOM      9  C   UNL     1     145.396 145.495 113.349  1.00  0.00     0.190 C 
BRANCH   9  10
ATOM     10  O   UNL     1     146.653 146.049 113.058  1.00  0.00    -0.394 OA
ATOM     11  H   UNL     1     146.707 146.139 112.071  1.00  0.00     0.210 HD
ENDBRANCH   9  10
ENDBRANCH   8   9
BRANCH   8  12
ATOM     12  O   UNL     1     145.856 143.175 112.762  1.00  0.00    -0.388 OA
ATOM     13  H   UNL     1     146.756 143.299 112.364  1.00  0.00     0.211 HD
ENDBRANCH   8  12
ENDBRANCH   1   8
BRANCH   1  14
ATOM     14  O   UNL     1     146.491 144.710 110.481  1.00  0.00    -0.388 OA
ATOM     15  H   UNL     1     147.047 145.027 111.239  1.00  0.00     0.211 HD
ENDBRANCH   1  14
TORSDOF 9
ENDMDL
MODEL 4
REMARK VINA RESULT:    -3.197      1.684      3.948
REMARK INTER + INTRA:          -5.296
REMARK INTER:                  -4.334
REMARK INTRA:                  -0.961
REMARK UNBOUND:                -0.884
REMARK SMILES OC[C@@H](O)[C@H](O)[C@@H](O)CO
REMARK SMILES IDX 5 1 3 2 2 3 1 4 4 6 7 8 9 9 10 10 8 12 6 14
REMARK H PARENT 1 5 4 7 10 11 8 13 6 15
REMARK Flexibility Score: inf
ROOT
ATOM      1  C   UNL     1     144.194 145.050 110.671  1.00  0.00     0.176 C 
ENDROOT
BRANCH   1   2
ATOM      2  C   UNL     1     144.512 144.049 109.522  1.00  0.00     0.171 C 
BRANCH   2   3
ATOM      3  C   UNL     1     143.692 144.307 108.245  1.00  0.00     0.190 C 
BRANCH   3   4
ATOM      4  O   UNL     1     144.125 145.468 107.585  1.00  0.00    -0.394 OA
ATOM      5  H   UNL     1     143.515 146.200 107.863  1.00  0.00     0.210 HD
ENDBRANCH   3   4
ENDBRANCH   2   3
BRANCH   2   6
ATOM      6  O   UNL     1     145.877 144.125 109.197  1.00  0.00    -0.388 OA
ATOM      7  H   UNL     1     146.300 143.284 109.512  1.00  0.00     0.211 HD
ENDBRANCH   2   6
ENDBRANCH   1   2
BRANCH   1   8
ATOM      8  C   UNL     1     144.889 144.691 112.017  1.00  0.00     0.171 C 
BRANCH   8   9
ATOM      9  C   UNL     1     146.056 145.639 112.366  1.00  0.00     0.190 C 
BRANCH   9  10
ATOM     10  O   UNL     1     147.051 145.625 111.375  1.00  0.00    -0.394 OA
ATOM     11  H   UNL     1     146.639 145.241 110.557  1.00  0.00     0.210 HD
ENDBRANCH   9  10
ENDBRANCH   8   9
BRANCH   8  12
ATOM     12  O   UNL     1     145.292 143.344 112.067  1.00  0.00    -0.388 OA
ATOM     13  H   UNL     1     144.479 142.781 112.131  1.00  0.00     0.211 HD
ENDBRANCH   8  12
ENDBRANCH   1   8
BRANCH   1  14
ATOM     14  O   UNL     1     144.500 146.365 110.276  1.00  0.00    -0.388 OA
ATOM     15  H   UNL     1     143.669 146.785 109.934  1.00  0.00     0.211 HD
ENDBRANCH   1  14
TORSDOF 9
ENDMDL
MODEL 5
REMARK VINA RESULT:    -3.165      1.155      2.134
REMARK INTER + INTRA:          -5.252
REMARK INTER:                  -4.300
REMARK INTRA:                  -0.952
REMARK UNBOUND:                -0.884
REMARK SMILES OC[C@@H](O)[C@H](O)[C@@H](O)CO
REMARK SMILES IDX 5 1 3 2 2 3 1 4 4 6 7 8 9 9 10 10 8 12 6 14
REMARK H PARENT 1 5 4 7 10 11 8 13 6 15
REMARK Flexibility Score: inf
ROOT
ATOM      1  C   UNL     1     144.036 143.699 110.755  1.00  0.00     0.176 C 
ENDROOT
BRANCH   1   2
ATOM      2  C   UNL     1     144.894 144.473 111.798  1.00  0.00     0.171 C 
BRANCH   2   3
ATOM      3  C   UNL     1     144.907 143.811 113.188  1.00  0.00     0.190 C 
BRANCH   3   4
ATOM      4  O   UNL     1     145.596 142.588 113.167  1.00  0.00    -0.394 OA
ATOM      5  H   UNL     1     144.921 141.883 112.991  1.00  0.00     0.210 HD
ENDBRANCH   3   4
ENDBRANCH   2   3
BRANCH   2   6
ATOM      6  O   UNL     1     146.220 144.567 111.339  1.00  0.00    -0.388 OA
ATOM      7  H   UNL     1     146.237 145.269 110.637  1.00  0.00     0.211 HD
ENDBRANCH   2   6
ENDBRANCH   1   2
BRANCH   1   8
ATOM      8  C   UNL     1     143.926 144.423 109.381  1.00  0.00     0.171 C 
BRANCH   8   9
ATOM      9  C   UNL     1     144.762 143.748 108.274  1.00  0.00     0.190 C 
BRANCH   9  10
ATOM     10  O   UNL     1     146.133 143.759 108.578  1.00  0.00    -0.394 OA
ATOM     11  H   UNL     1     146.515 142.916 108.218  1.00  0.00     0.210 HD
ENDBRANCH   9  10
ENDBRANCH   8   9
BRANCH   8  12
ATOM     12  O   UNL     1     144.218 145.797 109.477  1.00  0.00    -0.388 OA
ATOM     13  H   UNL     1     145.139 145.892 109.832  1.00  0.00     0.211 HD
ENDBRANCH   8  12
ENDBRANCH   1   8
BRANCH   1  14
ATOM     14  O   UNL     1     144.516 142.385 110.600  1.00  0.00    -0.388 OA
ATOM     15  H   UNL     1     144.753 142.037 111.498  1.00  0.00     0.211 HD
ENDBRANCH   1  14
TORSDOF 9
ENDMDL
MODEL 6
REMARK VINA RESULT:    -3.115     19.250     20.300
REMARK INTER + INTRA:          -5.182
REMARK INTER:                  -4.225
REMARK INTRA:                  -0.957
REMARK UNBOUND:                -0.884
REMARK SMILES OC[C@@H](O)[C@H](O)[C@@H](O)CO
REMARK SMILES IDX 5 1 3 2 2 3 1 4 4 6 7 8 9 9 10 10 8 12 6 14
REMARK H PARENT 1 5 4 7 10 11 8 13 6 15
REMARK Flexibility Score: inf
ROOT
ATOM      1  C   UNL     1     129.530 130.347 108.202  1.00  0.00     0.176 C 
ENDROOT
BRANCH   1   2
ATOM      2  C   UNL     1     129.776 130.671 109.705  1.00  0.00     0.171 C 
BRANCH   2   3
ATOM      3  C   UNL     1     128.538 130.433 110.589  1.00  0.00     0.190 C 
BRANCH   3   4
ATOM      4  O   UNL     1     128.404 129.078 110.929  1.00  0.00    -0.394 OA
ATOM      5  H   UNL     1     128.112 128.604 110.108  1.00  0.00     0.210 HD
ENDBRANCH   3   4
ENDBRANCH   2   3
BRANCH   2   6
ATOM      6  O   UNL     1     130.828 129.876 110.191  1.00  0.00    -0.388 OA
ATOM      7  H   UNL     1     131.008 129.178 109.507  1.00  0.00     0.211 HD
ENDBRANCH   2   6
ENDBRANCH   1   2
BRANCH   1   8
ATOM      8  C   UNL     1     130.810 130.473 107.323  1.00  0.00     0.171 C 
BRANCH   8   9
ATOM      9  C   UNL     1     131.343 129.110 106.834  1.00  0.00     0.190 C 
BRANCH   9  10
ATOM     10  O   UNL     1     131.721 128.285 107.906  1.00  0.00    -0.394 OA
ATOM     11  H   UNL     1     132.712 128.319 107.961  1.00  0.00     0.210 HD
ENDBRANCH   9  10
ENDBRANCH   8   9
BRANCH   8  12
ATOM     12  O   UNL     1     131.821 131.220 107.956  1.00  0.00    -0.388 OA
ATOM     13  H   UNL     1     132.191 130.674 108.696  1.00  0.00     0.211 HD
ENDBRANCH   8  12
ENDBRANCH   1   8
BRANCH   1  14
ATOM     14  O   UNL     1     128.941 129.077 108.062  1.00  0.00    -0.388 OA
ATOM     15  H   UNL     1     129.582 128.401 108.401  1.00  0.00     0.211 HD
ENDBRANCH   1  14
TORSDOF 9
ENDMDL
MODEL 7
REMARK VINA RESULT:    -3.091     13.753     15.518
REMARK INTER + INTRA:          -5.150
REMARK INTER:                  -4.230
REMARK INTRA:                  -0.920
REMARK UNBOUND:                -0.884
REMARK SMILES OC[C@@H](O)[C@H](O)[C@@H](O)CO
REMARK SMILES IDX 5 1 3 2 2 3 1 4 4 6 7 8 9 9 10 10 8 12 6 14
REMARK H PARENT 1 5 4 7 10 11 8 13 6 15
REMARK Flexibility Score: inf
ROOT
ATOM      1  C   UNL     1     141.424 129.432 108.743  1.00  0.00     0.176 C 
ENDROOT
BRANCH   1   2
ATOM      2  C   UNL     1     142.329 129.193 107.500  1.00  0.00     0.171 C 
BRANCH   2   3
ATOM      3  C   UNL     1     143.441 130.247 107.344  1.00  0.00     0.190 C 
BRANCH   3   4
ATOM      4  O   UNL     1     144.522 129.980 108.198  1.00  0.00    -0.394 OA
ATOM      5  H   UNL     1     145.343 130.261 107.717  1.00  0.00     0.210 HD
ENDBRANCH   3   4
ENDBRANCH   2   3
BRANCH   2   6
ATOM      6  O   UNL     1     142.929 127.925 107.592  1.00  0.00    -0.388 OA
ATOM      7  H   UNL     1     143.862 128.018 107.264  1.00  0.00     0.211 HD
ENDBRANCH   2   6
ENDBRANCH   1   2
BRANCH   1   8
ATOM      8  C   UNL     1     140.314 128.354 108.918  1.00  0.00     0.171 C 
BRANCH   8   9
ATOM      9  C   UNL     1     140.484 127.515 110.202  1.00  0.00     0.190 C 
BRANCH   9  10
ATOM     10  O   UNL     1     141.735 126.879 110.246  1.00  0.00    -0.394 OA
ATOM     11  H   UNL     1     141.560 125.902 110.290  1.00  0.00     0.210 HD
ENDBRANCH   9  10
ENDBRANCH   8   9
BRANCH   8  12
ATOM     12  O   UNL     1     140.184 127.531 107.784  1.00  0.00    -0.388 OA
ATOM     13  H   UNL     1     139.925 126.624 108.089  1.00  0.00     0.211 HD
ENDBRANCH   8  12
ENDBRANCH   1   8
BRANCH   1  14
ATOM     14  O   UNL     1     142.206 129.549 109.906  1.00  0.00    -0.388 OA
ATOM     15  H   UNL     1     142.589 130.464 109.928  1.00  0.00     0.211 HD
ENDBRANCH   1  14
TORSDOF 9
ENDMDL
MODEL 8
REMARK VINA RESULT:    -3.082     18.993     19.727
REMARK INTER + INTRA:          -5.137
REMARK INTER:                  -4.429
REMARK INTRA:                  -0.709
REMARK UNBOUND:                -0.884
REMARK SMILES OC[C@@H](O)[C@H](O)[C@@H](O)CO
REMARK SMILES IDX 5 1 3 2 2 3 1 4 4 6 7 8 9 9 10 10 8 12 6 14
REMARK H PARENT 1 5 4 7 10 11 8 13 6 15
REMARK Flexibility Score: inf
ROOT
ATOM      1  C   UNL     1     131.893 129.300 107.740  1.00  0.00     0.176 C 
ENDROOT
BRANCH   1   2
ATOM      2  C   UNL     1     131.771 130.172 109.023  1.00  0.00     0.171 C 
BRANCH   2   3
ATOM      3  C   UNL     1     130.317 130.533 109.379  1.00  0.00     0.190 C 
BRANCH   3   4
ATOM      4  O   UNL     1     129.705 129.515 110.126  1.00  0.00    -0.394 OA
ATOM      5  H   UNL     1     129.730 129.803 111.075  1.00  0.00     0.210 HD
ENDBRANCH   3   4
ENDBRANCH   2   3
BRANCH   2   6
ATOM      6  O   UNL     1     132.338 129.487 110.112  1.00  0.00    -0.388 OA
ATOM      7  H   UNL     1     131.595 129.042 110.597  1.00  0.00     0.211 HD
ENDBRANCH   2   6
ENDBRANCH   1   2
BRANCH   1   8
ATOM      8  C   UNL     1     133.210 128.472 107.675  1.00  0.00     0.171 C 
BRANCH   8   9
ATOM      9  C   UNL     1     133.718 128.257 106.234  1.00  0.00     0.190 C 
BRANCH   9  10
ATOM     10  O   UNL     1     132.715 128.515 105.285  1.00  0.00    -0.394 OA
ATOM     11  H   UNL     1     133.079 128.248 104.400  1.00  0.00     0.210 HD
ENDBRANCH   9  10
ENDBRANCH   8   9
BRANCH   8  12
ATOM     12  O   UNL     1     133.108 127.252 108.368  1.00  0.00    -0.388 OA
ATOM     13  H   UNL     1     133.903 127.162 108.954  1.00  0.00     0.211 HD
ENDBRANCH   8  12
ENDBRANCH   1   8
BRANCH   1  14
ATOM     14  O   UNL     1     130.764 128.472 107.599  1.00  0.00    -0.388 OA
ATOM     15  H   UNL     1     130.953 127.614 108.061  1.00  0.00     0.211 HD
ENDBRANCH   1  14
TORSDOF 9
ENDMDL
MODEL 9
REMARK VINA RESULT:    -3.071     19.242     20.300
REMARK INTER + INTRA:          -5.122
REMARK INTER:                  -4.211
REMARK INTRA:                  -0.910
REMARK UNBOUND:                -0.884
REMARK SMILES OC[C@@H](O)[C@H](O)[C@@H](O)CO
REMARK SMILES IDX 5 1 3 2 2 3 1 4 4 6 7 8 9 9 10 10 8 12 6 14
REMARK H PARENT 1 5 4 7 10 11 8 13 6 15
REMARK Flexibility Score: inf
ROOT
ATOM      1  C   UNL     1     131.256 130.385 108.690  1.00  0.00     0.176 C 
ENDROOT
BRANCH   1   2
ATOM      2  C   UNL     1     131.386 129.414 107.481  1.00  0.00     0.171 C 
BRANCH   2   3
ATOM      3  C   UNL     1     132.774 128.755 107.374  1.00  0.00     0.190 C 
BRANCH   3   4
ATOM      4  O   UNL     1     132.859 127.610 108.181  1.00  0.00    -0.394 OA
ATOM      5  H   UNL     1     133.536 127.016 107.763  1.00  0.00     0.210 HD
ENDBRANCH   3   4
ENDBRANCH   2   3
BRANCH   2   6
ATOM      6  O   UNL     1     130.419 128.399 107.587  1.00  0.00    -0.388 OA
ATOM      7  H   UNL     1     130.907 127.540 107.691  1.00  0.00     0.211 HD
ENDBRANCH   2   6
ENDBRANCH   1   2
BRANCH   1   8
ATOM      8  C   UNL     1     129.834 131.001 108.842  1.00  0.00     0.171 C 
BRANCH   8   9
ATOM      9  C   UNL     1     129.122 130.563 110.138  1.00  0.00     0.190 C 
BRANCH   9  10
ATOM     10  O   UNL     1     129.020 129.165 110.230  1.00  0.00    -0.394 OA
ATOM     11  H   UNL     1     129.918 128.826 110.481  1.00  0.00     0.210 HD
ENDBRANCH   9  10
ENDBRANCH   8   9
BRANCH   8  12
ATOM     12  O   UNL     1     129.028 130.768 107.712  1.00  0.00    -0.388 OA
ATOM     13  H   UNL     1     128.497 129.947 107.875  1.00  0.00     0.211 HD
ENDBRANCH   8  12
ENDBRANCH   1   8
BRANCH   1  14
ATOM     14  O   UNL     1     131.663 129.749 109.878  1.00  0.00    -0.388 OA
ATOM     15  H   UNL     1     131.773 128.782 109.686  1.00  0.00     0.211 HD
ENDBRANCH   1  14
TORSDOF 9
ENDMDL
