MODEL 1
REMARK VINA RESULT:    -2.553      0.000      0.000
REMARK INTER + INTRA:          -4.809
REMARK INTER:                  -4.045
REMARK INTRA:                  -0.764
REMARK UNBOUND:                -0.764
REMARK SMILES CCCCCCCCCCCC(=O)[O-]
REMARK SMILES IDX 7 1 8 2 9 3 10 4 11 5 12 6 13 7 14 8 6 9 5 10 4 11 3 12 2 13
REMARK SMILES IDX 1 14
REMARK H PARENT
REMARK Flexibility Score: inf
ROOT
ATOM      1  C   UNL     1     -10.471 -20.141  15.997  1.00  0.00     0.000 C 
ENDROOT
BRANCH   1   2
ATOM      2  C   UNL     1     -11.125 -21.429  16.521  1.00  0.00     0.000 C 
BRANCH   2   3
ATOM      3  C   UNL     1     -10.236 -22.174  17.530  1.00  0.00     0.000 C 
BRANCH   3   4
ATOM      4  C   UNL     1     -10.616 -21.875  18.988  1.00  0.00     0.006 C 
BRANCH   4   5
ATOM      5  C   UNL     1      -9.640 -20.874  19.614  1.00  0.00     0.053 C 
BRANCH   5   6
ATOM      6  C   UNL     1     -10.383 -19.818  20.368  1.00  0.00     0.041 C 
ATOM      7  O   UNL     1     -10.563 -19.934  21.609  1.00  0.00    -0.550 OA
ATOM      8  O   UNL     1     -10.834 -18.681  19.711  1.00  0.00    -0.550 OA
ENDBRANCH   5   6
ENDBRANCH   4   5
ENDBRANCH   3   4
ENDBRANCH   2   3
ENDBRANCH   1   2
BRANCH   1   9
ATOM      9  C   UNL     1     -10.111 -20.272  14.511  1.00  0.00     0.000 C 
BRANCH   9  10
ATOM     10  C   UNL     1      -8.823 -21.079  14.276  1.00  0.00    -0.000 C 
BRANCH  10  11
ATOM     11  C   UNL     1      -7.718 -20.795  15.315  1.00  0.00    -0.000 C 
BRANCH  11  12
ATOM     12  C   UNL     1      -7.012 -22.082  15.779  1.00  0.00    -0.000 C 
BRANCH  12  13
ATOM     13  C   UNL     1      -5.526 -21.859  16.096  1.00  0.00    -0.003 C 
ATOM     14  C   UNL     1      -4.983 -22.860  17.115  1.00  0.00     0.004 C 
ENDBRANCH  12  13
ENDBRANCH  11  12
ENDBRANCH  10  11
ENDBRANCH   9  10
ENDBRANCH   1   9
TORSDOF 10
ENDMDL
MODEL 2
REMARK VINA RESULT:    -2.497      3.468      6.315
REMARK INTER + INTRA:          -4.721
REMARK INTER:                  -3.918
REMARK INTRA:                  -0.803
REMARK UNBOUND:                -0.764
REMARK SMILES CCCCCCCCCCCC(=O)[O-]
REMARK SMILES IDX 7 1 8 2 9 3 10 4 11 5 12 6 13 7 14 8 6 9 5 10 4 11 3 12 2 13
REMARK SMILES IDX 1 14
REMARK H PARENT
REMARK Flexibility Score: inf
ROOT
ATOM      1  C   UNL     1     -10.498 -22.047  19.661  1.00  0.00     0.000 C 
ENDROOT
BRANCH   1   2
ATOM      2  C   UNL     1      -9.071 -21.720  19.197  1.00  0.00     0.000 C 
BRANCH   2   3
ATOM      3  C   UNL     1      -8.415 -22.884  18.437  1.00  0.00     0.000 C 
BRANCH   3   4
ATOM      4  C   UNL     1      -6.890 -22.734  18.324  1.00  0.00     0.006 C 
BRANCH   4   5
ATOM      5  C   UNL     1      -6.404 -23.125  16.926  1.00  0.00     0.053 C 
BRANCH   5   6
ATOM      6  C   UNL     1      -6.429 -21.941  16.011  1.00  0.00     0.041 C 
ATOM      7  O   UNL     1      -7.519 -21.541  15.525  1.00  0.00    -0.550 OA
ATOM      8  O   UNL     1      -5.257 -21.250  15.735  1.00  0.00    -0.550 OA
ENDBRANCH   5   6
ENDBRANCH   4   5
ENDBRANCH   3   4
ENDBRANCH   2   3
ENDBRANCH   1   2
BRANCH   1   9
ATOM      9  C   UNL     1     -11.089 -20.893  20.482  1.00  0.00     0.000 C 
BRANCH   9  10
ATOM     10  C   UNL     1     -10.026 -20.126  21.288  1.00  0.00    -0.000 C 
BRANCH  10  11
ATOM     11  C   UNL     1      -9.886 -20.614  22.746  1.00  0.00    -0.000 C 
BRANCH  11  12
ATOM     12  C   UNL     1      -8.626 -21.473  22.952  1.00  0.00    -0.000 C 
BRANCH  12  13
ATOM     13  C   UNL     1      -8.938 -22.837  23.583  1.00  0.00    -0.003 C 
ATOM     14  C   UNL     1     -10.435 -23.067  23.787  1.00  0.00     0.004 C 
ENDBRANCH  12  13
ENDBRANCH  11  12
ENDBRANCH  10  11
ENDBRANCH   9  10
ENDBRANCH   1   9
TORSDOF 10
ENDMDL
MODEL 3
REMARK VINA RESULT:    -2.459      2.862      4.905
REMARK INTER + INTRA:          -4.661
REMARK INTER:                  -3.794
REMARK INTRA:                  -0.867
REMARK UNBOUND:                -0.764
REMARK SMILES CCCCCCCCCCCC(=O)[O-]
REMARK SMILES IDX 7 1 8 2 9 3 10 4 11 5 12 6 13 7 14 8 6 9 5 10 4 11 3 12 2 13
REMARK SMILES IDX 1 14
REMARK H PARENT
REMARK Flexibility Score: inf
ROOT
ATOM      1  C   UNL     1      -9.798 -19.954  20.452  1.00  0.00     0.000 C 
ENDROOT
BRANCH   1   2
ATOM      2  C   UNL     1     -10.919 -20.144  21.485  1.00  0.00     0.000 C 
BRANCH   2   3
ATOM      3  C   UNL     1     -10.383 -20.489  22.883  1.00  0.00     0.000 C 
BRANCH   3   4
ATOM      4  C   UNL     1     -10.891 -21.846  23.394  1.00  0.00     0.006 C 
BRANCH   4   5
ATOM      5  C   UNL     1     -10.159 -23.000  22.702  1.00  0.00     0.053 C 
BRANCH   5   6
ATOM      6  C   UNL     1      -8.707 -22.989  23.059  1.00  0.00     0.041 C 
ATOM      7  O   UNL     1      -8.351 -23.042  24.265  1.00  0.00    -0.550 OA
ATOM      8  O   UNL     1      -7.744 -22.970  22.058  1.00  0.00    -0.550 OA
ENDBRANCH   5   6
ENDBRANCH   4   5
ENDBRANCH   3   4
ENDBRANCH   2   3
ENDBRANCH   1   2
BRANCH   1   9
ATOM      9  C   UNL     1      -9.582 -21.233  19.632  1.00  0.00     0.000 C 
BRANCH   9  10
ATOM     10  C   UNL     1     -10.848 -21.688  18.887  1.00  0.00    -0.000 C 
BRANCH  10  11
ATOM     11  C   UNL     1     -10.555 -22.425  17.563  1.00  0.00    -0.000 C 
BRANCH  11  12
ATOM     12  C   UNL     1      -9.716 -21.569  16.596  1.00  0.00    -0.000 C 
BRANCH  12  13
ATOM     13  C   UNL     1     -10.510 -20.392  16.009  1.00  0.00    -0.003 C 
ATOM     14  C   UNL     1     -10.758 -20.536  14.508  1.00  0.00     0.004 C 
ENDBRANCH  12  13
ENDBRANCH  11  12
ENDBRANCH  10  11
ENDBRANCH   9  10
ENDBRANCH   1   9
TORSDOF 10
ENDMDL
MODEL 4
REMARK VINA RESULT:    -2.433      2.462      4.732
REMARK INTER + INTRA:          -4.618
REMARK INTER:                  -3.904
REMARK INTRA:                  -0.714
REMARK UNBOUND:                -0.764
REMARK SMILES CCCCCCCCCCCC(=O)[O-]
REMARK SMILES IDX 7 1 8 2 9 3 10 4 11 5 12 6 13 7 14 8 6 9 5 10 4 11 3 12 2 13
REMARK SMILES IDX 1 14
REMARK H PARENT
REMARK Flexibility Score: inf
ROOT
ATOM      1  C   UNL     1      -7.240 -22.661  21.088  1.00  0.00     0.000 C 
ENDROOT
BRANCH   1   2
ATOM      2  C   UNL     1      -7.927 -23.121  22.383  1.00  0.00     0.000 C 
BRANCH   2   3
ATOM      3  C   UNL     1      -8.410 -21.945  23.246  1.00  0.00     0.000 C 
BRANCH   3   4
ATOM      4  C   UNL     1      -9.939 -21.793  23.238  1.00  0.00     0.006 C 
BRANCH   4   5
ATOM      5  C   UNL     1     -10.353 -20.448  22.633  1.00  0.00     0.053 C 
BRANCH   5   6
ATOM      6  C   UNL     1     -10.877 -20.636  21.245  1.00  0.00     0.041 C 
ATOM      7  O   UNL     1     -11.052 -19.640  20.494  1.00  0.00    -0.550 OA
ATOM      8  O   UNL     1     -11.125 -21.914  20.762  1.00  0.00    -0.550 OA
ENDBRANCH   5   6
ENDBRANCH   4   5
ENDBRANCH   3   4
ENDBRANCH   2   3
ENDBRANCH   1   2
BRANCH   1   9
ATOM      9  C   UNL     1      -8.033 -23.111  19.854  1.00  0.00     0.000 C 
BRANCH   9  10
ATOM     10  C   UNL     1      -8.286 -21.970  18.855  1.00  0.00    -0.000 C 
BRANCH  10  11
ATOM     11  C   UNL     1      -8.905 -22.441  17.522  1.00  0.00    -0.000 C 
BRANCH  11  12
ATOM     12  C   UNL     1      -9.926 -21.432  16.967  1.00  0.00    -0.000 C 
BRANCH  12  13
ATOM     13  C   UNL     1      -9.531 -20.892  15.585  1.00  0.00    -0.003 C 
ATOM     14  C   UNL     1     -10.737 -20.460  14.752  1.00  0.00     0.004 C 
ENDBRANCH  12  13
ENDBRANCH  11  12
ENDBRANCH  10  11
ENDBRANCH   9  10
ENDBRANCH   1   9
TORSDOF 10
ENDMDL
MODEL 5
REMARK VINA RESULT:    -2.400      1.384      2.173
REMARK INTER + INTRA:          -4.567
REMARK INTER:                  -3.705
REMARK INTRA:                  -0.862
REMARK UNBOUND:                -0.764
REMARK SMILES CCCCCCCCCCCC(=O)[O-]
REMARK SMILES IDX 7 1 8 2 9 3 10 4 11 5 12 6 13 7 14 8 6 9 5 10 4 11 3 12 2 13
REMARK SMILES IDX 1 14
REMARK H PARENT
REMARK Flexibility Score: inf
ROOT
ATOM      1  C   UNL     1     -11.028 -21.217  16.853  1.00  0.00     0.000 C 
ENDROOT
BRANCH   1   2
ATOM      2  C   UNL     1     -10.373 -21.177  18.242  1.00  0.00     0.000 C 
BRANCH   2   3
ATOM      3  C   UNL     1      -9.749 -22.523  18.640  1.00  0.00     0.000 C 
BRANCH   3   4
ATOM      4  C   UNL     1      -8.773 -22.398  19.820  1.00  0.00     0.006 C 
BRANCH   4   5
ATOM      5  C   UNL     1      -9.492 -22.628  21.153  1.00  0.00     0.053 C 
BRANCH   5   6
ATOM      6  C   UNL     1      -9.381 -21.417  22.024  1.00  0.00     0.041 C 
ATOM      7  O   UNL     1     -10.040 -20.379  21.752  1.00  0.00    -0.550 OA
ATOM      8  O   UNL     1      -8.589 -21.450  23.164  1.00  0.00    -0.550 OA
ENDBRANCH   5   6
ENDBRANCH   4   5
ENDBRANCH   3   4
ENDBRANCH   2   3
ENDBRANCH   1   2
BRANCH   1   9
ATOM      9  C   UNL     1     -10.619 -19.997  16.016  1.00  0.00     0.000 C 
BRANCH   9  10
ATOM     10  C   UNL     1     -10.386 -20.339  14.534  1.00  0.00    -0.000 C 
BRANCH  10  11
ATOM     11  C   UNL     1      -9.080 -21.121  14.279  1.00  0.00    -0.000 C 
BRANCH  11  12
ATOM     12  C   UNL     1      -7.987 -20.776  15.306  1.00  0.00    -0.000 C 
BRANCH  12  13
ATOM     13  C   UNL     1      -7.250 -22.020  15.824  1.00  0.00    -0.003 C 
ATOM     14  C   UNL     1      -5.780 -21.747  16.141  1.00  0.00     0.004 C 
ENDBRANCH  12  13
ENDBRANCH  11  12
ENDBRANCH  10  11
ENDBRANCH   9  10
ENDBRANCH   1   9
TORSDOF 10
ENDMDL
MODEL 6
REMARK VINA RESULT:    -2.397     13.141     16.324
REMARK INTER + INTRA:          -4.561
REMARK INTER:                  -3.830
REMARK INTRA:                  -0.731
REMARK UNBOUND:                -0.764
REMARK SMILES CCCCCCCCCCCC(=O)[O-]
REMARK SMILES IDX 7 1 8 2 9 3 10 4 11 5 12 6 13 7 14 8 6 9 5 10 4 11 3 12 2 13
REMARK SMILES IDX 1 14
REMARK H PARENT
REMARK Flexibility Score: inf
ROOT
ATOM      1  C   UNL     1       7.663 -21.301  16.234  1.00  0.00     0.000 C 
ENDROOT
BRANCH   1   2
ATOM      2  C   UNL     1       7.049 -21.809  17.548  1.00  0.00     0.000 C 
BRANCH   2   3
ATOM      3  C   UNL     1       5.531 -22.023  17.448  1.00  0.00     0.000 C 
BRANCH   3   4
ATOM      4  C   UNL     1       5.127 -22.842  16.212  1.00  0.00     0.006 C 
BRANCH   4   5
ATOM      5  C   UNL     1       3.622 -22.733  15.950  1.00  0.00     0.053 C 
BRANCH   5   6
ATOM      6  C   UNL     1       3.335 -22.844  14.487  1.00  0.00     0.041 C 
ATOM      7  O   UNL     1       2.151 -22.987  14.083  1.00  0.00    -0.550 OA
ATOM      8  O   UNL     1       4.369 -22.742  13.565  1.00  0.00    -0.550 OA
ENDBRANCH   5   6
ENDBRANCH   4   5
ENDBRANCH   3   4
ENDBRANCH   2   3
ENDBRANCH   1   2
BRANCH   1   9
ATOM      9  C   UNL     1       8.800 -22.219  15.765  1.00  0.00     0.000 C 
BRANCH   9  10
ATOM     10  C   UNL     1       9.089 -22.094  14.260  1.00  0.00    -0.000 C 
BRANCH  10  11
ATOM     11  C   UNL     1       7.830 -22.217  13.377  1.00  0.00    -0.000 C 
BRANCH  11  12
ATOM     12  C   UNL     1       7.998 -21.507  12.022  1.00  0.00    -0.000 C 
BRANCH  12  13
ATOM     13  C   UNL     1       9.125 -20.463  12.039  1.00  0.00    -0.003 C 
ATOM     14  C   UNL     1       8.661 -19.100  12.551  1.00  0.00     0.004 C 
ENDBRANCH  12  13
ENDBRANCH  11  12
ENDBRANCH  10  11
ENDBRANCH   9  10
ENDBRANCH   1   9
TORSDOF 10
ENDMDL
MODEL 7
REMARK VINA RESULT:    -2.354      1.256      3.588
REMARK INTER + INTRA:          -4.494
REMARK INTER:                  -3.734
REMARK INTRA:                  -0.760
REMARK UNBOUND:                -0.764
REMARK SMILES CCCCCCCCCCCC(=O)[O-]
REMARK SMILES IDX 7 1 8 2 9 3 10 4 11 5 12 6 13 7 14 8 6 9 5 10 4 11 3 12 2 13
REMARK SMILES IDX 1 14
REMARK H PARENT
REMARK Flexibility Score: inf
ROOT
ATOM      1  C   UNL     1      -5.923 -22.267  17.356  1.00  0.00     0.000 C 
ENDROOT
BRANCH   1   2
ATOM      2  C   UNL     1      -7.180 -23.125  17.568  1.00  0.00     0.000 C 
BRANCH   2   3
ATOM      3  C   UNL     1      -7.788 -22.946  18.968  1.00  0.00     0.000 C 
BRANCH   3   4
ATOM      4  C   UNL     1      -8.812 -21.803  19.028  1.00  0.00     0.006 C 
BRANCH   4   5
ATOM      5  C   UNL     1      -9.602 -21.844  20.340  1.00  0.00     0.053 C 
BRANCH   5   6
ATOM      6  C   UNL     1      -9.939 -20.459  20.793  1.00  0.00     0.041 C 
ATOM      7  O   UNL     1     -10.246 -19.575  19.951  1.00  0.00    -0.550 OA
ATOM      8  O   UNL     1      -9.963 -20.157  22.148  1.00  0.00    -0.550 OA
ENDBRANCH   5   6
ENDBRANCH   4   5
ENDBRANCH   3   4
ENDBRANCH   2   3
ENDBRANCH   1   2
BRANCH   1   9
ATOM      9  C   UNL     1      -5.946 -21.585  15.981  1.00  0.00     0.000 C 
BRANCH   9  10
ATOM     10  C   UNL     1      -7.249 -21.844  15.206  1.00  0.00    -0.000 C 
BRANCH  10  11
ATOM     11  C   UNL     1      -8.298 -20.723  15.369  1.00  0.00    -0.000 C 
BRANCH  11  12
ATOM     12  C   UNL     1      -9.393 -20.792  14.290  1.00  0.00    -0.000 C 
BRANCH  12  13
ATOM     13  C   UNL     1     -10.786 -20.450  14.840  1.00  0.00    -0.003 C 
ATOM     14  C   UNL     1     -10.778 -20.180  16.344  1.00  0.00     0.004 C 
ENDBRANCH  12  13
ENDBRANCH  11  12
ENDBRANCH  10  11
ENDBRANCH   9  10
ENDBRANCH   1   9
TORSDOF 10
ENDMDL
MODEL 8
REMARK VINA RESULT:    -2.201      2.201      3.857
REMARK INTER + INTRA:          -4.251
REMARK INTER:                  -3.466
REMARK INTRA:                  -0.785
REMARK UNBOUND:                -0.764
REMARK SMILES CCCCCCCCCCCC(=O)[O-]
REMARK SMILES IDX 7 1 8 2 9 3 10 4 11 5 12 6 13 7 14 8 6 9 5 10 4 11 3 12 2 13
REMARK SMILES IDX 1 14
REMARK H PARENT
REMARK Flexibility Score: inf
ROOT
ATOM      1  C   UNL     1      -8.884 -21.360  18.961  1.00  0.00     0.000 C 
ENDROOT
BRANCH   1   2
ATOM      2  C   UNL     1     -10.347 -20.916  19.116  1.00  0.00     0.000 C 
BRANCH   2   3
ATOM      3  C   UNL     1     -10.849 -21.030  20.564  1.00  0.00     0.000 C 
BRANCH   3   4
ATOM      4  C   UNL     1      -9.812 -20.548  21.591  1.00  0.00     0.006 C 
BRANCH   4   5
ATOM      5  C   UNL     1      -9.934 -21.332  22.901  1.00  0.00     0.053 C 
BRANCH   5   6
ATOM      6  C   UNL     1      -8.783 -22.274  23.057  1.00  0.00     0.041 C 
ATOM      7  O   UNL     1      -8.535 -22.790  24.178  1.00  0.00    -0.550 OA
ATOM      8  O   UNL     1      -8.013 -22.622  21.954  1.00  0.00    -0.550 OA
ENDBRANCH   5   6
ENDBRANCH   4   5
ENDBRANCH   3   4
ENDBRANCH   2   3
ENDBRANCH   1   2
BRANCH   1   9
ATOM      9  C   UNL     1      -8.742 -22.411  17.851  1.00  0.00     0.000 C 
BRANCH   9  10
ATOM     10  C   UNL     1      -7.367 -22.375  17.164  1.00  0.00    -0.000 C 
BRANCH  10  11
ATOM     11  C   UNL     1      -7.443 -22.132  15.642  1.00  0.00    -0.000 C 
BRANCH  11  12
ATOM     12  C   UNL     1      -8.015 -20.743  15.304  1.00  0.00    -0.000 C 
BRANCH  12  13
ATOM     13  C   UNL     1      -9.239 -20.818  14.379  1.00  0.00    -0.003 C 
ATOM     14  C   UNL     1     -10.536 -20.414  15.081  1.00  0.00     0.004 C 
ENDBRANCH  12  13
ENDBRANCH  11  12
ENDBRANCH  10  11
ENDBRANCH   9  10
ENDBRANCH   1   9
TORSDOF 10
ENDMDL
MODEL 9
REMARK VINA RESULT:    -1.061      2.193      4.133
REMARK INTER + INTRA:          -2.444
REMARK INTER:                  -2.602
REMARK INTRA:                   0.157
REMARK UNBOUND:                -0.764
REMARK SMILES CCCCCCCCCCCC(=O)[O-]
REMARK SMILES IDX 7 1 8 2 9 3 10 4 11 5 12 6 13 7 14 8 6 9 5 10 4 11 3 12 2 13
REMARK SMILES IDX 1 14
REMARK H PARENT
REMARK Flexibility Score: inf
ROOT
ATOM      1  C   UNL     1      -7.748 -22.161  18.597  1.00  0.00     0.000 C 
ENDROOT
BRANCH   1   2
ATOM      2  C   UNL     1      -7.670 -23.102  19.809  1.00  0.00     0.000 C 
BRANCH   2   3
ATOM      3  C   UNL     1      -8.717 -22.770  20.884  1.00  0.00     0.000 C 
BRANCH   3   4
ATOM      4  C   UNL     1      -8.163 -22.893  22.311  1.00  0.00     0.006 C 
BRANCH   4   5
ATOM      5  C   UNL     1      -8.478 -21.639  23.131  1.00  0.00     0.053 C 
BRANCH   5   6
ATOM      6  C   UNL     1      -9.697 -20.957  22.599  1.00  0.00     0.041 C 
ATOM      7  O   UNL     1     -10.784 -21.016  23.233  1.00  0.00    -0.550 OA
ATOM      8  O   UNL     1      -9.624 -20.213  21.428  1.00  0.00    -0.550 OA
ENDBRANCH   5   6
ENDBRANCH   4   5
ENDBRANCH   3   4
ENDBRANCH   2   3
ENDBRANCH   1   2
BRANCH   1   9
ATOM      9  C   UNL     1      -8.651 -22.746  17.503  1.00  0.00     0.000 C 
BRANCH   9  10
ATOM     10  C   UNL     1     -10.090 -22.998  17.985  1.00  0.00    -0.000 C 
BRANCH  10  11
ATOM     11  C   UNL     1     -11.125 -22.031  17.372  1.00  0.00    -0.000 C 
BRANCH  11  12
ATOM     12  C   UNL     1     -10.464 -20.775  16.778  1.00  0.00    -0.000 C 
BRANCH  12  13
ATOM     13  C   UNL     1     -10.785 -20.588  15.287  1.00  0.00    -0.003 C 
ATOM     14  C   UNL     1      -9.530 -20.492  14.420  1.00  0.00     0.004 C 
ENDBRANCH  12  13
ENDBRANCH  11  12
ENDBRANCH  10  11
ENDBRANCH   9  10
ENDBRANCH   1   9
TORSDOF 10
ENDMDL
