MODEL 1
REMARK VINA RESULT:    -2.865      0.000      0.000
REMARK INTER + INTRA:          -3.823
REMARK INTER:                  -3.703
REMARK INTRA:                  -0.120
REMARK UNBOUND:                -0.120
REMARK SMILES CCCCCCC(=O)[O-]
REMARK SMILES IDX 5 1 6 2 7 3 8 4 9 5 4 6 3 7 2 8 1 9
REMARK H PARENT
REMARK Flexibility Score: inf
ROOT
ATOM      1  C   UNL     1      -1.657  25.037 -20.464  1.00  0.00     0.006 C 
ENDROOT
BRANCH   1   2
ATOM      2  C   UNL     1      -2.319  24.886 -21.839  1.00  0.00     0.053 C 
BRANCH   2   3
ATOM      3  C   UNL     1      -3.765  25.275 -21.804  1.00  0.00     0.041 C 
ATOM      4  O   UNL     1      -4.254  25.980 -22.726  1.00  0.00    -0.550 OA
ATOM      5  O   UNL     1      -4.565  24.890 -20.735  1.00  0.00    -0.550 OA
ENDBRANCH   2   3
ENDBRANCH   1   2
BRANCH   1   6
ATOM      6  C   UNL     1      -0.899  26.369 -20.326  1.00  0.00     0.000 C 
BRANCH   6   7
ATOM      7  C   UNL     1      -1.223  27.101 -19.014  1.00  0.00    -0.000 C 
BRANCH   7   8
ATOM      8  C   UNL     1      -0.875  28.595 -19.070  1.00  0.00    -0.003 C 
ATOM      9  C   UNL     1      -0.965  29.232 -17.686  1.00  0.00     0.004 C 
ENDBRANCH   7   8
ENDBRANCH   6   7
ENDBRANCH   1   6
TORSDOF 5
ENDMDL
MODEL 2
REMARK VINA RESULT:    -2.585      2.443      4.568
REMARK INTER + INTRA:          -3.460
REMARK INTER:                  -3.321
REMARK INTRA:                  -0.139
REMARK UNBOUND:                -0.120
REMARK SMILES CCCCCCC(=O)[O-]
REMARK SMILES IDX 5 1 6 2 7 3 8 4 9 5 4 6 3 7 2 8 1 9
REMARK H PARENT
REMARK Flexibility Score: inf
ROOT
ATOM      1  C   UNL     1      -1.421  26.200 -20.885  1.00  0.00     0.006 C 
ENDROOT
BRANCH   1   2
ATOM      2  C   UNL     1      -0.875  25.979 -19.469  1.00  0.00     0.053 C 
BRANCH   2   3
ATOM      3  C   UNL     1      -1.616  26.795 -18.455  1.00  0.00     0.041 C 
ATOM      4  O   UNL     1      -2.675  26.352 -17.936  1.00  0.00    -0.550 OA
ATOM      5  O   UNL     1      -1.157  28.060 -18.109  1.00  0.00    -0.550 OA
ENDBRANCH   2   3
ENDBRANCH   1   2
BRANCH   1   6
ATOM      6  C   UNL     1      -2.006  24.912 -21.491  1.00  0.00     0.000 C 
BRANCH   6   7
ATOM      7  C   UNL     1      -2.844  25.179 -22.751  1.00  0.00    -0.000 C 
BRANCH   7   8
ATOM      8  C   UNL     1      -4.350  25.011 -22.506  1.00  0.00    -0.003 C 
ATOM      9  C   UNL     1      -4.656  24.914 -21.014  1.00  0.00     0.004 C 
ENDBRANCH   7   8
ENDBRANCH   6   7
ENDBRANCH   1   6
TORSDOF 5
ENDMDL
MODEL 3
REMARK VINA RESULT:    -2.471     23.109     24.127
REMARK INTER + INTRA:          -3.313
REMARK INTER:                  -3.266
REMARK INTRA:                  -0.047
REMARK UNBOUND:                -0.120
REMARK SMILES CCCCCCC(=O)[O-]
REMARK SMILES IDX 5 1 6 2 7 3 8 4 9 5 4 6 3 7 2 8 1 9
REMARK H PARENT
REMARK Flexibility Score: inf
ROOT
ATOM      1  C   UNL     1     -19.699  28.799  -4.271  1.00  0.00     0.006 C 
ENDROOT
BRANCH   1   2
ATOM      2  C   UNL     1     -19.331  28.270  -2.879  1.00  0.00     0.053 C 
BRANCH   2   3
ATOM      3  C   UNL     1     -18.789  26.875  -2.939  1.00  0.00     0.041 C 
ATOM      4  O   UNL     1     -19.572  25.889  -2.896  1.00  0.00    -0.550 OA
ATOM      5  O   UNL     1     -17.418  26.663  -3.008  1.00  0.00    -0.550 OA
ENDBRANCH   2   3
ENDBRANCH   1   2
BRANCH   1   6
ATOM      6  C   UNL     1     -20.868  28.020  -4.898  1.00  0.00     0.000 C 
BRANCH   6   7
ATOM      7  C   UNL     1     -20.433  27.164  -6.098  1.00  0.00    -0.000 C 
BRANCH   7   8
ATOM      8  C   UNL     1     -21.125  25.794  -6.127  1.00  0.00    -0.003 C 
ATOM      9  C   UNL     1     -20.982  25.135  -7.497  1.00  0.00     0.004 C 
ENDBRANCH   7   8
ENDBRANCH   6   7
ENDBRANCH   1   6
TORSDOF 5
ENDMDL
MODEL 4
REMARK VINA RESULT:    -2.299     22.913     23.629
REMARK INTER + INTRA:          -3.091
REMARK INTER:                  -2.866
REMARK INTRA:                  -0.225
REMARK UNBOUND:                -0.120
REMARK SMILES CCCCCCC(=O)[O-]
REMARK SMILES IDX 5 1 6 2 7 3 8 4 9 5 4 6 3 7 2 8 1 9
REMARK H PARENT
REMARK Flexibility Score: inf
ROOT
ATOM      1  C   UNL     1     -19.764  27.963  -5.606  1.00  0.00     0.006 C 
ENDROOT
BRANCH   1   2
ATOM      2  C   UNL     1     -21.122  27.308  -5.886  1.00  0.00     0.053 C 
BRANCH   2   3
ATOM      3  C   UNL     1     -20.970  25.900  -6.376  1.00  0.00     0.041 C 
ATOM      4  O   UNL     1     -21.054  24.936  -5.570  1.00  0.00    -0.550 OA
ATOM      5  O   UNL     1     -20.700  25.655  -7.717  1.00  0.00    -0.550 OA
ENDBRANCH   2   3
ENDBRANCH   1   2
BRANCH   1   6
ATOM      6  C   UNL     1     -19.819  28.926  -4.408  1.00  0.00     0.000 C 
BRANCH   6   7
ATOM      7  C   UNL     1     -19.172  28.337  -3.144  1.00  0.00    -0.000 C 
BRANCH   7   8
ATOM      8  C   UNL     1     -18.419  27.029  -3.422  1.00  0.00    -0.003 C 
ATOM      9  C   UNL     1     -19.184  25.827  -2.875  1.00  0.00     0.004 C 
ENDBRANCH   7   8
ENDBRANCH   6   7
ENDBRANCH   1   6
TORSDOF 5
ENDMDL
MODEL 5
REMARK VINA RESULT:    -2.054     23.646     24.626
REMARK INTER + INTRA:          -2.774
REMARK INTER:                  -2.513
REMARK INTRA:                  -0.261
REMARK UNBOUND:                -0.120
REMARK SMILES CCCCCCC(=O)[O-]
REMARK SMILES IDX 5 1 6 2 7 3 8 4 9 5 4 6 3 7 2 8 1 9
REMARK H PARENT
REMARK Flexibility Score: inf
ROOT
ATOM      1  C   UNL     1     -18.634  27.612  -3.403  1.00  0.00     0.006 C 
ENDROOT
BRANCH   1   2
ATOM      2  C   UNL     1     -19.702  28.578  -2.876  1.00  0.00     0.053 C 
BRANCH   2   3
ATOM      3  C   UNL     1     -20.218  29.478  -3.956  1.00  0.00     0.041 C 
ATOM      4  O   UNL     1     -21.125  30.315  -3.704  1.00  0.00    -0.550 OA
ATOM      5  O   UNL     1     -19.723  29.369  -5.250  1.00  0.00    -0.550 OA
ENDBRANCH   2   3
ENDBRANCH   1   2
BRANCH   1   6
ATOM      6  C   UNL     1     -19.038  26.139  -3.217  1.00  0.00     0.000 C 
BRANCH   6   7
ATOM      7  C   UNL     1     -20.562  25.943  -3.184  1.00  0.00    -0.000 C 
BRANCH   7   8
ATOM      8  C   UNL     1     -21.100  25.280  -4.460  1.00  0.00    -0.003 C 
ATOM      9  C   UNL     1     -20.959  26.208  -5.663  1.00  0.00     0.004 C 
ENDBRANCH   7   8
ENDBRANCH   6   7
ENDBRANCH   1   6
TORSDOF 5
ENDMDL
MODEL 6
REMARK VINA RESULT:    -1.594     23.382     24.133
REMARK INTER + INTRA:          -2.180
REMARK INTER:                  -1.837
REMARK INTRA:                  -0.343
REMARK UNBOUND:                -0.120
REMARK SMILES CCCCCCC(=O)[O-]
REMARK SMILES IDX 5 1 6 2 7 3 8 4 9 5 4 6 3 7 2 8 1 9
REMARK H PARENT
REMARK Flexibility Score: inf
ROOT
ATOM      1  C   UNL     1     -19.848  25.592  -4.208  1.00  0.00     0.006 C 
ENDROOT
BRANCH   1   2
ATOM      2  C   UNL     1     -21.114  25.597  -5.074  1.00  0.00     0.053 C 
BRANCH   2   3
ATOM      3  C   UNL     1     -20.797  25.827  -6.520  1.00  0.00     0.041 C 
ATOM      4  O   UNL     1     -20.873  24.879  -7.344  1.00  0.00    -0.550 OA
ATOM      5  O   UNL     1     -20.382  27.082  -6.950  1.00  0.00    -0.550 OA
ENDBRANCH   2   3
ENDBRANCH   1   2
BRANCH   1   6
ATOM      6  C   UNL     1     -20.050  26.341  -2.879  1.00  0.00     0.000 C 
BRANCH   6   7
ATOM      7  C   UNL     1     -21.065  27.488  -2.995  1.00  0.00    -0.000 C 
BRANCH   7   8
ATOM      8  C   UNL     1     -20.407  28.823  -3.371  1.00  0.00    -0.003 C 
ATOM      9  C   UNL     1     -21.119  29.472  -4.556  1.00  0.00     0.004 C 
ENDBRANCH   7   8
ENDBRANCH   6   7
ENDBRANCH   1   6
TORSDOF 5
ENDMDL
MODEL 7
REMARK VINA RESULT:    -1.524     27.832     29.398
REMARK INTER + INTRA:          -2.089
REMARK INTER:                  -2.239
REMARK INTRA:                   0.150
REMARK UNBOUND:                -0.120
REMARK SMILES CCCCCCC(=O)[O-]
REMARK SMILES IDX 5 1 6 2 7 3 8 4 9 5 4 6 3 7 2 8 1 9
REMARK H PARENT
REMARK Flexibility Score: inf
ROOT
ATOM      1  C   UNL     1     -19.581  41.957  -3.267  1.00  0.00     0.006 C 
ENDROOT
BRANCH   1   2
ATOM      2  C   UNL     1     -19.791  43.475  -3.322  1.00  0.00     0.053 C 
BRANCH   2   3
ATOM      3  C   UNL     1     -20.688  43.871  -4.455  1.00  0.00     0.041 C 
ATOM      4  O   UNL     1     -21.104  45.056  -4.549  1.00  0.00    -0.550 OA
ATOM      5  O   UNL     1     -21.092  42.923  -5.387  1.00  0.00    -0.550 OA
ENDBRANCH   2   3
ENDBRANCH   1   2
BRANCH   1   6
ATOM      6  C   UNL     1     -20.866  41.206  -2.875  1.00  0.00     0.000 C 
BRANCH   6   7
ATOM      7  C   UNL     1     -21.124  39.975  -3.757  1.00  0.00    -0.000 C 
BRANCH   7   8
ATOM      8  C   UNL     1     -20.954  38.654  -2.992  1.00  0.00    -0.003 C 
ATOM      9  C   UNL     1     -20.933  37.464  -3.947  1.00  0.00     0.004 C 
ENDBRANCH   7   8
ENDBRANCH   6   7
ENDBRANCH   1   6
TORSDOF 5
ENDMDL
MODEL 8
REMARK VINA RESULT:    -1.504     27.933     29.132
REMARK INTER + INTRA:          -2.063
REMARK INTER:                  -1.936
REMARK INTRA:                  -0.127
REMARK UNBOUND:                -0.120
REMARK SMILES CCCCCCC(=O)[O-]
REMARK SMILES IDX 5 1 6 2 7 3 8 4 9 5 4 6 3 7 2 8 1 9
REMARK H PARENT
REMARK Flexibility Score: inf
ROOT
ATOM      1  C   UNL     1     -20.927  41.485  -3.683  1.00  0.00     0.006 C 
ENDROOT
BRANCH   1   2
ATOM      2  C   UNL     1     -21.038  40.184  -2.879  1.00  0.00     0.053 C 
BRANCH   2   3
ATOM      3  C   UNL     1     -20.848  38.978  -3.747  1.00  0.00     0.041 C 
ATOM      4  O   UNL     1     -21.058  39.050  -4.987  1.00  0.00    -0.550 OA
ATOM      5  O   UNL     1     -20.472  37.765  -3.182  1.00  0.00    -0.550 OA
ENDBRANCH   2   3
ENDBRANCH   1   2
BRANCH   1   6
ATOM      6  C   UNL     1     -20.260  42.612  -2.875  1.00  0.00     0.000 C 
BRANCH   6   7
ATOM      7  C   UNL     1     -20.751  44.008  -3.289  1.00  0.00    -0.000 C 
BRANCH   7   8
ATOM      8  C   UNL     1     -19.600  44.951  -3.668  1.00  0.00    -0.003 C 
ATOM      9  C   UNL     1     -18.334  44.615  -2.884  1.00  0.00     0.004 C 
ENDBRANCH   7   8
ENDBRANCH   6   7
ENDBRANCH   1   6
TORSDOF 5
ENDMDL
