MODEL 1
REMARK VINA RESULT:    -3.944      0.000      0.000
REMARK INTER + INTRA:          -8.162
REMARK INTER:                  -6.020
REMARK INTRA:                  -2.143
REMARK UNBOUND:                -2.143
REMARK SMILES CC(=O)CCC=C(C)CCC=C(C)CCC=C(C)C
REMARK SMILES IDX 10 1 11 2 12 3 13 4 14 5 15 6 16 7 18 8 17 9 19 10 9 11 7 12
REMARK SMILES IDX 6 13 8 14 5 15 4 16 2 17 3 18 1 19
REMARK H PARENT
REMARK Flexibility Score: inf
ROOT
ATOM      1  C   UNL     1      97.401   4.439  76.536  1.00  0.00     0.032 C 
ENDROOT
BRANCH   1   2
ATOM      2  C   UNL     1      98.577   3.523  76.284  1.00  0.00    -0.028 C 
ATOM      3  C   UNL     1      99.619   3.350  77.130  1.00  0.00    -0.077 C 
ATOM      4  C   UNL     1      99.744   4.130  78.417  1.00  0.00     0.039 C 
BRANCH   3   5
ATOM      5  C   UNL     1     100.693   2.346  76.774  1.00  0.00     0.034 C 
BRANCH   5   6
ATOM      6  C   UNL     1     101.613   2.897  75.678  1.00  0.00     0.032 C 
BRANCH   6   7
ATOM      7  C   UNL     1     102.243   4.197  76.112  1.00  0.00    -0.028 C 
ATOM      8  C   UNL     1     102.618   6.644  76.108  1.00  0.00     0.039 C 
ATOM      9  C   UNL     1     101.947   5.404  75.578  1.00  0.00    -0.080 C 
ATOM     10  C   UNL     1     100.987   5.554  74.423  1.00  0.00     0.039 C 
ENDBRANCH   6   7
ENDBRANCH   5   6
ENDBRANCH   3   5
ENDBRANCH   1   2
BRANCH   1  11
ATOM     11  C   UNL     1      97.355   5.569  75.500  1.00  0.00     0.034 C 
BRANCH  11  12
ATOM     12  C   UNL     1      97.459   6.933  76.152  1.00  0.00    -0.077 C 
ATOM     13  C   UNL     1      98.437   7.160  77.054  1.00  0.00    -0.028 C 
ATOM     14  C   UNL     1      96.459   8.004  75.788  1.00  0.00     0.039 C 
BRANCH  13  15
ATOM     15  C   UNL     1      98.607   8.478  77.773  1.00  0.00     0.035 C 
BRANCH  15  16
ATOM     16  C   UNL     1     100.081   8.884  77.892  1.00  0.00     0.079 C 
BRANCH  16  17
ATOM     17  C   UNL     1     100.631   8.592  79.265  1.00  0.00     0.130 C 
ATOM     18  O   UNL     1     100.371   9.345  80.191  1.00  0.00    -0.300 OA
ATOM     19  C   UNL     1     101.485   7.386  79.524  1.00  0.00     0.087 C 
ENDBRANCH  16  17
ENDBRANCH  15  16
ENDBRANCH  13  15
ENDBRANCH  11  12
ENDBRANCH   1  11
TORSDOF 9
ENDMDL
MODEL 2
REMARK VINA RESULT:    -3.901      2.101      4.663
REMARK INTER + INTRA:          -8.096
REMARK INTER:                  -6.175
REMARK INTRA:                  -1.921
REMARK UNBOUND:                -2.143
REMARK SMILES CC(=O)CCC=C(C)CCC=C(C)CCC=C(C)C
REMARK SMILES IDX 10 1 11 2 12 3 13 4 14 5 15 6 16 7 18 8 17 9 19 10 9 11 7 12
REMARK SMILES IDX 6 13 8 14 5 15 4 16 2 17 3 18 1 19
REMARK H PARENT
REMARK Flexibility Score: inf
ROOT
ATOM      1  C   UNL     1     100.176   9.569  77.969  1.00  0.00     0.032 C 
ENDROOT
BRANCH   1   2
ATOM      2  C   UNL     1     100.970   8.509  77.240  1.00  0.00    -0.028 C 
ATOM      3  C   UNL     1     101.637   7.494  77.837  1.00  0.00    -0.077 C 
ATOM      4  C   UNL     1     101.712   7.357  79.338  1.00  0.00     0.039 C 
BRANCH   3   5
ATOM      5  C   UNL     1     102.334   6.467  76.972  1.00  0.00     0.034 C 
BRANCH   5   6
ATOM      6  C   UNL     1     101.322   5.698  76.115  1.00  0.00     0.032 C 
BRANCH   6   7
ATOM      7  C   UNL     1     101.429   4.215  76.362  1.00  0.00    -0.028 C 
ATOM      8  C   UNL     1     100.882   2.053  77.438  1.00  0.00     0.039 C 
ATOM      9  C   UNL     1     100.717   3.544  77.297  1.00  0.00    -0.080 C 
ATOM     10  C   UNL     1      99.779   4.248  78.246  1.00  0.00     0.039 C 
ENDBRANCH   6   7
ENDBRANCH   5   6
ENDBRANCH   3   5
ENDBRANCH   1   2
BRANCH   1  11
ATOM     11  C   UNL     1      98.873   8.990  78.532  1.00  0.00     0.034 C 
BRANCH  11  12
ATOM     12  C   UNL     1      97.937   8.541  77.428  1.00  0.00    -0.077 C 
ATOM     13  C   UNL     1      98.051   7.291  76.932  1.00  0.00    -0.028 C 
ATOM     14  C   UNL     1      96.904   9.507  76.898  1.00  0.00     0.039 C 
BRANCH  13  15
ATOM     15  C   UNL     1      97.180   6.762  75.817  1.00  0.00     0.035 C 
BRANCH  15  16
ATOM     16  C   UNL     1      96.978   5.245  75.913  1.00  0.00     0.079 C 
BRANCH  16  17
ATOM     17  C   UNL     1      97.691   4.515  74.803  1.00  0.00     0.130 C 
ATOM     18  O   UNL     1      98.037   5.129  73.805  1.00  0.00    -0.300 OA
ATOM     19  C   UNL     1      97.995   3.050  74.901  1.00  0.00     0.087 C 
ENDBRANCH  16  17
ENDBRANCH  15  16
ENDBRANCH  13  15
ENDBRANCH  11  12
ENDBRANCH   1  11
TORSDOF 9
ENDMDL
MODEL 3
REMARK VINA RESULT:    -3.867      1.337      3.640
REMARK INTER + INTRA:          -8.045
REMARK INTER:                  -5.769
REMARK INTRA:                  -2.275
REMARK UNBOUND:                -2.143
REMARK SMILES CC(=O)CCC=C(C)CCC=C(C)CCC=C(C)C
REMARK SMILES IDX 10 1 11 2 12 3 13 4 14 5 15 6 16 7 18 8 17 9 19 10 9 11 7 12
REMARK SMILES IDX 6 13 8 14 5 15 4 16 2 17 3 18 1 19
REMARK H PARENT
REMARK Flexibility Score: inf
ROOT
ATOM      1  C   UNL     1     102.260   3.873  76.037  1.00  0.00     0.032 C 
ENDROOT
BRANCH   1   2
ATOM      2  C   UNL     1     100.979   3.380  75.402  1.00  0.00    -0.028 C 
ATOM      3  C   UNL     1      99.939   2.837  76.077  1.00  0.00    -0.077 C 
ATOM      4  C   UNL     1      99.985   2.604  77.568  1.00  0.00     0.039 C 
BRANCH   3   5
ATOM      5  C   UNL     1      98.693   2.449  75.313  1.00  0.00     0.034 C 
BRANCH   5   6
ATOM      6  C   UNL     1      98.268   3.569  74.356  1.00  0.00     0.032 C 
BRANCH   6   7
ATOM      7  C   UNL     1      97.568   4.675  75.105  1.00  0.00    -0.028 C 
ATOM      8  C   UNL     1      97.132   7.008  75.811  1.00  0.00     0.039 C 
ATOM      9  C   UNL     1      97.921   5.980  75.042  1.00  0.00    -0.080 C 
ATOM     10  C   UNL     1      99.119   6.448  74.254  1.00  0.00     0.039 C 
ENDBRANCH   6   7
ENDBRANCH   5   6
ENDBRANCH   3   5
ENDBRANCH   1   2
BRANCH   1  11
ATOM     11  C   UNL     1     102.460   5.371  75.778  1.00  0.00     0.034 C 
BRANCH  11  12
ATOM     12  C   UNL     1     102.120   6.201  76.998  1.00  0.00    -0.077 C 
ATOM     13  C   UNL     1     100.849   6.218  77.454  1.00  0.00    -0.028 C 
ATOM     14  C   UNL     1     103.208   7.002  77.673  1.00  0.00     0.039 C 
BRANCH  13  15
ATOM     15  C   UNL     1     100.411   7.032  78.648  1.00  0.00     0.035 C 
BRANCH  15  16
ATOM     16  C   UNL     1      99.692   8.322  78.234  1.00  0.00     0.079 C 
BRANCH  16  17
ATOM     17  C   UNL     1      99.856   9.409  79.265  1.00  0.00     0.130 C 
ATOM     18  O   UNL     1      99.110  10.376  79.244  1.00  0.00    -0.300 OA
ATOM     19  C   UNL     1     100.911   9.325  80.328  1.00  0.00     0.087 C 
ENDBRANCH  16  17
ENDBRANCH  15  16
ENDBRANCH  13  15
ENDBRANCH  11  12
ENDBRANCH   1  11
TORSDOF 9
ENDMDL
MODEL 4
REMARK VINA RESULT:    -3.783      1.774      4.294
REMARK INTER + INTRA:          -7.916
REMARK INTER:                  -5.367
REMARK INTRA:                  -2.549
REMARK UNBOUND:                -2.143
REMARK SMILES CC(=O)CCC=C(C)CCC=C(C)CCC=C(C)C
REMARK SMILES IDX 10 1 11 2 12 3 13 4 14 5 15 6 16 7 18 8 17 9 19 10 9 11 7 12
REMARK SMILES IDX 6 13 8 14 5 15 4 16 2 17 3 18 1 19
REMARK H PARENT
REMARK Flexibility Score: inf
ROOT
ATOM      1  C   UNL     1      98.479   8.340  77.236  1.00  0.00     0.032 C 
ENDROOT
BRANCH   1   2
ATOM      2  C   UNL     1      97.808   7.081  76.735  1.00  0.00    -0.028 C 
ATOM      3  C   UNL     1      98.322   6.250  75.800  1.00  0.00    -0.077 C 
ATOM      4  C   UNL     1      99.625   6.541  75.096  1.00  0.00     0.039 C 
BRANCH   3   5
ATOM      5  C   UNL     1      97.565   4.988  75.446  1.00  0.00     0.034 C 
BRANCH   5   6
ATOM      6  C   UNL     1      97.650   3.964  76.582  1.00  0.00     0.032 C 
BRANCH   6   7
ATOM      7  C   UNL     1      98.907   3.139  76.466  1.00  0.00    -0.028 C 
ATOM      8  C   UNL     1     101.154   2.331  77.121  1.00  0.00     0.039 C 
ATOM      9  C   UNL     1      99.957   3.225  77.315  1.00  0.00    -0.080 C 
ATOM     10  C   UNL     1      99.995   4.228  78.441  1.00  0.00     0.039 C 
ENDBRANCH   6   7
ENDBRANCH   5   6
ENDBRANCH   3   5
ENDBRANCH   1   2
BRANCH   1  11
ATOM     11  C   UNL     1      99.169   8.096  78.583  1.00  0.00     0.034 C 
BRANCH  11  12
ATOM     12  C   UNL     1     100.677   8.180  78.465  1.00  0.00    -0.077 C 
ATOM     13  C   UNL     1     101.222   8.900  77.461  1.00  0.00    -0.028 C 
ATOM     14  C   UNL     1     101.538   7.448  79.467  1.00  0.00     0.039 C 
BRANCH  13  15
ATOM     15  C   UNL     1     102.712   9.023  77.249  1.00  0.00     0.035 C 
BRANCH  15  16
ATOM     16  C   UNL     1     103.197   8.180  76.063  1.00  0.00     0.079 C 
BRANCH  16  17
ATOM     17  C   UNL     1     103.737   6.845  76.510  1.00  0.00     0.130 C 
ATOM     18  O   UNL     1     104.860   6.779  76.985  1.00  0.00    -0.300 OA
ATOM     19  C   UNL     1     102.918   5.594  76.394  1.00  0.00     0.087 C 
ENDBRANCH  16  17
ENDBRANCH  15  16
ENDBRANCH  13  15
ENDBRANCH  11  12
ENDBRANCH   1  11
TORSDOF 9
ENDMDL
MODEL 5
REMARK VINA RESULT:    -3.782      2.589      5.272
REMARK INTER + INTRA:          -7.914
REMARK INTER:                  -5.780
REMARK INTRA:                  -2.135
REMARK UNBOUND:                -2.143
REMARK SMILES CC(=O)CCC=C(C)CCC=C(C)CCC=C(C)C
REMARK SMILES IDX 10 1 11 2 12 3 13 4 14 5 15 6 16 7 18 8 17 9 19 10 9 11 7 12
REMARK SMILES IDX 6 13 8 14 5 15 4 16 2 17 3 18 1 19
REMARK H PARENT
REMARK Flexibility Score: inf
ROOT
ATOM      1  C   UNL     1      98.653   6.921  75.720  1.00  0.00     0.032 C 
ENDROOT
BRANCH   1   2
ATOM      2  C   UNL     1      99.151   6.797  77.143  1.00  0.00    -0.028 C 
ATOM      3  C   UNL     1     100.330   6.241  77.504  1.00  0.00    -0.077 C 
ATOM      4  C   UNL     1     101.263   5.613  76.497  1.00  0.00     0.039 C 
BRANCH   3   5
ATOM      5  C   UNL     1     100.726   6.247  78.965  1.00  0.00     0.034 C 
BRANCH   5   6
ATOM      6  C   UNL     1     101.777   7.328  79.241  1.00  0.00     0.032 C 
BRANCH   6   7
ATOM      7  C   UNL     1     101.118   8.640  79.584  1.00  0.00    -0.028 C 
ATOM      8  C   UNL     1     100.346  10.958  79.185  1.00  0.00     0.039 C 
ATOM      9  C   UNL     1     101.056   9.703  78.749  1.00  0.00    -0.080 C 
ATOM     10  C   UNL     1     101.718   9.696  77.393  1.00  0.00     0.039 C 
ENDBRANCH   6   7
ENDBRANCH   5   6
ENDBRANCH   3   5
ENDBRANCH   1   2
BRANCH   1  11
ATOM     11  C   UNL     1      97.309   6.204  75.544  1.00  0.00     0.034 C 
BRANCH  11  12
ATOM     12  C   UNL     1      97.444   4.707  75.730  1.00  0.00    -0.077 C 
ATOM     13  C   UNL     1      98.225   4.003  74.882  1.00  0.00    -0.028 C 
ATOM     14  C   UNL     1      96.693   4.031  76.852  1.00  0.00     0.039 C 
BRANCH  13  15
ATOM     15  C   UNL     1      98.403   2.506  74.974  1.00  0.00     0.035 C 
BRANCH  15  16
ATOM     16  C   UNL     1      99.876   2.093  74.866  1.00  0.00     0.079 C 
BRANCH  16  17
ATOM     17  C   UNL     1     100.431   1.651  76.197  1.00  0.00     0.130 C 
ATOM     18  O   UNL     1     101.254   0.750  76.236  1.00  0.00    -0.300 OA
ATOM     19  C   UNL     1     100.003   2.305  77.477  1.00  0.00     0.087 C 
ENDBRANCH  16  17
ENDBRANCH  15  16
ENDBRANCH  13  15
ENDBRANCH  11  12
ENDBRANCH   1  11
TORSDOF 9
ENDMDL
MODEL 6
REMARK VINA RESULT:    -3.743      2.227      6.256
REMARK INTER + INTRA:          -7.855
REMARK INTER:                  -6.179
REMARK INTRA:                  -1.676
REMARK UNBOUND:                -2.143
REMARK SMILES CC(=O)CCC=C(C)CCC=C(C)CCC=C(C)C
REMARK SMILES IDX 10 1 11 2 12 3 13 4 14 5 15 6 16 7 18 8 17 9 19 10 9 11 7 12
REMARK SMILES IDX 6 13 8 14 5 15 4 16 2 17 3 18 1 19
REMARK H PARENT
REMARK Flexibility Score: inf
ROOT
ATOM      1  C   UNL     1     101.898   7.029  78.553  1.00  0.00     0.032 C 
ENDROOT
BRANCH   1   2
ATOM      2  C   UNL     1     101.540   8.498  78.532  1.00  0.00    -0.028 C 
ATOM      3  C   UNL     1     101.578   9.289  77.435  1.00  0.00    -0.077 C 
ATOM      4  C   UNL     1     102.059   8.781  76.097  1.00  0.00     0.039 C 
BRANCH   3   5
ATOM      5  C   UNL     1     101.127  10.728  77.553  1.00  0.00     0.034 C 
BRANCH   5   6
ATOM      6  C   UNL     1      99.877  10.837  78.434  1.00  0.00     0.032 C 
BRANCH   6   7
ATOM      7  C   UNL     1      98.626  10.840  77.590  1.00  0.00    -0.028 C 
ATOM      8  C   UNL     1      96.532   9.922  76.643  1.00  0.00     0.039 C 
ATOM      9  C   UNL     1      97.769   9.799  77.495  1.00  0.00    -0.080 C 
ATOM     10  C   UNL     1      98.028   8.482  78.185  1.00  0.00     0.039 C 
ENDBRANCH   6   7
ENDBRANCH   5   6
ENDBRANCH   3   5
ENDBRANCH   1   2
BRANCH   1  11
ATOM     11  C   UNL     1     100.652   6.163  78.768  1.00  0.00     0.034 C 
BRANCH  11  12
ATOM     12  C   UNL     1     100.518   5.098  77.699  1.00  0.00    -0.077 C 
ATOM     13  C   UNL     1      99.488   4.227  77.760  1.00  0.00    -0.028 C 
ATOM     14  C   UNL     1     101.546   5.025  76.596  1.00  0.00     0.039 C 
BRANCH  13  15
ATOM     15  C   UNL     1      99.284   3.118  76.754  1.00  0.00     0.035 C 
BRANCH  15  16
ATOM     16  C   UNL     1      98.194   3.460  75.732  1.00  0.00     0.079 C 
BRANCH  16  17
ATOM     17  C   UNL     1      97.152   4.382  76.313  1.00  0.00     0.130 C 
ATOM     18  O   UNL     1      96.361   3.952  77.138  1.00  0.00    -0.300 OA
ATOM     19  C   UNL     1      97.074   5.825  75.909  1.00  0.00     0.087 C 
ENDBRANCH  16  17
ENDBRANCH  15  16
ENDBRANCH  13  15
ENDBRANCH  11  12
ENDBRANCH   1  11
TORSDOF 9
ENDMDL
MODEL 7
REMARK VINA RESULT:    -3.735      2.532      5.037
REMARK INTER + INTRA:          -7.843
REMARK INTER:                  -6.146
REMARK INTRA:                  -1.697
REMARK UNBOUND:                -2.143
REMARK SMILES CC(=O)CCC=C(C)CCC=C(C)CCC=C(C)C
REMARK SMILES IDX 10 1 11 2 12 3 13 4 14 5 15 6 16 7 18 8 17 9 19 10 9 11 7 12
REMARK SMILES IDX 6 13 8 14 5 15 4 16 2 17 3 18 1 19
REMARK H PARENT
REMARK Flexibility Score: inf
ROOT
ATOM      1  C   UNL     1      97.528   6.943  75.897  1.00  0.00     0.032 C 
ENDROOT
BRANCH   1   2
ATOM      2  C   UNL     1      98.635   7.140  76.909  1.00  0.00    -0.028 C 
ATOM      3  C   UNL     1      98.713   8.173  77.779  1.00  0.00    -0.077 C 
ATOM      4  C   UNL     1      97.708   9.298  77.781  1.00  0.00     0.039 C 
BRANCH   3   5
ATOM      5  C   UNL     1      99.847   8.202  78.781  1.00  0.00     0.034 C 
BRANCH   5   6
ATOM      6  C   UNL     1     100.614   6.875  78.775  1.00  0.00     0.032 C 
BRANCH   6   7
ATOM      7  C   UNL     1     102.056   7.092  78.389  1.00  0.00    -0.028 C 
ATOM      8  C   UNL     1     104.091   6.836  77.003  1.00  0.00     0.039 C 
ATOM      9  C   UNL     1     102.650   6.527  77.312  1.00  0.00    -0.080 C 
ATOM     10  C   UNL     1     101.925   5.552  76.418  1.00  0.00     0.039 C 
ENDBRANCH   6   7
ENDBRANCH   5   6
ENDBRANCH   3   5
ENDBRANCH   1   2
BRANCH   1  11
ATOM     11  C   UNL     1      97.006   5.502  75.928  1.00  0.00     0.034 C 
BRANCH  11  12
ATOM     12  C   UNL     1      98.098   4.503  75.605  1.00  0.00    -0.077 C 
ATOM     13  C   UNL     1      98.497   3.629  76.554  1.00  0.00    -0.028 C 
ATOM     14  C   UNL     1      98.726   4.514  74.231  1.00  0.00     0.039 C 
BRANCH  13  15
ATOM     15  C   UNL     1      99.592   2.613  76.332  1.00  0.00     0.035 C 
BRANCH  15  16
ATOM     16  C   UNL     1     100.365   2.308  77.621  1.00  0.00     0.079 C 
BRANCH  16  17
ATOM     17  C   UNL     1     101.390   1.222  77.414  1.00  0.00     0.130 C 
ATOM     18  O   UNL     1     101.071   0.054  77.575  1.00  0.00    -0.300 OA
ATOM     19  C   UNL     1     102.796   1.544  77.003  1.00  0.00     0.087 C 
ENDBRANCH  16  17
ENDBRANCH  15  16
ENDBRANCH  13  15
ENDBRANCH  11  12
ENDBRANCH   1  11
TORSDOF 9
ENDMDL
MODEL 8
REMARK VINA RESULT:    -3.727      4.382      6.280
REMARK INTER + INTRA:          -7.831
REMARK INTER:                  -6.314
REMARK INTRA:                  -1.518
REMARK UNBOUND:                -2.143
REMARK SMILES CC(=O)CCC=C(C)CCC=C(C)CCC=C(C)C
REMARK SMILES IDX 10 1 11 2 12 3 13 4 14 5 15 6 16 7 18 8 17 9 19 10 9 11 7 12
REMARK SMILES IDX 6 13 8 14 5 15 4 16 2 17 3 18 1 19
REMARK H PARENT
REMARK Flexibility Score: inf
ROOT
ATOM      1  C   UNL     1      98.744   6.362  72.750  1.00  0.00     0.032 C 
ENDROOT
BRANCH   1   2
ATOM      2  C   UNL     1      97.719   6.999  71.838  1.00  0.00    -0.028 C 
ATOM      3  C   UNL     1      97.997   7.574  70.645  1.00  0.00    -0.077 C 
ATOM      4  C   UNL     1      99.408   7.698  70.123  1.00  0.00     0.039 C 
BRANCH   3   5
ATOM      5  C   UNL     1      96.857   8.112  69.809  1.00  0.00     0.034 C 
BRANCH   5   6
ATOM      6  C   UNL     1      95.880   6.992  69.432  1.00  0.00     0.032 C 
BRANCH   6   7
ATOM      7  C   UNL     1      96.595   5.884  68.699  1.00  0.00    -0.028 C 
ATOM      8  C   UNL     1      97.340   3.561  68.279  1.00  0.00     0.039 C 
ATOM      9  C   UNL     1      96.618   4.594  69.105  1.00  0.00    -0.080 C 
ATOM     10  C   UNL     1      95.976   4.148  70.395  1.00  0.00     0.039 C 
ENDBRANCH   6   7
ENDBRANCH   5   6
ENDBRANCH   3   5
ENDBRANCH   1   2
BRANCH   1  11
ATOM     11  C   UNL     1      98.133   5.192  73.530  1.00  0.00     0.034 C 
BRANCH  11  12
ATOM     12  C   UNL     1      97.875   5.556  74.978  1.00  0.00    -0.077 C 
ATOM     13  C   UNL     1      98.377   6.709  75.468  1.00  0.00    -0.028 C 
ATOM     14  C   UNL     1      97.073   4.614  75.844  1.00  0.00     0.039 C 
BRANCH  13  15
ATOM     15  C   UNL     1      98.193   7.145  76.903  1.00  0.00     0.035 C 
BRANCH  15  16
ATOM     16  C   UNL     1      99.530   7.447  77.590  1.00  0.00     0.079 C 
BRANCH  16  17
ATOM     17  C   UNL     1     100.418   6.229  77.645  1.00  0.00     0.130 C 
ATOM     18  O   UNL     1     100.024   5.223  78.213  1.00  0.00    -0.300 OA
ATOM     19  C   UNL     1     101.774   6.222  77.004  1.00  0.00     0.087 C 
ENDBRANCH  16  17
ENDBRANCH  15  16
ENDBRANCH  13  15
ENDBRANCH  11  12
ENDBRANCH   1  11
TORSDOF 9
ENDMDL
MODEL 9
REMARK VINA RESULT:    -3.690      2.913      4.691
REMARK INTER + INTRA:          -7.774
REMARK INTER:                  -6.245
REMARK INTRA:                  -1.530
REMARK UNBOUND:                -2.143
REMARK SMILES CC(=O)CCC=C(C)CCC=C(C)CCC=C(C)C
REMARK SMILES IDX 10 1 11 2 12 3 13 4 14 5 15 6 16 7 18 8 17 9 19 10 9 11 7 12
REMARK SMILES IDX 6 13 8 14 5 15 4 16 2 17 3 18 1 19
REMARK H PARENT
REMARK Flexibility Score: inf
ROOT
ATOM      1  C   UNL     1      97.918   4.203  76.896  1.00  0.00     0.032 C 
ENDROOT
BRANCH   1   2
ATOM      2  C   UNL     1      97.695   3.834  75.447  1.00  0.00    -0.028 C 
ATOM      3  C   UNL     1      97.799   4.691  74.405  1.00  0.00    -0.077 C 
ATOM      4  C   UNL     1      98.093   6.158  74.600  1.00  0.00     0.039 C 
BRANCH   3   5
ATOM      5  C   UNL     1      97.613   4.161  73.000  1.00  0.00     0.034 C 
BRANCH   5   6
ATOM      6  C   UNL     1      98.371   5.026  71.986  1.00  0.00     0.032 C 
BRANCH   6   7
ATOM      7  C   UNL     1      97.642   5.065  70.666  1.00  0.00    -0.028 C 
ATOM      8  C   UNL     1      96.387   6.106  68.804  1.00  0.00     0.039 C 
ATOM      9  C   UNL     1      97.065   6.173  70.147  1.00  0.00    -0.080 C 
ATOM     10  C   UNL     1      97.038   7.485  70.892  1.00  0.00     0.039 C 
ENDBRANCH   6   7
ENDBRANCH   5   6
ENDBRANCH   3   5
ENDBRANCH   1   2
BRANCH   1  11
ATOM     11  C   UNL     1      99.271   3.682  77.394  1.00  0.00     0.034 C 
BRANCH  11  12
ATOM     12  C   UNL     1     100.332   4.764  77.369  1.00  0.00    -0.077 C 
ATOM     13  C   UNL     1     100.282   5.760  78.279  1.00  0.00    -0.028 C 
ATOM     14  C   UNL     1     101.416   4.711  76.319  1.00  0.00     0.039 C 
BRANCH  13  15
ATOM     15  C   UNL     1     101.280   6.893  78.318  1.00  0.00     0.035 C 
BRANCH  15  16
ATOM     16  C   UNL     1     100.722   8.175  77.689  1.00  0.00     0.079 C 
BRANCH  16  17
ATOM     17  C   UNL     1      99.553   8.718  78.472  1.00  0.00     0.130 C 
ATOM     18  O   UNL     1      99.742   9.202  79.577  1.00  0.00    -0.300 OA
ATOM     19  C   UNL     1      98.160   8.687  77.917  1.00  0.00     0.087 C 
ENDBRANCH  16  17
ENDBRANCH  15  16
ENDBRANCH  13  15
ENDBRANCH  11  12
ENDBRANCH   1  11
TORSDOF 9
ENDMDL
