MODEL 1
REMARK VINA RESULT:    -4.379      0.000      0.000
REMARK INTER + INTRA:          -6.533
REMARK INTER:                  -6.172
REMARK INTRA:                  -0.361
REMARK UNBOUND:                -0.361
REMARK SMILES CCCCCCCCC(=O)[O-]
REMARK SMILES IDX 6 1 7 2 8 3 9 4 10 5 11 6 5 7 4 8 3 9 2 10 1 11
REMARK H PARENT
REMARK Flexibility Score: inf
ROOT
ATOM      1  C   UNL     1      -3.847  36.544  19.144  1.00  0.00     0.000 C 
ENDROOT
BRANCH   1   2
ATOM      2  C   UNL     1      -5.128  36.688  19.975  1.00  0.00     0.006 C 
BRANCH   2   3
ATOM      3  C   UNL     1      -5.002  37.834  20.983  1.00  0.00     0.053 C 
BRANCH   3   4
ATOM      4  C   UNL     1      -4.921  37.298  22.377  1.00  0.00     0.041 C 
ATOM      5  O   UNL     1      -5.096  36.071  22.597  1.00  0.00    -0.550 OA
ATOM      6  O   UNL     1      -4.601  38.147  23.430  1.00  0.00    -0.550 OA
ENDBRANCH   3   4
ENDBRANCH   2   3
ENDBRANCH   1   2
BRANCH   1   7
ATOM      7  C   UNL     1      -3.130  37.896  19.000  1.00  0.00     0.000 C 
BRANCH   7   8
ATOM      8  C   UNL     1      -2.192  37.951  17.781  1.00  0.00    -0.000 C 
BRANCH   8   9
ATOM      9  C   UNL     1      -2.406  36.833  16.743  1.00  0.00    -0.000 C 
BRANCH   9  10
ATOM     10  C   UNL     1      -2.064  37.272  15.312  1.00  0.00    -0.003 C 
ATOM     11  C   UNL     1      -3.300  37.801  14.589  1.00  0.00     0.004 C 
ENDBRANCH   9  10
ENDBRANCH   8   9
ENDBRANCH   7   8
ENDBRANCH   1   7
TORSDOF 7
ENDMDL
MODEL 2
REMARK VINA RESULT:    -4.354      0.726      1.346
REMARK INTER + INTRA:          -6.497
REMARK INTER:                  -6.194
REMARK INTRA:                  -0.303
REMARK UNBOUND:                -0.361
REMARK SMILES CCCCCCCCC(=O)[O-]
REMARK SMILES IDX 6 1 7 2 8 3 9 4 10 5 11 6 5 7 4 8 3 9 2 10 1 11
REMARK H PARENT
REMARK Flexibility Score: inf
ROOT
ATOM      1  C   UNL     1      -3.470  37.921  18.711  1.00  0.00     0.000 C 
ENDROOT
BRANCH   1   2
ATOM      2  C   UNL     1      -3.813  36.833  19.735  1.00  0.00     0.006 C 
BRANCH   2   3
ATOM      3  C   UNL     1      -5.138  37.138  20.438  1.00  0.00     0.053 C 
BRANCH   3   4
ATOM      4  C   UNL     1      -4.940  37.214  21.919  1.00  0.00     0.041 C 
ATOM      5  O   UNL     1      -4.957  38.328  22.506  1.00  0.00    -0.550 OA
ATOM      6  O   UNL     1      -4.787  36.048  22.660  1.00  0.00    -0.550 OA
ENDBRANCH   3   4
ENDBRANCH   2   3
ENDBRANCH   1   2
BRANCH   1   7
ATOM      7  C   UNL     1      -1.958  37.965  18.440  1.00  0.00     0.000 C 
BRANCH   7   8
ATOM      8  C   UNL     1      -1.592  37.528  17.010  1.00  0.00    -0.000 C 
BRANCH   8   9
ATOM      9  C   UNL     1      -2.775  37.041  16.155  1.00  0.00    -0.000 C 
BRANCH   9  10
ATOM     10  C   UNL     1      -2.623  37.391  14.667  1.00  0.00    -0.003 C 
ATOM     11  C   UNL     1      -3.684  38.397  14.228  1.00  0.00     0.004 C 
ENDBRANCH   9  10
ENDBRANCH   8   9
ENDBRANCH   7   8
ENDBRANCH   1   7
TORSDOF 7
ENDMDL
MODEL 3
REMARK VINA RESULT:    -4.297      3.324      6.211
REMARK INTER + INTRA:          -6.417
REMARK INTER:                  -6.053
REMARK INTRA:                  -0.365
REMARK UNBOUND:                -0.361
REMARK SMILES CCCCCCCCC(=O)[O-]
REMARK SMILES IDX 6 1 7 2 8 3 9 4 10 5 11 6 5 7 4 8 3 9 2 10 1 11
REMARK H PARENT
REMARK Flexibility Score: inf
ROOT
ATOM      1  C   UNL     1      -3.790  36.633  19.537  1.00  0.00     0.000 C 
ENDROOT
BRANCH   1   2
ATOM      2  C   UNL     1      -3.491  37.991  18.891  1.00  0.00     0.006 C 
BRANCH   2   3
ATOM      3  C   UNL     1      -2.107  37.995  18.236  1.00  0.00     0.053 C 
BRANCH   3   4
ATOM      4  C   UNL     1      -2.206  37.587  16.800  1.00  0.00     0.041 C 
ATOM      5  O   UNL     1      -1.699  36.503  16.412  1.00  0.00    -0.550 OA
ATOM      6  O   UNL     1      -2.904  38.382  15.899  1.00  0.00    -0.550 OA
ENDBRANCH   3   4
ENDBRANCH   2   3
ENDBRANCH   1   2
BRANCH   1   7
ATOM      7  C   UNL     1      -4.721  36.793  20.748  1.00  0.00     0.000 C 
BRANCH   7   8
ATOM      8  C   UNL     1      -4.997  38.266  21.103  1.00  0.00    -0.000 C 
BRANCH   8   9
ATOM      9  C   UNL     1      -4.766  38.634  22.580  1.00  0.00    -0.000 C 
BRANCH   9  10
ATOM     10  C   UNL     1      -4.871  37.426  23.522  1.00  0.00    -0.003 C 
ATOM     11  C   UNL     1      -4.860  37.865  24.983  1.00  0.00     0.004 C 
ENDBRANCH   9  10
ENDBRANCH   8   9
ENDBRANCH   7   8
ENDBRANCH   1   7
TORSDOF 7
ENDMDL
MODEL 4
REMARK VINA RESULT:    -4.220      2.982      5.831
REMARK INTER + INTRA:          -6.308
REMARK INTER:                  -5.688
REMARK INTRA:                  -0.620
REMARK UNBOUND:                -0.361
REMARK SMILES CCCCCCCCC(=O)[O-]
REMARK SMILES IDX 6 1 7 2 8 3 9 4 10 5 11 6 5 7 4 8 3 9 2 10 1 11
REMARK H PARENT
REMARK Flexibility Score: inf
ROOT
ATOM      1  C   UNL     1      -4.731  36.518  21.326  1.00  0.00     0.000 C 
ENDROOT
BRANCH   1   2
ATOM      2  C   UNL     1      -5.042  36.928  19.882  1.00  0.00     0.006 C 
BRANCH   2   3
ATOM      3  C   UNL     1      -4.267  38.188  19.489  1.00  0.00     0.053 C 
BRANCH   3   4
ATOM      4  C   UNL     1      -3.053  37.830  18.691  1.00  0.00     0.041 C 
ATOM      5  O   UNL     1      -1.967  38.436  18.882  1.00  0.00    -0.550 OA
ATOM      6  O   UNL     1      -3.109  36.790  17.770  1.00  0.00    -0.550 OA
ENDBRANCH   3   4
ENDBRANCH   2   3
ENDBRANCH   1   2
BRANCH   1   7
ATOM      7  C   UNL     1      -6.023  36.330  22.135  1.00  0.00     0.000 C 
BRANCH   7   8
ATOM      8  C   UNL     1      -6.024  37.118  23.457  1.00  0.00    -0.000 C 
BRANCH   8   9
ATOM      9  C   UNL     1      -4.716  37.869  23.768  1.00  0.00    -0.000 C 
BRANCH   9  10
ATOM     10  C   UNL     1      -4.921  39.382  23.938  1.00  0.00    -0.003 C 
ATOM     11  C   UNL     1      -4.881  40.097  22.590  1.00  0.00     0.004 C 
ENDBRANCH   9  10
ENDBRANCH   8   9
ENDBRANCH   7   8
ENDBRANCH   1   7
TORSDOF 7
ENDMDL
MODEL 5
REMARK VINA RESULT:    -4.193      1.329      2.039
REMARK INTER + INTRA:          -6.271
REMARK INTER:                  -5.976
REMARK INTRA:                  -0.294
REMARK UNBOUND:                -0.361
REMARK SMILES CCCCCCCCC(=O)[O-]
REMARK SMILES IDX 6 1 7 2 8 3 9 4 10 5 11 6 5 7 4 8 3 9 2 10 1 11
REMARK H PARENT
REMARK Flexibility Score: inf
ROOT
ATOM      1  C   UNL     1      -5.218  36.665  20.500  1.00  0.00     0.000 C 
ENDROOT
BRANCH   1   2
ATOM      2  C   UNL     1      -4.997  37.747  21.565  1.00  0.00     0.006 C 
BRANCH   2   3
ATOM      3  C   UNL     1      -5.027  37.146  22.972  1.00  0.00     0.053 C 
BRANCH   3   4
ATOM      4  C   UNL     1      -4.749  38.198  23.998  1.00  0.00     0.041 C 
ATOM      5  O   UNL     1      -4.533  37.876  25.195  1.00  0.00    -0.550 OA
ATOM      6  O   UNL     1      -4.676  39.534  23.621  1.00  0.00    -0.550 OA
ENDBRANCH   3   4
ENDBRANCH   2   3
ENDBRANCH   1   2
BRANCH   1   7
ATOM      7  C   UNL     1      -4.022  36.588  19.538  1.00  0.00     0.000 C 
BRANCH   7   8
ATOM      8  C   UNL     1      -3.333  37.948  19.327  1.00  0.00    -0.000 C 
BRANCH   8   9
ATOM      9  C   UNL     1      -2.757  38.174  17.917  1.00  0.00    -0.000 C 
BRANCH   9  10
ATOM     10  C   UNL     1      -2.739  36.896  17.066  1.00  0.00    -0.003 C 
ATOM     11  C   UNL     1      -1.766  37.026  15.898  1.00  0.00     0.004 C 
ENDBRANCH   9  10
ENDBRANCH   8   9
ENDBRANCH   7   8
ENDBRANCH   1   7
TORSDOF 7
ENDMDL
MODEL 6
REMARK VINA RESULT:    -4.187      3.304      6.008
REMARK INTER + INTRA:          -6.262
REMARK INTER:                  -5.871
REMARK INTRA:                  -0.391
REMARK UNBOUND:                -0.361
REMARK SMILES CCCCCCCCC(=O)[O-]
REMARK SMILES IDX 6 1 7 2 8 3 9 4 10 5 11 6 5 7 4 8 3 9 2 10 1 11
REMARK H PARENT
REMARK Flexibility Score: inf
ROOT
ATOM      1  C   UNL     1      -3.901  36.369  20.092  1.00  0.00     0.000 C 
ENDROOT
BRANCH   1   2
ATOM      2  C   UNL     1      -3.603  37.158  18.812  1.00  0.00     0.006 C 
BRANCH   2   3
ATOM      3  C   UNL     1      -2.605  38.287  19.082  1.00  0.00     0.053 C 
BRANCH   3   4
ATOM      4  C   UNL     1      -1.351  38.079  18.292  1.00  0.00     0.041 C 
ATOM      5  O   UNL     1      -0.230  38.330  18.805  1.00  0.00    -0.550 OA
ATOM      6  O   UNL     1      -1.419  37.559  17.005  1.00  0.00    -0.550 OA
ENDBRANCH   3   4
ENDBRANCH   2   3
ENDBRANCH   1   2
BRANCH   1   7
ATOM      7  C   UNL     1      -5.206  36.851  20.744  1.00  0.00     0.000 C 
BRANCH   7   8
ATOM      8  C   UNL     1      -4.991  37.455  22.143  1.00  0.00    -0.000 C 
BRANCH   8   9
ATOM      9  C   UNL     1      -4.687  38.965  22.161  1.00  0.00    -0.000 C 
BRANCH   9  10
ATOM     10  C   UNL     1      -4.538  39.529  23.581  1.00  0.00    -0.003 C 
ATOM     11  C   UNL     1      -4.790  38.450  24.631  1.00  0.00     0.004 C 
ENDBRANCH   9  10
ENDBRANCH   8   9
ENDBRANCH   7   8
ENDBRANCH   1   7
TORSDOF 7
ENDMDL
MODEL 7
REMARK VINA RESULT:    -4.158      2.003      3.030
REMARK INTER + INTRA:          -6.221
REMARK INTER:                  -5.957
REMARK INTRA:                  -0.263
REMARK UNBOUND:                -0.361
REMARK SMILES CCCCCCCCC(=O)[O-]
REMARK SMILES IDX 6 1 7 2 8 3 9 4 10 5 11 6 5 7 4 8 3 9 2 10 1 11
REMARK H PARENT
REMARK Flexibility Score: inf
ROOT
ATOM      1  C   UNL     1      -4.717  37.485  21.321  1.00  0.00     0.000 C 
ENDROOT
BRANCH   1   2
ATOM      2  C   UNL     1      -5.055  36.742  22.619  1.00  0.00     0.006 C 
BRANCH   2   3
ATOM      3  C   UNL     1      -5.835  37.642  23.581  1.00  0.00     0.053 C 
BRANCH   3   4
ATOM      4  C   UNL     1      -4.897  38.486  24.385  1.00  0.00     0.041 C 
ATOM      5  O   UNL     1      -4.682  39.683  24.058  1.00  0.00    -0.550 OA
ATOM      6  O   UNL     1      -4.300  37.967  25.527  1.00  0.00    -0.550 OA
ENDBRANCH   3   4
ENDBRANCH   2   3
ENDBRANCH   1   2
BRANCH   1   7
ATOM      7  C   UNL     1      -4.961  36.591  20.096  1.00  0.00     0.000 C 
BRANCH   7   8
ATOM      8  C   UNL     1      -3.832  36.681  19.053  1.00  0.00    -0.000 C 
BRANCH   8   9
ATOM      9  C   UNL     1      -3.018  37.987  19.086  1.00  0.00    -0.000 C 
BRANCH   9  10
ATOM     10  C   UNL     1      -1.789  37.950  18.166  1.00  0.00    -0.003 C 
ATOM     11  C   UNL     1      -0.525  38.355  18.920  1.00  0.00     0.004 C 
ENDBRANCH   9  10
ENDBRANCH   8   9
ENDBRANCH   7   8
ENDBRANCH   1   7
TORSDOF 7
ENDMDL
MODEL 8
REMARK VINA RESULT:    -4.118      1.656      2.289
REMARK INTER + INTRA:          -6.164
REMARK INTER:                  -5.799
REMARK INTRA:                  -0.365
REMARK UNBOUND:                -0.361
REMARK SMILES CCCCCCCCC(=O)[O-]
REMARK SMILES IDX 6 1 7 2 8 3 9 4 10 5 11 6 5 7 4 8 3 9 2 10 1 11
REMARK H PARENT
REMARK Flexibility Score: inf
ROOT
ATOM      1  C   UNL     1      -4.263  37.062  20.143  1.00  0.00     0.000 C 
ENDROOT
BRANCH   1   2
ATOM      2  C   UNL     1      -5.361  36.800  21.181  1.00  0.00     0.006 C 
BRANCH   2   3
ATOM      3  C   UNL     1      -4.769  36.245  22.479  1.00  0.00     0.053 C 
BRANCH   3   4
ATOM      4  C   UNL     1      -5.010  37.192  23.612  1.00  0.00     0.041 C 
ATOM      5  O   UNL     1      -5.489  36.773  24.698  1.00  0.00    -0.550 OA
ATOM      6  O   UNL     1      -4.657  38.530  23.486  1.00  0.00    -0.550 OA
ENDBRANCH   3   4
ENDBRANCH   2   3
ENDBRANCH   1   2
BRANCH   1   7
ATOM      7  C   UNL     1      -4.308  36.016  19.019  1.00  0.00     0.000 C 
BRANCH   7   8
ATOM      8  C   UNL     1      -3.491  36.429  17.781  1.00  0.00    -0.000 C 
BRANCH   8   9
ATOM      9  C   UNL     1      -2.897  37.849  17.838  1.00  0.00    -0.000 C 
BRANCH   9  10
ATOM     10  C   UNL     1      -1.379  37.872  17.610  1.00  0.00    -0.003 C 
ATOM     11  C   UNL     1      -0.642  38.348  18.860  1.00  0.00     0.004 C 
ENDBRANCH   9  10
ENDBRANCH   8   9
ENDBRANCH   7   8
ENDBRANCH   1   7
TORSDOF 7
ENDMDL
MODEL 9
REMARK VINA RESULT:    -4.002      3.868      6.413
REMARK INTER + INTRA:          -6.001
REMARK INTER:                  -5.794
REMARK INTRA:                  -0.207
REMARK UNBOUND:                -0.361
REMARK SMILES CCCCCCCCC(=O)[O-]
REMARK SMILES IDX 6 1 7 2 8 3 9 4 10 5 11 6 5 7 4 8 3 9 2 10 1 11
REMARK H PARENT
REMARK Flexibility Score: inf
ROOT
ATOM      1  C   UNL     1      -2.172  38.044  18.529  1.00  0.00     0.000 C 
ENDROOT
BRANCH   1   2
ATOM      2  C   UNL     1      -1.819  37.449  17.161  1.00  0.00     0.006 C 
BRANCH   2   3
ATOM      3  C   UNL     1      -3.083  37.111  16.366  1.00  0.00     0.053 C 
BRANCH   3   4
ATOM      4  C   UNL     1      -2.912  37.481  14.927  1.00  0.00     0.041 C 
ATOM      5  O   UNL     1      -3.865  37.998  14.288  1.00  0.00    -0.550 OA
ATOM      6  O   UNL     1      -1.682  37.302  14.305  1.00  0.00    -0.550 OA
ENDBRANCH   3   4
ENDBRANCH   2   3
ENDBRANCH   1   2
BRANCH   1   7
ATOM      7  C   UNL     1      -3.669  37.874  18.833  1.00  0.00     0.000 C 
BRANCH   7   8
ATOM      8  C   UNL     1      -3.944  36.826  19.927  1.00  0.00    -0.000 C 
BRANCH   8   9
ATOM      9  C   UNL     1      -4.916  37.278  21.032  1.00  0.00    -0.000 C 
BRANCH   9  10
ATOM     10  C   UNL     1      -4.865  36.381  22.277  1.00  0.00    -0.003 C 
ATOM     11  C   UNL     1      -5.640  37.004  23.435  1.00  0.00     0.004 C 
ENDBRANCH   9  10
ENDBRANCH   8   9
ENDBRANCH   7   8
ENDBRANCH   1   7
TORSDOF 7
ENDMDL
