MODEL 1
REMARK VINA RESULT:    -3.912      0.000      0.000
REMARK INTER + INTRA:          -6.220
REMARK INTER:                  -5.627
REMARK INTRA:                  -0.593
REMARK UNBOUND:                -0.593
REMARK SMILES O=C(CO)[C@H](O)[C@H](O)[C@H](O)CO
REMARK SMILES IDX 7 1 9 2 11 3 12 4 10 6 5 8 2 9 1 10 3 11 4 12 6 14 8 16
REMARK H PARENT 12 5 10 7 4 13 6 15 8 17
REMARK Flexibility Score: inf
ROOT
ATOM      1  C   UNL     1      55.378  19.035  51.561  1.00  0.00     0.181 C 
ENDROOT
BRANCH   1   2
ATOM      2  C   UNL     1      55.738  18.470  50.161  1.00  0.00     0.171 C 
BRANCH   2   3
ATOM      3  C   UNL     1      56.961  17.537  50.219  1.00  0.00     0.190 C 
BRANCH   3   4
ATOM      4  O   UNL     1      57.194  16.956  48.966  1.00  0.00    -0.394 OA
ATOM      5  H   UNL     1      57.895  17.508  48.532  1.00  0.00     0.210 HD
ENDBRANCH   3   4
ENDBRANCH   2   3
BRANCH   2   6
ATOM      6  O   UNL     1      54.645  17.746  49.655  1.00  0.00    -0.388 OA
ATOM      7  H   UNL     1      54.862  16.783  49.757  1.00  0.00     0.211 HD
ENDBRANCH   2   6
ENDBRANCH   1   2
BRANCH   1   8
ATOM      8  C   UNL     1      53.999  19.756  51.565  1.00  0.00     0.214 C 
BRANCH   8   9
ATOM      9  C   UNL     1      53.941  20.874  52.588  1.00  0.00     0.189 C 
ATOM     10  O   UNL     1      54.303  20.652  53.734  1.00  0.00    -0.294 OA
BRANCH   9  11
ATOM     11  C   UNL     1      53.469  22.260  52.231  1.00  0.00     0.234 C 
BRANCH  11  12
ATOM     12  O   UNL     1      53.372  22.392  50.840  1.00  0.00    -0.388 OA
ATOM     13  H   UNL     1      53.790  23.261  50.605  1.00  0.00     0.211 HD
ENDBRANCH  11  12
ENDBRANCH   9  11
ENDBRANCH   8   9
BRANCH   8  14
ATOM     14  O   UNL     1      52.933  18.860  51.774  1.00  0.00    -0.382 OA
ATOM     15  H   UNL     1      52.535  18.646  50.891  1.00  0.00     0.211 HD
ENDBRANCH   8  14
ENDBRANCH   1   8
BRANCH   1  16
ATOM     16  O   UNL     1      56.381  19.913  52.013  1.00  0.00    -0.387 OA
ATOM     17  H   UNL     1      57.191  19.371  52.200  1.00  0.00     0.211 HD
ENDBRANCH   1  16
TORSDOF 10
ENDMDL
MODEL 2
REMARK VINA RESULT:    -3.881      1.141      4.456
REMARK INTER + INTRA:          -6.175
REMARK INTER:                  -5.199
REMARK INTRA:                  -0.976
REMARK UNBOUND:                -0.593
REMARK SMILES O=C(CO)[C@H](O)[C@H](O)[C@H](O)CO
REMARK SMILES IDX 7 1 9 2 11 3 12 4 10 6 5 8 2 9 1 10 3 11 4 12 6 14 8 16
REMARK H PARENT 12 5 10 7 4 13 6 15 8 17
REMARK Flexibility Score: inf
ROOT
ATOM      1  C   UNL     1      55.290  19.575  52.308  1.00  0.00     0.181 C 
ENDROOT
BRANCH   1   2
ATOM      2  C   UNL     1      53.772  19.786  52.555  1.00  0.00     0.171 C 
BRANCH   2   3
ATOM      3  C   UNL     1      53.348  21.244  52.298  1.00  0.00     0.190 C 
BRANCH   3   4
ATOM      4  O   UNL     1      53.517  21.572  50.947  1.00  0.00    -0.394 OA
ATOM      5  H   UNL     1      53.931  20.778  50.520  1.00  0.00     0.210 HD
ENDBRANCH   3   4
ENDBRANCH   2   3
BRANCH   2   6
ATOM      6  O   UNL     1      53.038  18.947  51.698  1.00  0.00    -0.388 OA
ATOM      7  H   UNL     1      52.824  18.124  52.212  1.00  0.00     0.211 HD
ENDBRANCH   2   6
ENDBRANCH   1   2
BRANCH   1   8
ATOM      8  C   UNL     1      55.561  18.624  51.106  1.00  0.00     0.214 C 
BRANCH   8   9
ATOM      9  C   UNL     1      57.037  18.313  50.945  1.00  0.00     0.189 C 
ATOM     10  O   UNL     1      57.862  19.103  51.382  1.00  0.00    -0.294 OA
BRANCH   9  11
ATOM     11  C   UNL     1      57.520  17.051  50.280  1.00  0.00     0.234 C 
BRANCH  11  12
ATOM     12  O   UNL     1      57.061  16.997  48.958  1.00  0.00    -0.388 OA
ATOM     13  H   UNL     1      56.077  17.123  48.991  1.00  0.00     0.211 HD
ENDBRANCH  11  12
ENDBRANCH   9  11
ENDBRANCH   8   9
BRANCH   8  14
ATOM     14  O   UNL     1      55.043  19.132  49.901  1.00  0.00    -0.382 OA
ATOM     15  H   UNL     1      55.790  19.206  49.253  1.00  0.00     0.211 HD
ENDBRANCH   8  14
ENDBRANCH   1   8
BRANCH   1  16
ATOM     16  O   UNL     1      55.914  19.077  53.466  1.00  0.00    -0.387 OA
ATOM     17  H   UNL     1      56.714  19.638  53.640  1.00  0.00     0.211 HD
ENDBRANCH   1  16
TORSDOF 10
ENDMDL
MODEL 3
REMARK VINA RESULT:    -3.828      1.628      2.532
REMARK INTER + INTRA:          -6.100
REMARK INTER:                  -5.263
REMARK INTRA:                  -0.836
REMARK UNBOUND:                -0.593
REMARK SMILES O=C(CO)[C@H](O)[C@H](O)[C@H](O)CO
REMARK SMILES IDX 7 1 9 2 11 3 12 4 10 6 5 8 2 9 1 10 3 11 4 12 6 14 8 16
REMARK H PARENT 12 5 10 7 4 13 6 15 8 17
REMARK Flexibility Score: inf
ROOT
ATOM      1  C   UNL     1      57.197  18.030  50.957  1.00  0.00     0.181 C 
ENDROOT
BRANCH   1   2
ATOM      2  C   UNL     1      57.709  17.384  49.642  1.00  0.00     0.171 C 
BRANCH   2   3
ATOM      3  C   UNL     1      59.185  17.730  49.372  1.00  0.00     0.190 C 
BRANCH   3   4
ATOM      4  O   UNL     1      59.296  19.013  48.823  1.00  0.00    -0.394 OA
ATOM      5  H   UNL     1      59.137  19.647  49.570  1.00  0.00     0.210 HD
ENDBRANCH   3   4
ENDBRANCH   2   3
BRANCH   2   6
ATOM      6  O   UNL     1      57.582  15.987  49.728  1.00  0.00    -0.388 OA
ATOM      7  H   UNL     1      58.496  15.621  49.862  1.00  0.00     0.211 HD
ENDBRANCH   2   6
ENDBRANCH   1   2
BRANCH   1   8
ATOM      8  C   UNL     1      55.764  18.618  50.802  1.00  0.00     0.214 C 
BRANCH   8   9
ATOM      9  C   UNL     1      55.093  18.848  52.143  1.00  0.00     0.189 C 
ATOM     10  O   UNL     1      55.508  18.252  53.126  1.00  0.00    -0.294 OA
BRANCH   9  11
ATOM     11  C   UNL     1      53.939  19.803  52.306  1.00  0.00     0.234 C 
BRANCH  11  12
ATOM     12  O   UNL     1      53.675  20.451  51.092  1.00  0.00    -0.388 OA
ATOM     13  H   UNL     1      54.418  20.217  50.476  1.00  0.00     0.211 HD
ENDBRANCH  11  12
ENDBRANCH   9  11
ENDBRANCH   8   9
BRANCH   8  14
ATOM     14  O   UNL     1      54.947  17.815  49.986  1.00  0.00    -0.382 OA
ATOM     15  H   UNL     1      54.081  17.685  50.453  1.00  0.00     0.211 HD
ENDBRANCH   8  14
ENDBRANCH   1   8
BRANCH   1  16
ATOM     16  O   UNL     1      58.084  19.031  51.394  1.00  0.00    -0.387 OA
ATOM     17  H   UNL     1      58.687  19.248  50.636  1.00  0.00     0.211 HD
ENDBRANCH   1  16
TORSDOF 10
ENDMDL
MODEL 4
REMARK VINA RESULT:    -3.823     20.912     21.931
REMARK INTER + INTRA:          -6.091
REMARK INTER:                  -5.168
REMARK INTRA:                  -0.923
REMARK UNBOUND:                -0.593
REMARK SMILES O=C(CO)[C@H](O)[C@H](O)[C@H](O)CO
REMARK SMILES IDX 7 1 9 2 11 3 12 4 10 6 5 8 2 9 1 10 3 11 4 12 6 14 8 16
REMARK H PARENT 12 5 10 7 4 13 6 15 8 17
REMARK Flexibility Score: inf
ROOT
ATOM      1  C   UNL     1      71.812  30.347  60.594  1.00  0.00     0.181 C 
ENDROOT
BRANCH   1   2
ATOM      2  C   UNL     1      71.772  28.796  60.654  1.00  0.00     0.171 C 
BRANCH   2   3
ATOM      3  C   UNL     1      73.024  28.218  61.337  1.00  0.00     0.190 C 
BRANCH   3   4
ATOM      4  O   UNL     1      73.032  28.542  62.700  1.00  0.00    -0.394 OA
ATOM      5  H   UNL     1      73.626  27.878  63.137  1.00  0.00     0.210 HD
ENDBRANCH   3   4
ENDBRANCH   2   3
BRANCH   2   6
ATOM      6  O   UNL     1      70.636  28.386  61.374  1.00  0.00    -0.388 OA
ATOM      7  H   UNL     1      69.954  29.100  61.270  1.00  0.00     0.211 HD
ENDBRANCH   2   6
ENDBRANCH   1   2
BRANCH   1   8
ATOM      8  C   UNL     1      71.267  30.895  59.243  1.00  0.00     0.214 C 
BRANCH   8   9
ATOM      9  C   UNL     1      71.046  32.395  59.283  1.00  0.00     0.189 C 
ATOM     10  O   UNL     1      71.260  33.001  60.323  1.00  0.00    -0.294 OA
BRANCH   9  11
ATOM     11  C   UNL     1      70.589  33.168  58.074  1.00  0.00     0.234 C 
BRANCH  11  12
ATOM     12  O   UNL     1      69.229  32.930  57.836  1.00  0.00    -0.388 OA
ATOM     13  H   UNL     1      69.078  31.960  57.984  1.00  0.00     0.211 HD
ENDBRANCH  11  12
ENDBRANCH   9  11
ENDBRANCH   8   9
BRANCH   8  14
ATOM     14  O   UNL     1      70.083  30.246  58.847  1.00  0.00    -0.382 OA
ATOM     15  H   UNL     1      69.745  30.696  58.030  1.00  0.00     0.211 HD
ENDBRANCH   8  14
ENDBRANCH   1   8
BRANCH   1  16
ATOM     16  O   UNL     1      73.121  30.816  60.811  1.00  0.00    -0.387 OA
ATOM     17  H   UNL     1      73.095  31.807  60.763  1.00  0.00     0.211 HD
ENDBRANCH   1  16
TORSDOF 10
ENDMDL
MODEL 5
REMARK VINA RESULT:    -3.816      1.801      2.404
REMARK INTER + INTRA:          -6.082
REMARK INTER:                  -5.029
REMARK INTRA:                  -1.053
REMARK UNBOUND:                -0.593
REMARK SMILES O=C(CO)[C@H](O)[C@H](O)[C@H](O)CO
REMARK SMILES IDX 7 1 9 2 11 3 12 4 10 6 5 8 2 9 1 10 3 11 4 12 6 14 8 16
REMARK H PARENT 12 5 10 7 4 13 6 15 8 17
REMARK Flexibility Score: inf
ROOT
ATOM      1  C   UNL     1      56.697  17.826  51.850  1.00  0.00     0.181 C 
ENDROOT
BRANCH   1   2
ATOM      2  C   UNL     1      56.564  18.094  50.326  1.00  0.00     0.171 C 
BRANCH   2   3
ATOM      3  C   UNL     1      57.585  17.280  49.511  1.00  0.00     0.190 C 
BRANCH   3   4
ATOM      4  O   UNL     1      57.588  15.942  49.926  1.00  0.00    -0.394 OA
ATOM      5  H   UNL     1      58.254  15.478  49.355  1.00  0.00     0.210 HD
ENDBRANCH   3   4
ENDBRANCH   2   3
BRANCH   2   6
ATOM      6  O   UNL     1      55.269  17.746  49.902  1.00  0.00    -0.388 OA
ATOM      7  H   UNL     1      55.195  16.758  49.979  1.00  0.00     0.211 HD
ENDBRANCH   2   6
ENDBRANCH   1   2
BRANCH   1   8
ATOM      8  C   UNL     1      56.044  18.953  52.702  1.00  0.00     0.214 C 
BRANCH   8   9
ATOM      9  C   UNL     1      54.717  18.523  53.297  1.00  0.00     0.189 C 
ATOM     10  O   UNL     1      54.698  17.616  54.118  1.00  0.00    -0.294 OA
BRANCH   9  11
ATOM     11  C   UNL     1      53.420  19.191  52.923  1.00  0.00     0.234 C 
BRANCH  11  12
ATOM     12  O   UNL     1      53.215  19.105  51.540  1.00  0.00    -0.388 OA
ATOM     13  H   UNL     1      52.677  18.285  51.381  1.00  0.00     0.211 HD
ENDBRANCH  11  12
ENDBRANCH   9  11
ENDBRANCH   8   9
BRANCH   8  14
ATOM     14  O   UNL     1      55.880  20.143  51.970  1.00  0.00    -0.382 OA
ATOM     15  H   UNL     1      55.283  20.742  52.488  1.00  0.00     0.211 HD
ENDBRANCH   8  14
ENDBRANCH   1   8
BRANCH   1  16
ATOM     16  O   UNL     1      58.049  17.673  52.208  1.00  0.00    -0.387 OA
ATOM     17  H   UNL     1      58.242  18.324  52.933  1.00  0.00     0.211 HD
ENDBRANCH   1  16
TORSDOF 10
ENDMDL
MODEL 6
REMARK VINA RESULT:    -3.807     21.248     22.181
REMARK INTER + INTRA:          -6.069
REMARK INTER:                  -5.131
REMARK INTRA:                  -0.939
REMARK UNBOUND:                -0.593
REMARK SMILES O=C(CO)[C@H](O)[C@H](O)[C@H](O)CO
REMARK SMILES IDX 7 1 9 2 11 3 12 4 10 6 5 8 2 9 1 10 3 11 4 12 6 14 8 16
REMARK H PARENT 12 5 10 7 4 13 6 15 8 17
REMARK Flexibility Score: inf
ROOT
ATOM      1  C   UNL     1      71.604  30.906  59.569  1.00  0.00     0.181 C 
ENDROOT
BRANCH   1   2
ATOM      2  C   UNL     1      71.885  30.370  60.999  1.00  0.00     0.171 C 
BRANCH   2   3
ATOM      3  C   UNL     1      71.920  28.832  61.036  1.00  0.00     0.190 C 
BRANCH   3   4
ATOM      4  O   UNL     1      70.662  28.321  61.378  1.00  0.00    -0.394 OA
ATOM      5  H   UNL     1      70.832  27.516  61.932  1.00  0.00     0.210 HD
ENDBRANCH   3   4
ENDBRANCH   2   3
BRANCH   2   6
ATOM      6  O   UNL     1      73.125  30.859  61.445  1.00  0.00    -0.388 OA
ATOM      7  H   UNL     1      73.379  30.322  62.241  1.00  0.00     0.211 HD
ENDBRANCH   2   6
ENDBRANCH   1   2
BRANCH   1   8
ATOM      8  C   UNL     1      71.089  32.374  59.584  1.00  0.00     0.214 C 
BRANCH   8   9
ATOM      9  C   UNL     1      70.809  32.895  58.187  1.00  0.00     0.189 C 
ATOM     10  O   UNL     1      71.177  32.241  57.222  1.00  0.00    -0.294 OA
BRANCH   9  11
ATOM     11  C   UNL     1      70.073  34.188  57.949  1.00  0.00     0.234 C 
BRANCH  11  12
ATOM     12  O   UNL     1      69.444  34.608  59.128  1.00  0.00    -0.388 OA
ATOM     13  H   UNL     1      68.479  34.395  59.029  1.00  0.00     0.211 HD
ENDBRANCH  11  12
ENDBRANCH   9  11
ENDBRANCH   8   9
BRANCH   8  14
ATOM     14  O   UNL     1      71.975  33.240  60.251  1.00  0.00    -0.382 OA
ATOM     15  H   UNL     1      72.324  32.766  61.049  1.00  0.00     0.211 HD
ENDBRANCH   8  14
ENDBRANCH   1   8
BRANCH   1  16
ATOM     16  O   UNL     1      70.681  30.078  58.904  1.00  0.00    -0.387 OA
ATOM     17  H   UNL     1      70.793  30.227  57.929  1.00  0.00     0.211 HD
ENDBRANCH   1  16
TORSDOF 10
ENDMDL
MODEL 7
REMARK VINA RESULT:    -3.775     21.115     22.520
REMARK INTER + INTRA:          -6.023
REMARK INTER:                  -5.334
REMARK INTRA:                  -0.688
REMARK UNBOUND:                -0.593
REMARK SMILES O=C(CO)[C@H](O)[C@H](O)[C@H](O)CO
REMARK SMILES IDX 7 1 9 2 11 3 12 4 10 6 5 8 2 9 1 10 3 11 4 12 6 14 8 16
REMARK H PARENT 12 5 10 7 4 13 6 15 8 17
REMARK Flexibility Score: inf
ROOT
ATOM      1  C   UNL     1      70.952  31.288  59.682  1.00  0.00     0.181 C 
ENDROOT
BRANCH   1   2
ATOM      2  C   UNL     1      71.409  32.695  59.211  1.00  0.00     0.171 C 
BRANCH   2   3
ATOM      3  C   UNL     1      70.302  33.424  58.429  1.00  0.00     0.190 C 
BRANCH   3   4
ATOM      4  O   UNL     1      69.754  34.456  59.202  1.00  0.00    -0.394 OA
ATOM      5  H   UNL     1      70.306  35.260  59.018  1.00  0.00     0.210 HD
ENDBRANCH   3   4
ENDBRANCH   2   3
BRANCH   2   6
ATOM      6  O   UNL     1      71.756  33.472  60.330  1.00  0.00    -0.388 OA
ATOM      7  H   UNL     1      72.714  33.714  60.230  1.00  0.00     0.211 HD
ENDBRANCH   2   6
ENDBRANCH   1   2
BRANCH   1   8
ATOM      8  C   UNL     1      72.121  30.469  60.301  1.00  0.00     0.214 C 
BRANCH   8   9
ATOM      9  C   UNL     1      71.673  29.097  60.767  1.00  0.00     0.189 C 
ATOM     10  O   UNL     1      70.477  28.845  60.813  1.00  0.00    -0.294 OA
BRANCH   9  11
ATOM     11  C   UNL     1      72.656  28.025  61.159  1.00  0.00     0.234 C 
BRANCH  11  12
ATOM     12  O   UNL     1      73.124  28.253  62.459  1.00  0.00    -0.388 OA
ATOM     13  H   UNL     1      72.337  28.511  63.006  1.00  0.00     0.211 HD
ENDBRANCH  11  12
ENDBRANCH   9  11
ENDBRANCH   8   9
BRANCH   8  14
ATOM     14  O   UNL     1      72.746  31.155  61.359  1.00  0.00    -0.382 OA
ATOM     15  H   UNL     1      72.417  30.771  62.211  1.00  0.00     0.211 HD
ENDBRANCH   8  14
ENDBRANCH   1   8
BRANCH   1  16
ATOM     16  O   UNL     1      70.375  30.573  58.615  1.00  0.00    -0.387 OA
ATOM     17  H   UNL     1      69.953  29.759  58.994  1.00  0.00     0.211 HD
ENDBRANCH   1  16
TORSDOF 10
ENDMDL
MODEL 8
REMARK VINA RESULT:    -3.752      1.439      2.500
REMARK INTER + INTRA:          -5.990
REMARK INTER:                  -4.956
REMARK INTRA:                  -1.034
REMARK UNBOUND:                -0.593
REMARK SMILES O=C(CO)[C@H](O)[C@H](O)[C@H](O)CO
REMARK SMILES IDX 7 1 9 2 11 3 12 4 10 6 5 8 2 9 1 10 3 11 4 12 6 14 8 16
REMARK H PARENT 12 5 10 7 4 13 6 15 8 17
REMARK Flexibility Score: inf
ROOT
ATOM      1  C   UNL     1      56.324  18.494  50.823  1.00  0.00     0.181 C 
ENDROOT
BRANCH   1   2
ATOM      2  C   UNL     1      57.547  17.537  50.809  1.00  0.00     0.171 C 
BRANCH   2   3
ATOM      3  C   UNL     1      58.119  17.362  49.391  1.00  0.00     0.190 C 
BRANCH   3   4
ATOM      4  O   UNL     1      57.235  16.625  48.593  1.00  0.00    -0.394 OA
ATOM      5  H   UNL     1      56.380  16.584  49.094  1.00  0.00     0.210 HD
ENDBRANCH   3   4
ENDBRANCH   2   3
BRANCH   2   6
ATOM      6  O   UNL     1      58.555  18.056  51.640  1.00  0.00    -0.388 OA
ATOM      7  H   UNL     1      58.776  17.350  52.302  1.00  0.00     0.211 HD
ENDBRANCH   2   6
ENDBRANCH   1   2
BRANCH   1   8
ATOM      8  C   UNL     1      56.148  19.200  52.198  1.00  0.00     0.214 C 
BRANCH   8   9
ATOM      9  C   UNL     1      54.707  19.182  52.669  1.00  0.00     0.189 C 
ATOM     10  O   UNL     1      54.311  18.238  53.338  1.00  0.00    -0.294 OA
BRANCH   9  11
ATOM     11  C   UNL     1      53.750  20.302  52.356  1.00  0.00     0.234 C 
BRANCH  11  12
ATOM     12  O   UNL     1      53.765  20.578  50.983  1.00  0.00    -0.388 OA
ATOM     13  H   UNL     1      53.194  21.379  50.846  1.00  0.00     0.211 HD
ENDBRANCH  11  12
ENDBRANCH   9  11
ENDBRANCH   8   9
BRANCH   8  14
ATOM     14  O   UNL     1      56.632  20.521  52.181  1.00  0.00    -0.382 OA
ATOM     15  H   UNL     1      55.889  21.116  51.903  1.00  0.00     0.211 HD
ENDBRANCH   8  14
ENDBRANCH   1   8
BRANCH   1  16
ATOM     16  O   UNL     1      55.149  17.798  50.485  1.00  0.00    -0.387 OA
ATOM     17  H   UNL     1      54.801  17.378  51.314  1.00  0.00     0.211 HD
ENDBRANCH   1  16
TORSDOF 10
ENDMDL
MODEL 9
REMARK VINA RESULT:    -3.614     21.085     22.408
REMARK INTER + INTRA:          -5.792
REMARK INTER:                  -4.888
REMARK INTRA:                  -0.904
REMARK UNBOUND:                -0.593
REMARK SMILES O=C(CO)[C@H](O)[C@H](O)[C@H](O)CO
REMARK SMILES IDX 7 1 9 2 11 3 12 4 10 6 5 8 2 9 1 10 3 11 4 12 6 14 8 16
REMARK H PARENT 12 5 10 7 4 13 6 15 8 17
REMARK Flexibility Score: inf
ROOT
ATOM      1  C   UNL     1      70.342  32.742  58.428  1.00  0.00     0.181 C 
ENDROOT
BRANCH   1   2
ATOM      2  C   UNL     1      70.082  34.271  58.508  1.00  0.00     0.171 C 
BRANCH   2   3
ATOM      3  C   UNL     1      69.022  34.724  57.487  1.00  0.00     0.190 C 
BRANCH   3   4
ATOM      4  O   UNL     1      67.944  33.831  57.471  1.00  0.00    -0.394 OA
ATOM      5  H   UNL     1      67.418  34.018  58.291  1.00  0.00     0.210 HD
ENDBRANCH   3   4
ENDBRANCH   2   3
BRANCH   2   6
ATOM      6  O   UNL     1      69.634  34.601  59.799  1.00  0.00    -0.388 OA
ATOM      7  H   UNL     1      68.748  34.168  59.918  1.00  0.00     0.211 HD
ENDBRANCH   2   6
ENDBRANCH   1   2
BRANCH   1   8
ATOM      8  C   UNL     1      71.632  32.327  59.193  1.00  0.00     0.214 C 
BRANCH   8   9
ATOM      9  C   UNL     1      71.566  30.895  59.690  1.00  0.00     0.189 C 
ATOM     10  O   UNL     1      70.563  30.233  59.464  1.00  0.00    -0.294 OA
BRANCH   9  11
ATOM     11  C   UNL     1      72.705  30.255  60.438  1.00  0.00     0.234 C 
BRANCH  11  12
ATOM     12  O   UNL     1      72.870  30.872  61.685  1.00  0.00    -0.388 OA
ATOM     13  H   UNL     1      73.794  30.670  61.985  1.00  0.00     0.211 HD
ENDBRANCH  11  12
ENDBRANCH   9  11
ENDBRANCH   8   9
BRANCH   8  14
ATOM     14  O   UNL     1      71.916  33.194  60.264  1.00  0.00    -0.382 OA
ATOM     15  H   UNL     1      71.149  33.814  60.368  1.00  0.00     0.211 HD
ENDBRANCH   8  14
ENDBRANCH   1   8
BRANCH   1  16
ATOM     16  O   UNL     1      70.422  32.324  57.087  1.00  0.00    -0.387 OA
ATOM     17  H   UNL     1      70.173  31.364  57.057  1.00  0.00     0.211 HD
ENDBRANCH   1  16
TORSDOF 10
ENDMDL
