MODEL 1
REMARK VINA RESULT:    -3.211      0.000      0.000
REMARK INTER + INTRA:          -5.328
REMARK INTER:                  -4.524
REMARK INTRA:                  -0.804
REMARK UNBOUND:                -0.804
REMARK SMILES CCCCCCCCC(=O)[O-]
REMARK SMILES IDX 6 1 7 2 8 3 9 4 10 5 11 6 5 7 4 8 3 9 2 10 1 11
REMARK H PARENT
REMARK Flexibility Score: inf
ROOT
ATOM      1  C   UNL     1      -1.196   7.831  40.278  1.00  0.00     0.000 C 
ENDROOT
BRANCH   1   2
ATOM      2  C   UNL     1      -0.718   9.029  39.438  1.00  0.00     0.006 C 
BRANCH   2   3
ATOM      3  C   UNL     1      -1.718   9.398  38.335  1.00  0.00     0.053 C 
BRANCH   3   4
ATOM      4  C   UNL     1      -1.040   9.606  37.015  1.00  0.00     0.041 C 
ATOM      5  O   UNL     1       0.214   9.698  36.953  1.00  0.00    -0.550 OA
ATOM      6  O   UNL     1      -1.798   9.729  35.857  1.00  0.00    -0.550 OA
ENDBRANCH   3   4
ENDBRANCH   2   3
ENDBRANCH   1   2
BRANCH   1   7
ATOM      7  C   UNL     1      -2.679   7.501  40.047  1.00  0.00     0.000 C 
BRANCH   7   8
ATOM      8  C   UNL     1      -2.907   6.031  39.667  1.00  0.00    -0.000 C 
BRANCH   8   9
ATOM      9  C   UNL     1      -1.630   5.412  39.079  1.00  0.00    -0.000 C 
BRANCH   9  10
ATOM     10  C   UNL     1      -1.622   5.421  37.542  1.00  0.00    -0.003 C 
ATOM     11  C   UNL     1      -0.320   5.968  36.960  1.00  0.00     0.004 C 
ENDBRANCH   9  10
ENDBRANCH   8   9
ENDBRANCH   7   8
ENDBRANCH   1   7
TORSDOF 7
ENDMDL
MODEL 2
REMARK VINA RESULT:    -3.170      1.307      2.655
REMARK INTER + INTRA:          -5.271
REMARK INTER:                  -4.578
REMARK INTRA:                  -0.692
REMARK UNBOUND:                -0.804
REMARK SMILES CCCCCCCCC(=O)[O-]
REMARK SMILES IDX 6 1 7 2 8 3 9 4 10 5 11 6 5 7 4 8 3 9 2 10 1 11
REMARK H PARENT
REMARK Flexibility Score: inf
ROOT
ATOM      1  C   UNL     1      -1.834   9.539  38.399  1.00  0.00     0.000 C 
ENDROOT
BRANCH   1   2
ATOM      2  C   UNL     1      -1.358   9.512  36.936  1.00  0.00     0.006 C 
BRANCH   2   3
ATOM      3  C   UNL     1      -0.168   8.565  36.733  1.00  0.00     0.053 C 
BRANCH   3   4
ATOM      4  C   UNL     1       1.008   9.270  36.128  1.00  0.00     0.041 C 
ATOM      5  O   UNL     1       0.882   9.903  35.047  1.00  0.00    -0.550 OA
ATOM      6  O   UNL     1       2.251   9.202  36.745  1.00  0.00    -0.550 OA
ENDBRANCH   3   4
ENDBRANCH   2   3
ENDBRANCH   1   2
BRANCH   1   7
ATOM      7  C   UNL     1      -0.751   9.067  39.383  1.00  0.00     0.000 C 
BRANCH   7   8
ATOM      8  C   UNL     1      -1.256   7.984  40.347  1.00  0.00    -0.000 C 
BRANCH   8   9
ATOM      9  C   UNL     1      -2.682   7.546  39.980  1.00  0.00    -0.000 C 
BRANCH   9  10
ATOM     10  C   UNL     1      -2.780   6.042  39.677  1.00  0.00    -0.003 C 
ATOM     11  C   UNL     1      -1.969   5.632  38.449  1.00  0.00     0.004 C 
ENDBRANCH   9  10
ENDBRANCH   8   9
ENDBRANCH   7   8
ENDBRANCH   1   7
TORSDOF 7
ENDMDL
MODEL 3
REMARK VINA RESULT:    -3.116      2.084      3.167
REMARK INTER + INTRA:          -5.195
REMARK INTER:                  -4.431
REMARK INTRA:                  -0.764
REMARK UNBOUND:                -0.804
REMARK SMILES CCCCCCCCC(=O)[O-]
REMARK SMILES IDX 6 1 7 2 8 3 9 4 10 5 11 6 5 7 4 8 3 9 2 10 1 11
REMARK H PARENT
REMARK Flexibility Score: inf
ROOT
ATOM      1  C   UNL     1      -1.996   8.629  39.012  1.00  0.00     0.000 C 
ENDROOT
BRANCH   1   2
ATOM      2  C   UNL     1      -1.436   9.834  38.236  1.00  0.00     0.006 C 
BRANCH   2   3
ATOM      3  C   UNL     1      -1.489   9.620  36.718  1.00  0.00     0.053 C 
BRANCH   3   4
ATOM      4  C   UNL     1      -0.144   9.272  36.157  1.00  0.00     0.041 C 
ATOM      5  O   UNL     1       0.509  10.125  35.499  1.00  0.00    -0.550 OA
ATOM      6  O   UNL     1       0.374   7.996  36.335  1.00  0.00    -0.550 OA
ENDBRANCH   3   4
ENDBRANCH   2   3
ENDBRANCH   1   2
BRANCH   1   7
ATOM      7  C   UNL     1      -0.890   7.750  39.617  1.00  0.00     0.000 C 
BRANCH   7   8
ATOM      8  C   UNL     1      -0.446   8.227  41.008  1.00  0.00    -0.000 C 
BRANCH   8   9
ATOM      9  C   UNL     1       0.880   8.998  40.926  1.00  0.00    -0.000 C 
BRANCH   9  10
ATOM     10  C   UNL     1       1.711   8.615  39.691  1.00  0.00    -0.003 C 
ATOM     11  C   UNL     1       2.257   9.831  38.945  1.00  0.00     0.004 C 
ENDBRANCH   9  10
ENDBRANCH   8   9
ENDBRANCH   7   8
ENDBRANCH   1   7
TORSDOF 7
ENDMDL
MODEL 4
REMARK VINA RESULT:    -3.106      2.251      3.696
REMARK INTER + INTRA:          -5.181
REMARK INTER:                  -4.483
REMARK INTRA:                  -0.698
REMARK UNBOUND:                -0.804
REMARK SMILES CCCCCCCCC(=O)[O-]
REMARK SMILES IDX 6 1 7 2 8 3 9 4 10 5 11 6 5 7 4 8 3 9 2 10 1 11
REMARK H PARENT
REMARK Flexibility Score: inf
ROOT
ATOM      1  C   UNL     1       0.907   9.154  39.420  1.00  0.00     0.000 C 
ENDROOT
BRANCH   1   2
ATOM      2  C   UNL     1       2.266   9.435  38.755  1.00  0.00     0.006 C 
BRANCH   2   3
ATOM      3  C   UNL     1       2.185   9.371  37.224  1.00  0.00     0.053 C 
BRANCH   3   4
ATOM      4  C   UNL     1       1.834   7.996  36.742  1.00  0.00     0.041 C 
ATOM      5  O   UNL     1       0.835   7.821  35.996  1.00  0.00    -0.550 OA
ATOM      6  O   UNL     1       2.596   6.905  37.141  1.00  0.00    -0.550 OA
ENDBRANCH   3   4
ENDBRANCH   2   3
ENDBRANCH   1   2
BRANCH   1   7
ATOM      7  C   UNL     1      -0.191  10.125  38.956  1.00  0.00     0.000 C 
BRANCH   7   8
ATOM      8  C   UNL     1      -1.404   9.404  38.351  1.00  0.00    -0.000 C 
BRANCH   8   9
ATOM      9  C   UNL     1      -1.501   7.962  38.872  1.00  0.00    -0.000 C 
BRANCH   9  10
ATOM     10  C   UNL     1      -2.608   7.786  39.924  1.00  0.00    -0.003 C 
ATOM     11  C   UNL     1      -2.057   7.477  41.315  1.00  0.00     0.004 C 
ENDBRANCH   9  10
ENDBRANCH   8   9
ENDBRANCH   7   8
ENDBRANCH   1   7
TORSDOF 7
ENDMDL
MODEL 5
REMARK VINA RESULT:    -3.088      2.774      4.543
REMARK INTER + INTRA:          -5.156
REMARK INTER:                  -4.407
REMARK INTRA:                  -0.748
REMARK UNBOUND:                -0.804
REMARK SMILES CCCCCCCCC(=O)[O-]
REMARK SMILES IDX 6 1 7 2 8 3 9 4 10 5 11 6 5 7 4 8 3 9 2 10 1 11
REMARK H PARENT
REMARK Flexibility Score: inf
ROOT
ATOM      1  C   UNL     1      -0.906  10.125  38.689  1.00  0.00     0.000 C 
ENDROOT
BRANCH   1   2
ATOM      2  C   UNL     1      -1.643   8.816  38.354  1.00  0.00     0.006 C 
BRANCH   2   3
ATOM      3  C   UNL     1      -2.210   8.135  39.606  1.00  0.00     0.053 C 
BRANCH   3   4
ATOM      4  C   UNL     1      -2.265   6.645  39.453  1.00  0.00     0.041 C 
ATOM      5  O   UNL     1      -3.374   6.048  39.443  1.00  0.00    -0.550 OA
ATOM      6  O   UNL     1      -1.089   5.913  39.352  1.00  0.00    -0.550 OA
ENDBRANCH   3   4
ENDBRANCH   2   3
ENDBRANCH   1   2
BRANCH   1   7
ATOM      7  C   UNL     1       0.612  10.020  38.475  1.00  0.00     0.000 C 
BRANCH   7   8
ATOM      8  C   UNL     1       1.378   9.748  39.778  1.00  0.00    -0.000 C 
BRANCH   8   9
ATOM      9  C   UNL     1       1.553   8.239  40.006  1.00  0.00    -0.000 C 
BRANCH   9  10
ATOM     10  C   UNL     1       1.102   7.796  41.407  1.00  0.00    -0.003 C 
ATOM     11  C   UNL     1       0.766   8.973  42.320  1.00  0.00     0.004 C 
ENDBRANCH   9  10
ENDBRANCH   8   9
ENDBRANCH   7   8
ENDBRANCH   1   7
TORSDOF 7
ENDMDL
MODEL 6
REMARK VINA RESULT:    -3.051      3.108      4.470
REMARK INTER + INTRA:          -5.103
REMARK INTER:                  -4.486
REMARK INTRA:                  -0.616
REMARK UNBOUND:                -0.804
REMARK SMILES CCCCCCCCC(=O)[O-]
REMARK SMILES IDX 6 1 7 2 8 3 9 4 10 5 11 6 5 7 4 8 3 9 2 10 1 11
REMARK H PARENT
REMARK Flexibility Score: inf
ROOT
ATOM      1  C   UNL     1      -1.847   9.378  38.535  1.00  0.00     0.000 C 
ENDROOT
BRANCH   1   2
ATOM      2  C   UNL     1      -1.673   7.925  39.008  1.00  0.00     0.006 C 
BRANCH   2   3
ATOM      3  C   UNL     1      -2.650   7.561  40.133  1.00  0.00     0.053 C 
BRANCH   3   4
ATOM      4  C   UNL     1      -1.971   7.516  41.468  1.00  0.00     0.041 C 
ATOM      5  O   UNL     1      -0.761   7.178  41.554  1.00  0.00    -0.550 OA
ATOM      6  O   UNL     1      -2.685   7.819  42.621  1.00  0.00    -0.550 OA
ENDBRANCH   3   4
ENDBRANCH   2   3
ENDBRANCH   1   2
BRANCH   1   7
ATOM      7  C   UNL     1      -0.506  10.109  38.363  1.00  0.00     0.000 C 
BRANCH   7   8
ATOM      8  C   UNL     1       0.482   9.813  39.501  1.00  0.00    -0.000 C 
BRANCH   8   9
ATOM      9  C   UNL     1       1.875   9.482  38.944  1.00  0.00    -0.000 C 
BRANCH   9  10
ATOM     10  C   UNL     1       2.146   7.970  38.890  1.00  0.00    -0.003 C 
ATOM     11  C   UNL     1       2.217   7.433  37.462  1.00  0.00     0.004 C 
ENDBRANCH   9  10
ENDBRANCH   8   9
ENDBRANCH   7   8
ENDBRANCH   1   7
TORSDOF 7
ENDMDL
MODEL 7
REMARK VINA RESULT:    -3.019      2.395      3.953
REMARK INTER + INTRA:          -5.059
REMARK INTER:                  -4.515
REMARK INTRA:                  -0.543
REMARK UNBOUND:                -0.804
REMARK SMILES CCCCCCCCC(=O)[O-]
REMARK SMILES IDX 6 1 7 2 8 3 9 4 10 5 11 6 5 7 4 8 3 9 2 10 1 11
REMARK H PARENT
REMARK Flexibility Score: inf
ROOT
ATOM      1  C   UNL     1      -0.242   8.065  36.845  1.00  0.00     0.000 C 
ENDROOT
BRANCH   1   2
ATOM      2  C   UNL     1       1.177   8.391  36.347  1.00  0.00     0.006 C 
BRANCH   2   3
ATOM      3  C   UNL     1       1.805   9.561  37.115  1.00  0.00     0.053 C 
BRANCH   3   4
ATOM      4  C   UNL     1       2.094   9.200  38.540  1.00  0.00     0.041 C 
ATOM      5  O   UNL     1       1.881  10.033  39.461  1.00  0.00    -0.550 OA
ATOM      6  O   UNL     1       2.627   7.955  38.848  1.00  0.00    -0.550 OA
ENDBRANCH   3   4
ENDBRANCH   2   3
ENDBRANCH   1   2
BRANCH   1   7
ATOM      7  C   UNL     1      -1.149   9.305  36.901  1.00  0.00     0.000 C 
BRANCH   7   8
ATOM      8  C   UNL     1      -1.834   9.479  38.264  1.00  0.00    -0.000 C 
BRANCH   8   9
ATOM      9  C   UNL     1      -1.426   8.356  39.229  1.00  0.00    -0.000 C 
BRANCH   9  10
ATOM     10  C   UNL     1      -2.618   7.793  40.019  1.00  0.00    -0.003 C 
ATOM     11  C   UNL     1      -2.270   7.480  41.473  1.00  0.00     0.004 C 
ENDBRANCH   9  10
ENDBRANCH   8   9
ENDBRANCH   7   8
ENDBRANCH   1   7
TORSDOF 7
ENDMDL
MODEL 8
REMARK VINA RESULT:    -2.970      1.740      2.813
REMARK INTER + INTRA:          -4.989
REMARK INTER:                  -4.440
REMARK INTRA:                  -0.549
REMARK UNBOUND:                -0.804
REMARK SMILES CCCCCCCCC(=O)[O-]
REMARK SMILES IDX 6 1 7 2 8 3 9 4 10 5 11 6 5 7 4 8 3 9 2 10 1 11
REMARK H PARENT
REMARK Flexibility Score: inf
ROOT
ATOM      1  C   UNL     1      -1.614   7.948  39.057  1.00  0.00     0.000 C 
ENDROOT
BRANCH   1   2
ATOM      2  C   UNL     1      -1.879   9.380  38.559  1.00  0.00     0.006 C 
BRANCH   2   3
ATOM      3  C   UNL     1      -0.594  10.077  38.094  1.00  0.00     0.053 C 
BRANCH   3   4
ATOM      4  C   UNL     1      -0.390   9.941  36.615  1.00  0.00     0.041 C 
ATOM      5  O   UNL     1       0.774   9.913  36.135  1.00  0.00    -0.550 OA
ATOM      6  O   UNL     1      -1.487   9.876  35.766  1.00  0.00    -0.550 OA
ENDBRANCH   3   4
ENDBRANCH   2   3
ENDBRANCH   1   2
BRANCH   1   7
ATOM      7  C   UNL     1      -2.620   7.500  40.129  1.00  0.00     0.000 C 
BRANCH   7   8
ATOM      8  C   UNL     1      -1.942   6.845  41.342  1.00  0.00    -0.000 C 
BRANCH   8   9
ATOM      9  C   UNL     1      -1.123   7.875  42.135  1.00  0.00    -0.000 C 
BRANCH   9  10
ATOM     10  C   UNL     1       0.392   7.649  42.010  1.00  0.00    -0.003 C 
ATOM     11  C   UNL     1       1.125   8.858  41.431  1.00  0.00     0.004 C 
ENDBRANCH   9  10
ENDBRANCH   8   9
ENDBRANCH   7   8
ENDBRANCH   1   7
TORSDOF 7
ENDMDL
