MODEL 1
REMARK VINA RESULT:    -4.617      0.000      0.000
REMARK INTER + INTRA:          -9.499
REMARK INTER:                  -8.395
REMARK INTRA:                  -1.104
REMARK UNBOUND:                -1.104
REMARK SMILES CCCCCCCCCCCCCC[C@H](C)C(=O)[O-]
REMARK SMILES IDX 9 1 10 2 11 3 12 4 13 5 14 6 15 7 16 8 17 9 18 10 19 11 8 12
REMARK SMILES IDX 7 13 6 14 5 15 4 16 3 17 2 18 1 19
REMARK H PARENT
REMARK Flexibility Score: inf
ROOT
ATOM      1  C   UNL     1     -43.930  27.145   0.176  1.00  0.00     0.000 C 
ENDROOT
BRANCH   1   2
ATOM      2  C   UNL     1     -42.632  27.942  -0.008  1.00  0.00     0.000 C 
BRANCH   2   3
ATOM      3  C   UNL     1     -42.893  29.452   0.095  1.00  0.00     0.000 C 
BRANCH   3   4
ATOM      4  C   UNL     1     -43.573  29.857   1.417  1.00  0.00     0.000 C 
BRANCH   4   5
ATOM      5  C   UNL     1     -42.621  30.037   2.615  1.00  0.00     0.001 C 
BRANCH   5   6
ATOM      6  C   UNL     1     -42.995  29.146   3.817  1.00  0.00     0.009 C 
BRANCH   6   7
ATOM      7  C   UNL     1     -44.415  28.540   3.730  1.00  0.00     0.032 C 
ATOM      8  C   UNL     1     -45.458  29.402   4.463  1.00  0.00     0.014 C 
BRANCH   7   9
ATOM      9  C   UNL     1     -44.435  27.099   4.180  1.00  0.00     0.044 C 
ATOM     10  O   UNL     1     -44.207  26.159   3.370  1.00  0.00    -0.550 OA
ATOM     11  O   UNL     1     -44.661  26.799   5.520  1.00  0.00    -0.550 OA
ENDBRANCH   7   9
ENDBRANCH   6   7
ENDBRANCH   5   6
ENDBRANCH   4   5
ENDBRANCH   3   4
ENDBRANCH   2   3
ENDBRANCH   1   2
BRANCH   1  12
ATOM     12  C   UNL     1     -44.854  27.313  -1.037  1.00  0.00     0.000 C 
BRANCH  12  13
ATOM     13  C   UNL     1     -45.233  25.950  -1.635  1.00  0.00    -0.000 C 
BRANCH  13  14
ATOM     14  C   UNL     1     -46.253  26.062  -2.785  1.00  0.00    -0.000 C 
BRANCH  14  15
ATOM     15  C   UNL     1     -46.375  27.465  -3.410  1.00  0.00    -0.000 C 
BRANCH  15  16
ATOM     16  C   UNL     1     -46.562  27.484  -4.939  1.00  0.00    -0.000 C 
BRANCH  16  17
ATOM     17  C   UNL     1     -45.933  28.716  -5.627  1.00  0.00    -0.000 C 
BRANCH  17  18
ATOM     18  C   UNL     1     -45.311  28.373  -6.990  1.00  0.00    -0.003 C 
ATOM     19  C   UNL     1     -45.464  26.888  -7.307  1.00  0.00     0.004 C 
ENDBRANCH  17  18
ENDBRANCH  16  17
ENDBRANCH  15  16
ENDBRANCH  14  15
ENDBRANCH  13  14
ENDBRANCH  12  13
ENDBRANCH   1  12
TORSDOF 14
ENDMDL
MODEL 2
REMARK VINA RESULT:    -4.310      2.142      3.486
REMARK INTER + INTRA:          -8.940
REMARK INTER:                  -7.893
REMARK INTRA:                  -1.048
REMARK UNBOUND:                -1.104
REMARK SMILES CCCCCCCCCCCCCC[C@H](C)C(=O)[O-]
REMARK SMILES IDX 9 1 10 2 11 3 12 4 13 5 14 6 15 7 16 8 17 9 18 10 19 11 8 12
REMARK SMILES IDX 7 13 6 14 5 15 4 16 3 17 2 18 1 19
REMARK H PARENT
REMARK Flexibility Score: inf
ROOT
ATOM      1  C   UNL     1     -42.963  27.619   1.624  1.00  0.00     0.000 C 
ENDROOT
BRANCH   1   2
ATOM      2  C   UNL     1     -44.365  27.394   2.207  1.00  0.00     0.000 C 
BRANCH   2   3
ATOM      3  C   UNL     1     -44.699  28.458   3.263  1.00  0.00     0.000 C 
BRANCH   3   4
ATOM      4  C   UNL     1     -45.932  28.097   4.113  1.00  0.00     0.000 C 
BRANCH   4   5
ATOM      5  C   UNL     1     -45.671  27.970   5.626  1.00  0.00     0.001 C 
BRANCH   5   6
ATOM      6  C   UNL     1     -44.529  26.988   5.957  1.00  0.00     0.009 C 
BRANCH   6   7
ATOM      7  C   UNL     1     -43.777  27.319   7.267  1.00  0.00     0.032 C 
ATOM      8  C   UNL     1     -44.729  27.812   8.371  1.00  0.00     0.014 C 
BRANCH   7   9
ATOM      9  C   UNL     1     -42.627  28.266   7.027  1.00  0.00     0.044 C 
ATOM     10  O   UNL     1     -41.924  28.695   7.982  1.00  0.00    -0.550 OA
ATOM     11  O   UNL     1     -42.304  28.641   5.726  1.00  0.00    -0.550 OA
ENDBRANCH   7   9
ENDBRANCH   6   7
ENDBRANCH   5   6
ENDBRANCH   4   5
ENDBRANCH   3   4
ENDBRANCH   2   3
ENDBRANCH   1   2
BRANCH   1  12
ATOM     12  C   UNL     1     -43.031  27.870   0.112  1.00  0.00     0.000 C 
BRANCH  12  13
ATOM     13  C   UNL     1     -44.321  28.612  -0.266  1.00  0.00    -0.000 C 
BRANCH  13  14
ATOM     14  C   UNL     1     -45.184  27.835  -1.279  1.00  0.00    -0.000 C 
BRANCH  14  15
ATOM     15  C   UNL     1     -44.961  26.310  -1.289  1.00  0.00    -0.000 C 
BRANCH  15  16
ATOM     16  C   UNL     1     -45.589  25.566  -2.483  1.00  0.00    -0.000 C 
BRANCH  16  17
ATOM     17  C   UNL     1     -46.659  26.390  -3.234  1.00  0.00    -0.000 C 
BRANCH  17  18
ATOM     18  C   UNL     1     -46.327  26.565  -4.724  1.00  0.00    -0.003 C 
ATOM     19  C   UNL     1     -46.160  28.040  -5.081  1.00  0.00     0.004 C 
ENDBRANCH  17  18
ENDBRANCH  16  17
ENDBRANCH  15  16
ENDBRANCH  14  15
ENDBRANCH  13  14
ENDBRANCH  12  13
ENDBRANCH   1  12
TORSDOF 14
ENDMDL
MODEL 3
REMARK VINA RESULT:    -4.310      3.952      9.208
REMARK INTER + INTRA:          -8.940
REMARK INTER:                  -8.033
REMARK INTRA:                  -0.907
REMARK UNBOUND:                -1.104
REMARK SMILES CCCCCCCCCCCCCC[C@H](C)C(=O)[O-]
REMARK SMILES IDX 9 1 10 2 11 3 12 4 13 5 14 6 15 7 16 8 17 9 18 10 19 11 8 12
REMARK SMILES IDX 7 13 6 14 5 15 4 16 3 17 2 18 1 19
REMARK H PARENT
REMARK Flexibility Score: inf
ROOT
ATOM      1  C   UNL     1     -44.527  26.746  -0.278  1.00  0.00     0.000 C 
ENDROOT
BRANCH   1   2
ATOM      2  C   UNL     1     -45.702  26.895  -1.254  1.00  0.00     0.000 C 
BRANCH   2   3
ATOM      3  C   UNL     1     -45.559  25.931  -2.441  1.00  0.00     0.000 C 
BRANCH   3   4
ATOM      4  C   UNL     1     -46.297  26.415  -3.703  1.00  0.00     0.000 C 
BRANCH   4   5
ATOM      5  C   UNL     1     -46.300  27.941  -3.916  1.00  0.00     0.001 C 
BRANCH   5   6
ATOM      6  C   UNL     1     -46.710  28.345  -5.346  1.00  0.00     0.009 C 
BRANCH   6   7
ATOM      7  C   UNL     1     -45.565  28.236  -6.381  1.00  0.00     0.032 C 
ATOM      8  C   UNL     1     -45.221  29.598  -7.008  1.00  0.00     0.014 C 
BRANCH   7   9
ATOM      9  C   UNL     1     -45.850  27.176  -7.417  1.00  0.00     0.044 C 
ATOM     10  O   UNL     1     -45.418  25.998  -7.282  1.00  0.00    -0.550 OA
ATOM     11  O   UNL     1     -46.642  27.485  -8.519  1.00  0.00    -0.550 OA
ENDBRANCH   7   9
ENDBRANCH   6   7
ENDBRANCH   5   6
ENDBRANCH   4   5
ENDBRANCH   3   4
ENDBRANCH   2   3
ENDBRANCH   1   2
BRANCH   1  12
ATOM     12  C   UNL     1     -43.449  27.802  -0.551  1.00  0.00     0.000 C 
BRANCH  12  13
ATOM     13  C   UNL     1     -42.550  28.003   0.678  1.00  0.00    -0.000 C 
BRANCH  13  14
ATOM     14  C   UNL     1     -42.813  29.337   1.402  1.00  0.00    -0.000 C 
BRANCH  14  15
ATOM     15  C   UNL     1     -43.090  29.213   2.913  1.00  0.00    -0.000 C 
BRANCH  15  16
ATOM     16  C   UNL     1     -43.897  27.968   3.329  1.00  0.00    -0.000 C 
BRANCH  16  17
ATOM     17  C   UNL     1     -44.198  27.900   4.842  1.00  0.00    -0.000 C 
BRANCH  17  18
ATOM     18  C   UNL     1     -43.150  28.644   5.683  1.00  0.00    -0.003 C 
ATOM     19  C   UNL     1     -42.849  27.895   6.979  1.00  0.00     0.004 C 
ENDBRANCH  17  18
ENDBRANCH  16  17
ENDBRANCH  15  16
ENDBRANCH  14  15
ENDBRANCH  13  14
ENDBRANCH  12  13
ENDBRANCH   1  12
TORSDOF 14
ENDMDL
MODEL 4
REMARK VINA RESULT:    -4.289      1.168      1.701
REMARK INTER + INTRA:          -8.903
REMARK INTER:                  -7.582
REMARK INTRA:                  -1.322
REMARK UNBOUND:                -1.104
REMARK SMILES CCCCCCCCCCCCCC[C@H](C)C(=O)[O-]
REMARK SMILES IDX 9 1 10 2 11 3 12 4 13 5 14 6 15 7 16 8 17 9 18 10 19 11 8 12
REMARK SMILES IDX 7 13 6 14 5 15 4 16 3 17 2 18 1 19
REMARK H PARENT
REMARK Flexibility Score: inf
ROOT
ATOM      1  C   UNL     1     -45.444  27.460   0.141  1.00  0.00     0.000 C 
ENDROOT
BRANCH   1   2
ATOM      2  C   UNL     1     -44.109  27.105  -0.526  1.00  0.00     0.000 C 
BRANCH   2   3
ATOM      3  C   UNL     1     -42.938  27.813   0.173  1.00  0.00     0.000 C 
BRANCH   3   4
ATOM      4  C   UNL     1     -43.172  29.325   0.357  1.00  0.00     0.000 C 
BRANCH   4   5
ATOM      5  C   UNL     1     -43.168  29.816   1.817  1.00  0.00     0.001 C 
BRANCH   5   6
ATOM      6  C   UNL     1     -42.919  28.681   2.830  1.00  0.00     0.009 C 
BRANCH   6   7
ATOM      7  C   UNL     1     -44.016  28.555   3.913  1.00  0.00     0.032 C 
ATOM      8  C   UNL     1     -43.464  28.804   5.327  1.00  0.00     0.014 C 
BRANCH   7   9
ATOM      9  C   UNL     1     -44.761  27.247   3.803  1.00  0.00     0.044 C 
ATOM     10  O   UNL     1     -45.962  27.145   4.175  1.00  0.00    -0.550 OA
ATOM     11  O   UNL     1     -44.131  26.141   3.239  1.00  0.00    -0.550 OA
ENDBRANCH   7   9
ENDBRANCH   6   7
ENDBRANCH   5   6
ENDBRANCH   4   5
ENDBRANCH   3   4
ENDBRANCH   2   3
ENDBRANCH   1   2
BRANCH   1  12
ATOM     12  C   UNL     1     -46.574  27.529  -0.894  1.00  0.00     0.000 C 
BRANCH  12  13
ATOM     13  C   UNL     1     -46.021  27.841  -2.293  1.00  0.00    -0.000 C 
BRANCH  13  14
ATOM     14  C   UNL     1     -45.986  29.350  -2.601  1.00  0.00    -0.000 C 
BRANCH  14  15
ATOM     15  C   UNL     1     -46.515  29.742  -3.995  1.00  0.00    -0.000 C 
BRANCH  15  16
ATOM     16  C   UNL     1     -46.509  28.607  -5.037  1.00  0.00    -0.000 C 
BRANCH  16  17
ATOM     17  C   UNL     1     -45.496  28.823  -6.184  1.00  0.00    -0.000 C 
BRANCH  17  18
ATOM     18  C   UNL     1     -45.756  27.894  -7.379  1.00  0.00    -0.003 C 
ATOM     19  C   UNL     1     -45.614  26.428  -6.979  1.00  0.00     0.004 C 
ENDBRANCH  17  18
ENDBRANCH  16  17
ENDBRANCH  15  16
ENDBRANCH  14  15
ENDBRANCH  13  14
ENDBRANCH  12  13
ENDBRANCH   1  12
TORSDOF 14
ENDMDL
MODEL 5
REMARK VINA RESULT:    -4.269      1.857      2.667
REMARK INTER + INTRA:          -8.867
REMARK INTER:                  -7.922
REMARK INTRA:                  -0.944
REMARK UNBOUND:                -1.104
REMARK SMILES CCCCCCCCCCCCCC[C@H](C)C(=O)[O-]
REMARK SMILES IDX 9 1 10 2 11 3 12 4 13 5 14 6 15 7 16 8 17 9 18 10 19 11 8 12
REMARK SMILES IDX 7 13 6 14 5 15 4 16 3 17 2 18 1 19
REMARK H PARENT
REMARK Flexibility Score: inf
ROOT
ATOM      1  C   UNL     1     -43.974  27.126   1.132  1.00  0.00     0.000 C 
ENDROOT
BRANCH   1   2
ATOM      2  C   UNL     1     -42.924  28.056   1.755  1.00  0.00     0.000 C 
BRANCH   2   3
ATOM      3  C   UNL     1     -43.378  28.550   3.138  1.00  0.00     0.000 C 
BRANCH   3   4
ATOM      4  C   UNL     1     -44.904  28.473   3.334  1.00  0.00     0.000 C 
BRANCH   4   5
ATOM      5  C   UNL     1     -45.373  27.536   4.463  1.00  0.00     0.001 C 
BRANCH   5   6
ATOM      6  C   UNL     1     -44.203  26.937   5.270  1.00  0.00     0.009 C 
BRANCH   6   7
ATOM      7  C   UNL     1     -44.238  27.282   6.777  1.00  0.00     0.032 C 
ATOM      8  C   UNL     1     -45.673  27.505   7.285  1.00  0.00     0.014 C 
BRANCH   7   9
ATOM      9  C   UNL     1     -43.320  28.433   7.107  1.00  0.00     0.044 C 
ATOM     10  O   UNL     1     -43.779  29.559   7.442  1.00  0.00    -0.550 OA
ATOM     11  O   UNL     1     -41.942  28.242   7.088  1.00  0.00    -0.550 OA
ENDBRANCH   7   9
ENDBRANCH   6   7
ENDBRANCH   5   6
ENDBRANCH   4   5
ENDBRANCH   3   4
ENDBRANCH   2   3
ENDBRANCH   1   2
BRANCH   1  12
ATOM     12  C   UNL     1     -43.935  27.203  -0.400  1.00  0.00     0.000 C 
BRANCH  12  13
ATOM     13  C   UNL     1     -45.326  26.950  -1.000  1.00  0.00    -0.000 C 
BRANCH  13  14
ATOM     14  C   UNL     1     -45.297  25.968  -2.187  1.00  0.00    -0.000 C 
BRANCH  14  15
ATOM     15  C   UNL     1     -46.342  26.245  -3.286  1.00  0.00    -0.000 C 
BRANCH  15  16
ATOM     16  C   UNL     1     -46.368  27.693  -3.810  1.00  0.00    -0.000 C 
BRANCH  16  17
ATOM     17  C   UNL     1     -46.535  27.796  -5.343  1.00  0.00    -0.000 C 
BRANCH  17  18
ATOM     18  C   UNL     1     -46.162  26.491  -6.062  1.00  0.00    -0.003 C 
ATOM     19  C   UNL     1     -45.397  26.773  -7.354  1.00  0.00     0.004 C 
ENDBRANCH  17  18
ENDBRANCH  16  17
ENDBRANCH  15  16
ENDBRANCH  14  15
ENDBRANCH  13  14
ENDBRANCH  12  13
ENDBRANCH   1  12
TORSDOF 14
ENDMDL
MODEL 6
REMARK VINA RESULT:    -4.221      1.349      1.807
REMARK INTER + INTRA:          -8.779
REMARK INTER:                  -8.039
REMARK INTRA:                  -0.740
REMARK UNBOUND:                -1.104
REMARK SMILES CCCCCCCCCCCCCC[C@H](C)C(=O)[O-]
REMARK SMILES IDX 9 1 10 2 11 3 12 4 13 5 14 6 15 7 16 8 17 9 18 10 19 11 8 12
REMARK SMILES IDX 7 13 6 14 5 15 4 16 3 17 2 18 1 19
REMARK H PARENT
REMARK Flexibility Score: inf
ROOT
ATOM      1  C   UNL     1     -43.711  27.116   0.019  1.00  0.00     0.000 C 
ENDROOT
BRANCH   1   2
ATOM      2  C   UNL     1     -42.920  28.424   0.148  1.00  0.00     0.000 C 
BRANCH   2   3
ATOM      3  C   UNL     1     -43.463  29.284   1.300  1.00  0.00     0.000 C 
BRANCH   3   4
ATOM      4  C   UNL     1     -43.156  28.694   2.689  1.00  0.00     0.000 C 
BRANCH   4   5
ATOM      5  C   UNL     1     -44.392  28.302   3.522  1.00  0.00     0.001 C 
BRANCH   5   6
ATOM      6  C   UNL     1     -44.161  27.040   4.378  1.00  0.00     0.009 C 
BRANCH   6   7
ATOM      7  C   UNL     1     -44.585  27.199   5.857  1.00  0.00     0.032 C 
ATOM      8  C   UNL     1     -45.846  28.068   6.007  1.00  0.00     0.014 C 
BRANCH   7   9
ATOM      9  C   UNL     1     -43.442  27.682   6.716  1.00  0.00     0.044 C 
ATOM     10  O   UNL     1     -42.432  28.240   6.205  1.00  0.00    -0.550 OA
ATOM     11  O   UNL     1     -43.518  27.555   8.100  1.00  0.00    -0.550 OA
ENDBRANCH   7   9
ENDBRANCH   6   7
ENDBRANCH   5   6
ENDBRANCH   4   5
ENDBRANCH   3   4
ENDBRANCH   2   3
ENDBRANCH   1   2
BRANCH   1  12
ATOM     12  C   UNL     1     -44.878  27.274  -0.964  1.00  0.00     0.000 C 
BRANCH  12  13
ATOM     13  C   UNL     1     -45.096  25.986  -1.772  1.00  0.00    -0.000 C 
BRANCH  13  14
ATOM     14  C   UNL     1     -46.482  25.928  -2.444  1.00  0.00    -0.000 C 
BRANCH  14  15
ATOM     15  C   UNL     1     -46.810  27.121  -3.363  1.00  0.00    -0.000 C 
BRANCH  15  16
ATOM     16  C   UNL     1     -46.288  26.993  -4.807  1.00  0.00    -0.000 C 
BRANCH  16  17
ATOM     17  C   UNL     1     -45.926  28.347  -5.459  1.00  0.00    -0.000 C 
BRANCH  17  18
ATOM     18  C   UNL     1     -45.401  28.186  -6.893  1.00  0.00    -0.003 C 
ATOM     19  C   UNL     1     -45.626  26.765  -7.406  1.00  0.00     0.004 C 
ENDBRANCH  17  18
ENDBRANCH  16  17
ENDBRANCH  15  16
ENDBRANCH  14  15
ENDBRANCH  13  14
ENDBRANCH  12  13
ENDBRANCH   1  12
TORSDOF 14
ENDMDL
MODEL 7
REMARK VINA RESULT:    -4.142      3.091      7.751
REMARK INTER + INTRA:          -8.635
REMARK INTER:                  -6.367
REMARK INTRA:                  -2.268
REMARK UNBOUND:                -1.104
REMARK SMILES CCCCCCCCCCCCCC[C@H](C)C(=O)[O-]
REMARK SMILES IDX 9 1 10 2 11 3 12 4 13 5 14 6 15 7 16 8 17 9 18 10 19 11 8 12
REMARK SMILES IDX 7 13 6 14 5 15 4 16 3 17 2 18 1 19
REMARK H PARENT
REMARK Flexibility Score: inf
ROOT
ATOM      1  C   UNL     1     -43.988  27.264   2.665  1.00  0.00     0.000 C 
ENDROOT
BRANCH   1   2
ATOM      2  C   UNL     1     -43.242  27.075   1.338  1.00  0.00     0.000 C 
BRANCH   2   3
ATOM      3  C   UNL     1     -42.627  28.399   0.859  1.00  0.00     0.000 C 
BRANCH   3   4
ATOM      4  C   UNL     1     -43.262  28.921  -0.444  1.00  0.00     0.000 C 
BRANCH   4   5
ATOM      5  C   UNL     1     -44.762  29.261  -0.351  1.00  0.00     0.001 C 
BRANCH   5   6
ATOM      6  C   UNL     1     -45.557  28.810  -1.593  1.00  0.00     0.009 C 
BRANCH   6   7
ATOM      7  C   UNL     1     -46.466  27.584  -1.345  1.00  0.00     0.032 C 
ATOM      8  C   UNL     1     -46.766  27.380   0.150  1.00  0.00     0.014 C 
BRANCH   7   9
ATOM      9  C   UNL     1     -45.917  26.340  -2.001  1.00  0.00     0.044 C 
ATOM     10  O   UNL     1     -45.426  25.403  -1.315  1.00  0.00    -0.550 OA
ATOM     11  O   UNL     1     -45.994  26.200  -3.384  1.00  0.00    -0.550 OA
ENDBRANCH   7   9
ENDBRANCH   6   7
ENDBRANCH   5   6
ENDBRANCH   4   5
ENDBRANCH   3   4
ENDBRANCH   2   3
ENDBRANCH   1   2
BRANCH   1  12
ATOM     12  C   UNL     1     -43.547  28.557   3.364  1.00  0.00     0.000 C 
BRANCH  12  13
ATOM     13  C   UNL     1     -44.759  29.417   3.748  1.00  0.00    -0.000 C 
BRANCH  13  14
ATOM     14  C   UNL     1     -46.075  28.616   3.789  1.00  0.00    -0.000 C 
BRANCH  14  15
ATOM     15  C   UNL     1     -46.683  28.436   5.194  1.00  0.00    -0.000 C 
BRANCH  15  16
ATOM     16  C   UNL     1     -46.229  27.169   5.944  1.00  0.00    -0.000 C 
BRANCH  16  17
ATOM     17  C   UNL     1     -45.204  27.444   7.066  1.00  0.00    -0.000 C 
BRANCH  17  18
ATOM     18  C   UNL     1     -43.785  26.992   6.689  1.00  0.00    -0.003 C 
ATOM     19  C   UNL     1     -42.764  28.091   6.972  1.00  0.00     0.004 C 
ENDBRANCH  17  18
ENDBRANCH  16  17
ENDBRANCH  15  16
ENDBRANCH  14  15
ENDBRANCH  13  14
ENDBRANCH  12  13
ENDBRANCH   1  12
TORSDOF 14
ENDMDL
MODEL 8
REMARK VINA RESULT:    -4.117      2.830      4.387
REMARK INTER + INTRA:          -8.591
REMARK INTER:                  -6.858
REMARK INTRA:                  -1.733
REMARK UNBOUND:                -1.104
REMARK SMILES CCCCCCCCCCCCCC[C@H](C)C(=O)[O-]
REMARK SMILES IDX 9 1 10 2 11 3 12 4 13 5 14 6 15 7 16 8 17 9 18 10 19 11 8 12
REMARK SMILES IDX 7 13 6 14 5 15 4 16 3 17 2 18 1 19
REMARK H PARENT
REMARK Flexibility Score: inf
ROOT
ATOM      1  C   UNL     1     -43.001  27.263   1.699  1.00  0.00     0.000 C 
ENDROOT
BRANCH   1   2
ATOM      2  C   UNL     1     -44.129  27.196   2.736  1.00  0.00     0.000 C 
BRANCH   2   3
ATOM      3  C   UNL     1     -44.330  28.557   3.420  1.00  0.00     0.000 C 
BRANCH   3   4
ATOM      4  C   UNL     1     -45.039  28.447   4.784  1.00  0.00     0.000 C 
BRANCH   4   5
ATOM      5  C   UNL     1     -44.768  27.144   5.560  1.00  0.00     0.001 C 
BRANCH   5   6
ATOM      6  C   UNL     1     -43.381  27.126   6.234  1.00  0.00     0.009 C 
BRANCH   6   7
ATOM      7  C   UNL     1     -43.380  27.670   7.682  1.00  0.00     0.032 C 
ATOM      8  C   UNL     1     -44.804  27.806   8.249  1.00  0.00     0.014 C 
BRANCH   7   9
ATOM      9  C   UNL     1     -42.586  28.949   7.796  1.00  0.00     0.044 C 
ATOM     10  O   UNL     1     -42.588  29.804   6.869  1.00  0.00    -0.550 OA
ATOM     11  O   UNL     1     -41.873  29.215   8.962  1.00  0.00    -0.550 OA
ENDBRANCH   7   9
ENDBRANCH   6   7
ENDBRANCH   5   6
ENDBRANCH   4   5
ENDBRANCH   3   4
ENDBRANCH   2   3
ENDBRANCH   1   2
BRANCH   1  12
ATOM     12  C   UNL     1     -42.638  28.718   1.375  1.00  0.00     0.000 C 
BRANCH  12  13
ATOM     13  C   UNL     1     -42.607  28.953  -0.142  1.00  0.00    -0.000 C 
BRANCH  13  14
ATOM     14  C   UNL     1     -43.646  29.991  -0.609  1.00  0.00    -0.000 C 
BRANCH  14  15
ATOM     15  C   UNL     1     -45.094  29.706  -0.163  1.00  0.00    -0.000 C 
BRANCH  15  16
ATOM     16  C   UNL     1     -45.879  28.741  -1.072  1.00  0.00    -0.000 C 
BRANCH  16  17
ATOM     17  C   UNL     1     -45.935  27.292  -0.538  1.00  0.00    -0.000 C 
BRANCH  17  18
ATOM     18  C   UNL     1     -44.956  26.359  -1.267  1.00  0.00    -0.003 C 
ATOM     19  C   UNL     1     -45.655  25.595  -2.389  1.00  0.00     0.004 C 
ENDBRANCH  17  18
ENDBRANCH  16  17
ENDBRANCH  15  16
ENDBRANCH  14  15
ENDBRANCH  13  14
ENDBRANCH  12  13
ENDBRANCH   1  12
TORSDOF 14
ENDMDL
MODEL 9
REMARK VINA RESULT:    -4.065      3.417      8.900
REMARK INTER + INTRA:          -8.495
REMARK INTER:                  -7.287
REMARK INTRA:                  -1.207
REMARK UNBOUND:                -1.104
REMARK SMILES CCCCCCCCCCCCCC[C@H](C)C(=O)[O-]
REMARK SMILES IDX 9 1 10 2 11 3 12 4 13 5 14 6 15 7 16 8 17 9 18 10 19 11 8 12
REMARK SMILES IDX 7 13 6 14 5 15 4 16 3 17 2 18 1 19
REMARK H PARENT
REMARK Flexibility Score: inf
ROOT
ATOM      1  C   UNL     1     -44.116  27.688   3.614  1.00  0.00     0.000 C 
ENDROOT
BRANCH   1   2
ATOM      2  C   UNL     1     -43.804  27.163   2.207  1.00  0.00     0.000 C 
BRANCH   2   3
ATOM      3  C   UNL     1     -43.018  28.202   1.393  1.00  0.00     0.000 C 
BRANCH   3   4
ATOM      4  C   UNL     1     -42.980  27.885  -0.114  1.00  0.00     0.000 C 
BRANCH   4   5
ATOM      5  C   UNL     1     -44.083  26.930  -0.610  1.00  0.00     0.001 C 
BRANCH   5   6
ATOM      6  C   UNL     1     -45.273  27.672  -1.251  1.00  0.00     0.009 C 
BRANCH   6   7
ATOM      7  C   UNL     1     -46.235  26.752  -2.039  1.00  0.00     0.032 C 
ATOM      8  C   UNL     1     -45.853  25.268  -1.907  1.00  0.00     0.014 C 
BRANCH   7   9
ATOM      9  C   UNL     1     -46.371  27.190  -3.478  1.00  0.00     0.044 C 
ATOM     10  O   UNL     1     -46.145  26.392  -4.427  1.00  0.00    -0.550 OA
ATOM     11  O   UNL     1     -46.798  28.483  -3.766  1.00  0.00    -0.550 OA
ENDBRANCH   7   9
ENDBRANCH   6   7
ENDBRANCH   5   6
ENDBRANCH   4   5
ENDBRANCH   3   4
ENDBRANCH   2   3
ENDBRANCH   1   2
BRANCH   1  12
ATOM     12  C   UNL     1     -43.279  28.933   3.934  1.00  0.00     0.000 C 
BRANCH  12  13
ATOM     13  C   UNL     1     -43.263  29.213   5.445  1.00  0.00    -0.000 C 
BRANCH  13  14
ATOM     14  C   UNL     1     -42.975  27.953   6.284  1.00  0.00    -0.000 C 
BRANCH  14  15
ATOM     15  C   UNL     1     -43.143  28.134   7.806  1.00  0.00    -0.000 C 
BRANCH  15  16
ATOM     16  C   UNL     1     -44.537  28.608   8.256  1.00  0.00    -0.000 C 
BRANCH  16  17
ATOM     17  C   UNL     1     -45.579  27.472   8.354  1.00  0.00    -0.000 C 
BRANCH  17  18
ATOM     18  C   UNL     1     -46.876  27.799   7.599  1.00  0.00    -0.003 C 
ATOM     19  C   UNL     1     -46.787  27.366   6.137  1.00  0.00     0.004 C 
ENDBRANCH  17  18
ENDBRANCH  16  17
ENDBRANCH  15  16
ENDBRANCH  14  15
ENDBRANCH  13  14
ENDBRANCH  12  13
ENDBRANCH   1  12
TORSDOF 14
ENDMDL
