MODEL 1
REMARK VINA RESULT:    -2.065      0.000      0.000
REMARK INTER + INTRA:          -2.065
REMARK INTER:                  -2.065
REMARK INTRA:                   0.000
REMARK UNBOUND:                 0.000
REMARK SMILES CC(=O)[O-]
REMARK SMILES IDX 1 1 2 2 3 3 4 4
REMARK H PARENT
REMARK Flexibility Score: inf
ROOT
ATOM      1  C   UNL     1      42.902  26.425  28.113  1.00  0.00     0.063 C 
ATOM      2  C   UNL     1      42.061  27.637  27.898  1.00  0.00     0.038 C 
ATOM      3  O   UNL     1      41.176  27.950  28.737  1.00  0.00    -0.550 OA
ATOM      4  O   UNL     1      42.216  28.395  26.744  1.00  0.00    -0.550 OA
ENDROOT
TORSDOF 0
ENDMDL
MODEL 2
REMARK VINA RESULT:    -1.967     14.012     14.432
REMARK INTER + INTRA:          -1.967
REMARK INTER:                  -1.967
REMARK INTRA:                   0.000
REMARK UNBOUND:                 0.000
REMARK SMILES CC(=O)[O-]
REMARK SMILES IDX 1 1 2 2 3 3 4 4
REMARK H PARENT
REMARK Flexibility Score: inf
ROOT
ATOM      1  C   UNL     1      40.583  41.739  31.604  1.00  0.00     0.063 C 
ATOM      2  C   UNL     1      39.209  41.159  31.639  1.00  0.00     0.038 C 
ATOM      3  O   UNL     1      38.209  41.912  31.767  1.00  0.00    -0.550 OA
ATOM      4  O   UNL     1      39.034  39.782  31.583  1.00  0.00    -0.550 OA
ENDROOT
TORSDOF 0
ENDMDL
MODEL 3
REMARK VINA RESULT:    -1.962     10.099     10.509
REMARK INTER + INTRA:          -1.962
REMARK INTER:                  -1.962
REMARK INTRA:                   0.000
REMARK UNBOUND:                 0.000
REMARK SMILES CC(=O)[O-]
REMARK SMILES IDX 1 1 2 2 3 3 4 4
REMARK H PARENT
REMARK Flexibility Score: inf
ROOT
ATOM      1  C   UNL     1      36.703  34.771  28.617  1.00  0.00     0.063 C 
ATOM      2  C   UNL     1      35.920  35.988  28.976  1.00  0.00     0.038 C 
ATOM      3  O   UNL     1      34.841  36.243  28.380  1.00  0.00    -0.550 OA
ATOM      4  O   UNL     1      36.406  36.871  29.932  1.00  0.00    -0.550 OA
ENDROOT
TORSDOF 0
ENDMDL
MODEL 4
REMARK VINA RESULT:    -1.943     10.992     11.353
REMARK INTER + INTRA:          -1.943
REMARK INTER:                  -1.943
REMARK INTRA:                   0.000
REMARK UNBOUND:                 0.000
REMARK SMILES CC(=O)[O-]
REMARK SMILES IDX 1 1 2 2 3 3 4 4
REMARK H PARENT
REMARK Flexibility Score: inf
ROOT
ATOM      1  C   UNL     1      32.168  28.932  21.167  1.00  0.00     0.063 C 
ATOM      2  C   UNL     1      32.898  30.022  21.877  1.00  0.00     0.038 C 
ATOM      3  O   UNL     1      32.504  31.213  21.782  1.00  0.00    -0.550 OA
ATOM      4  O   UNL     1      34.047  29.731  22.602  1.00  0.00    -0.550 OA
ENDROOT
TORSDOF 0
ENDMDL
MODEL 5
REMARK VINA RESULT:    -1.923      1.697      1.999
REMARK INTER + INTRA:          -1.923
REMARK INTER:                  -1.923
REMARK INTRA:                   0.000
REMARK UNBOUND:                 0.000
REMARK SMILES CC(=O)[O-]
REMARK SMILES IDX 1 1 2 2 3 3 4 4
REMARK H PARENT
REMARK Flexibility Score: inf
ROOT
ATOM      1  C   UNL     1      43.936  28.186  28.404  1.00  0.00     0.063 C 
ATOM      2  C   UNL     1      42.725  27.316  28.420  1.00  0.00     0.038 C 
ATOM      3  O   UNL     1      42.831  26.082  28.196  1.00  0.00    -0.550 OA
ATOM      4  O   UNL     1      41.470  27.874  28.629  1.00  0.00    -0.550 OA
ENDROOT
TORSDOF 0
ENDMDL
MODEL 6
REMARK VINA RESULT:    -1.900      9.088      9.614
REMARK INTER + INTRA:          -1.900
REMARK INTER:                  -1.900
REMARK INTRA:                   0.000
REMARK UNBOUND:                 0.000
REMARK SMILES CC(=O)[O-]
REMARK SMILES IDX 1 1 2 2 3 3 4 4
REMARK H PARENT
REMARK Flexibility Score: inf
ROOT
ATOM      1  C   UNL     1      35.922  36.003  29.850  1.00  0.00     0.063 C 
ATOM      2  C   UNL     1      37.000  35.380  29.031  1.00  0.00     0.038 C 
ATOM      3  O   UNL     1      38.112  35.956  28.905  1.00  0.00    -0.550 OA
ATOM      4  O   UNL     1      36.762  34.186  28.361  1.00  0.00    -0.550 OA
ENDROOT
TORSDOF 0
ENDMDL
MODEL 7
REMARK VINA RESULT:    -1.888      2.042      2.596
REMARK INTER + INTRA:          -1.888
REMARK INTER:                  -1.888
REMARK INTRA:                   0.000
REMARK UNBOUND:                 0.000
REMARK SMILES CC(=O)[O-]
REMARK SMILES IDX 1 1 2 2 3 3 4 4
REMARK H PARENT
REMARK Flexibility Score: inf
ROOT
ATOM      1  C   UNL     1      42.149  27.579  28.804  1.00  0.00     0.063 C 
ATOM      2  C   UNL     1      43.133  26.712  28.093  1.00  0.00     0.038 C 
ATOM      3  O   UNL     1      44.047  27.230  27.401  1.00  0.00    -0.550 OA
ATOM      4  O   UNL     1      43.009  25.330  28.150  1.00  0.00    -0.550 OA
ENDROOT
TORSDOF 0
ENDMDL
MODEL 8
REMARK VINA RESULT:    -1.851     12.004     12.244
REMARK INTER + INTRA:          -1.851
REMARK INTER:                  -1.851
REMARK INTRA:                   0.000
REMARK UNBOUND:                 0.000
REMARK SMILES CC(=O)[O-]
REMARK SMILES IDX 1 1 2 2 3 3 4 4
REMARK H PARENT
REMARK Flexibility Score: inf
ROOT
ATOM      1  C   UNL     1      32.683  31.151  21.842  1.00  0.00     0.063 C 
ATOM      2  C   UNL     1      32.361  29.989  20.964  1.00  0.00     0.038 C 
ATOM      3  O   UNL     1      31.928  28.919  21.465  1.00  0.00    -0.550 OA
ATOM      4  O   UNL     1      32.591  30.067  19.596  1.00  0.00    -0.550 OA
ENDROOT
TORSDOF 0
ENDMDL
MODEL 9
REMARK VINA RESULT:    -1.762     12.127     12.509
REMARK INTER + INTRA:          -1.762
REMARK INTER:                  -1.762
REMARK INTRA:                   0.000
REMARK UNBOUND:                 0.000
REMARK SMILES CC(=O)[O-]
REMARK SMILES IDX 1 1 2 2 3 3 4 4
REMARK H PARENT
REMARK Flexibility Score: inf
ROOT
ATOM      1  C   UNL     1      32.983  29.966  18.596  1.00  0.00     0.063 C 
ATOM      2  C   UNL     1      33.334  28.740  19.368  1.00  0.00     0.038 C 
ATOM      3  O   UNL     1      34.123  27.890  18.880  1.00  0.00    -0.550 OA
ATOM      4  O   UNL     1      32.748  28.507  20.606  1.00  0.00    -0.550 OA
ENDROOT
TORSDOF 0
ENDMDL
