MODEL 1
REMARK VINA RESULT:    -4.445      0.000      0.000
REMARK INTER + INTRA:          -5.461
REMARK INTER:                  -5.224
REMARK INTRA:                  -0.237
REMARK UNBOUND:                -0.237
REMARK SMILES [NH3+][C@H](CO)C(=O)[O-]
REMARK SMILES IDX 3 1 2 2 1 3 5 7 6 8 7 9 4 10
REMARK H PARENT 1 4 1 5 1 6 4 11
REMARK Flexibility Score: inf
ROOT
ATOM      1  C   UNL     1      22.923  25.718  29.880  1.00  0.00     0.227 C 
ENDROOT
BRANCH   1   2
ATOM      2  C   UNL     1      23.373  24.994  31.160  1.00  0.00     0.253 C 
BRANCH   2   3
ATOM      3  N   UNL     1      24.833  25.035  31.310  1.00  0.00    -0.348 N 
ATOM      4  H   UNL     1      25.106  25.161  32.312  1.00  0.00     0.345 HD
ATOM      5  H   UNL     1      25.225  25.825  30.748  1.00  0.00     0.345 HD
ATOM      6  H   UNL     1      25.249  24.143  30.953  1.00  0.00     0.345 HD
ENDBRANCH   2   3
BRANCH   2   7
ATOM      7  C   UNL     1      22.689  25.573  32.372  1.00  0.00     0.102 C 
ATOM      8  O   UNL     1      22.279  24.823  33.296  1.00  0.00    -0.544 OA
ATOM      9  O   UNL     1      22.546  26.950  32.493  1.00  0.00    -0.544 OA
ENDBRANCH   2   7
ENDBRANCH   1   2
BRANCH   1  10
ATOM     10  O   UNL     1      21.597  26.158  29.997  1.00  0.00    -0.390 OA
ATOM     11  H   UNL     1      21.376  26.598  29.136  1.00  0.00     0.210 HD
ENDBRANCH   1  10
TORSDOF 4
ENDMDL
MODEL 2
REMARK VINA RESULT:    -4.385      1.694      2.139
REMARK INTER + INTRA:          -5.391
REMARK INTER:                  -5.144
REMARK INTRA:                  -0.247
REMARK UNBOUND:                -0.237
REMARK SMILES [NH3+][C@H](CO)C(=O)[O-]
REMARK SMILES IDX 3 1 2 2 1 3 5 7 6 8 7 9 4 10
REMARK H PARENT 1 4 1 5 1 6 4 11
REMARK Flexibility Score: inf
ROOT
ATOM      1  C   UNL     1      22.024  23.916  30.699  1.00  0.00     0.227 C 
ENDROOT
BRANCH   1   2
ATOM      2  C   UNL     1      22.780  25.239  30.910  1.00  0.00     0.253 C 
BRANCH   2   3
ATOM      3  N   UNL     1      22.347  26.259  29.946  1.00  0.00    -0.348 N 
ATOM      4  H   UNL     1      21.332  26.155  29.717  1.00  0.00     0.345 HD
ATOM      5  H   UNL     1      22.905  26.173  29.066  1.00  0.00     0.345 HD
ATOM      6  H   UNL     1      22.512  27.213  30.345  1.00  0.00     0.345 HD
ENDBRANCH   2   3
BRANCH   2   7
ATOM      7  C   UNL     1      22.616  25.730  32.326  1.00  0.00     0.102 C 
ATOM      8  O   UNL     1      22.536  26.962  32.572  1.00  0.00    -0.544 OA
ATOM      9  O   UNL     1      22.512  24.816  33.367  1.00  0.00    -0.544 OA
ENDBRANCH   2   7
ENDBRANCH   1   2
BRANCH   1  10
ATOM     10  O   UNL     1      20.708  24.014  31.174  1.00  0.00    -0.390 OA
ATOM     11  H   UNL     1      20.226  24.594  30.530  1.00  0.00     0.210 HD
ENDBRANCH   1  10
TORSDOF 4
ENDMDL
MODEL 3
REMARK VINA RESULT:    -4.384      1.697      1.763
REMARK INTER + INTRA:          -5.389
REMARK INTER:                  -5.152
REMARK INTRA:                  -0.238
REMARK UNBOUND:                -0.237
REMARK SMILES [NH3+][C@H](CO)C(=O)[O-]
REMARK SMILES IDX 3 1 2 2 1 3 5 7 6 8 7 9 4 10
REMARK H PARENT 1 4 1 5 1 6 4 11
REMARK Flexibility Score: inf
ROOT
ATOM      1  C   UNL     1      22.030  23.888  30.705  1.00  0.00     0.227 C 
ENDROOT
BRANCH   1   2
ATOM      2  C   UNL     1      22.764  25.215  30.964  1.00  0.00     0.253 C 
BRANCH   2   3
ATOM      3  N   UNL     1      22.323  26.259  30.030  1.00  0.00    -0.348 N 
ATOM      4  H   UNL     1      22.872  27.139  30.162  1.00  0.00     0.345 HD
ATOM      5  H   UNL     1      21.309  26.463  30.181  1.00  0.00     0.345 HD
ATOM      6  H   UNL     1      22.445  25.925  29.045  1.00  0.00     0.345 HD
ENDBRANCH   2   3
BRANCH   2   7
ATOM      7  C   UNL     1      22.584  25.658  32.393  1.00  0.00     0.102 C 
ATOM      8  O   UNL     1      22.497  24.812  33.321  1.00  0.00    -0.544 OA
ATOM      9  O   UNL     1      22.553  27.013  32.697  1.00  0.00    -0.544 OA
ENDBRANCH   2   7
ENDBRANCH   1   2
BRANCH   1  10
ATOM     10  O   UNL     1      20.697  23.966  31.134  1.00  0.00    -0.390 OA
ATOM     11  H   UNL     1      20.354  23.035  31.135  1.00  0.00     0.210 HD
ENDBRANCH   1  10
TORSDOF 4
ENDMDL
MODEL 4
REMARK VINA RESULT:    -4.290      1.767      2.045
REMARK INTER + INTRA:          -5.279
REMARK INTER:                  -4.882
REMARK INTRA:                  -0.397
REMARK UNBOUND:                -0.237
REMARK SMILES [NH3+][C@H](CO)C(=O)[O-]
REMARK SMILES IDX 3 1 2 2 1 3 5 7 6 8 7 9 4 10
REMARK H PARENT 1 4 1 5 1 6 4 11
REMARK Flexibility Score: inf
ROOT
ATOM      1  C   UNL     1      24.229  24.747  30.573  1.00  0.00     0.227 C 
ENDROOT
BRANCH   1   2
ATOM      2  C   UNL     1      22.738  24.895  30.921  1.00  0.00     0.253 C 
BRANCH   2   3
ATOM      3  N   UNL     1      22.041  23.604  30.840  1.00  0.00    -0.348 N 
ATOM      4  H   UNL     1      22.495  22.892  31.459  1.00  0.00     0.345 HD
ATOM      5  H   UNL     1      22.053  23.257  29.854  1.00  0.00     0.345 HD
ATOM      6  H   UNL     1      21.043  23.724  31.132  1.00  0.00     0.345 HD
ENDBRANCH   2   3
BRANCH   2   7
ATOM      7  C   UNL     1      22.564  25.519  32.282  1.00  0.00     0.102 C 
ATOM      8  O   UNL     1      22.486  24.799  33.312  1.00  0.00    -0.544 OA
ATOM      9  O   UNL     1      22.532  26.902  32.409  1.00  0.00    -0.544 OA
ENDBRANCH   2   7
ENDBRANCH   1   2
BRANCH   1  10
ATOM     10  O   UNL     1      25.033  25.157  31.646  1.00  0.00    -0.390 OA
ATOM     11  H   UNL     1      24.714  24.651  32.438  1.00  0.00     0.210 HD
ENDBRANCH   1  10
TORSDOF 4
ENDMDL
MODEL 5
REMARK VINA RESULT:    -4.020      2.313      3.101
REMARK INTER + INTRA:          -4.962
REMARK INTER:                  -4.736
REMARK INTRA:                  -0.226
REMARK UNBOUND:                -0.237
REMARK SMILES [NH3+][C@H](CO)C(=O)[O-]
REMARK SMILES IDX 3 1 2 2 1 3 5 7 6 8 7 9 4 10
REMARK H PARENT 1 4 1 5 1 6 4 11
REMARK Flexibility Score: inf
ROOT
ATOM      1  C   UNL     1      22.749  24.887  32.517  1.00  0.00     0.227 C 
ENDROOT
BRANCH   1   2
ATOM      2  C   UNL     1      23.033  25.024  31.012  1.00  0.00     0.253 C 
BRANCH   2   3
ATOM      3  N   UNL     1      22.571  26.320  30.498  1.00  0.00    -0.348 N 
ATOM      4  H   UNL     1      21.935  26.791  31.183  1.00  0.00     0.345 HD
ATOM      5  H   UNL     1      22.059  26.181  29.597  1.00  0.00     0.345 HD
ATOM      6  H   UNL     1      23.394  26.939  30.313  1.00  0.00     0.345 HD
ENDBRANCH   2   3
BRANCH   2   7
ATOM      7  C   UNL     1      24.498  24.819  30.721  1.00  0.00     0.102 C 
ATOM      8  O   UNL     1      24.878  24.430  29.586  1.00  0.00    -0.544 OA
ATOM      9  O   UNL     1      25.442  25.101  31.700  1.00  0.00    -0.544 OA
ENDBRANCH   2   7
ENDBRANCH   1   2
BRANCH   1  10
ATOM     10  O   UNL     1      23.072  26.072  33.193  1.00  0.00    -0.390 OA
ATOM     11  H   UNL     1      23.965  26.344  32.860  1.00  0.00     0.210 HD
ENDBRANCH   1  10
TORSDOF 4
ENDMDL
MODEL 6
REMARK VINA RESULT:    -3.925      1.871      2.997
REMARK INTER + INTRA:          -4.849
REMARK INTER:                  -4.512
REMARK INTRA:                  -0.337
REMARK UNBOUND:                -0.237
REMARK SMILES [NH3+][C@H](CO)C(=O)[O-]
REMARK SMILES IDX 3 1 2 2 1 3 5 7 6 8 7 9 4 10
REMARK H PARENT 1 4 1 5 1 6 4 11
REMARK Flexibility Score: inf
ROOT
ATOM      1  C   UNL     1      22.618  24.829  32.613  1.00  0.00     0.227 C 
ENDROOT
BRANCH   1   2
ATOM      2  C   UNL     1      22.466  24.319  31.171  1.00  0.00     0.253 C 
BRANCH   2   3
ATOM      3  N   UNL     1      21.113  23.800  30.929  1.00  0.00    -0.348 N 
ATOM      4  H   UNL     1      20.914  22.970  31.534  1.00  0.00     0.345 HD
ATOM      5  H   UNL     1      21.015  23.523  29.926  1.00  0.00     0.345 HD
ATOM      6  H   UNL     1      20.408  24.547  31.132  1.00  0.00     0.345 HD
ENDBRANCH   2   3
BRANCH   2   7
ATOM      7  C   UNL     1      22.815  25.399  30.180  1.00  0.00     0.102 C 
ATOM      8  O   UNL     1      23.980  25.487  29.710  1.00  0.00    -0.544 OA
ATOM      9  O   UNL     1      21.834  26.283  29.747  1.00  0.00    -0.544 OA
ENDBRANCH   2   7
ENDBRANCH   1   2
BRANCH   1  10
ATOM     10  O   UNL     1      22.688  26.229  32.641  1.00  0.00    -0.390 OA
ATOM     11  H   UNL     1      22.424  26.500  33.558  1.00  0.00     0.210 HD
ENDBRANCH   1  10
TORSDOF 4
ENDMDL
MODEL 7
REMARK VINA RESULT:    -3.640      4.158      4.610
REMARK INTER + INTRA:          -4.515
REMARK INTER:                  -4.284
REMARK INTRA:                  -0.231
REMARK UNBOUND:                -0.237
REMARK SMILES [NH3+][C@H](CO)C(=O)[O-]
REMARK SMILES IDX 3 1 2 2 1 3 5 7 6 8 7 9 4 10
REMARK H PARENT 1 4 1 5 1 6 4 11
REMARK Flexibility Score: inf
ROOT
ATOM      1  C   UNL     1      18.821  22.864  30.566  1.00  0.00     0.227 C 
ENDROOT
BRANCH   1   2
ATOM      2  C   UNL     1      19.752  23.077  29.361  1.00  0.00     0.253 C 
BRANCH   2   3
ATOM      3  N   UNL     1      19.003  23.534  28.183  1.00  0.00    -0.348 N 
ATOM      4  H   UNL     1      18.894  24.575  28.186  1.00  0.00     0.345 HD
ATOM      5  H   UNL     1      18.055  23.092  28.173  1.00  0.00     0.345 HD
ATOM      6  H   UNL     1      19.506  23.246  27.311  1.00  0.00     0.345 HD
ENDBRANCH   2   3
BRANCH   2   7
ATOM      7  C   UNL     1      20.860  24.040  29.702  1.00  0.00     0.102 C 
ATOM      8  O   UNL     1      21.191  24.237  30.901  1.00  0.00    -0.544 OA
ATOM      9  O   UNL     1      21.552  24.686  28.685  1.00  0.00    -0.544 OA
ENDBRANCH   2   7
ENDBRANCH   1   2
BRANCH   1  10
ATOM     10  O   UNL     1      18.241  24.076  30.966  1.00  0.00    -0.390 OA
ATOM     11  H   UNL     1      18.814  24.428  31.695  1.00  0.00     0.210 HD
ENDBRANCH   1  10
TORSDOF 4
ENDMDL
MODEL 8
REMARK VINA RESULT:    -3.565      2.738      3.124
REMARK INTER + INTRA:          -4.427
REMARK INTER:                  -4.210
REMARK INTRA:                  -0.217
REMARK UNBOUND:                -0.237
REMARK SMILES [NH3+][C@H](CO)C(=O)[O-]
REMARK SMILES IDX 3 1 2 2 1 3 5 7 6 8 7 9 4 10
REMARK H PARENT 1 4 1 5 1 6 4 11
REMARK Flexibility Score: inf
ROOT
ATOM      1  C   UNL     1      22.326  23.190  29.016  1.00  0.00     0.227 C 
ENDROOT
BRANCH   1   2
ATOM      2  C   UNL     1      21.733  24.367  29.807  1.00  0.00     0.253 C 
BRANCH   2   3
ATOM      3  N   UNL     1      20.985  23.897  30.981  1.00  0.00    -0.348 N 
ATOM      4  H   UNL     1      21.259  22.919  31.235  1.00  0.00     0.345 HD
ATOM      5  H   UNL     1      19.960  23.923  30.781  1.00  0.00     0.345 HD
ATOM      6  H   UNL     1      21.175  24.527  31.795  1.00  0.00     0.345 HD
ENDBRANCH   2   3
BRANCH   2   7
ATOM      7  C   UNL     1      22.810  25.341  30.208  1.00  0.00     0.102 C 
ATOM      8  O   UNL     1      23.954  25.283  29.686  1.00  0.00    -0.544 OA
ATOM      9  O   UNL     1      22.529  26.341  31.131  1.00  0.00    -0.544 OA
ENDBRANCH   2   7
ENDBRANCH   1   2
BRANCH   1  10
ATOM     10  O   UNL     1      23.089  22.363  29.852  1.00  0.00    -0.390 OA
ATOM     11  H   UNL     1      22.506  22.136  30.622  1.00  0.00     0.210 HD
ENDBRANCH   1  10
TORSDOF 4
ENDMDL
MODEL 9
REMARK VINA RESULT:    -3.508      2.555      2.773
REMARK INTER + INTRA:          -4.360
REMARK INTER:                  -3.967
REMARK INTRA:                  -0.393
REMARK UNBOUND:                -0.237
REMARK SMILES [NH3+][C@H](CO)C(=O)[O-]
REMARK SMILES IDX 3 1 2 2 1 3 5 7 6 8 7 9 4 10
REMARK H PARENT 1 4 1 5 1 6 4 11
REMARK Flexibility Score: inf
ROOT
ATOM      1  C   UNL     1      21.968  24.261  30.402  1.00  0.00     0.227 C 
ENDROOT
BRANCH   1   2
ATOM      2  C   UNL     1      22.981  25.395  30.631  1.00  0.00     0.253 C 
BRANCH   2   3
ATOM      3  N   UNL     1      22.531  26.306  31.692  1.00  0.00    -0.348 N 
ATOM      4  H   UNL     1      22.258  25.776  32.552  1.00  0.00     0.345 HD
ATOM      5  H   UNL     1      21.710  26.859  31.357  1.00  0.00     0.345 HD
ATOM      6  H   UNL     1      23.300  26.975  31.931  1.00  0.00     0.345 HD
ENDBRANCH   2   3
BRANCH   2   7
ATOM      7  C   UNL     1      24.347  24.839  30.940  1.00  0.00     0.102 C 
ATOM      8  O   UNL     1      24.653  24.504  32.114  1.00  0.00    -0.544 OA
ATOM      9  O   UNL     1      25.266  24.655  29.914  1.00  0.00    -0.544 OA
ENDBRANCH   2   7
ENDBRANCH   1   2
BRANCH   1  10
ATOM     10  O   UNL     1      22.607  23.013  30.413  1.00  0.00    -0.390 OA
ATOM     11  H   UNL     1      21.951  22.365  30.048  1.00  0.00     0.210 HD
ENDBRANCH   1  10
TORSDOF 4
ENDMDL
