MODEL 1
REMARK VINA RESULT:    -4.108      0.000      0.000
REMARK INTER + INTRA:          -4.939
REMARK INTER:                  -4.828
REMARK INTRA:                  -0.110
REMARK UNBOUND:                -0.110
REMARK SMILES CCCCC(=O)[O-]
REMARK SMILES IDX 4 1 5 2 6 3 7 4 3 5 2 6 1 7
REMARK H PARENT
REMARK Flexibility Score: inf
ROOT
ATOM      1  C   UNL     1     153.750 167.343 149.228  1.00  0.00     0.053 C 
ENDROOT
BRANCH   1   2
ATOM      2  C   UNL     1     152.743 168.316 149.758  1.00  0.00     0.041 C 
ATOM      3  O   UNL     1     152.520 169.395 149.148  1.00  0.00    -0.550 OA
ATOM      4  O   UNL     1     152.072 168.046 150.944  1.00  0.00    -0.550 OA
ENDBRANCH   1   2
BRANCH   1   5
ATOM      5  C   UNL     1     154.632 167.974 148.142  1.00  0.00     0.006 C 
BRANCH   5   6
ATOM      6  C   UNL     1     154.508 167.245 146.797  1.00  0.00    -0.003 C 
ATOM      7  C   UNL     1     153.294 167.736 146.014  1.00  0.00     0.004 C 
ENDBRANCH   5   6
ENDBRANCH   1   5
TORSDOF 3
ENDMDL
MODEL 2
REMARK VINA RESULT:    -3.187     13.167     13.945
REMARK INTER + INTRA:          -3.857
REMARK INTER:                  -3.771
REMARK INTRA:                  -0.085
REMARK UNBOUND:                -0.110
REMARK SMILES CCCCC(=O)[O-]
REMARK SMILES IDX 4 1 5 2 6 3 7 4 3 5 2 6 1 7
REMARK H PARENT
REMARK Flexibility Score: inf
ROOT
ATOM      1  C   UNL     1     163.871 165.948 158.970  1.00  0.00     0.053 C 
ENDROOT
BRANCH   1   2
ATOM      2  C   UNL     1     162.922 166.476 160.000  1.00  0.00     0.041 C 
ATOM      3  O   UNL     1     162.220 165.684 160.682  1.00  0.00    -0.550 OA
ATOM      4  O   UNL     1     162.790 167.846 160.187  1.00  0.00    -0.550 OA
ENDBRANCH   1   2
BRANCH   1   5
ATOM      5  C   UNL     1     163.138 165.511 157.694  1.00  0.00     0.006 C 
BRANCH   5   6
ATOM      6  C   UNL     1     162.760 166.702 156.804  1.00  0.00    -0.003 C 
ATOM      7  C   UNL     1     161.360 166.531 156.220  1.00  0.00     0.004 C 
ENDBRANCH   5   6
ENDBRANCH   1   5
TORSDOF 3
ENDMDL
MODEL 3
REMARK VINA RESULT:    -3.161     13.803     14.630
REMARK INTER + INTRA:          -3.826
REMARK INTER:                  -3.758
REMARK INTRA:                  -0.069
REMARK UNBOUND:                -0.110
REMARK SMILES CCCCC(=O)[O-]
REMARK SMILES IDX 4 1 5 2 6 3 7 4 3 5 2 6 1 7
REMARK H PARENT
REMARK Flexibility Score: inf
ROOT
ATOM      1  C   UNL     1     161.188 166.772 159.497  1.00  0.00     0.053 C 
ENDROOT
BRANCH   1   2
ATOM      2  C   UNL     1     162.321 167.540 160.104  1.00  0.00     0.041 C 
ATOM      3  O   UNL     1     163.459 167.013 160.215  1.00  0.00    -0.550 OA
ATOM      4  O   UNL     1     162.111 168.829 160.577  1.00  0.00    -0.550 OA
ENDBRANCH   1   2
BRANCH   1   5
ATOM      5  C   UNL     1     159.827 167.286 159.985  1.00  0.00     0.006 C 
BRANCH   5   6
ATOM      6  C   UNL     1     159.104 166.265 160.874  1.00  0.00    -0.003 C 
ATOM      7  C   UNL     1     159.692 166.247 162.282  1.00  0.00     0.004 C 
ENDBRANCH   5   6
ENDBRANCH   1   5
TORSDOF 3
ENDMDL
MODEL 4
REMARK VINA RESULT:    -3.143     13.428     14.224
REMARK INTER + INTRA:          -3.805
REMARK INTER:                  -3.737
REMARK INTRA:                  -0.067
REMARK UNBOUND:                -0.110
REMARK SMILES CCCCC(=O)[O-]
REMARK SMILES IDX 4 1 5 2 6 3 7 4 3 5 2 6 1 7
REMARK H PARENT
REMARK Flexibility Score: inf
ROOT
ATOM      1  C   UNL     1     161.985 166.366 160.241  1.00  0.00     0.053 C 
ENDROOT
BRANCH   1   2
ATOM      2  C   UNL     1     161.267 167.679 160.306  1.00  0.00     0.041 C 
ATOM      3  O   UNL     1     160.032 167.740 160.069  1.00  0.00    -0.550 OA
ATOM      4  O   UNL     1     161.970 168.841 160.597  1.00  0.00    -0.550 OA
ENDBRANCH   1   2
BRANCH   1   5
ATOM      5  C   UNL     1     163.462 166.544 159.863  1.00  0.00     0.006 C 
BRANCH   5   6
ATOM      6  C   UNL     1     163.778 165.976 158.473  1.00  0.00    -0.003 C 
ATOM      7  C   UNL     1     163.335 166.937 157.372  1.00  0.00     0.004 C 
ENDBRANCH   5   6
ENDBRANCH   1   5
TORSDOF 3
ENDMDL
MODEL 5
REMARK VINA RESULT:    -3.128     12.396     13.396
REMARK INTER + INTRA:          -3.788
REMARK INTER:                  -3.684
REMARK INTRA:                  -0.103
REMARK UNBOUND:                -0.110
REMARK SMILES CCCCC(=O)[O-]
REMARK SMILES IDX 4 1 5 2 6 3 7 4 3 5 2 6 1 7
REMARK H PARENT
REMARK Flexibility Score: inf
ROOT
ATOM      1  C   UNL     1     162.700 166.938 157.327  1.00  0.00     0.053 C 
ENDROOT
BRANCH   1   2
ATOM      2  C   UNL     1     161.499 166.289 156.712  1.00  0.00     0.041 C 
ATOM      3  O   UNL     1     160.898 165.363 157.317  1.00  0.00    -0.550 OA
ATOM      4  O   UNL     1     161.060 166.688 155.456  1.00  0.00    -0.550 OA
ENDBRANCH   1   2
BRANCH   1   5
ATOM      5  C   UNL     1     163.449 165.977 158.261  1.00  0.00     0.006 C 
BRANCH   5   6
ATOM      6  C   UNL     1     163.463 166.473 159.714  1.00  0.00    -0.003 C 
ATOM      7  C   UNL     1     162.265 165.935 160.491  1.00  0.00     0.004 C 
ENDBRANCH   5   6
ENDBRANCH   1   5
TORSDOF 3
ENDMDL
MODEL 6
REMARK VINA RESULT:    -3.124     13.180     14.255
REMARK INTER + INTRA:          -3.782
REMARK INTER:                  -3.673
REMARK INTRA:                  -0.109
REMARK UNBOUND:                -0.110
REMARK SMILES CCCCC(=O)[O-]
REMARK SMILES IDX 4 1 5 2 6 3 7 4 3 5 2 6 1 7
REMARK H PARENT
REMARK Flexibility Score: inf
ROOT
ATOM      1  C   UNL     1     160.555 165.752 159.228  1.00  0.00     0.053 C 
ENDROOT
BRANCH   1   2
ATOM      2  C   UNL     1     159.753 166.812 159.918  1.00  0.00     0.041 C 
ATOM      3  O   UNL     1     160.191 167.989 159.999  1.00  0.00    -0.550 OA
ATOM      4  O   UNL     1     158.533 166.491 160.501  1.00  0.00    -0.550 OA
ENDBRANCH   1   2
BRANCH   1   5
ATOM      5  C   UNL     1     161.704 165.245 160.111  1.00  0.00     0.006 C 
BRANCH   5   6
ATOM      6  C   UNL     1     161.253 164.138 161.073  1.00  0.00    -0.003 C 
ATOM      7  C   UNL     1     161.248 164.632 162.517  1.00  0.00     0.004 C 
ENDBRANCH   5   6
ENDBRANCH   1   5
TORSDOF 3
ENDMDL
MODEL 7
REMARK VINA RESULT:    -3.113     12.812     13.300
REMARK INTER + INTRA:          -3.770
REMARK INTER:                  -3.676
REMARK INTRA:                  -0.094
REMARK UNBOUND:                -0.110
REMARK SMILES CCCCC(=O)[O-]
REMARK SMILES IDX 4 1 5 2 6 3 7 4 3 5 2 6 1 7
REMARK H PARENT
REMARK Flexibility Score: inf
ROOT
ATOM      1  C   UNL     1     158.958 166.236 160.556  1.00  0.00     0.053 C 
ENDROOT
BRANCH   1   2
ATOM      2  C   UNL     1     160.051 166.935 159.809  1.00  0.00     0.041 C 
ATOM      3  O   UNL     1     160.444 168.074 160.176  1.00  0.00    -0.550 OA
ATOM      4  O   UNL     1     160.616 166.341 158.687  1.00  0.00    -0.550 OA
ENDBRANCH   1   2
BRANCH   1   5
ATOM      5  C   UNL     1     159.221 164.728 160.668  1.00  0.00     0.006 C 
BRANCH   5   6
ATOM      6  C   UNL     1     158.208 163.900 159.866  1.00  0.00    -0.003 C 
ATOM      7  C   UNL     1     158.911 162.995 158.859  1.00  0.00     0.004 C 
ENDBRANCH   5   6
ENDBRANCH   1   5
TORSDOF 3
ENDMDL
MODEL 8
REMARK VINA RESULT:    -3.069     12.460     13.294
REMARK INTER + INTRA:          -3.717
REMARK INTER:                  -3.607
REMARK INTRA:                  -0.110
REMARK UNBOUND:                -0.110
REMARK SMILES CCCCC(=O)[O-]
REMARK SMILES IDX 4 1 5 2 6 3 7 4 3 5 2 6 1 7
REMARK H PARENT
REMARK Flexibility Score: inf
ROOT
ATOM      1  C   UNL     1     163.258 166.535 157.460  1.00  0.00     0.053 C 
ENDROOT
BRANCH   1   2
ATOM      2  C   UNL     1     161.786 166.539 157.183  1.00  0.00     0.041 C 
ATOM      3  O   UNL     1     161.363 166.621 156.001  1.00  0.00    -0.550 OA
ATOM      4  O   UNL     1     160.881 166.485 158.235  1.00  0.00    -0.550 OA
ENDBRANCH   1   2
BRANCH   1   5
ATOM      5  C   UNL     1     163.640 165.452 158.479  1.00  0.00     0.006 C 
BRANCH   5   6
ATOM      6  C   UNL     1     163.834 164.079 157.822  1.00  0.00    -0.003 C 
ATOM      7  C   UNL     1     162.720 163.115 158.221  1.00  0.00     0.004 C 
ENDBRANCH   5   6
ENDBRANCH   1   5
TORSDOF 3
ENDMDL
