MODEL 1
REMARK VINA RESULT:    -2.655      0.000      0.000
REMARK INTER + INTRA:          -2.655
REMARK INTER:                  -2.655
REMARK INTRA:                   0.000
REMARK UNBOUND:                 0.000
REMARK SMILES CC(=O)[O-]
REMARK SMILES IDX 1 1 2 2 3 3 4 4
REMARK H PARENT
REMARK Flexibility Score: inf
ROOT
ATOM      1  C   UNL     1     -14.385 -13.586  42.444  1.00  0.00     0.063 C 
ATOM      2  C   UNL     1     -12.966 -13.139  42.347  1.00  0.00     0.038 C 
ATOM      3  O   UNL     1     -12.415 -13.027  41.220  1.00  0.00    -0.550 OA
ATOM      4  O   UNL     1     -12.266 -12.790  43.495  1.00  0.00    -0.550 OA
ENDROOT
TORSDOF 0
ENDMDL
MODEL 2
REMARK VINA RESULT:    -2.429     11.586     12.109
REMARK INTER + INTRA:          -2.429
REMARK INTER:                  -2.429
REMARK INTRA:                   0.000
REMARK UNBOUND:                 0.000
REMARK SMILES CC(=O)[O-]
REMARK SMILES IDX 1 1 2 2 3 3 4 4
REMARK H PARENT
REMARK Flexibility Score: inf
ROOT
ATOM      1  C   UNL     1      -5.513 -17.511  49.393  1.00  0.00     0.063 C 
ATOM      2  C   UNL     1      -4.099 -17.826  49.042  1.00  0.00     0.038 C 
ATOM      3  O   UNL     1      -3.607 -18.944  49.350  1.00  0.00    -0.550 OA
ATOM      4  O   UNL     1      -3.338 -16.911  48.327  1.00  0.00    -0.550 OA
ENDROOT
TORSDOF 0
ENDMDL
MODEL 3
REMARK VINA RESULT:    -2.406     13.766     14.300
REMARK INTER + INTRA:          -2.406
REMARK INTER:                  -2.406
REMARK INTRA:                   0.000
REMARK UNBOUND:                 0.000
REMARK SMILES CC(=O)[O-]
REMARK SMILES IDX 1 1 2 2 3 3 4 4
REMARK H PARENT
REMARK Flexibility Score: inf
ROOT
ATOM      1  C   UNL     1       0.093 -13.734  44.676  1.00  0.00     0.063 C 
ATOM      2  C   UNL     1       0.734 -14.738  45.571  1.00  0.00     0.038 C 
ATOM      3  O   UNL     1       0.089 -15.228  46.536  1.00  0.00    -0.550 OA
ATOM      4  O   UNL     1       2.025 -15.179  45.311  1.00  0.00    -0.550 OA
ENDROOT
TORSDOF 0
ENDMDL
MODEL 4
REMARK VINA RESULT:    -2.274     12.178     12.611
REMARK INTER + INTRA:          -2.274
REMARK INTER:                  -2.274
REMARK INTRA:                   0.000
REMARK UNBOUND:                 0.000
REMARK SMILES CC(=O)[O-]
REMARK SMILES IDX 1 1 2 2 3 3 4 4
REMARK H PARENT
REMARK Flexibility Score: inf
ROOT
ATOM      1  C   UNL     1      -5.392 -17.483  49.179  1.00  0.00     0.063 C 
ATOM      2  C   UNL     1      -4.761 -18.387  50.183  1.00  0.00     0.038 C 
ATOM      3  O   UNL     1      -5.129 -18.349  51.386  1.00  0.00    -0.550 OA
ATOM      4  O   UNL     1      -3.805 -19.311  49.783  1.00  0.00    -0.550 OA
ENDROOT
TORSDOF 0
ENDMDL
MODEL 5
REMARK VINA RESULT:    -2.202      9.754     10.412
REMARK INTER + INTRA:          -2.202
REMARK INTER:                  -2.202
REMARK INTRA:                   0.000
REMARK UNBOUND:                 0.000
REMARK SMILES CC(=O)[O-]
REMARK SMILES IDX 1 1 2 2 3 3 4 4
REMARK H PARENT
REMARK Flexibility Score: inf
ROOT
ATOM      1  C   UNL     1      -6.756  -7.363  46.770  1.00  0.00     0.063 C 
ATOM      2  C   UNL     1      -7.170  -5.931  46.781  1.00  0.00     0.038 C 
ATOM      3  O   UNL     1      -6.613  -5.119  47.567  1.00  0.00    -0.550 OA
ATOM      4  O   UNL     1      -8.130  -5.477  45.887  1.00  0.00    -0.550 OA
ENDROOT
TORSDOF 0
ENDMDL
MODEL 6
REMARK VINA RESULT:    -2.098     14.062     14.459
REMARK INTER + INTRA:          -2.098
REMARK INTER:                  -2.098
REMARK INTRA:                   0.000
REMARK UNBOUND:                 0.000
REMARK SMILES CC(=O)[O-]
REMARK SMILES IDX 1 1 2 2 3 3 4 4
REMARK H PARENT
REMARK Flexibility Score: inf
ROOT
ATOM      1  C   UNL     1      -0.061 -13.872  44.664  1.00  0.00     0.063 C 
ATOM      2  C   UNL     1       1.251 -14.514  44.366  1.00  0.00     0.038 C 
ATOM      3  O   UNL     1       1.783 -14.368  43.234  1.00  0.00    -0.550 OA
ATOM      4  O   UNL     1       1.915 -15.230  45.353  1.00  0.00    -0.550 OA
ENDROOT
TORSDOF 0
ENDMDL
MODEL 7
REMARK VINA RESULT:    -2.095     14.366     14.758
REMARK INTER + INTRA:          -2.095
REMARK INTER:                  -2.095
REMARK INTRA:                   0.000
REMARK UNBOUND:                 0.000
REMARK SMILES CC(=O)[O-]
REMARK SMILES IDX 1 1 2 2 3 3 4 4
REMARK H PARENT
REMARK Flexibility Score: inf
ROOT
ATOM      1  C   UNL     1      -5.353  -3.387  47.150  1.00  0.00     0.063 C 
ATOM      2  C   UNL     1      -4.403  -2.257  47.353  1.00  0.00     0.038 C 
ATOM      3  O   UNL     1      -4.836  -1.115  47.661  1.00  0.00    -0.550 OA
ATOM      4  O   UNL     1      -3.034  -2.472  47.256  1.00  0.00    -0.550 OA
ENDROOT
TORSDOF 0
ENDMDL
MODEL 8
REMARK VINA RESULT:    -2.093     14.732     15.132
REMARK INTER + INTRA:          -2.093
REMARK INTER:                  -2.093
REMARK INTRA:                   0.000
REMARK UNBOUND:                 0.000
REMARK SMILES CC(=O)[O-]
REMARK SMILES IDX 1 1 2 2 3 3 4 4
REMARK H PARENT
REMARK Flexibility Score: inf
ROOT
ATOM      1  C   UNL     1      -4.759  -2.948  46.981  1.00  0.00     0.063 C 
ATOM      2  C   UNL     1      -4.717  -1.514  47.382  1.00  0.00     0.038 C 
ATOM      3  O   UNL     1      -3.964  -0.709  46.772  1.00  0.00    -0.550 OA
ATOM      4  O   UNL     1      -5.547  -1.049  48.393  1.00  0.00    -0.550 OA
ENDROOT
TORSDOF 0
ENDMDL
MODEL 9
REMARK VINA RESULT:    -2.078      9.784     10.087
REMARK INTER + INTRA:          -2.078
REMARK INTER:                  -2.078
REMARK INTRA:                   0.000
REMARK UNBOUND:                 0.000
REMARK SMILES CC(=O)[O-]
REMARK SMILES IDX 1 1 2 2 3 3 4 4
REMARK H PARENT
REMARK Flexibility Score: inf
ROOT
ATOM      1  C   UNL     1      -6.606  -5.854  45.367  1.00  0.00     0.063 C 
ATOM      2  C   UNL     1      -6.999  -6.514  46.645  1.00  0.00     0.038 C 
ATOM      3  O   UNL     1      -6.643  -7.699  46.879  1.00  0.00    -0.550 OA
ATOM      4  O   UNL     1      -7.710  -5.805  47.604  1.00  0.00    -0.550 OA
ENDROOT
TORSDOF 0
ENDMDL
