MODEL 1
REMARK VINA RESULT:     3.493      0.000      0.000
REMARK INTER + INTRA:           4.827
REMARK INTER:                   4.310
REMARK INTRA:                   0.516
REMARK UNBOUND:                 0.516
REMARK SMILES C=C1CC[C@H]2[C@H]1[C@@H]1[C@@H](CC[C@H]2C)C1(C)C
REMARK SMILES IDX 6 1 5 2 4 3 3 4 2 5 1 6 11 7 12 8 10 9 7 11 8 12 13 13 14 14
REMARK SMILES IDX 15 15 9 16
REMARK H PARENT
REMARK Flexibility Score: 80.00
ROOT
ATOM      1  C   UNL     1       4.551   8.549  13.173  1.00  0.00     0.022 C 
ATOM      2  C   UNL     1       4.869   7.913  11.801  1.00  0.00    -0.000 C 
ATOM      3  C   UNL     1       3.737   8.386  10.880  1.00  0.00     0.009 C 
ATOM      4  C   UNL     1       3.401   9.796  11.365  1.00  0.00     0.031 C 
ATOM      5  C   UNL     1       3.866   9.818  12.786  1.00  0.00    -0.074 C 
ATOM      6  C   UNL     1       3.611  10.827  13.626  1.00  0.00     0.008 C 
ENDROOT
BRANCH   2   7
ATOM      7  C   UNL     1       5.159   6.379  11.792  1.00  0.00    -0.011 C 
ATOM      8  C   UNL     1       4.045   5.516  12.421  1.00  0.00     0.008 C 
BRANCH   7   9
ATOM      9  C   UNL     1       6.593   5.968  12.303  1.00  0.00     0.004 CG0
ATOM     10  G   UNL     1       7.269   6.748  13.473  1.00  0.00     0.000 G0
ENDBRANCH   7   9
ENDBRANCH   2   7
BRANCH   1  11
ATOM     11  C   UNL     1       5.884   8.760  13.895  1.00  0.00     0.006 C 
ATOM     12  C   UNL     1       6.230   7.340  14.420  1.00  0.00    -0.001 C 
ATOM     13  C   UNL     1       6.319   8.539  15.342  1.00  0.00    -0.029 C 
ATOM     14  C   UNL     1       5.224   8.677  16.405  1.00  0.00     0.012 C 
ATOM     15  C   UNL     1       7.729   9.000  15.723  1.00  0.00     0.012 C 
BRANCH  12  16
ATOM     16  C   UNL     1       7.268   6.741  13.473  1.00  0.00     0.005 CG0
ATOM     17  G   UNL     1       6.598   5.966  12.296  1.00  0.00     0.000 G0
ENDBRANCH  12  16
ENDBRANCH   1  11
TORSDOF 0
ENDMDL
MODEL 2
REMARK VINA RESULT:     4.318      1.866      3.717
REMARK INTER + INTRA:           5.844
REMARK INTER:                   5.343
REMARK INTRA:                   0.501
REMARK UNBOUND:                 0.516
REMARK SMILES C=C1CC[C@H]2[C@H]1[C@@H]1[C@@H](CC[C@H]2C)C1(C)C
REMARK SMILES IDX 6 1 5 2 4 3 3 4 2 5 1 6 11 7 12 8 10 9 7 11 8 12 13 13 14 14
REMARK SMILES IDX 15 15 9 16
REMARK H PARENT
REMARK Flexibility Score: 80.00
ROOT
ATOM      1  C   UNL     1       5.583   7.025  12.836  1.00  0.00     0.022 C 
ATOM      2  C   UNL     1       4.055   7.214  12.700  1.00  0.00    -0.000 C 
ATOM      3  C   UNL     1       3.591   6.038  11.832  1.00  0.00     0.009 C 
ATOM      4  C   UNL     1       4.506   4.878  12.224  1.00  0.00     0.031 C 
ATOM      5  C   UNL     1       5.727   5.540  12.776  1.00  0.00    -0.074 C 
ATOM      6  C   UNL     1       6.845   4.875  13.088  1.00  0.00     0.008 C 
ENDROOT
BRANCH   2   7
ATOM      7  C   UNL     1       3.563   8.628  12.254  1.00  0.00    -0.011 C 
ATOM      8  C   UNL     1       4.178   9.128  10.930  1.00  0.00     0.008 C 
BRANCH   7   9
ATOM      9  C   UNL     1       3.591   9.730  13.381  1.00  0.00     0.004 CG0
ATOM     10  G   UNL     1       4.745   9.759  14.430  1.00  0.00     0.000 G0
ENDBRANCH   7   9
ENDBRANCH   2   7
BRANCH   1  11
ATOM     11  C   UNL     1       5.999   7.634  14.177  1.00  0.00     0.006 C 
ATOM     12  C   UNL     1       6.031   9.157  13.879  1.00  0.00    -0.001 C 
ATOM     13  C   UNL     1       7.190   8.494  14.594  1.00  0.00    -0.029 C 
ATOM     14  C   UNL     1       8.479   8.298  13.789  1.00  0.00     0.012 C 
ATOM     15  C   UNL     1       7.335   8.805  16.087  1.00  0.00     0.012 C 
BRANCH  12  16
ATOM     16  C   UNL     1       4.742   9.761  14.432  1.00  0.00     0.005 CG0
ATOM     17  G   UNL     1       3.592   9.734  13.379  1.00  0.00     0.000 G0
ENDBRANCH  12  16
ENDBRANCH   1  11
TORSDOF 0
ENDMDL
MODEL 3
REMARK VINA RESULT:     4.806      1.260      3.820
REMARK INTER + INTRA:           6.446
REMARK INTER:                   5.923
REMARK INTRA:                   0.524
REMARK UNBOUND:                 0.516
REMARK SMILES C=C1CC[C@H]2[C@H]1[C@@H]1[C@@H](CC[C@H]2C)C1(C)C
REMARK SMILES IDX 6 1 5 2 4 3 3 4 2 5 1 6 11 7 12 8 10 9 7 11 8 12 13 13 14 14
REMARK SMILES IDX 15 15 9 16
REMARK H PARENT
REMARK Flexibility Score: 80.00
ROOT
ATOM      1  C   UNL     1       5.585   7.947  13.637  1.00  0.00     0.022 C 
ATOM      2  C   UNL     1       6.705   7.533  14.619  1.00  0.00    -0.000 C 
ATOM      3  C   UNL     1       6.927   8.767  15.501  1.00  0.00     0.009 C 
ATOM      4  C   UNL     1       5.542   9.399  15.646  1.00  0.00     0.031 C 
ATOM      5  C   UNL     1       4.787   8.911  14.451  1.00  0.00    -0.074 C 
ATOM      6  C   UNL     1       3.575   9.364  14.114  1.00  0.00     0.008 C 
ENDROOT
BRANCH   2   7
ATOM      7  C   UNL     1       7.988   6.903  13.990  1.00  0.00    -0.011 C 
ATOM      8  C   UNL     1       8.669   7.782  12.919  1.00  0.00     0.008 C 
BRANCH   7   9
ATOM      9  C   UNL     1       7.837   5.404  13.525  1.00  0.00     0.004 CG0
ATOM     10  G   UNL     1       6.485   4.890  12.942  1.00  0.00     0.000 G0
ENDBRANCH   7   9
ENDBRANCH   2   7
BRANCH   1  11
ATOM     11  C   UNL     1       4.821   6.677  13.257  1.00  0.00     0.006 C 
ATOM     12  C   UNL     1       5.755   6.000  12.218  1.00  0.00    -0.001 C 
ATOM     13  C   UNL     1       4.277   6.160  11.927  1.00  0.00    -0.029 C 
ATOM     14  C   UNL     1       3.886   7.225  10.898  1.00  0.00     0.012 C 
ATOM     15  C   UNL     1       3.434   4.881  11.969  1.00  0.00     0.012 C 
BRANCH  12  16
ATOM     16  C   UNL     1       6.507   4.882  12.936  1.00  0.00     0.005 CG0
ATOM     17  G   UNL     1       7.847   5.389  13.553  1.00  0.00     0.000 G0
ENDBRANCH  12  16
ENDBRANCH   1  11
TORSDOF 0
ENDMDL
MODEL 4
REMARK VINA RESULT:     5.197      2.027      4.084
REMARK INTER + INTRA:           6.928
REMARK INTER:                   6.519
REMARK INTRA:                   0.410
REMARK UNBOUND:                 0.516
REMARK SMILES C=C1CC[C@H]2[C@H]1[C@@H]1[C@@H](CC[C@H]2C)C1(C)C
REMARK SMILES IDX 6 1 5 2 4 3 3 4 2 5 1 6 11 7 12 8 10 9 7 11 8 12 13 13 14 14
REMARK SMILES IDX 15 15 9 16
REMARK H PARENT
REMARK Flexibility Score: 80.00
ROOT
ATOM      1  C   UNL     1       3.556   8.884  13.908  1.00  0.00     0.022 C 
ATOM      2  C   UNL     1       3.503  10.369  13.482  1.00  0.00    -0.000 C 
ATOM      3  C   UNL     1       2.778  11.080  14.632  1.00  0.00     0.009 C 
ATOM      4  C   UNL     1       3.214  10.331  15.892  1.00  0.00     0.031 C 
ATOM      5  C   UNL     1       3.622   8.981  15.396  1.00  0.00    -0.074 C 
ATOM      6  C   UNL     1       3.920   7.961  16.209  1.00  0.00     0.008 C 
ENDROOT
BRANCH   2   7
ATOM      7  C   UNL     1       2.964  10.666  12.047  1.00  0.00    -0.011 C 
ATOM      8  C   UNL     1       1.540  10.134  11.779  1.00  0.00     0.008 C 
BRANCH   7   9
ATOM      9  C   UNL     1       3.961  10.323  10.875  1.00  0.00     0.004 CG0
ATOM     10  G   UNL     1       4.868   9.057  10.954  1.00  0.00     0.000 G0
ENDBRANCH   7   9
ENDBRANCH   2   7
BRANCH   1  11
ATOM     11  C   UNL     1       4.806   8.272  13.271  1.00  0.00     0.006 C 
ATOM     12  C   UNL     1       4.346   7.959  11.821  1.00  0.00    -0.001 C 
ATOM     13  C   UNL     1       5.078   6.911  12.635  1.00  0.00    -0.029 C 
ATOM     14  C   UNL     1       4.245   5.740  13.164  1.00  0.00     0.012 C 
ATOM     15  C   UNL     1       6.522   6.614  12.218  1.00  0.00     0.012 C 
BRANCH  12  16
ATOM     16  C   UNL     1       4.886   9.066  10.919  1.00  0.00     0.005 CG0
ATOM     17  G   UNL     1       3.944  10.309  10.900  1.00  0.00     0.000 G0
ENDBRANCH  12  16
ENDBRANCH   1  11
TORSDOF 0
ENDMDL
MODEL 5
REMARK VINA RESULT:     5.848      2.176      3.922
REMARK INTER + INTRA:           7.732
REMARK INTER:                   7.187
REMARK INTRA:                   0.546
REMARK UNBOUND:                 0.516
REMARK SMILES C=C1CC[C@H]2[C@H]1[C@@H]1[C@@H](CC[C@H]2C)C1(C)C
REMARK SMILES IDX 6 1 5 2 4 3 3 4 2 5 1 6 11 7 12 8 10 9 7 11 8 12 13 13 14 14
REMARK SMILES IDX 15 15 9 16
REMARK H PARENT
REMARK Flexibility Score: 80.00
ROOT
ATOM      1  C   UNL     1       5.589   7.093  12.990  1.00  0.00     0.022 C 
ATOM      2  C   UNL     1       5.285   5.596  13.228  1.00  0.00    -0.000 C 
ATOM      3  C   UNL     1       6.605   4.876  12.928  1.00  0.00     0.009 C 
ATOM      4  C   UNL     1       7.693   5.845  13.391  1.00  0.00     0.031 C 
ATOM      5  C   UNL     1       7.034   7.187  13.353  1.00  0.00    -0.074 C 
ATOM      6  C   UNL     1       7.695   8.335  13.535  1.00  0.00     0.008 C 
ENDROOT
BRANCH   2   7
ATOM      7  C   UNL     1       4.017   5.020  12.522  1.00  0.00    -0.011 C 
ATOM      8  C   UNL     1       3.981   5.243  10.995  1.00  0.00     0.008 C 
BRANCH   7   9
ATOM      9  C   UNL     1       2.646   5.381  13.212  1.00  0.00     0.004 CG0
ATOM     10  G   UNL     1       2.444   6.773  13.887  1.00  0.00     0.000 G0
ENDBRANCH   7   9
ENDBRANCH   2   7
BRANCH   1  11
ATOM     11  C   UNL     1       4.666   7.896  13.909  1.00  0.00     0.006 C 
ATOM     12  C   UNL     1       3.298   7.838  13.175  1.00  0.00    -0.001 C 
ATOM     13  C   UNL     1       3.836   9.159  13.689  1.00  0.00    -0.029 C 
ATOM     14  C   UNL     1       4.369  10.143  12.643  1.00  0.00     0.012 C 
ATOM     15  C   UNL     1       3.129   9.749  14.913  1.00  0.00     0.012 C 
BRANCH  12  16
ATOM     16  C   UNL     1       2.448   6.778  13.871  1.00  0.00     0.005 CG0
ATOM     17  G   UNL     1       2.645   5.368  13.233  1.00  0.00     0.000 G0
ENDBRANCH  12  16
ENDBRANCH   1  11
TORSDOF 0
ENDMDL
MODEL 6
REMARK VINA RESULT:     6.199      1.410      3.668
REMARK INTER + INTRA:           8.165
REMARK INTER:                   7.685
REMARK INTRA:                   0.481
REMARK UNBOUND:                 0.516
REMARK SMILES C=C1CC[C@H]2[C@H]1[C@@H]1[C@@H](CC[C@H]2C)C1(C)C
REMARK SMILES IDX 6 1 5 2 4 3 3 4 2 5 1 6 11 7 12 8 10 9 7 11 8 12 13 13 14 14
REMARK SMILES IDX 15 15 9 16
REMARK H PARENT
REMARK Flexibility Score: 80.00
ROOT
ATOM      1  C   UNL     1       6.457   8.018  13.579  1.00  0.00     0.022 C 
ATOM      2  C   UNL     1       7.329   6.744  13.660  1.00  0.00    -0.000 C 
ATOM      3  C   UNL     1       8.731   7.252  14.018  1.00  0.00     0.009 C 
ATOM      4  C   UNL     1       8.490   8.456  14.928  1.00  0.00     0.031 C 
ATOM      5  C   UNL     1       7.112   8.916  14.575  1.00  0.00    -0.074 C 
ATOM      6  C   UNL     1       6.578  10.053  15.036  1.00  0.00     0.008 C 
ENDROOT
BRANCH   2   7
ATOM      7  C   UNL     1       7.246   5.763  12.448  1.00  0.00    -0.011 C 
ATOM      8  C   UNL     1       7.576   6.407  11.084  1.00  0.00     0.008 C 
BRANCH   7   9
ATOM      9  C   UNL     1       5.942   4.878  12.392  1.00  0.00     0.004 CG0
ATOM     10  G   UNL     1       4.569   5.467  12.839  1.00  0.00     0.000 G0
ENDBRANCH   7   9
ENDBRANCH   2   7
BRANCH   1  11
ATOM     11  C   UNL     1       5.028   7.616  13.954  1.00  0.00     0.006 C 
ATOM     12  C   UNL     1       4.492   6.963  12.650  1.00  0.00    -0.001 C 
ATOM     13  C   UNL     1       3.666   8.001  13.382  1.00  0.00    -0.029 C 
ATOM     14  C   UNL     1       3.571   9.389  12.740  1.00  0.00     0.012 C 
ATOM     15  C   UNL     1       2.429   7.485  14.124  1.00  0.00     0.012 C 
BRANCH  12  16
ATOM     16  C   UNL     1       4.565   5.449  12.832  1.00  0.00     0.005 CG0
ATOM     17  G   UNL     1       5.946   4.878  12.386  1.00  0.00     0.000 G0
ENDBRANCH  12  16
ENDBRANCH   1  11
TORSDOF 0
ENDMDL
