MODEL 1
REMARK VINA RESULT:    -7.666      0.000      0.000
REMARK INTER + INTRA:         -11.873
REMARK INTER:                 -11.251
REMARK INTRA:                  -0.622
REMARK UNBOUND:                -0.622
REMARK SMILES O=c1c(OC[C@@H]2O[C@H](O)[C@@H](O)[C@H](O)[C@H]2O)c(-c2ccc(O)c(O)c2)oc2cc(O)cc(O)c12
REMARK SMILES IDX 4 1 3 2 16 3 25 4 2 5 26 6 1 7 33 8 27 9 31 10 28 11 30 12
REMARK SMILES IDX 17 13 18 14 19 15 20 16 24 17 22 18 21 19 23 21 32 23 29 25
REMARK SMILES IDX 5 27 6 28 14 29 7 30 12 31 8 32 10 33 15 34 13 36 9 38 11 40
REMARK H PARENT 21 20 23 22 32 24 29 26 15 35 13 37 9 39 11 41
REMARK Flexibility Score: inf
ROOT
ATOM      1  O   UNL     1      -5.590   6.101  12.319  1.00  0.00    -0.483 OA
ENDROOT
BRANCH   1   2
ATOM      2  C   UNL     1      -4.495   6.904  12.650  1.00  0.00     0.211 A 
ATOM      3  C   UNL     1      -3.906   6.858  13.928  1.00  0.00     0.180 A 
ATOM      4  O   UNL     1      -2.900   7.675  14.216  1.00  0.00    -0.452 OA
ATOM      5  C   UNL     1      -3.971   7.777  11.690  1.00  0.00     0.239 A 
ATOM      6  C   UNL     1      -2.391   8.542  13.349  1.00  0.00     0.146 A 
ATOM      7  O   UNL     1      -4.450   7.741  10.526  1.00  0.00    -0.285 OA
ATOM      8  C   UNL     1      -2.918   8.657  12.036  1.00  0.00     0.111 A 
ATOM      9  C   UNL     1      -1.311   9.332  13.753  1.00  0.00     0.094 A 
ATOM     10  C   UNL     1      -2.347   9.626  11.155  1.00  0.00     0.134 A 
ATOM     11  C   UNL     1      -0.727  10.238  12.867  1.00  0.00     0.123 A 
ATOM     12  C   UNL     1      -1.242  10.376  11.579  1.00  0.00     0.093 A 
BRANCH   3  13
ATOM     13  C   UNL     1      -4.360   5.915  14.975  1.00  0.00     0.025 A 
ATOM     14  C   UNL     1      -4.227   4.534  14.766  1.00  0.00     0.016 A 
ATOM     15  C   UNL     1      -4.653   3.628  15.741  1.00  0.00     0.051 A 
ATOM     16  C   UNL     1      -5.230   4.088  16.932  1.00  0.00     0.157 A 
ATOM     17  C   UNL     1      -4.962   6.374  16.161  1.00  0.00     0.062 A 
ATOM     18  C   UNL     1      -5.387   5.470  17.140  1.00  0.00     0.158 A 
BRANCH  16  19
ATOM     19  O   UNL     1      -5.649   3.183  17.905  1.00  0.00    -0.504 OA
ATOM     20  H   UNL     1      -6.529   2.686  17.824  1.00  0.00     0.293 HD
ENDBRANCH  16  19
BRANCH  18  21
ATOM     21  O   UNL     1      -5.966   5.960  18.310  1.00  0.00    -0.504 OA
ATOM     22  H   UNL     1      -6.067   6.953  18.485  1.00  0.00     0.293 HD
ENDBRANCH  18  21
ENDBRANCH   3  13
BRANCH  10  23
ATOM     23  O   UNL     1      -2.837   9.908   9.877  1.00  0.00    -0.507 OA
ATOM     24  H   UNL     1      -2.442   9.562   9.016  1.00  0.00     0.293 HD
ENDBRANCH  10  23
BRANCH  11  25
ATOM     25  O   UNL     1       0.363  11.012  13.258  1.00  0.00    -0.508 OA
ATOM     26  H   UNL     1       1.132  10.617  13.787  1.00  0.00     0.293 HD
ENDBRANCH  11  25
ENDBRANCH   1   2
BRANCH   1  27
ATOM     27  C   UNL     1      -6.883   6.652  12.089  1.00  0.00     0.265 C 
BRANCH  27  28
ATOM     28  C   UNL     1      -7.421   7.276  13.390  1.00  0.00     0.190 C 
ATOM     29  C   UNL     1      -8.821   7.919  13.235  1.00  0.00     0.178 C 
ATOM     30  O   UNL     1      -7.316   6.411  14.516  1.00  0.00    -0.340 OA
ATOM     31  C   UNL     1      -9.952   6.882  13.307  1.00  0.00     0.179 C 
ATOM     32  C   UNL     1      -8.274   5.362  14.537  1.00  0.00     0.279 C 
ATOM     33  C   UNL     1      -9.734   5.875  14.466  1.00  0.00     0.201 C 
BRANCH  29  34
ATOM     34  O   UNL     1      -9.012   8.880  14.243  1.00  0.00    -0.387 OA
ATOM     35  H   UNL     1      -9.926   9.250  14.124  1.00  0.00     0.211 HD
ENDBRANCH  29  34
BRANCH  31  36
ATOM     36  O   UNL     1     -10.125   6.265  12.048  1.00  0.00    -0.387 OA
ATOM     37  H   UNL     1      -9.269   5.876  11.737  1.00  0.00     0.211 HD
ENDBRANCH  31  36
BRANCH  32  38
ATOM     38  O   UNL     1      -8.002   4.416  13.534  1.00  0.00    -0.366 OA
ATOM     39  H   UNL     1      -7.422   3.720  13.939  1.00  0.00     0.213 HD
ENDBRANCH  32  38
BRANCH  33  40
ATOM     40  O   UNL     1     -10.125   6.445  15.694  1.00  0.00    -0.385 OA
ATOM     41  H   UNL     1      -9.593   7.269  15.838  1.00  0.00     0.211 HD
ENDBRANCH  33  40
ENDBRANCH  27  28
ENDBRANCH   1  27
TORSDOF 12
ENDMDL
MODEL 2
REMARK VINA RESULT:    -7.456      1.903      5.806
REMARK INTER + INTRA:         -11.565
REMARK INTER:                 -10.121
REMARK INTRA:                  -1.444
REMARK UNBOUND:                -0.622
REMARK SMILES O=c1c(OC[C@@H]2O[C@H](O)[C@@H](O)[C@H](O)[C@H]2O)c(-c2ccc(O)c(O)c2)oc2cc(O)cc(O)c12
REMARK SMILES IDX 4 1 3 2 16 3 25 4 2 5 26 6 1 7 33 8 27 9 31 10 28 11 30 12
REMARK SMILES IDX 17 13 18 14 19 15 20 16 24 17 22 18 21 19 23 21 32 23 29 25
REMARK SMILES IDX 5 27 6 28 14 29 7 30 12 31 8 32 10 33 15 34 13 36 9 38 11 40
REMARK H PARENT 21 20 23 22 32 24 29 26 15 35 13 37 9 39 11 41
REMARK Flexibility Score: inf
ROOT
ATOM      1  O   UNL     1      -6.451   6.654  13.971  1.00  0.00    -0.483 OA
ENDROOT
BRANCH   1   2
ATOM      2  C   UNL     1      -5.332   6.005  14.501  1.00  0.00     0.211 A 
ATOM      3  C   UNL     1      -4.024   6.423  14.194  1.00  0.00     0.180 A 
ATOM      4  O   UNL     1      -2.989   5.748  14.679  1.00  0.00    -0.452 OA
ATOM      5  C   UNL     1      -5.516   4.913  15.356  1.00  0.00     0.239 A 
ATOM      6  C   UNL     1      -3.113   4.686  15.468  1.00  0.00     0.146 A 
ATOM      7  O   UNL     1      -6.690   4.608  15.692  1.00  0.00    -0.285 OA
ATOM      8  C   UNL     1      -4.393   4.194  15.833  1.00  0.00     0.111 A 
ATOM      9  C   UNL     1      -1.952   4.071  15.944  1.00  0.00     0.094 A 
ATOM     10  C   UNL     1      -4.465   3.033  16.662  1.00  0.00     0.134 A 
ATOM     11  C   UNL     1      -2.035   2.969  16.796  1.00  0.00     0.123 A 
ATOM     12  C   UNL     1      -3.284   2.462  17.152  1.00  0.00     0.093 A 
BRANCH   3  13
ATOM     13  C   UNL     1      -3.748   7.609  13.351  1.00  0.00     0.025 A 
ATOM     14  C   UNL     1      -3.882   7.513  11.958  1.00  0.00     0.016 A 
ATOM     15  C   UNL     1      -3.623   8.619  11.145  1.00  0.00     0.051 A 
ATOM     16  C   UNL     1      -3.215   9.834  11.712  1.00  0.00     0.157 A 
ATOM     17  C   UNL     1      -3.315   8.823  13.916  1.00  0.00     0.062 A 
ATOM     18  C   UNL     1      -3.057   9.934  13.105  1.00  0.00     0.158 A 
BRANCH  16  19
ATOM     19  O   UNL     1      -2.963  10.938  10.899  1.00  0.00    -0.504 OA
ATOM     20  H   UNL     1      -3.044  11.885  11.250  1.00  0.00     0.293 HD
ENDBRANCH  16  19
BRANCH  18  21
ATOM     21  O   UNL     1      -2.643  11.124  13.699  1.00  0.00    -0.504 OA
ATOM     22  H   UNL     1      -3.299  11.848  13.969  1.00  0.00     0.293 HD
ENDBRANCH  18  21
ENDBRANCH   3  13
BRANCH  10  23
ATOM     23  O   UNL     1      -5.657   2.391  17.010  1.00  0.00    -0.507 OA
ATOM     24  H   UNL     1      -6.582   2.735  16.803  1.00  0.00     0.293 HD
ENDBRANCH  10  23
BRANCH  11  25
ATOM     25  O   UNL     1      -0.881   2.365  17.290  1.00  0.00    -0.508 OA
ATOM     26  H   UNL     1      -0.555   2.537  18.234  1.00  0.00     0.293 HD
ENDBRANCH  11  25
ENDBRANCH   1   2
BRANCH   1  27
ATOM     27  C   UNL     1      -6.906   7.904  14.480  1.00  0.00     0.265 C 
BRANCH  27  28
ATOM     28  C   UNL     1      -7.212   8.860  13.312  1.00  0.00     0.190 C 
ATOM     29  C   UNL     1      -7.359   8.143  11.948  1.00  0.00     0.178 C 
ATOM     30  O   UNL     1      -8.272   9.770  13.591  1.00  0.00    -0.340 OA
ATOM     31  C   UNL     1      -8.753   7.524  11.760  1.00  0.00     0.179 C 
ATOM     32  C   UNL     1      -9.567   9.188  13.551  1.00  0.00     0.279 C 
ATOM     33  C   UNL     1      -9.877   8.497  12.199  1.00  0.00     0.201 C 
BRANCH  29  34
ATOM     34  O   UNL     1      -7.117   9.056  10.907  1.00  0.00    -0.387 OA
ATOM     35  H   UNL     1      -6.227   9.463  11.076  1.00  0.00     0.211 HD
ENDBRANCH  29  34
BRANCH  31  36
ATOM     36  O   UNL     1      -8.814   6.265  12.399  1.00  0.00    -0.387 OA
ATOM     37  H   UNL     1      -8.565   6.353  13.353  1.00  0.00     0.211 HD
ENDBRANCH  31  36
BRANCH  32  38
ATOM     38  O   UNL     1      -9.759   8.320  14.639  1.00  0.00    -0.366 OA
ATOM     39  H   UNL     1      -9.879   7.408  14.267  1.00  0.00     0.213 HD
ENDBRANCH  32  38
BRANCH  33  40
ATOM     40  O   UNL     1     -10.123   9.452  11.194  1.00  0.00    -0.385 OA
ATOM     41  H   UNL     1     -10.418  10.293  11.628  1.00  0.00     0.211 HD
ENDBRANCH  33  40
ENDBRANCH  27  28
ENDBRANCH   1  27
TORSDOF 12
ENDMDL
MODEL 3
REMARK VINA RESULT:    -7.238      1.931      5.874
REMARK INTER + INTRA:         -11.244
REMARK INTER:                  -9.836
REMARK INTRA:                  -1.408
REMARK UNBOUND:                -0.622
REMARK SMILES O=c1c(OC[C@@H]2O[C@H](O)[C@@H](O)[C@H](O)[C@H]2O)c(-c2ccc(O)c(O)c2)oc2cc(O)cc(O)c12
REMARK SMILES IDX 4 1 3 2 16 3 25 4 2 5 26 6 1 7 33 8 27 9 31 10 28 11 30 12
REMARK SMILES IDX 17 13 18 14 19 15 20 16 24 17 22 18 21 19 23 21 32 23 29 25
REMARK SMILES IDX 5 27 6 28 14 29 7 30 12 31 8 32 10 33 15 34 13 36 9 38 11 40
REMARK H PARENT 21 20 23 22 32 24 29 26 15 35 13 37 9 39 11 41
REMARK Flexibility Score: inf
ROOT
ATOM      1  O   UNL     1      -6.251   6.924  14.104  1.00  0.00    -0.483 OA
ENDROOT
BRANCH   1   2
ATOM      2  C   UNL     1      -5.160   6.190  14.577  1.00  0.00     0.211 A 
ATOM      3  C   UNL     1      -3.837   6.540  14.246  1.00  0.00     0.180 A 
ATOM      4  O   UNL     1      -2.832   5.786  14.676  1.00  0.00    -0.452 OA
ATOM      5  C   UNL     1      -5.386   5.080  15.399  1.00  0.00     0.239 A 
ATOM      6  C   UNL     1      -2.999   4.706  15.430  1.00  0.00     0.146 A 
ATOM      7  O   UNL     1      -6.566   4.835  15.759  1.00  0.00    -0.285 OA
ATOM      8  C   UNL     1      -4.296   4.278  15.817  1.00  0.00     0.111 A 
ATOM      9  C   UNL     1      -1.865   4.004  15.850  1.00  0.00     0.094 A 
ATOM     10  C   UNL     1      -4.416   3.094  16.606  1.00  0.00     0.134 A 
ATOM     11  C   UNL     1      -1.992   2.879  16.665  1.00  0.00     0.123 A 
ATOM     12  C   UNL     1      -3.259   2.435  17.041  1.00  0.00     0.093 A 
BRANCH   3  13
ATOM     13  C   UNL     1      -3.513   7.737  13.437  1.00  0.00     0.025 A 
ATOM     14  C   UNL     1      -3.744   7.719  12.054  1.00  0.00     0.016 A 
ATOM     15  C   UNL     1      -3.442   8.837  11.272  1.00  0.00     0.051 A 
ATOM     16  C   UNL     1      -2.892   9.984  11.860  1.00  0.00     0.157 A 
ATOM     17  C   UNL     1      -2.939   8.881  14.021  1.00  0.00     0.062 A 
ATOM     18  C   UNL     1      -2.637  10.003  13.242  1.00  0.00     0.158 A 
BRANCH  16  19
ATOM     19  O   UNL     1      -2.597  11.100  11.080  1.00  0.00    -0.504 OA
ATOM     20  H   UNL     1      -3.280  11.502  10.448  1.00  0.00     0.293 HD
ENDBRANCH  16  19
BRANCH  18  21
ATOM     21  O   UNL     1      -2.083  11.125  13.857  1.00  0.00    -0.504 OA
ATOM     22  H   UNL     1      -1.770  11.930  13.327  1.00  0.00     0.293 HD
ENDBRANCH  18  21
ENDBRANCH   3  13
BRANCH  10  23
ATOM     23  O   UNL     1      -5.635   2.512  16.967  1.00  0.00    -0.507 OA
ATOM     24  H   UNL     1      -5.742   1.741  17.607  1.00  0.00     0.293 HD
ENDBRANCH  10  23
BRANCH  11  25
ATOM     25  O   UNL     1      -0.864   2.189  17.103  1.00  0.00    -0.508 OA
ATOM     26  H   UNL     1      -0.921   1.488  17.833  1.00  0.00     0.293 HD
ENDBRANCH  11  25
ENDBRANCH   1   2
BRANCH   1  27
ATOM     27  C   UNL     1      -7.060   6.457  13.028  1.00  0.00     0.265 C 
BRANCH  27  28
ATOM     28  C   UNL     1      -8.453   7.109  13.104  1.00  0.00     0.190 C 
ATOM     29  C   UNL     1      -8.471   8.435  13.904  1.00  0.00     0.178 C 
ATOM     30  O   UNL     1      -9.103   7.200  11.841  1.00  0.00    -0.340 OA
ATOM     31  C   UNL     1      -7.997   9.632  13.063  1.00  0.00     0.179 C 
ATOM     32  C   UNL     1      -8.592   8.218  10.992  1.00  0.00     0.279 C 
ATOM     33  C   UNL     1      -8.626   9.622  11.646  1.00  0.00     0.201 C 
BRANCH  29  34
ATOM     34  O   UNL     1      -9.774   8.688  14.367  1.00  0.00    -0.387 OA
ATOM     35  H   UNL     1     -10.355   8.782  13.568  1.00  0.00     0.211 HD
ENDBRANCH  29  34
BRANCH  31  36
ATOM     36  O   UNL     1      -6.586   9.687  13.054  1.00  0.00    -0.387 OA
ATOM     37  H   UNL     1      -6.208   8.793  12.856  1.00  0.00     0.211 HD
ENDBRANCH  31  36
BRANCH  32  38
ATOM     38  O   UNL     1      -7.308   7.886  10.531  1.00  0.00    -0.366 OA
ATOM     39  H   UNL     1      -6.666   8.478  11.003  1.00  0.00     0.213 HD
ENDBRANCH  32  38
BRANCH  33  40
ATOM     40  O   UNL     1      -9.942  10.124  11.688  1.00  0.00    -0.385 OA
ATOM     41  H   UNL     1      -9.982  10.941  11.129  1.00  0.00     0.211 HD
ENDBRANCH  33  40
ENDBRANCH  27  28
ENDBRANCH   1  27
TORSDOF 12
ENDMDL
MODEL 4
REMARK VINA RESULT:    -7.132      1.769      5.964
REMARK INTER + INTRA:         -11.090
REMARK INTER:                 -10.317
REMARK INTRA:                  -0.773
REMARK UNBOUND:                -0.622
REMARK SMILES O=c1c(OC[C@@H]2O[C@H](O)[C@@H](O)[C@H](O)[C@H]2O)c(-c2ccc(O)c(O)c2)oc2cc(O)cc(O)c12
REMARK SMILES IDX 4 1 3 2 16 3 25 4 2 5 26 6 1 7 33 8 27 9 31 10 28 11 30 12
REMARK SMILES IDX 17 13 18 14 19 15 20 16 24 17 22 18 21 19 23 21 32 23 29 25
REMARK SMILES IDX 5 27 6 28 14 29 7 30 12 31 8 32 10 33 15 34 13 36 9 38 11 40
REMARK H PARENT 21 20 23 22 32 24 29 26 15 35 13 37 9 39 11 41
REMARK Flexibility Score: inf
ROOT
ATOM      1  O   UNL     1      -5.573   7.965  14.565  1.00  0.00    -0.483 OA
ENDROOT
BRANCH   1   2
ATOM      2  C   UNL     1      -4.636   6.977  14.879  1.00  0.00     0.211 A 
ATOM      3  C   UNL     1      -3.340   6.988  14.328  1.00  0.00     0.180 A 
ATOM      4  O   UNL     1      -2.498   6.002  14.613  1.00  0.00    -0.452 OA
ATOM      5  C   UNL     1      -4.992   5.950  15.760  1.00  0.00     0.239 A 
ATOM      6  C   UNL     1      -2.802   4.991  15.418  1.00  0.00     0.146 A 
ATOM      7  O   UNL     1      -6.121   6.004  16.314  1.00  0.00    -0.285 OA
ATOM      8  C   UNL     1      -4.083   4.897  16.022  1.00  0.00     0.111 A 
ATOM      9  C   UNL     1      -1.825   4.024  15.671  1.00  0.00     0.094 A 
ATOM     10  C   UNL     1      -4.362   3.772  16.857  1.00  0.00     0.134 A 
ATOM     11  C   UNL     1      -2.091   2.958  16.530  1.00  0.00     0.123 A 
ATOM     12  C   UNL     1      -3.349   2.841  17.119  1.00  0.00     0.093 A 
BRANCH   3  13
ATOM     13  C   UNL     1      -2.867   8.074  13.440  1.00  0.00     0.025 A 
ATOM     14  C   UNL     1      -3.265   8.091  12.095  1.00  0.00     0.016 A 
ATOM     15  C   UNL     1      -2.826   9.105  11.241  1.00  0.00     0.051 A 
ATOM     16  C   UNL     1      -1.973  10.110  11.715  1.00  0.00     0.157 A 
ATOM     17  C   UNL     1      -1.991   9.070  13.908  1.00  0.00     0.062 A 
ATOM     18  C   UNL     1      -1.550  10.090  13.055  1.00  0.00     0.158 A 
BRANCH  16  19
ATOM     19  O   UNL     1      -1.540  11.124  10.862  1.00  0.00    -0.504 OA
ATOM     20  H   UNL     1      -1.110  11.970  11.218  1.00  0.00     0.293 HD
ENDBRANCH  16  19
BRANCH  18  21
ATOM     21  O   UNL     1      -0.694  11.068  13.556  1.00  0.00    -0.504 OA
ATOM     22  H   UNL     1       0.309  11.026  13.423  1.00  0.00     0.293 HD
ENDBRANCH  18  21
ENDBRANCH   3  13
BRANCH  10  23
ATOM     23  O   UNL     1      -5.611   3.510  17.428  1.00  0.00    -0.507 OA
ATOM     24  H   UNL     1      -6.363   3.016  16.973  1.00  0.00     0.293 HD
ENDBRANCH  10  23
BRANCH  11  25
ATOM     25  O   UNL     1      -1.114   2.003  16.802  1.00  0.00    -0.508 OA
ATOM     26  H   UNL     1      -0.793   1.826  17.747  1.00  0.00     0.293 HD
ENDBRANCH  11  25
ENDBRANCH   1   2
BRANCH   1  27
ATOM     27  C   UNL     1      -6.454   7.838  13.452  1.00  0.00     0.265 C 
BRANCH  27  28
ATOM     28  C   UNL     1      -6.638   6.350  13.102  1.00  0.00     0.190 C 
ATOM     29  C   UNL     1      -8.121   5.908  13.043  1.00  0.00     0.178 C 
ATOM     30  O   UNL     1      -5.878   5.938  11.971  1.00  0.00    -0.340 OA
ATOM     31  C   UNL     1      -8.785   6.268  11.704  1.00  0.00     0.179 C 
ATOM     32  C   UNL     1      -6.404   6.371  10.725  1.00  0.00     0.279 C 
ATOM     33  C   UNL     1      -7.871   5.925  10.501  1.00  0.00     0.201 C 
BRANCH  29  34
ATOM     34  O   UNL     1      -8.207   4.519  13.240  1.00  0.00    -0.387 OA
ATOM     35  H   UNL     1      -8.195   4.095  12.342  1.00  0.00     0.211 HD
ENDBRANCH  29  34
BRANCH  31  36
ATOM     36  O   UNL     1      -9.214   7.613  11.723  1.00  0.00    -0.387 OA
ATOM     37  H   UNL     1      -9.152   7.980  12.641  1.00  0.00     0.211 HD
ENDBRANCH  31  36
BRANCH  32  38
ATOM     38  O   UNL     1      -6.250   7.759  10.573  1.00  0.00    -0.366 OA
ATOM     39  H   UNL     1      -5.636   8.064  11.291  1.00  0.00     0.213 HD
ENDBRANCH  32  38
BRANCH  33  40
ATOM     40  O   UNL     1      -7.936   4.549  10.208  1.00  0.00    -0.385 OA
ATOM     41  H   UNL     1      -8.884   4.310  10.045  1.00  0.00     0.211 HD
ENDBRANCH  33  40
ENDBRANCH  27  28
ENDBRANCH   1  27
TORSDOF 12
ENDMDL
MODEL 5
REMARK VINA RESULT:    -6.889      2.305      6.629
REMARK INTER + INTRA:         -10.733
REMARK INTER:                  -9.311
REMARK INTRA:                  -1.422
REMARK UNBOUND:                -0.622
REMARK SMILES O=c1c(OC[C@@H]2O[C@H](O)[C@@H](O)[C@H](O)[C@H]2O)c(-c2ccc(O)c(O)c2)oc2cc(O)cc(O)c12
REMARK SMILES IDX 4 1 3 2 16 3 25 4 2 5 26 6 1 7 33 8 27 9 31 10 28 11 30 12
REMARK SMILES IDX 17 13 18 14 19 15 20 16 24 17 22 18 21 19 23 21 32 23 29 25
REMARK SMILES IDX 5 27 6 28 14 29 7 30 12 31 8 32 10 33 15 34 13 36 9 38 11 40
REMARK H PARENT 21 20 23 22 32 24 29 26 15 35 13 37 9 39 11 41
REMARK Flexibility Score: inf
ROOT
ATOM      1  O   UNL     1      -3.966   5.858  14.062  1.00  0.00    -0.483 OA
ENDROOT
BRANCH   1   2
ATOM      2  C   UNL     1      -4.179   4.870  15.027  1.00  0.00     0.211 A 
ATOM      3  C   UNL     1      -5.475   4.523  15.454  1.00  0.00     0.180 A 
ATOM      4  O   UNL     1      -5.629   3.615  16.410  1.00  0.00    -0.452 OA
ATOM      5  C   UNL     1      -3.078   4.210  15.585  1.00  0.00     0.239 A 
ATOM      6  C   UNL     1      -4.614   2.986  16.992  1.00  0.00     0.146 A 
ATOM      7  O   UNL     1      -1.934   4.467  15.129  1.00  0.00    -0.285 OA
ATOM      8  C   UNL     1      -3.272   3.268  16.624  1.00  0.00     0.111 A 
ATOM      9  C   UNL     1      -4.897   2.026  17.967  1.00  0.00     0.094 A 
ATOM     10  C   UNL     1      -2.221   2.580  17.303  1.00  0.00     0.134 A 
ATOM     11  C   UNL     1      -3.864   1.322  18.586  1.00  0.00     0.123 A 
ATOM     12  C   UNL     1      -2.539   1.597  18.249  1.00  0.00     0.093 A 
BRANCH   3  13
ATOM     13  C   UNL     1      -6.691   5.128  14.865  1.00  0.00     0.025 A 
ATOM     14  C   UNL     1      -7.037   4.832  13.539  1.00  0.00     0.016 A 
ATOM     15  C   UNL     1      -8.179   5.395  12.963  1.00  0.00     0.051 A 
ATOM     16  C   UNL     1      -8.983   6.274  13.701  1.00  0.00     0.157 A 
ATOM     17  C   UNL     1      -7.487   6.029  15.596  1.00  0.00     0.062 A 
ATOM     18  C   UNL     1      -8.632   6.594  15.024  1.00  0.00     0.158 A 
BRANCH  16  19
ATOM     19  O   UNL     1     -10.125   6.831  13.127  1.00  0.00    -0.504 OA
ATOM     20  H   UNL     1     -10.204   6.965  12.126  1.00  0.00     0.293 HD
ENDBRANCH  16  19
BRANCH  18  21
ATOM     21  O   UNL     1      -9.405   7.471  15.782  1.00  0.00    -0.504 OA
ATOM     22  H   UNL     1      -9.236   8.470  15.789  1.00  0.00     0.293 HD
ENDBRANCH  18  21
ENDBRANCH   3  13
BRANCH  10  23
ATOM     23  O   UNL     1      -0.861   2.837  17.107  1.00  0.00    -0.507 OA
ATOM     24  H   UNL     1      -0.421   3.737  17.218  1.00  0.00     0.293 HD
ENDBRANCH  10  23
BRANCH  11  25
ATOM     25  O   UNL     1      -4.141   0.349  19.544  1.00  0.00    -0.508 OA
ATOM     26  H   UNL     1      -3.493   0.144  20.296  1.00  0.00     0.293 HD
ENDBRANCH  11  25
ENDBRANCH   1   2
BRANCH   1  27
ATOM     27  C   UNL     1      -3.592   7.186  14.416  1.00  0.00     0.265 C 
BRANCH  27  28
ATOM     28  C   UNL     1      -4.760   8.149  14.129  1.00  0.00     0.190 C 
ATOM     29  C   UNL     1      -4.381   9.642  14.281  1.00  0.00     0.178 C 
ATOM     30  O   UNL     1      -5.446   7.858  12.916  1.00  0.00    -0.340 OA
ATOM     31  C   UNL     1      -3.669  10.194  13.035  1.00  0.00     0.179 C 
ATOM     32  C   UNL     1      -4.745   8.242  11.742  1.00  0.00     0.279 C 
ATOM     33  C   UNL     1      -4.370   9.746  11.728  1.00  0.00     0.201 C 
BRANCH  29  34
ATOM     34  O   UNL     1      -5.541  10.400  14.520  1.00  0.00    -0.387 OA
ATOM     35  H   UNL     1      -6.215  10.122  13.846  1.00  0.00     0.211 HD
ENDBRANCH  29  34
BRANCH  31  36
ATOM     36  O   UNL     1      -2.295   9.868  13.080  1.00  0.00    -0.387 OA
ATOM     37  H   UNL     1      -1.974   9.612  12.180  1.00  0.00     0.211 HD
ENDBRANCH  31  36
BRANCH  32  38
ATOM     38  O   UNL     1      -3.623   7.421  11.538  1.00  0.00    -0.366 OA
ATOM     39  H   UNL     1      -3.377   7.497  10.580  1.00  0.00     0.213 HD
ENDBRANCH  32  38
BRANCH  33  40
ATOM     40  O   UNL     1      -5.505  10.542  11.479  1.00  0.00    -0.385 OA
ATOM     41  H   UNL     1      -6.281   9.943  11.336  1.00  0.00     0.211 HD
ENDBRANCH  33  40
ENDBRANCH  27  28
ENDBRANCH   1  27
TORSDOF 12
ENDMDL
MODEL 6
REMARK VINA RESULT:    -6.710      2.217      6.696
REMARK INTER + INTRA:         -10.469
REMARK INTER:                  -9.264
REMARK INTRA:                  -1.206
REMARK UNBOUND:                -0.622
REMARK SMILES O=c1c(OC[C@@H]2O[C@H](O)[C@@H](O)[C@H](O)[C@H]2O)c(-c2ccc(O)c(O)c2)oc2cc(O)cc(O)c12
REMARK SMILES IDX 4 1 3 2 16 3 25 4 2 5 26 6 1 7 33 8 27 9 31 10 28 11 30 12
REMARK SMILES IDX 17 13 18 14 19 15 20 16 24 17 22 18 21 19 23 21 32 23 29 25
REMARK SMILES IDX 5 27 6 28 14 29 7 30 12 31 8 32 10 33 15 34 13 36 9 38 11 40
REMARK H PARENT 21 20 23 22 32 24 29 26 15 35 13 37 9 39 11 41
REMARK Flexibility Score: inf
ROOT
ATOM      1  O   UNL     1      -3.966   5.864  14.069  1.00  0.00    -0.483 OA
ENDROOT
BRANCH   1   2
ATOM      2  C   UNL     1      -4.180   4.874  15.032  1.00  0.00     0.211 A 
ATOM      3  C   UNL     1      -5.477   4.524  15.455  1.00  0.00     0.180 A 
ATOM      4  O   UNL     1      -5.632   3.613  16.408  1.00  0.00    -0.452 OA
ATOM      5  C   UNL     1      -3.081   4.214  15.591  1.00  0.00     0.239 A 
ATOM      6  C   UNL     1      -4.618   2.984  16.991  1.00  0.00     0.146 A 
ATOM      7  O   UNL     1      -1.935   4.473  15.138  1.00  0.00    -0.285 OA
ATOM      8  C   UNL     1      -3.276   3.269  16.627  1.00  0.00     0.111 A 
ATOM      9  C   UNL     1      -4.903   2.021  17.963  1.00  0.00     0.094 A 
ATOM     10  C   UNL     1      -2.226   2.580  17.307  1.00  0.00     0.134 A 
ATOM     11  C   UNL     1      -3.870   1.317  18.582  1.00  0.00     0.123 A 
ATOM     12  C   UNL     1      -2.545   1.594  18.250  1.00  0.00     0.093 A 
BRANCH   3  13
ATOM     13  C   UNL     1      -6.693   5.130  14.864  1.00  0.00     0.025 A 
ATOM     14  C   UNL     1      -7.037   4.833  13.537  1.00  0.00     0.016 A 
ATOM     15  C   UNL     1      -8.178   5.397  12.960  1.00  0.00     0.051 A 
ATOM     16  C   UNL     1      -8.983   6.275  13.697  1.00  0.00     0.157 A 
ATOM     17  C   UNL     1      -7.489   6.029  15.594  1.00  0.00     0.062 A 
ATOM     18  C   UNL     1      -8.634   6.595  15.021  1.00  0.00     0.158 A 
BRANCH  16  19
ATOM     19  O   UNL     1     -10.124   6.832  13.122  1.00  0.00    -0.504 OA
ATOM     20  H   UNL     1     -10.750   7.427  13.652  1.00  0.00     0.293 HD
ENDBRANCH  16  19
BRANCH  18  21
ATOM     21  O   UNL     1      -9.409   7.471  15.778  1.00  0.00    -0.504 OA
ATOM     22  H   UNL     1      -9.351   8.476  15.665  1.00  0.00     0.293 HD
ENDBRANCH  18  21
ENDBRANCH   3  13
BRANCH  10  23
ATOM     23  O   UNL     1      -0.865   2.839  17.115  1.00  0.00    -0.507 OA
ATOM     24  H   UNL     1      -0.257   2.317  16.503  1.00  0.00     0.293 HD
ENDBRANCH  10  23
BRANCH  11  25
ATOM     25  O   UNL     1      -4.149   0.341  19.537  1.00  0.00    -0.508 OA
ATOM     26  H   UNL     1      -3.826  -0.614  19.430  1.00  0.00     0.293 HD
ENDBRANCH  11  25
ENDBRANCH   1   2
BRANCH   1  27
ATOM     27  C   UNL     1      -3.743   7.224  14.428  1.00  0.00     0.265 C 
BRANCH  27  28
ATOM     28  C   UNL     1      -3.168   7.992  13.223  1.00  0.00     0.190 C 
ATOM     29  C   UNL     1      -4.052   7.903  11.955  1.00  0.00     0.178 C 
ATOM     30  O   UNL     1      -2.764   9.320  13.541  1.00  0.00    -0.340 OA
ATOM     31  C   UNL     1      -5.221   8.901  11.986  1.00  0.00     0.179 C 
ATOM     32  C   UNL     1      -3.839  10.234  13.704  1.00  0.00     0.279 C 
ATOM     33  C   UNL     1      -4.766  10.303  12.464  1.00  0.00     0.201 C 
BRANCH  29  34
ATOM     34  O   UNL     1      -3.266   8.151  10.816  1.00  0.00    -0.387 OA
ATOM     35  H   UNL     1      -3.691   8.904  10.327  1.00  0.00     0.211 HD
ENDBRANCH  29  34
BRANCH  31  36
ATOM     36  O   UNL     1      -6.292   8.367  12.737  1.00  0.00    -0.387 OA
ATOM     37  H   UNL     1      -6.080   7.444  13.028  1.00  0.00     0.211 HD
ENDBRANCH  31  36
BRANCH  32  38
ATOM     38  O   UNL     1      -4.556   9.958  14.880  1.00  0.00    -0.366 OA
ATOM     39  H   UNL     1      -3.925   9.524  15.511  1.00  0.00     0.213 HD
ENDBRANCH  32  38
BRANCH  33  40
ATOM     40  O   UNL     1      -4.144  11.005  11.413  1.00  0.00    -0.385 OA
ATOM     41  H   UNL     1      -3.163  10.902  11.507  1.00  0.00     0.211 HD
ENDBRANCH  33  40
ENDBRANCH  27  28
ENDBRANCH   1  27
TORSDOF 12
ENDMDL
MODEL 7
REMARK VINA RESULT:    -6.288     11.084     15.515
REMARK INTER + INTRA:          -9.850
REMARK INTER:                  -8.495
REMARK INTRA:                  -1.355
REMARK UNBOUND:                -0.622
REMARK SMILES O=c1c(OC[C@@H]2O[C@H](O)[C@@H](O)[C@H](O)[C@H]2O)c(-c2ccc(O)c(O)c2)oc2cc(O)cc(O)c12
REMARK SMILES IDX 4 1 3 2 16 3 25 4 2 5 26 6 1 7 33 8 27 9 31 10 28 11 30 12
REMARK SMILES IDX 17 13 18 14 19 15 20 16 24 17 22 18 21 19 23 21 32 23 29 25
REMARK SMILES IDX 5 27 6 28 14 29 7 30 12 31 8 32 10 33 15 34 13 36 9 38 11 40
REMARK H PARENT 21 20 23 22 32 24 29 26 15 35 13 37 9 39 11 41
REMARK Flexibility Score: inf
ROOT
ATOM      1  O   UNL     1      -8.288  -5.670  22.029  1.00  0.00    -0.483 OA
ENDROOT
BRANCH   1   2
ATOM      2  C   UNL     1      -7.723  -4.698  21.200  1.00  0.00     0.211 A 
ATOM      3  C   UNL     1      -6.332  -4.623  20.993  1.00  0.00     0.180 A 
ATOM      4  O   UNL     1      -5.833  -3.652  20.237  1.00  0.00    -0.452 OA
ATOM      5  C   UNL     1      -8.557  -3.775  20.560  1.00  0.00     0.239 A 
ATOM      6  C   UNL     1      -6.582  -2.735  19.636  1.00  0.00     0.146 A 
ATOM      7  O   UNL     1      -9.803  -3.911  20.682  1.00  0.00    -0.285 OA
ATOM      8  C   UNL     1      -7.994  -2.733  19.784  1.00  0.00     0.111 A 
ATOM      9  C   UNL     1      -5.950  -1.777  18.839  1.00  0.00     0.094 A 
ATOM     10  C   UNL     1      -8.745  -1.706  19.136  1.00  0.00     0.134 A 
ATOM     11  C   UNL     1      -6.699  -0.811  18.168  1.00  0.00     0.123 A 
ATOM     12  C   UNL     1      -8.085  -0.783  18.315  1.00  0.00     0.093 A 
BRANCH   3  13
ATOM     13  C   UNL     1      -5.391  -5.602  21.581  1.00  0.00     0.025 A 
ATOM     14  C   UNL     1      -4.971  -6.702  20.818  1.00  0.00     0.016 A 
ATOM     15  C   UNL     1      -4.085  -7.639  21.356  1.00  0.00     0.051 A 
ATOM     16  C   UNL     1      -3.617  -7.498  22.669  1.00  0.00     0.157 A 
ATOM     17  C   UNL     1      -4.938  -5.476  22.907  1.00  0.00     0.062 A 
ATOM     18  C   UNL     1      -4.049  -6.411  23.449  1.00  0.00     0.158 A 
BRANCH  16  19
ATOM     19  O   UNL     1      -2.729  -8.431  23.202  1.00  0.00    -0.504 OA
ATOM     20  H   UNL     1      -3.049  -9.325  23.558  1.00  0.00     0.293 HD
ENDBRANCH  16  19
BRANCH  18  21
ATOM     21  O   UNL     1      -3.610  -6.247  24.761  1.00  0.00    -0.504 OA
ATOM     22  H   UNL     1      -2.939  -6.875  25.187  1.00  0.00     0.293 HD
ENDBRANCH  18  21
ENDBRANCH   3  13
BRANCH  10  23
ATOM     23  O   UNL     1     -10.125  -1.532  19.283  1.00  0.00    -0.507 OA
ATOM     24  H   UNL     1     -10.730  -2.134  19.818  1.00  0.00     0.293 HD
ENDBRANCH  10  23
BRANCH  11  25
ATOM     25  O   UNL     1      -6.075   0.134  17.355  1.00  0.00    -0.508 OA
ATOM     26  H   UNL     1      -6.608   0.743  16.745  1.00  0.00     0.293 HD
ENDBRANCH  11  25
ENDBRANCH   1   2
BRANCH   1  27
ATOM     27  C   UNL     1      -8.505  -5.438  23.418  1.00  0.00     0.265 C 
BRANCH  27  28
ATOM     28  C   UNL     1      -8.875  -6.762  24.114  1.00  0.00     0.190 C 
ATOM     29  C   UNL     1      -7.664  -7.483  24.755  1.00  0.00     0.178 C 
ATOM     30  O   UNL     1      -9.993  -6.646  24.987  1.00  0.00    -0.340 OA
ATOM     31  C   UNL     1      -7.300  -6.903  26.132  1.00  0.00     0.179 C 
ATOM     32  C   UNL     1      -9.709  -5.994  26.217  1.00  0.00     0.279 C 
ATOM     33  C   UNL     1      -8.558  -6.667  27.006  1.00  0.00     0.201 C 
BRANCH  29  34
ATOM     34  O   UNL     1      -7.951  -8.852  24.895  1.00  0.00    -0.387 OA
ATOM     35  H   UNL     1      -8.863  -8.998  24.530  1.00  0.00     0.211 HD
ENDBRANCH  29  34
BRANCH  31  36
ATOM     36  O   UNL     1      -6.497  -5.751  25.974  1.00  0.00    -0.387 OA
ATOM     37  H   UNL     1      -6.942  -5.103  25.372  1.00  0.00     0.211 HD
ENDBRANCH  31  36
BRANCH  32  38
ATOM     38  O   UNL     1      -9.474  -4.624  26.013  1.00  0.00    -0.366 OA
ATOM     39  H   UNL     1      -9.853  -4.392  25.126  1.00  0.00     0.213 HD
ENDBRANCH  32  38
BRANCH  33  40
ATOM     40  O   UNL     1      -8.989  -7.876  27.586  1.00  0.00    -0.385 OA
ATOM     41  H   UNL     1      -8.516  -7.993  28.449  1.00  0.00     0.211 HD
ENDBRANCH  33  40
ENDBRANCH  27  28
ENDBRANCH   1  27
TORSDOF 12
ENDMDL
MODEL 8
REMARK VINA RESULT:    -6.233      1.258      2.386
REMARK INTER + INTRA:          -9.769
REMARK INTER:                  -9.163
REMARK INTRA:                  -0.607
REMARK UNBOUND:                -0.622
REMARK SMILES O=c1c(OC[C@@H]2O[C@H](O)[C@@H](O)[C@H](O)[C@H]2O)c(-c2ccc(O)c(O)c2)oc2cc(O)cc(O)c12
REMARK SMILES IDX 4 1 3 2 16 3 25 4 2 5 26 6 1 7 33 8 27 9 31 10 28 11 30 12
REMARK SMILES IDX 17 13 18 14 19 15 20 16 24 17 22 18 21 19 23 21 32 23 29 25
REMARK SMILES IDX 5 27 6 28 14 29 7 30 12 31 8 32 10 33 15 34 13 36 9 38 11 40
REMARK H PARENT 21 20 23 22 32 24 29 26 15 35 13 37 9 39 11 41
REMARK Flexibility Score: inf
ROOT
ATOM      1  O   UNL     1      -5.394   6.835  12.446  1.00  0.00    -0.483 OA
ENDROOT
BRANCH   1   2
ATOM      2  C   UNL     1      -4.243   7.515  12.854  1.00  0.00     0.211 A 
ATOM      3  C   UNL     1      -3.697   7.335  14.139  1.00  0.00     0.180 A 
ATOM      4  O   UNL     1      -2.631   8.038  14.503  1.00  0.00    -0.452 OA
ATOM      5  C   UNL     1      -3.618   8.397  11.966  1.00  0.00     0.239 A 
ATOM      6  C   UNL     1      -2.024   8.910  13.707  1.00  0.00     0.146 A 
ATOM      7  O   UNL     1      -4.065   8.478  10.792  1.00  0.00    -0.285 OA
ATOM      8  C   UNL     1      -2.501   9.155  12.393  1.00  0.00     0.111 A 
ATOM      9  C   UNL     1      -0.891   9.573  14.187  1.00  0.00     0.094 A 
ATOM     10  C   UNL     1      -1.823  10.123  11.592  1.00  0.00     0.134 A 
ATOM     11  C   UNL     1      -0.205  10.477  13.376  1.00  0.00     0.123 A 
ATOM     12  C   UNL     1      -0.669  10.743  12.088  1.00  0.00     0.093 A 
BRANCH   3  13
ATOM     13  C   UNL     1      -4.262   6.371  15.112  1.00  0.00     0.025 A 
ATOM     14  C   UNL     1      -5.285   6.784  15.978  1.00  0.00     0.016 A 
ATOM     15  C   UNL     1      -5.829   5.891  16.905  1.00  0.00     0.051 A 
ATOM     16  C   UNL     1      -5.349   4.578  16.989  1.00  0.00     0.157 A 
ATOM     17  C   UNL     1      -3.765   5.060  15.214  1.00  0.00     0.062 A 
ATOM     18  C   UNL     1      -4.308   4.162  16.140  1.00  0.00     0.158 A 
BRANCH  16  19
ATOM     19  O   UNL     1      -5.896   3.687  17.911  1.00  0.00    -0.504 OA
ATOM     20  H   UNL     1      -6.805   3.849  18.329  1.00  0.00     0.293 HD
ENDBRANCH  16  19
BRANCH  18  21
ATOM     21  O   UNL     1      -3.801   2.866  16.204  1.00  0.00    -0.504 OA
ATOM     22  H   UNL     1      -4.243   2.090  15.725  1.00  0.00     0.293 HD
ENDBRANCH  18  21
ENDBRANCH   3  13
BRANCH  10  23
ATOM     23  O   UNL     1      -2.250  10.529  10.323  1.00  0.00    -0.507 OA
ATOM     24  H   UNL     1      -1.787  10.302   9.457  1.00  0.00     0.293 HD
ENDBRANCH  10  23
BRANCH  11  25
ATOM     25  O   UNL     1       0.937  11.125  13.842  1.00  0.00    -0.508 OA
ATOM     26  H   UNL     1       1.500  11.710  13.235  1.00  0.00     0.293 HD
ENDBRANCH  11  25
ENDBRANCH   1   2
BRANCH   1  27
ATOM     27  C   UNL     1      -5.350   5.482  12.004  1.00  0.00     0.265 C 
BRANCH  27  28
ATOM     28  C   UNL     1      -6.770   4.885  12.016  1.00  0.00     0.190 C 
ATOM     29  C   UNL     1      -7.632   5.363  13.210  1.00  0.00     0.178 C 
ATOM     30  O   UNL     1      -7.434   4.986  10.761  1.00  0.00    -0.340 OA
ATOM     31  C   UNL     1      -8.254   6.747  12.964  1.00  0.00     0.179 C 
ATOM     32  C   UNL     1      -7.906   6.290  10.453  1.00  0.00     0.279 C 
ATOM     33  C   UNL     1      -8.851   6.862  11.538  1.00  0.00     0.201 C 
BRANCH  29  34
ATOM     34  O   UNL     1      -8.659   4.434  13.452  1.00  0.00    -0.387 OA
ATOM     35  H   UNL     1      -9.370   4.604  12.780  1.00  0.00     0.211 HD
ENDBRANCH  29  34
BRANCH  31  36
ATOM     36  O   UNL     1      -7.318   7.760  13.268  1.00  0.00    -0.387 OA
ATOM     37  H   UNL     1      -7.565   8.213  14.113  1.00  0.00     0.211 HD
ENDBRANCH  31  36
BRANCH  32  38
ATOM     38  O   UNL     1      -6.835   7.157  10.180  1.00  0.00    -0.366 OA
ATOM     39  H   UNL     1      -6.910   7.920  10.811  1.00  0.00     0.213 HD
ENDBRANCH  32  38
BRANCH  33  40
ATOM     40  O   UNL     1     -10.114   6.241  11.481  1.00  0.00    -0.385 OA
ATOM     41  H   UNL     1      -9.983   5.261  11.560  1.00  0.00     0.211 HD
ENDBRANCH  33  40
ENDBRANCH  27  28
ENDBRANCH   1  27
TORSDOF 12
ENDMDL
MODEL 9
REMARK VINA RESULT:    -5.871     12.423     16.933
REMARK INTER + INTRA:          -9.239
REMARK INTER:                  -8.466
REMARK INTRA:                  -0.772
REMARK UNBOUND:                -0.622
REMARK SMILES O=c1c(OC[C@@H]2O[C@H](O)[C@@H](O)[C@H](O)[C@H]2O)c(-c2ccc(O)c(O)c2)oc2cc(O)cc(O)c12
REMARK SMILES IDX 4 1 3 2 16 3 25 4 2 5 26 6 1 7 33 8 27 9 31 10 28 11 30 12
REMARK SMILES IDX 17 13 18 14 19 15 20 16 24 17 22 18 21 19 23 21 32 23 29 25
REMARK SMILES IDX 5 27 6 28 14 29 7 30 12 31 8 32 10 33 15 34 13 36 9 38 11 40
REMARK H PARENT 21 20 23 22 32 24 29 26 15 35 13 37 9 39 11 41
REMARK Flexibility Score: inf
ROOT
ATOM      1  O   UNL     1      -6.650  -8.063  22.787  1.00  0.00    -0.483 OA
ENDROOT
BRANCH   1   2
ATOM      2  C   UNL     1      -6.437  -6.850  22.127  1.00  0.00     0.211 A 
ATOM      3  C   UNL     1      -5.401  -5.976  22.507  1.00  0.00     0.180 A 
ATOM      4  O   UNL     1      -5.266  -4.810  21.886  1.00  0.00    -0.452 OA
ATOM      5  C   UNL     1      -7.274  -6.493  21.064  1.00  0.00     0.239 A 
ATOM      6  C   UNL     1      -6.055  -4.414  20.895  1.00  0.00     0.146 A 
ATOM      7  O   UNL     1      -8.137  -7.324  20.679  1.00  0.00    -0.285 OA
ATOM      8  C   UNL     1      -7.125  -5.230  20.441  1.00  0.00     0.111 A 
ATOM      9  C   UNL     1      -5.801  -3.178  20.294  1.00  0.00     0.094 A 
ATOM     10  C   UNL     1      -7.957  -4.740  19.389  1.00  0.00     0.134 A 
ATOM     11  C   UNL     1      -6.588  -2.733  19.232  1.00  0.00     0.123 A 
ATOM     12  C   UNL     1      -7.653  -3.514  18.784  1.00  0.00     0.093 A 
BRANCH   3  13
ATOM     13  C   UNL     1      -4.434  -6.311  23.577  1.00  0.00     0.025 A 
ATOM     14  C   UNL     1      -3.736  -7.527  23.521  1.00  0.00     0.016 A 
ATOM     15  C   UNL     1      -2.822  -7.864  24.523  1.00  0.00     0.051 A 
ATOM     16  C   UNL     1      -2.602  -6.997  25.601  1.00  0.00     0.157 A 
ATOM     17  C   UNL     1      -4.229  -5.454  24.673  1.00  0.00     0.062 A 
ATOM     18  C   UNL     1      -3.313  -5.787  25.677  1.00  0.00     0.158 A 
BRANCH  16  19
ATOM     19  O   UNL     1      -1.686  -7.333  26.596  1.00  0.00    -0.504 OA
ATOM     20  H   UNL     1      -0.937  -7.994  26.427  1.00  0.00     0.293 HD
ENDBRANCH  16  19
BRANCH  18  21
ATOM     21  O   UNL     1      -3.125  -4.907  26.741  1.00  0.00    -0.504 OA
ATOM     22  H   UNL     1      -2.219  -4.771  27.174  1.00  0.00     0.293 HD
ENDBRANCH  18  21
ENDBRANCH   3  13
BRANCH  10  23
ATOM     23  O   UNL     1      -9.098  -5.398  18.922  1.00  0.00    -0.507 OA
ATOM     24  H   UNL     1     -10.005  -4.972  18.804  1.00  0.00     0.293 HD
ENDBRANCH  10  23
BRANCH  11  25
ATOM     25  O   UNL     1      -6.326  -1.511  18.616  1.00  0.00    -0.508 OA
ATOM     26  H   UNL     1      -6.982  -0.740  18.667  1.00  0.00     0.293 HD
ENDBRANCH  11  25
ENDBRANCH   1   2
BRANCH   1  27
ATOM     27  C   UNL     1      -7.801  -8.287  23.596  1.00  0.00     0.265 C 
BRANCH  27  28
ATOM     28  C   UNL     1      -7.367  -8.623  25.035  1.00  0.00     0.190 C 
ATOM     29  C   UNL     1      -6.557  -7.492  25.716  1.00  0.00     0.178 C 
ATOM     30  O   UNL     1      -8.428  -9.125  25.841  1.00  0.00    -0.340 OA
ATOM     31  C   UNL     1      -7.461  -6.387  26.285  1.00  0.00     0.179 C 
ATOM     32  C   UNL     1      -9.352  -8.136  26.272  1.00  0.00     0.279 C 
ATOM     33  C   UNL     1      -8.677  -6.975  27.045  1.00  0.00     0.201 C 
BRANCH  29  34
ATOM     34  O   UNL     1      -5.780  -8.031  26.756  1.00  0.00    -0.387 OA
ATOM     35  H   UNL     1      -6.040  -8.985  26.851  1.00  0.00     0.211 HD
ENDBRANCH  29  34
BRANCH  31  36
ATOM     36  O   UNL     1      -7.817  -5.479  25.263  1.00  0.00    -0.387 OA
ATOM     37  H   UNL     1      -7.326  -4.627  25.375  1.00  0.00     0.211 HD
ENDBRANCH  31  36
BRANCH  32  38
ATOM     38  O   UNL     1     -10.125  -7.671  25.195  1.00  0.00    -0.366 OA
ATOM     39  H   UNL     1      -9.835  -8.174  24.390  1.00  0.00     0.213 HD
ENDBRANCH  32  38
BRANCH  33  40
ATOM     40  O   UNL     1      -8.300  -7.386  28.338  1.00  0.00    -0.385 OA
ATOM     41  H   UNL     1      -7.314  -7.317  28.411  1.00  0.00     0.211 HD
ENDBRANCH  33  40
ENDBRANCH  27  28
ENDBRANCH   1  27
TORSDOF 12
ENDMDL
