MODEL 1
REMARK VINA RESULT:    -4.592      0.000      0.000
REMARK INTER + INTRA:          -7.326
REMARK INTER:                  -6.203
REMARK INTRA:                  -1.123
REMARK UNBOUND:                -1.123
REMARK SMILES CC(=O)CCC=C(C)CCC=C(C)C
REMARK SMILES IDX 7 1 6 2 8 3 9 4 10 5 11 6 13 7 12 8 14 9 5 10 4 11 2 12 3 13
REMARK SMILES IDX 1 14
REMARK H PARENT
REMARK Flexibility Score: inf
ROOT
ATOM      1  C   UNL     1       8.310 -18.792  26.407  1.00  0.00    -0.077 C 
ATOM      2  C   UNL     1       7.159 -18.087  26.310  1.00  0.00    -0.028 C 
ATOM      3  C   UNL     1       9.660 -18.147  26.199  1.00  0.00     0.039 C 
ENDROOT
BRANCH   1   4
ATOM      4  C   UNL     1       8.241 -20.272  26.714  1.00  0.00     0.034 C 
BRANCH   4   5
ATOM      5  C   UNL     1       7.370 -21.001  25.684  1.00  0.00     0.032 C 
BRANCH   5   6
ATOM      6  C   UNL     1       8.141 -21.250  24.412  1.00  0.00    -0.028 C 
ATOM      7  C   UNL     1       6.633 -19.807  23.027  1.00  0.00     0.039 C 
ATOM      8  C   UNL     1       7.807 -20.740  23.206  1.00  0.00    -0.080 C 
ATOM      9  C   UNL     1       8.651 -21.109  22.013  1.00  0.00     0.039 C 
ENDBRANCH   5   6
ENDBRANCH   4   5
ENDBRANCH   1   4
BRANCH   2  10
ATOM     10  C   UNL     1       7.087 -16.602  26.058  1.00  0.00     0.035 C 
BRANCH  10  11
ATOM     11  C   UNL     1       6.426 -16.315  24.706  1.00  0.00     0.079 C 
BRANCH  11  12
ATOM     12  C   UNL     1       7.006 -15.071  24.084  1.00  0.00     0.130 C 
ATOM     13  O   UNL     1       6.445 -14.561  23.126  1.00  0.00    -0.300 OA
ATOM     14  C   UNL     1       8.266 -14.451  24.608  1.00  0.00     0.087 C 
ENDBRANCH  11  12
ENDBRANCH  10  11
ENDBRANCH   2  10
TORSDOF 6
ENDMDL
MODEL 2
REMARK VINA RESULT:    -4.573      1.846      2.964
REMARK INTER + INTRA:          -7.301
REMARK INTER:                  -6.140
REMARK INTRA:                  -1.161
REMARK UNBOUND:                -1.123
REMARK SMILES CC(=O)CCC=C(C)CCC=C(C)C
REMARK SMILES IDX 7 1 6 2 8 3 9 4 10 5 11 6 13 7 12 8 14 9 5 10 4 11 2 12 3 13
REMARK SMILES IDX 1 14
REMARK H PARENT
REMARK Flexibility Score: inf
ROOT
ATOM      1  C   UNL     1       7.760 -18.205  22.423  1.00  0.00    -0.077 C 
ATOM      2  C   UNL     1       6.718 -18.059  23.274  1.00  0.00    -0.028 C 
ATOM      3  C   UNL     1       9.049 -17.439  22.602  1.00  0.00     0.039 C 
ENDROOT
BRANCH   1   4
ATOM      4  C   UNL     1       7.622 -19.149  21.248  1.00  0.00     0.034 C 
BRANCH   4   5
ATOM      5  C   UNL     1       7.130 -20.525  21.711  1.00  0.00     0.032 C 
BRANCH   5   6
ATOM      6  C   UNL     1       8.294 -21.432  22.023  1.00  0.00    -0.028 C 
ATOM      7  C   UNL     1       7.987 -21.239  24.501  1.00  0.00     0.039 C 
ATOM      8  C   UNL     1       8.705 -21.743  23.272  1.00  0.00    -0.080 C 
ATOM      9  C   UNL     1       9.912 -22.632  23.430  1.00  0.00     0.039 C 
ENDBRANCH   5   6
ENDBRANCH   4   5
ENDBRANCH   1   4
BRANCH   2  10
ATOM     10  C   UNL     1       6.739 -17.191  24.507  1.00  0.00     0.035 C 
BRANCH  10  11
ATOM     11  C   UNL     1       5.836 -15.968  24.323  1.00  0.00     0.079 C 
BRANCH  11  12
ATOM     12  C   UNL     1       6.586 -14.850  23.648  1.00  0.00     0.130 C 
ATOM     13  O   UNL     1       7.568 -14.370  24.193  1.00  0.00    -0.300 OA
ATOM     14  C   UNL     1       6.146 -14.301  22.323  1.00  0.00     0.087 C 
ENDBRANCH  11  12
ENDBRANCH  10  11
ENDBRANCH   2  10
TORSDOF 6
ENDMDL
MODEL 3
REMARK VINA RESULT:    -4.571      1.653      3.263
REMARK INTER + INTRA:          -7.298
REMARK INTER:                  -6.053
REMARK INTRA:                  -1.245
REMARK UNBOUND:                -1.123
REMARK SMILES CC(=O)CCC=C(C)CCC=C(C)C
REMARK SMILES IDX 7 1 6 2 8 3 9 4 10 5 11 6 13 7 12 8 14 9 5 10 4 11 2 12 3 13
REMARK SMILES IDX 1 14
REMARK H PARENT
REMARK Flexibility Score: inf
ROOT
ATOM      1  C   UNL     1       7.305 -18.161  23.180  1.00  0.00    -0.077 C 
ATOM      2  C   UNL     1       6.624 -17.371  24.043  1.00  0.00    -0.028 C 
ATOM      3  C   UNL     1       8.428 -17.623  22.324  1.00  0.00     0.039 C 
ENDROOT
BRANCH   1   4
ATOM      4  C   UNL     1       6.917 -19.618  23.056  1.00  0.00     0.034 C 
BRANCH   4   5
ATOM      5  C   UNL     1       7.846 -20.501  23.897  1.00  0.00     0.032 C 
BRANCH   5   6
ATOM      6  C   UNL     1       7.172 -20.914  25.181  1.00  0.00    -0.028 C 
ATOM      7  C   UNL     1       8.509 -19.324  26.581  1.00  0.00     0.039 C 
ATOM      8  C   UNL     1       7.476 -20.411  26.398  1.00  0.00    -0.080 C 
ATOM      9  C   UNL     1       6.744 -20.949  27.601  1.00  0.00     0.039 C 
ENDBRANCH   5   6
ENDBRANCH   4   5
ENDBRANCH   1   4
BRANCH   2  10
ATOM     10  C   UNL     1       6.937 -15.918  24.298  1.00  0.00     0.035 C 
BRANCH  10  11
ATOM     11  C   UNL     1       7.835 -15.767  25.530  1.00  0.00     0.079 C 
BRANCH  11  12
ATOM     12  C   UNL     1       9.239 -15.403  25.123  1.00  0.00     0.130 C 
ATOM     13  O   UNL     1       9.424 -14.425  24.415  1.00  0.00    -0.300 OA
ATOM     14  C   UNL     1      10.416 -16.223  25.558  1.00  0.00     0.087 C 
ENDBRANCH  11  12
ENDBRANCH  10  11
ENDBRANCH   2  10
TORSDOF 6
ENDMDL
MODEL 4
REMARK VINA RESULT:    -4.553      1.675      3.079
REMARK INTER + INTRA:          -7.273
REMARK INTER:                  -6.101
REMARK INTRA:                  -1.172
REMARK UNBOUND:                -1.123
REMARK SMILES CC(=O)CCC=C(C)CCC=C(C)C
REMARK SMILES IDX 7 1 6 2 8 3 9 4 10 5 11 6 13 7 12 8 14 9 5 10 4 11 2 12 3 13
REMARK SMILES IDX 1 14
REMARK H PARENT
REMARK Flexibility Score: inf
ROOT
ATOM      1  C   UNL     1       7.494 -17.803  22.813  1.00  0.00    -0.077 C 
ATOM      2  C   UNL     1       6.562 -17.711  23.791  1.00  0.00    -0.028 C 
ATOM      3  C   UNL     1       8.519 -16.718  22.584  1.00  0.00     0.039 C 
ENDROOT
BRANCH   1   4
ATOM      4  C   UNL     1       7.495 -19.020  21.913  1.00  0.00     0.034 C 
BRANCH   4   5
ATOM      5  C   UNL     1       7.089 -20.274  22.694  1.00  0.00     0.032 C 
BRANCH   5   6
ATOM      6  C   UNL     1       8.299 -20.951  23.286  1.00  0.00    -0.028 C 
ATOM      7  C   UNL     1       7.443 -20.782  25.634  1.00  0.00     0.039 C 
ATOM      8  C   UNL     1       8.483 -21.164  24.608  1.00  0.00    -0.080 C 
ATOM      9  C   UNL     1       9.764 -21.818  25.058  1.00  0.00     0.039 C 
ENDBRANCH   5   6
ENDBRANCH   4   5
ENDBRANCH   1   4
BRANCH   2  10
ATOM     10  C   UNL     1       6.478 -16.580  24.785  1.00  0.00     0.035 C 
BRANCH  10  11
ATOM     11  C   UNL     1       7.207 -16.944  26.082  1.00  0.00     0.079 C 
BRANCH  11  12
ATOM     12  C   UNL     1       8.444 -16.102  26.252  1.00  0.00     0.130 C 
ATOM     13  O   UNL     1       8.363 -14.887  26.143  1.00  0.00    -0.300 OA
ATOM     14  C   UNL     1       9.778 -16.722  26.539  1.00  0.00     0.087 C 
ENDBRANCH  11  12
ENDBRANCH  10  11
ENDBRANCH   2  10
TORSDOF 6
ENDMDL
MODEL 5
REMARK VINA RESULT:    -4.550      1.728      2.496
REMARK INTER + INTRA:          -7.269
REMARK INTER:                  -6.335
REMARK INTRA:                  -0.933
REMARK UNBOUND:                -1.123
REMARK SMILES CC(=O)CCC=C(C)CCC=C(C)C
REMARK SMILES IDX 7 1 6 2 8 3 9 4 10 5 11 6 13 7 12 8 14 9 5 10 4 11 2 12 3 13
REMARK SMILES IDX 1 14
REMARK H PARENT
REMARK Flexibility Score: inf
ROOT
ATOM      1  C   UNL     1       7.205 -18.342  24.672  1.00  0.00    -0.077 C 
ATOM      2  C   UNL     1       6.693 -17.355  23.901  1.00  0.00    -0.028 C 
ATOM      3  C   UNL     1       7.463 -18.147  26.148  1.00  0.00     0.039 C 
ENDROOT
BRANCH   1   4
ATOM      4  C   UNL     1       7.545 -19.671  24.034  1.00  0.00     0.034 C 
BRANCH   4   5
ATOM      5  C   UNL     1       6.610 -19.963  22.855  1.00  0.00     0.032 C 
BRANCH   5   6
ATOM      6  C   UNL     1       7.350 -20.675  21.750  1.00  0.00    -0.028 C 
ATOM      7  C   UNL     1       7.749 -18.574  20.446  1.00  0.00     0.039 C 
ATOM      8  C   UNL     1       7.846 -20.067  20.650  1.00  0.00    -0.080 C 
ATOM      9  C   UNL     1       8.529 -20.915  19.608  1.00  0.00     0.039 C 
ENDBRANCH   5   6
ENDBRANCH   4   5
ENDBRANCH   1   4
BRANCH   2  10
ATOM     10  C   UNL     1       6.268 -16.003  24.416  1.00  0.00     0.035 C 
BRANCH  10  11
ATOM     11  C   UNL     1       7.186 -14.903  23.873  1.00  0.00     0.079 C 
BRANCH  11  12
ATOM     12  C   UNL     1       8.408 -14.754  24.740  1.00  0.00     0.130 C 
ATOM     13  O   UNL     1       8.284 -14.733  25.956  1.00  0.00    -0.300 OA
ATOM     14  C   UNL     1       9.777 -14.618  24.144  1.00  0.00     0.087 C 
ENDBRANCH  11  12
ENDBRANCH  10  11
ENDBRANCH   2  10
TORSDOF 6
ENDMDL
MODEL 6
REMARK VINA RESULT:    -4.510      2.910      5.727
REMARK INTER + INTRA:          -7.215
REMARK INTER:                  -6.380
REMARK INTRA:                  -0.835
REMARK UNBOUND:                -1.123
REMARK SMILES CC(=O)CCC=C(C)CCC=C(C)C
REMARK SMILES IDX 7 1 6 2 8 3 9 4 10 5 11 6 13 7 12 8 14 9 5 10 4 11 2 12 3 13
REMARK SMILES IDX 1 14
REMARK H PARENT
REMARK Flexibility Score: inf
ROOT
ATOM      1  C   UNL     1       8.236 -15.133  23.898  1.00  0.00    -0.077 C 
ATOM      2  C   UNL     1       7.846 -16.417  24.072  1.00  0.00    -0.028 C 
ATOM      3  C   UNL     1       9.679 -14.711  24.044  1.00  0.00     0.039 C 
ENDROOT
BRANCH   1   4
ATOM      4  C   UNL     1       7.194 -14.087  23.567  1.00  0.00     0.034 C 
BRANCH   4   5
ATOM      5  C   UNL     1       6.051 -14.698  22.749  1.00  0.00     0.032 C 
BRANCH   5   6
ATOM      6  C   UNL     1       5.883 -13.972  21.439  1.00  0.00    -0.028 C 
ATOM      7  C   UNL     1       7.181 -15.677  20.143  1.00  0.00     0.039 C 
ATOM      8  C   UNL     1       6.405 -14.387  20.264  1.00  0.00    -0.080 C 
ATOM      9  C   UNL     1       6.188 -13.535  19.040  1.00  0.00     0.039 C 
ENDBRANCH   5   6
ENDBRANCH   4   5
ENDBRANCH   1   4
BRANCH   2  10
ATOM     10  C   UNL     1       8.784 -17.562  24.357  1.00  0.00     0.035 C 
BRANCH  10  11
ATOM     11  C   UNL     1       8.592 -18.076  25.787  1.00  0.00     0.079 C 
BRANCH  11  12
ATOM     12  C   UNL     1       9.788 -17.741  26.639  1.00  0.00     0.130 C 
ATOM     13  O   UNL     1      10.068 -16.570  26.847  1.00  0.00    -0.300 OA
ATOM     14  C   UNL     1      10.654 -18.814  27.227  1.00  0.00     0.087 C 
ENDBRANCH  11  12
ENDBRANCH  10  11
ENDBRANCH   2  10
TORSDOF 6
ENDMDL
MODEL 7
REMARK VINA RESULT:    -4.474      2.116      4.028
REMARK INTER + INTRA:          -7.166
REMARK INTER:                  -5.842
REMARK INTRA:                  -1.325
REMARK UNBOUND:                -1.123
REMARK SMILES CC(=O)CCC=C(C)CCC=C(C)C
REMARK SMILES IDX 7 1 6 2 8 3 9 4 10 5 11 6 13 7 12 8 14 9 5 10 4 11 2 12 3 13
REMARK SMILES IDX 1 14
REMARK H PARENT
REMARK Flexibility Score: inf
ROOT
ATOM      1  C   UNL     1       8.044 -17.623  25.178  1.00  0.00    -0.077 C 
ATOM      2  C   UNL     1       7.177 -16.587  25.249  1.00  0.00    -0.028 C 
ATOM      3  C   UNL     1       7.996 -18.627  24.051  1.00  0.00     0.039 C 
ENDROOT
BRANCH   1   4
ATOM      4  C   UNL     1       9.079 -17.791  26.270  1.00  0.00     0.034 C 
BRANCH   4   5
ATOM      5  C   UNL     1       9.917 -16.517  26.426  1.00  0.00     0.032 C 
BRANCH   5   6
ATOM      6  C   UNL     1      11.040 -16.490  25.420  1.00  0.00    -0.028 C 
ATOM      7  C   UNL     1      10.025 -14.621  24.097  1.00  0.00     0.039 C 
ATOM      8  C   UNL     1      11.090 -15.660  24.355  1.00  0.00    -0.080 C 
ATOM      9  C   UNL     1      12.259 -15.774  23.410  1.00  0.00     0.039 C 
ENDBRANCH   5   6
ENDBRANCH   4   5
ENDBRANCH   1   4
BRANCH   2  10
ATOM     10  C   UNL     1       6.132 -16.276  24.207  1.00  0.00     0.035 C 
BRANCH  10  11
ATOM     11  C   UNL     1       6.281 -14.838  23.703  1.00  0.00     0.079 C 
BRANCH  11  12
ATOM     12  C   UNL     1       6.552 -14.819  22.222  1.00  0.00     0.130 C 
ATOM     13  O   UNL     1       5.995 -13.989  21.519  1.00  0.00    -0.300 OA
ATOM     14  C   UNL     1       7.484 -15.806  21.585  1.00  0.00     0.087 C 
ENDBRANCH  11  12
ENDBRANCH  10  11
ENDBRANCH   2  10
TORSDOF 6
ENDMDL
MODEL 8
REMARK VINA RESULT:    -4.467      2.632      5.822
REMARK INTER + INTRA:          -7.157
REMARK INTER:                  -6.220
REMARK INTRA:                  -0.937
REMARK UNBOUND:                -1.123
REMARK SMILES CC(=O)CCC=C(C)CCC=C(C)C
REMARK SMILES IDX 7 1 6 2 8 3 9 4 10 5 11 6 13 7 12 8 14 9 5 10 4 11 2 12 3 13
REMARK SMILES IDX 1 14
REMARK H PARENT
REMARK Flexibility Score: inf
ROOT
ATOM      1  C   UNL     1       7.335 -16.056  22.859  1.00  0.00    -0.077 C 
ATOM      2  C   UNL     1       7.361 -17.296  23.398  1.00  0.00    -0.028 C 
ATOM      3  C   UNL     1       7.547 -15.824  21.381  1.00  0.00     0.039 C 
ENDROOT
BRANCH   1   4
ATOM      4  C   UNL     1       7.106 -14.865  23.765  1.00  0.00     0.034 C 
BRANCH   4   5
ATOM      5  C   UNL     1       8.258 -14.714  24.765  1.00  0.00     0.032 C 
BRANCH   5   6
ATOM      6  C   UNL     1       9.541 -14.364  24.053  1.00  0.00    -0.028 C 
ATOM      7  C   UNL     1      10.730 -16.420  24.848  1.00  0.00     0.039 C 
ATOM      8  C   UNL     1      10.668 -15.109  24.101  1.00  0.00    -0.080 C 
ATOM      9  C   UNL     1      11.888 -14.612  23.371  1.00  0.00     0.039 C 
ENDBRANCH   5   6
ENDBRANCH   4   5
ENDBRANCH   1   4
BRANCH   2  10
ATOM     10  C   UNL     1       7.531 -18.568  22.605  1.00  0.00     0.035 C 
BRANCH  10  11
ATOM     11  C   UNL     1       6.649 -19.683  23.175  1.00  0.00     0.079 C 
BRANCH  11  12
ATOM     12  C   UNL     1       7.486 -20.702  23.903  1.00  0.00     0.130 C 
ATOM     13  O   UNL     1       8.261 -21.404  23.272  1.00  0.00    -0.300 OA
ATOM     14  C   UNL     1       7.379 -20.885  25.387  1.00  0.00     0.087 C 
ENDBRANCH  11  12
ENDBRANCH  10  11
ENDBRANCH   2  10
TORSDOF 6
ENDMDL
MODEL 9
REMARK VINA RESULT:    -4.449      5.510      7.615
REMARK INTER + INTRA:          -7.133
REMARK INTER:                  -6.422
REMARK INTRA:                  -0.710
REMARK UNBOUND:                -1.123
REMARK SMILES CC(=O)CCC=C(C)CCC=C(C)C
REMARK SMILES IDX 7 1 6 2 8 3 9 4 10 5 11 6 13 7 12 8 14 9 5 10 4 11 2 12 3 13
REMARK SMILES IDX 1 14
REMARK H PARENT
REMARK Flexibility Score: inf
ROOT
ATOM      1  C   UNL     1       6.342 -14.315  20.147  1.00  0.00    -0.077 C 
ATOM      2  C   UNL     1       5.989 -13.934  21.397  1.00  0.00    -0.028 C 
ATOM      3  C   UNL     1       7.093 -15.600  19.888  1.00  0.00     0.039 C 
ENDROOT
BRANCH   1   4
ATOM      4  C   UNL     1       5.990 -13.420  18.979  1.00  0.00     0.034 C 
BRANCH   4   5
ATOM      5  C   UNL     1       7.007 -13.581  17.844  1.00  0.00     0.032 C 
BRANCH   5   6
ATOM      6  C   UNL     1       6.308 -13.816  16.529  1.00  0.00    -0.028 C 
ATOM      7  C   UNL     1       7.719 -15.802  15.950  1.00  0.00     0.039 C 
ATOM      8  C   UNL     1       6.633 -14.795  15.656  1.00  0.00    -0.080 C 
ATOM      9  C   UNL     1       5.870 -14.883  14.360  1.00  0.00     0.039 C 
ENDBRANCH   5   6
ENDBRANCH   4   5
ENDBRANCH   1   4
BRANCH   2  10
ATOM     10  C   UNL     1       6.234 -14.751  22.640  1.00  0.00     0.035 C 
BRANCH  10  11
ATOM     11  C   UNL     1       7.154 -14.001  23.608  1.00  0.00     0.079 C 
BRANCH  11  12
ATOM     12  C   UNL     1       8.163 -14.939  24.217  1.00  0.00     0.130 C 
ATOM     13  O   UNL     1       8.451 -14.827  25.399  1.00  0.00    -0.300 OA
ATOM     14  C   UNL     1       8.835 -16.002  23.400  1.00  0.00     0.087 C 
ENDBRANCH  11  12
ENDBRANCH  10  11
ENDBRANCH   2  10
TORSDOF 6
ENDMDL
