MODEL 1
REMARK VINA RESULT:    -5.441      0.000      0.000
REMARK INTER + INTRA:         -12.057
REMARK INTER:                  -9.894
REMARK INTRA:                  -2.163
REMARK UNBOUND:                -2.163
REMARK SMILES CCCCCC=CCC=CCCCCCCCC(=O)[O-]
REMARK SMILES IDX 11 1 12 2 13 3 14 4 15 5 16 6 17 7 18 8 19 9 20 10 10 11
REMARK SMILES IDX 9 12 8 13 7 14 6 15 5 16 4 17 3 18 2 19 1 20
REMARK H PARENT
REMARK Flexibility Score: inf
ROOT
ATOM      1  C   UNL     1      -5.284 -21.614  47.450  1.00  0.00     0.027 C 
ENDROOT
BRANCH   1   2
ATOM      2  C   UNL     1      -5.552 -22.387  48.753  1.00  0.00     0.004 C 
BRANCH   2   3
ATOM      3  C   UNL     1      -5.562 -23.913  48.566  1.00  0.00     0.000 C 
BRANCH   3   4
ATOM      4  C   UNL     1      -4.710 -24.640  49.622  1.00  0.00     0.000 C 
BRANCH   4   5
ATOM      5  C   UNL     1      -3.199 -24.502  49.360  1.00  0.00     0.000 C 
BRANCH   5   6
ATOM      6  C   UNL     1      -2.470 -23.768  50.500  1.00  0.00     0.006 C 
BRANCH   6   7
ATOM      7  C   UNL     1      -0.956 -24.031  50.489  1.00  0.00     0.053 C 
BRANCH   7   8
ATOM      8  C   UNL     1      -0.167 -22.771  50.306  1.00  0.00     0.041 C 
ATOM      9  O   UNL     1       0.317 -22.172  51.302  1.00  0.00    -0.550 OA
ATOM     10  O   UNL     1       0.025 -22.252  49.033  1.00  0.00    -0.550 OA
ENDBRANCH   7   8
ENDBRANCH   6   7
ENDBRANCH   5   6
ENDBRANCH   4   5
ENDBRANCH   3   4
ENDBRANCH   2   3
ENDBRANCH   1   2
BRANCH   1  11
ATOM     11  C   UNL     1      -3.834 -21.693  47.041  1.00  0.00    -0.031 C 
ATOM     12  C   UNL     1      -3.378 -22.377  45.978  1.00  0.00    -0.027 C 
BRANCH  12  13
ATOM     13  C   UNL     1      -4.233 -23.252  45.097  1.00  0.00     0.054 C 
BRANCH  13  14
ATOM     14  C   UNL     1      -3.905 -24.704  45.303  1.00  0.00    -0.027 C 
ATOM     15  C   UNL     1      -2.735 -25.088  45.833  1.00  0.00    -0.031 C 
BRANCH  15  16
ATOM     16  C   UNL     1      -2.430 -26.536  46.107  1.00  0.00     0.027 C 
BRANCH  16  17
ATOM     17  C   UNL     1      -2.587 -27.377  44.835  1.00  0.00     0.004 C 
BRANCH  17  18
ATOM     18  C   UNL     1      -2.870 -28.847  45.177  1.00  0.00     0.000 C 
BRANCH  18  19
ATOM     19  C   UNL     1      -4.237 -29.319  44.660  1.00  0.00    -0.003 C 
ATOM     20  C   UNL     1      -5.170 -28.163  44.308  1.00  0.00     0.004 C 
ENDBRANCH  18  19
ENDBRANCH  17  18
ENDBRANCH  16  17
ENDBRANCH  15  16
ENDBRANCH  13  14
ENDBRANCH  12  13
ENDBRANCH   1  11
TORSDOF 14
ENDMDL
MODEL 2
REMARK VINA RESULT:    -5.277      1.417      2.430
REMARK INTER + INTRA:         -11.759
REMARK INTER:                  -9.666
REMARK INTRA:                  -2.092
REMARK UNBOUND:                -2.163
REMARK SMILES CCCCCC=CCC=CCCCCCCCC(=O)[O-]
REMARK SMILES IDX 11 1 12 2 13 3 14 4 15 5 16 6 17 7 18 8 19 9 20 10 10 11
REMARK SMILES IDX 9 12 8 13 7 14 6 15 5 16 4 17 3 18 2 19 1 20
REMARK H PARENT
REMARK Flexibility Score: inf
ROOT
ATOM      1  C   UNL     1      -4.917 -24.497  47.962  1.00  0.00     0.027 C 
ENDROOT
BRANCH   1   2
ATOM      2  C   UNL     1      -4.579 -24.305  49.451  1.00  0.00     0.004 C 
BRANCH   2   3
ATOM      3  C   UNL     1      -4.234 -22.851  49.817  1.00  0.00     0.000 C 
BRANCH   3   4
ATOM      4  C   UNL     1      -2.863 -22.729  50.505  1.00  0.00     0.000 C 
BRANCH   4   5
ATOM      5  C   UNL     1      -2.084 -24.056  50.512  1.00  0.00     0.000 C 
BRANCH   5   6
ATOM      6  C   UNL     1      -0.788 -23.981  49.682  1.00  0.00     0.006 C 
BRANCH   6   7
ATOM      7  C   UNL     1      -0.452 -22.544  49.253  1.00  0.00     0.053 C 
BRANCH   7   8
ATOM      8  C   UNL     1       0.719 -21.992  50.006  1.00  0.00     0.041 C 
ATOM      9  O   UNL     1       0.630 -21.758  51.240  1.00  0.00    -0.550 OA
ATOM     10  O   UNL     1       1.907 -21.726  49.341  1.00  0.00    -0.550 OA
ENDBRANCH   7   8
ENDBRANCH   6   7
ENDBRANCH   5   6
ENDBRANCH   4   5
ENDBRANCH   3   4
ENDBRANCH   2   3
ENDBRANCH   1   2
BRANCH   1  11
ATOM     11  C   UNL     1      -3.945 -23.765  47.070  1.00  0.00    -0.031 C 
ATOM     12  C   UNL     1      -2.822 -24.301  46.563  1.00  0.00    -0.027 C 
BRANCH  12  13
ATOM     13  C   UNL     1      -2.311 -25.679  46.895  1.00  0.00     0.054 C 
BRANCH  13  14
ATOM     14  C   UNL     1      -2.542 -26.626  45.751  1.00  0.00    -0.027 C 
ATOM     15  C   UNL     1      -3.768 -26.829  45.248  1.00  0.00    -0.031 C 
BRANCH  15  16
ATOM     16  C   UNL     1      -3.995 -27.721  44.057  1.00  0.00     0.027 C 
BRANCH  16  17
ATOM     17  C   UNL     1      -4.459 -29.114  44.500  1.00  0.00     0.004 C 
BRANCH  17  18
ATOM     18  C   UNL     1      -3.261 -30.041  44.749  1.00  0.00     0.000 C 
BRANCH  18  19
ATOM     19  C   UNL     1      -2.266 -30.046  43.579  1.00  0.00    -0.003 C 
ATOM     20  C   UNL     1      -0.812 -29.967  44.036  1.00  0.00     0.004 C 
ENDBRANCH  18  19
ENDBRANCH  17  18
ENDBRANCH  16  17
ENDBRANCH  15  16
ENDBRANCH  13  14
ENDBRANCH  12  13
ENDBRANCH   1  11
TORSDOF 14
ENDMDL
MODEL 3
REMARK VINA RESULT:    -5.253      1.748      4.851
REMARK INTER + INTRA:         -11.715
REMARK INTER:                  -8.683
REMARK INTRA:                  -3.032
REMARK UNBOUND:                -2.163
REMARK SMILES CCCCCC=CCC=CCCCCCCCC(=O)[O-]
REMARK SMILES IDX 11 1 12 2 13 3 14 4 15 5 16 6 17 7 18 8 19 9 20 10 10 11
REMARK SMILES IDX 9 12 8 13 7 14 6 15 5 16 4 17 3 18 2 19 1 20
REMARK H PARENT
REMARK Flexibility Score: inf
ROOT
ATOM      1  C   UNL     1      -3.186 -23.659  44.601  1.00  0.00     0.027 C 
ENDROOT
BRANCH   1   2
ATOM      2  C   UNL     1      -3.834 -22.425  45.252  1.00  0.00     0.004 C 
BRANCH   2   3
ATOM      3  C   UNL     1      -2.823 -21.326  45.619  1.00  0.00     0.000 C 
BRANCH   3   4
ATOM      4  C   UNL     1      -2.107 -21.609  46.952  1.00  0.00     0.000 C 
BRANCH   4   5
ATOM      5  C   UNL     1      -0.596 -21.840  46.775  1.00  0.00     0.000 C 
BRANCH   5   6
ATOM      6  C   UNL     1       0.105 -22.186  48.101  1.00  0.00     0.006 C 
BRANCH   6   7
ATOM      7  C   UNL     1      -0.832 -22.046  49.311  1.00  0.00     0.053 C 
BRANCH   7   8
ATOM      8  C   UNL     1      -0.230 -22.617  50.558  1.00  0.00     0.041 C 
ATOM      9  O   UNL     1       0.500 -21.904  51.297  1.00  0.00    -0.550 OA
ATOM     10  O   UNL     1      -0.467 -23.941  50.898  1.00  0.00    -0.550 OA
ENDBRANCH   7   8
ENDBRANCH   6   7
ENDBRANCH   5   6
ENDBRANCH   4   5
ENDBRANCH   3   4
ENDBRANCH   2   3
ENDBRANCH   1   2
BRANCH   1  11
ATOM     11  C   UNL     1      -3.919 -24.929  44.956  1.00  0.00    -0.031 C 
ATOM     12  C   UNL     1      -3.511 -25.810  45.885  1.00  0.00    -0.027 C 
BRANCH  12  13
ATOM     13  C   UNL     1      -2.208 -25.715  46.636  1.00  0.00     0.054 C 
BRANCH  13  14
ATOM     14  C   UNL     1      -2.412 -25.083  47.985  1.00  0.00    -0.027 C 
ATOM     15  C   UNL     1      -3.634 -24.757  48.427  1.00  0.00    -0.031 C 
BRANCH  15  16
ATOM     16  C   UNL     1      -3.850 -24.190  49.804  1.00  0.00     0.027 C 
BRANCH  16  17
ATOM     17  C   UNL     1      -4.450 -22.781  49.725  1.00  0.00     0.004 C 
BRANCH  17  18
ATOM     18  C   UNL     1      -5.613 -22.732  48.724  1.00  0.00     0.000 C 
BRANCH  18  19
ATOM     19  C   UNL     1      -5.719 -21.376  48.010  1.00  0.00    -0.003 C 
ATOM     20  C   UNL     1      -5.462 -20.194  48.940  1.00  0.00     0.004 C 
ENDBRANCH  18  19
ENDBRANCH  17  18
ENDBRANCH  16  17
ENDBRANCH  15  16
ENDBRANCH  13  14
ENDBRANCH  12  13
ENDBRANCH   1  11
TORSDOF 14
ENDMDL
MODEL 4
REMARK VINA RESULT:    -5.217      2.386      4.065
REMARK INTER + INTRA:         -11.649
REMARK INTER:                  -9.603
REMARK INTRA:                  -2.046
REMARK UNBOUND:                -2.163
REMARK SMILES CCCCCC=CCC=CCCCCCCCC(=O)[O-]
REMARK SMILES IDX 11 1 12 2 13 3 14 4 15 5 16 6 17 7 18 8 19 9 20 10 10 11
REMARK SMILES IDX 9 12 8 13 7 14 6 15 5 16 4 17 3 18 2 19 1 20
REMARK H PARENT
REMARK Flexibility Score: inf
ROOT
ATOM      1  C   UNL     1      -0.716 -22.304  50.447  1.00  0.00     0.027 C 
ENDROOT
BRANCH   1   2
ATOM      2  C   UNL     1      -0.927 -23.773  50.852  1.00  0.00     0.004 C 
BRANCH   2   3
ATOM      3  C   UNL     1      -2.083 -24.454  50.100  1.00  0.00     0.000 C 
BRANCH   3   4
ATOM      4  C   UNL     1      -3.358 -23.591  50.079  1.00  0.00     0.000 C 
BRANCH   4   5
ATOM      5  C   UNL     1      -4.613 -24.400  49.704  1.00  0.00     0.000 C 
BRANCH   5   6
ATOM      6  C   UNL     1      -5.540 -23.632  48.743  1.00  0.00     0.006 C 
BRANCH   6   7
ATOM      7  C   UNL     1      -4.936 -22.292  48.295  1.00  0.00     0.053 C 
BRANCH   7   8
ATOM      8  C   UNL     1      -5.679 -21.123  48.864  1.00  0.00     0.041 C 
ATOM      9  O   UNL     1      -5.897 -21.049  50.102  1.00  0.00    -0.550 OA
ATOM     10  O   UNL     1      -6.140 -20.119  48.024  1.00  0.00    -0.550 OA
ENDBRANCH   7   8
ENDBRANCH   6   7
ENDBRANCH   5   6
ENDBRANCH   4   5
ENDBRANCH   3   4
ENDBRANCH   2   3
ENDBRANCH   1   2
BRANCH   1  11
ATOM     11  C   UNL     1       0.441 -22.148  49.492  1.00  0.00    -0.031 C 
ATOM     12  C   UNL     1       0.318 -21.978  48.164  1.00  0.00    -0.027 C 
BRANCH  12  13
ATOM     13  C   UNL     1      -0.991 -22.020  47.418  1.00  0.00     0.054 C 
BRANCH  13  14
ATOM     14  C   UNL     1      -1.124 -23.300  46.642  1.00  0.00    -0.027 C 
ATOM     15  C   UNL     1      -2.173 -24.117  46.814  1.00  0.00    -0.031 C 
BRANCH  15  16
ATOM     16  C   UNL     1      -2.346 -25.363  45.989  1.00  0.00     0.027 C 
BRANCH  16  17
ATOM     17  C   UNL     1      -3.795 -25.500  45.505  1.00  0.00     0.004 C 
BRANCH  17  18
ATOM     18  C   UNL     1      -4.127 -26.959  45.163  1.00  0.00     0.000 C 
BRANCH  18  19
ATOM     19  C   UNL     1      -2.875 -27.846  45.090  1.00  0.00    -0.003 C 
ATOM     20  C   UNL     1      -3.205 -29.335  45.034  1.00  0.00     0.004 C 
ENDBRANCH  18  19
ENDBRANCH  17  18
ENDBRANCH  16  17
ENDBRANCH  15  16
ENDBRANCH  13  14
ENDBRANCH  12  13
ENDBRANCH   1  11
TORSDOF 14
ENDMDL
MODEL 5
REMARK VINA RESULT:    -5.196      2.963      6.220
REMARK INTER + INTRA:         -11.612
REMARK INTER:                  -8.846
REMARK INTRA:                  -2.765
REMARK UNBOUND:                -2.163
REMARK SMILES CCCCCC=CCC=CCCCCCCCC(=O)[O-]
REMARK SMILES IDX 11 1 12 2 13 3 14 4 15 5 16 6 17 7 18 8 19 9 20 10 10 11
REMARK SMILES IDX 9 12 8 13 7 14 6 15 5 16 4 17 3 18 2 19 1 20
REMARK H PARENT
REMARK Flexibility Score: inf
ROOT
ATOM      1  C   UNL     1      -4.855 -21.823  46.657  1.00  0.00     0.027 C 
ENDROOT
BRANCH   1   2
ATOM      2  C   UNL     1      -3.362 -21.453  46.705  1.00  0.00     0.004 C 
BRANCH   2   3
ATOM      3  C   UNL     1      -2.479 -22.362  45.833  1.00  0.00     0.000 C 
BRANCH   3   4
ATOM      4  C   UNL     1      -2.971 -23.820  45.820  1.00  0.00     0.000 C 
BRANCH   4   5
ATOM      5  C   UNL     1      -1.954 -24.793  46.442  1.00  0.00     0.000 C 
BRANCH   5   6
ATOM      6  C   UNL     1      -2.398 -26.263  46.323  1.00  0.00     0.006 C 
BRANCH   6   7
ATOM      7  C   UNL     1      -3.726 -26.412  45.565  1.00  0.00     0.053 C 
BRANCH   7   8
ATOM      8  C   UNL     1      -3.937 -27.809  45.069  1.00  0.00     0.041 C 
ATOM      9  O   UNL     1      -5.004 -28.121  44.477  1.00  0.00    -0.550 OA
ATOM     10  O   UNL     1      -2.958 -28.772  45.272  1.00  0.00    -0.550 OA
ENDBRANCH   7   8
ENDBRANCH   6   7
ENDBRANCH   5   6
ENDBRANCH   4   5
ENDBRANCH   3   4
ENDBRANCH   2   3
ENDBRANCH   1   2
BRANCH   1  11
ATOM     11  C   UNL     1      -5.508 -21.690  48.010  1.00  0.00    -0.031 C 
ATOM     12  C   UNL     1      -5.654 -22.696  48.889  1.00  0.00    -0.027 C 
BRANCH  12  13
ATOM     13  C   UNL     1      -5.281 -24.130  48.613  1.00  0.00     0.054 C 
BRANCH  13  14
ATOM     14  C   UNL     1      -4.109 -24.550  49.455  1.00  0.00    -0.027 C 
ATOM     15  C   UNL     1      -3.082 -23.722  49.688  1.00  0.00    -0.031 C 
BRANCH  15  16
ATOM     16  C   UNL     1      -1.941 -24.112  50.588  1.00  0.00     0.027 C 
BRANCH  16  17
ATOM     17  C   UNL     1      -0.783 -23.114  50.466  1.00  0.00     0.004 C 
BRANCH  17  18
ATOM     18  C   UNL     1      -1.047 -22.098  49.346  1.00  0.00     0.000 C 
BRANCH  18  19
ATOM     19  C   UNL     1       0.185 -21.866  48.459  1.00  0.00    -0.003 C 
ATOM     20  C   UNL     1       1.474 -21.712  49.263  1.00  0.00     0.004 C 
ENDBRANCH  18  19
ENDBRANCH  17  18
ENDBRANCH  16  17
ENDBRANCH  15  16
ENDBRANCH  13  14
ENDBRANCH  12  13
ENDBRANCH   1  11
TORSDOF 14
ENDMDL
MODEL 6
REMARK VINA RESULT:    -5.188      2.244      5.534
REMARK INTER + INTRA:         -11.597
REMARK INTER:                  -8.954
REMARK INTRA:                  -2.643
REMARK UNBOUND:                -2.163
REMARK SMILES CCCCCC=CCC=CCCCCCCCC(=O)[O-]
REMARK SMILES IDX 11 1 12 2 13 3 14 4 15 5 16 6 17 7 18 8 19 9 20 10 10 11
REMARK SMILES IDX 9 12 8 13 7 14 6 15 5 16 4 17 3 18 2 19 1 20
REMARK H PARENT
REMARK Flexibility Score: inf
ROOT
ATOM      1  C   UNL     1      -3.461 -25.072  46.761  1.00  0.00     0.027 C 
ENDROOT
BRANCH   1   2
ATOM      2  C   UNL     1      -2.685 -24.108  45.847  1.00  0.00     0.004 C 
BRANCH   2   3
ATOM      3  C   UNL     1      -3.265 -22.684  45.830  1.00  0.00     0.000 C 
BRANCH   3   4
ATOM      4  C   UNL     1      -2.213 -21.618  46.186  1.00  0.00     0.000 C 
BRANCH   4   5
ATOM      5  C   UNL     1      -1.939 -21.539  47.699  1.00  0.00     0.000 C 
BRANCH   5   6
ATOM      6  C   UNL     1      -0.586 -22.167  48.084  1.00  0.00     0.006 C 
BRANCH   6   7
ATOM      7  C   UNL     1      -0.208 -21.885  49.546  1.00  0.00     0.053 C 
BRANCH   7   8
ATOM      8  C   UNL     1      -1.117 -22.585  50.508  1.00  0.00     0.041 C 
ATOM      9  O   UNL     1      -0.897 -23.781  50.837  1.00  0.00    -0.550 OA
ATOM     10  O   UNL     1      -2.216 -21.920  51.033  1.00  0.00    -0.550 OA
ENDBRANCH   7   8
ENDBRANCH   6   7
ENDBRANCH   5   6
ENDBRANCH   4   5
ENDBRANCH   3   4
ENDBRANCH   2   3
ENDBRANCH   1   2
BRANCH   1  11
ATOM     11  C   UNL     1      -3.187 -24.802  48.219  1.00  0.00    -0.031 C 
ATOM     12  C   UNL     1      -4.111 -24.396  49.107  1.00  0.00    -0.027 C 
BRANCH  12  13
ATOM     13  C   UNL     1      -5.535 -24.050  48.755  1.00  0.00     0.054 C 
BRANCH  13  14
ATOM     14  C   UNL     1      -5.659 -22.597  48.388  1.00  0.00    -0.027 C 
ATOM     15  C   UNL     1      -5.414 -21.627  49.280  1.00  0.00    -0.031 C 
BRANCH  15  16
ATOM     16  C   UNL     1      -5.467 -20.173  48.899  1.00  0.00     0.027 C 
BRANCH  16  17
ATOM     17  C   UNL     1      -6.285 -19.974  47.618  1.00  0.00     0.004 C 
BRANCH  17  18
ATOM     18  C   UNL     1      -5.385 -19.550  46.449  1.00  0.00     0.000 C 
BRANCH  18  19
ATOM     19  C   UNL     1      -6.140 -19.500  45.113  1.00  0.00    -0.003 C 
ATOM     20  C   UNL     1      -7.555 -20.062  45.209  1.00  0.00     0.004 C 
ENDBRANCH  18  19
ENDBRANCH  17  18
ENDBRANCH  16  17
ENDBRANCH  15  16
ENDBRANCH  13  14
ENDBRANCH  12  13
ENDBRANCH   1  11
TORSDOF 14
ENDMDL
MODEL 7
REMARK VINA RESULT:    -5.142      3.180      5.693
REMARK INTER + INTRA:         -11.514
REMARK INTER:                  -8.777
REMARK INTRA:                  -2.737
REMARK UNBOUND:                -2.163
REMARK SMILES CCCCCC=CCC=CCCCCCCCC(=O)[O-]
REMARK SMILES IDX 11 1 12 2 13 3 14 4 15 5 16 6 17 7 18 8 19 9 20 10 10 11
REMARK SMILES IDX 9 12 8 13 7 14 6 15 5 16 4 17 3 18 2 19 1 20
REMARK H PARENT
REMARK Flexibility Score: inf
ROOT
ATOM      1  C   UNL     1      -1.955 -24.481  49.976  1.00  0.00     0.027 C 
ENDROOT
BRANCH   1   2
ATOM      2  C   UNL     1      -1.729 -25.177  48.623  1.00  0.00     0.004 C 
BRANCH   2   3
ATOM      3  C   UNL     1      -2.762 -24.784  47.554  1.00  0.00     0.000 C 
BRANCH   3   4
ATOM      4  C   UNL     1      -3.966 -24.033  48.150  1.00  0.00     0.000 C 
BRANCH   4   5
ATOM      5  C   UNL     1      -4.195 -22.662  47.488  1.00  0.00     0.000 C 
BRANCH   5   6
ATOM      6  C   UNL     1      -3.554 -21.511  48.285  1.00  0.00     0.006 C 
BRANCH   6   7
ATOM      7  C   UNL     1      -4.101 -21.418  49.718  1.00  0.00     0.053 C 
BRANCH   7   8
ATOM      8  C   UNL     1      -4.910 -20.175  49.931  1.00  0.00     0.041 C 
ATOM      9  O   UNL     1      -4.727 -19.464  50.954  1.00  0.00    -0.550 OA
ATOM     10  O   UNL     1      -5.875 -19.809  49.003  1.00  0.00    -0.550 OA
ENDBRANCH   7   8
ENDBRANCH   6   7
ENDBRANCH   5   6
ENDBRANCH   4   5
ENDBRANCH   3   4
ENDBRANCH   2   3
ENDBRANCH   1   2
BRANCH   1  11
ATOM     11  C   UNL     1      -0.655 -24.217  50.694  1.00  0.00    -0.031 C 
ATOM     12  C   UNL     1       0.029 -23.061  50.635  1.00  0.00    -0.027 C 
BRANCH  12  13
ATOM     13  C   UNL     1      -0.348 -21.893  49.761  1.00  0.00     0.054 C 
BRANCH  13  14
ATOM     14  C   UNL     1       0.476 -21.876  48.505  1.00  0.00    -0.027 C 
ATOM     15  C   UNL     1      -0.054 -22.197  47.316  1.00  0.00    -0.031 C 
BRANCH  15  16
ATOM     16  C   UNL     1       0.748 -22.113  46.045  1.00  0.00     0.027 C 
BRANCH  16  17
ATOM     17  C   UNL     1       0.038 -21.233  45.010  1.00  0.00     0.004 C 
BRANCH  17  18
ATOM     18  C   UNL     1      -1.485 -21.290  45.188  1.00  0.00     0.000 C 
BRANCH  18  19
ATOM     19  C   UNL     1      -2.199 -20.092  44.544  1.00  0.00    -0.003 C 
ATOM     20  C   UNL     1      -3.699 -20.075  44.823  1.00  0.00     0.004 C 
ENDBRANCH  18  19
ENDBRANCH  17  18
ENDBRANCH  16  17
ENDBRANCH  15  16
ENDBRANCH  13  14
ENDBRANCH  12  13
ENDBRANCH   1  11
TORSDOF 14
ENDMDL
MODEL 8
REMARK VINA RESULT:    -5.114      2.125      4.116
REMARK INTER + INTRA:         -11.462
REMARK INTER:                  -8.552
REMARK INTRA:                  -2.910
REMARK UNBOUND:                -2.163
REMARK SMILES CCCCCC=CCC=CCCCCCCCC(=O)[O-]
REMARK SMILES IDX 11 1 12 2 13 3 14 4 15 5 16 6 17 7 18 8 19 9 20 10 10 11
REMARK SMILES IDX 9 12 8 13 7 14 6 15 5 16 4 17 3 18 2 19 1 20
REMARK H PARENT
REMARK Flexibility Score: inf
ROOT
ATOM      1  C   UNL     1      -1.715 -24.801  48.747  1.00  0.00     0.027 C 
ENDROOT
BRANCH   1   2
ATOM      2  C   UNL     1      -3.210 -24.837  48.386  1.00  0.00     0.004 C 
BRANCH   2   3
ATOM      3  C   UNL     1      -4.136 -24.712  49.608  1.00  0.00     0.000 C 
BRANCH   3   4
ATOM      4  C   UNL     1      -5.268 -23.693  49.385  1.00  0.00     0.000 C 
BRANCH   4   5
ATOM      5  C   UNL     1      -5.049 -22.831  48.129  1.00  0.00     0.000 C 
BRANCH   5   6
ATOM      6  C   UNL     1      -4.965 -21.328  48.456  1.00  0.00     0.006 C 
BRANCH   6   7
ATOM      7  C   UNL     1      -5.595 -20.990  49.816  1.00  0.00     0.053 C 
BRANCH   7   8
ATOM      8  C   UNL     1      -4.605 -20.376  50.757  1.00  0.00     0.041 C 
ATOM      9  O   UNL     1      -4.802 -19.223  51.226  1.00  0.00    -0.550 OA
ATOM     10  O   UNL     1      -3.458 -21.074  51.109  1.00  0.00    -0.550 OA
ENDBRANCH   7   8
ENDBRANCH   6   7
ENDBRANCH   5   6
ENDBRANCH   4   5
ENDBRANCH   3   4
ENDBRANCH   2   3
ENDBRANCH   1   2
BRANCH   1  11
ATOM     11  C   UNL     1      -1.371 -23.595  49.586  1.00  0.00    -0.031 C 
ATOM     12  C   UNL     1      -0.859 -22.450  49.103  1.00  0.00    -0.027 C 
BRANCH  12  13
ATOM     13  C   UNL     1      -0.455 -22.237  47.667  1.00  0.00     0.054 C 
BRANCH  13  14
ATOM     14  C   UNL     1      -1.609 -21.714  46.858  1.00  0.00    -0.027 C 
ATOM     15  C   UNL     1      -2.071 -22.376  45.788  1.00  0.00    -0.031 C 
BRANCH  15  16
ATOM     16  C   UNL     1      -3.269 -21.894  45.018  1.00  0.00     0.027 C 
BRANCH  16  17
ATOM     17  C   UNL     1      -4.165 -23.070  44.610  1.00  0.00     0.004 C 
BRANCH  17  18
ATOM     18  C   UNL     1      -3.373 -24.384  44.587  1.00  0.00     0.000 C 
BRANCH  18  19
ATOM     19  C   UNL     1      -4.195 -25.576  45.102  1.00  0.00    -0.003 C 
ATOM     20  C   UNL     1      -3.354 -26.834  45.303  1.00  0.00     0.004 C 
ENDBRANCH  18  19
ENDBRANCH  17  18
ENDBRANCH  16  17
ENDBRANCH  15  16
ENDBRANCH  13  14
ENDBRANCH  12  13
ENDBRANCH   1  11
TORSDOF 14
ENDMDL
MODEL 9
REMARK VINA RESULT:    -5.091      2.200      4.160
REMARK INTER + INTRA:         -11.421
REMARK INTER:                  -8.568
REMARK INTRA:                  -2.853
REMARK UNBOUND:                -2.163
REMARK SMILES CCCCCC=CCC=CCCCCCCCC(=O)[O-]
REMARK SMILES IDX 11 1 12 2 13 3 14 4 15 5 16 6 17 7 18 8 19 9 20 10 10 11
REMARK SMILES IDX 9 12 8 13 7 14 6 15 5 16 4 17 3 18 2 19 1 20
REMARK H PARENT
REMARK Flexibility Score: inf
ROOT
ATOM      1  C   UNL     1      -4.287 -20.190  44.963  1.00  0.00     0.027 C 
ENDROOT
BRANCH   1   2
ATOM      2  C   UNL     1      -3.289 -21.361  44.953  1.00  0.00     0.004 C 
BRANCH   2   3
ATOM      3  C   UNL     1      -2.326 -21.352  46.152  1.00  0.00     0.000 C 
BRANCH   3   4
ATOM      4  C   UNL     1      -0.961 -21.978  45.813  1.00  0.00     0.000 C 
BRANCH   4   5
ATOM      5  C   UNL     1      -0.101 -22.236  47.063  1.00  0.00     0.000 C 
BRANCH   5   6
ATOM      6  C   UNL     1      -0.798 -21.782  48.359  1.00  0.00     0.006 C 
BRANCH   6   7
ATOM      7  C   UNL     1      -0.131 -22.365  49.615  1.00  0.00     0.053 C 
BRANCH   7   8
ATOM      8  C   UNL     1      -0.982 -23.409  50.270  1.00  0.00     0.041 C 
ATOM      9  O   UNL     1      -1.997 -23.076  50.938  1.00  0.00    -0.550 OA
ATOM     10  O   UNL     1      -0.648 -24.750  50.151  1.00  0.00    -0.550 OA
ENDBRANCH   7   8
ENDBRANCH   6   7
ENDBRANCH   5   6
ENDBRANCH   4   5
ENDBRANCH   3   4
ENDBRANCH   2   3
ENDBRANCH   1   2
BRANCH   1  11
ATOM     11  C   UNL     1      -5.702 -20.663  45.187  1.00  0.00    -0.031 C 
ATOM     12  C   UNL     1      -6.378 -20.527  46.340  1.00  0.00    -0.027 C 
BRANCH  12  13
ATOM     13  C   UNL     1      -5.788 -19.977  47.614  1.00  0.00     0.054 C 
BRANCH  13  14
ATOM     14  C   UNL     1      -5.281 -21.086  48.492  1.00  0.00    -0.027 C 
ATOM     15  C   UNL     1      -5.646 -22.360  48.293  1.00  0.00    -0.031 C 
BRANCH  15  16
ATOM     16  C   UNL     1      -5.086 -23.482  49.124  1.00  0.00     0.027 C 
BRANCH  16  17
ATOM     17  C   UNL     1      -3.980 -24.224  48.364  1.00  0.00     0.004 C 
BRANCH  17  18
ATOM     18  C   UNL     1      -4.344 -24.390  46.882  1.00  0.00     0.000 C 
BRANCH  18  19
ATOM     19  C   UNL     1      -3.218 -25.044  46.069  1.00  0.00    -0.003 C 
ATOM     20  C   UNL     1      -2.051 -25.507  46.936  1.00  0.00     0.004 C 
ENDBRANCH  18  19
ENDBRANCH  17  18
ENDBRANCH  16  17
ENDBRANCH  15  16
ENDBRANCH  13  14
ENDBRANCH  12  13
ENDBRANCH   1  11
TORSDOF 14
ENDMDL
