MODEL 1
REMARK VINA RESULT:    -7.826      0.000      0.000
REMARK INTER + INTRA:          -8.700
REMARK INTER:                  -8.512
REMARK INTRA:                  -0.188
REMARK UNBOUND:                -0.188
REMARK SMILES CC1(C)CC[C@]2(C(=O)[O-])CC[C@@]3(C)C(=CC[C@H]4[C@@]5(C)CC[C@H](O)C(C)(C)[C@H]5CC[C@@]43C)[C@@H]2C1
REMARK SMILES IDX 6 1 5 2 10 3 32 4 4 5 11 6 14 7 33 8 2 9 12 10 15 11 1 12
REMARK SMILES IDX 3 13 13 14 30 15 16 16 17 17 29 18 31 19 18 20 28 21 27 22
REMARK SMILES IDX 20 23 19 24 24 25 21 26 22 27 25 28 26 29 7 30 8 31 9 32
REMARK SMILES IDX 23 33
REMARK H PARENT 23 34
REMARK Flexibility Score: inf
ROOT
ATOM      1  C   UNL     1      98.978 -63.841 105.789  1.00  0.00     0.017 C 
ATOM      2  C   UNL     1     100.456 -64.374 105.778  1.00  0.00     0.014 C 
ATOM      3  C   UNL     1      98.055 -64.971 106.373  1.00  0.00     0.014 C 
ATOM      4  C   UNL     1      98.565 -63.373 104.326  1.00  0.00     0.028 C 
ATOM      5  C   UNL     1     101.342 -63.599 104.796  1.00  0.00     0.007 C 
ATOM      6  C   UNL     1      96.978 -65.489 105.412  1.00  0.00     0.013 C 
ATOM      7  C   UNL     1      97.069 -63.434 104.001  1.00  0.00    -0.064 C 
ATOM      8  C   UNL     1      99.367 -64.129 103.235  1.00  0.00     0.015 C 
ATOM      9  C   UNL     1     100.898 -63.833 103.320  1.00  0.00    -0.035 C 
ATOM     10  C   UNL     1      96.117 -64.357 104.767  1.00  0.00    -0.006 C 
ATOM     11  C   UNL     1      96.634 -62.698 102.952  1.00  0.00    -0.027 C 
ATOM     12  C   UNL     1     101.671 -65.030 102.724  1.00  0.00     0.011 C 
ATOM     13  C   UNL     1     101.239 -62.579 102.485  1.00  0.00     0.011 C 
ATOM     14  C   UNL     1      95.478 -63.524 105.926  1.00  0.00     0.017 C 
ATOM     15  C   UNL     1      95.002 -64.962 103.769  1.00  0.00    -0.020 C 
ATOM     16  C   UNL     1      95.384 -63.003 102.172  1.00  0.00     0.032 C 
ATOM     17  C   UNL     1      94.323 -63.807 102.957  1.00  0.00     0.006 C 
ATOM     18  C   UNL     1      93.868 -65.653 104.568  1.00  0.00     0.008 C 
ATOM     19  C   UNL     1      95.675 -65.976 102.792  1.00  0.00     0.012 C 
ATOM     20  C   UNL     1      92.974 -64.129 102.128  1.00  0.00    -0.025 C 
ATOM     21  C   UNL     1      92.870 -66.346 103.659  1.00  0.00     0.005 C 
ATOM     22  C   UNL     1      92.142 -65.400 102.660  1.00  0.00     0.003 C 
ATOM     23  C   UNL     1      93.245 -64.266 100.596  1.00  0.00     0.010 C 
ATOM     24  C   UNL     1      92.093 -62.840 102.298  1.00  0.00     0.012 C 
ATOM     25  C   UNL     1      91.367 -66.252 101.549  1.00  0.00    -0.006 C 
ATOM     26  C   UNL     1      91.999 -64.531  99.723  1.00  0.00     0.033 C 
ATOM     27  C   UNL     1      90.866 -65.346 100.390  1.00  0.00     0.120 C 
ATOM     28  C   UNL     1      92.222 -67.400 100.924  1.00  0.00     0.014 C 
ATOM     29  C   UNL     1      90.127 -66.936 102.189  1.00  0.00     0.014 C 
ENDROOT
BRANCH   1  30
ATOM     30  C   UNL     1      98.930 -62.657 106.760  1.00  0.00     0.048 C 
ATOM     31  O   UNL     1      98.565 -62.799 107.958  1.00  0.00    -0.550 OA
ATOM     32  O   UNL     1      99.348 -61.399 106.337  1.00  0.00    -0.550 OA
ENDBRANCH   1  30
BRANCH  27  33
ATOM     33  O   UNL     1      89.836 -64.499 100.839  1.00  0.00    -0.393 OA
ATOM     34  H   UNL     1      90.048 -63.582 100.518  1.00  0.00     0.210 HD
ENDBRANCH  27  33
TORSDOF 2
ENDMDL
MODEL 2
REMARK VINA RESULT:    -7.708      3.283      9.370
REMARK INTER + INTRA:          -8.573
REMARK INTER:                  -8.337
REMARK INTRA:                  -0.236
REMARK UNBOUND:                -0.188
REMARK SMILES CC1(C)CC[C@]2(C(=O)[O-])CC[C@@]3(C)C(=CC[C@H]4[C@@]5(C)CC[C@H](O)C(C)(C)[C@H]5CC[C@@]43C)[C@@H]2C1
REMARK SMILES IDX 6 1 5 2 10 3 32 4 4 5 11 6 14 7 33 8 2 9 12 10 15 11 1 12
REMARK SMILES IDX 3 13 13 14 30 15 16 16 17 17 29 18 31 19 18 20 28 21 27 22
REMARK SMILES IDX 20 23 19 24 24 25 21 26 22 27 25 28 26 29 7 30 8 31 9 32
REMARK SMILES IDX 23 33
REMARK H PARENT 23 34
REMARK Flexibility Score: inf
ROOT
ATOM      1  C   UNL     1      97.000 -64.146 105.821  1.00  0.00     0.017 C 
ATOM      2  C   UNL     1      95.512 -63.650 105.903  1.00  0.00     0.014 C 
ATOM      3  C   UNL     1      97.755 -63.642 107.104  1.00  0.00     0.014 C 
ATOM      4  C   UNL     1      97.657 -63.653 104.459  1.00  0.00     0.028 C 
ATOM      5  C   UNL     1      94.833 -63.633 104.529  1.00  0.00     0.007 C 
ATOM      6  C   UNL     1      98.933 -62.697 106.834  1.00  0.00     0.013 C 
ATOM      7  C   UNL     1      99.180 -63.474 104.476  1.00  0.00    -0.064 C 
ATOM      8  C   UNL     1      96.986 -62.356 103.937  1.00  0.00     0.015 C 
ATOM      9  C   UNL     1      95.481 -62.574 103.585  1.00  0.00    -0.035 C 
ATOM     10  C   UNL     1      99.947 -63.246 105.781  1.00  0.00    -0.006 C 
ATOM     11  C   UNL     1      99.811 -63.445 103.280  1.00  0.00    -0.027 C 
ATOM     12  C   UNL     1      94.736 -61.227 103.721  1.00  0.00     0.011 C 
ATOM     13  C   UNL     1      95.345 -63.051 102.122  1.00  0.00     0.011 C 
ATOM     14  C   UNL     1     100.452 -64.638 106.285  1.00  0.00     0.017 C 
ATOM     15  C   UNL     1     101.163 -62.212 105.541  1.00  0.00    -0.020 C 
ATOM     16  C   UNL     1     101.144 -62.787 103.050  1.00  0.00     0.032 C 
ATOM     17  C   UNL     1     102.024 -62.670 104.315  1.00  0.00     0.006 C 
ATOM     18  C   UNL     1     102.119 -62.196 106.760  1.00  0.00     0.008 C 
ATOM     19  C   UNL     1     100.586 -60.784 105.283  1.00  0.00     0.012 C 
ATOM     20  C   UNL     1     103.462 -61.973 104.072  1.00  0.00    -0.025 C 
ATOM     21  C   UNL     1     103.200 -61.139 106.623  1.00  0.00     0.005 C 
ATOM     22  C   UNL     1     104.126 -61.320 105.385  1.00  0.00     0.003 C 
ATOM     23  C   UNL     1     103.418 -60.926 102.915  1.00  0.00     0.010 C 
ATOM     24  C   UNL     1     104.382 -63.140 103.566  1.00  0.00     0.012 C 
ATOM     25  C   UNL     1     105.008 -60.006 105.152  1.00  0.00    -0.006 C 
ATOM     26  C   UNL     1     104.764 -60.243 102.587  1.00  0.00     0.033 C 
ATOM     27  C   UNL     1     105.732 -60.048 103.778  1.00  0.00     0.120 C 
ATOM     28  C   UNL     1     104.191 -58.677 105.222  1.00  0.00     0.014 C 
ATOM     29  C   UNL     1     106.094 -59.905 106.259  1.00  0.00     0.014 C 
ENDROOT
BRANCH   1  30
ATOM     30  C   UNL     1      96.971 -65.677 105.874  1.00  0.00     0.048 C 
ATOM     31  O   UNL     1      97.404 -66.380 104.921  1.00  0.00    -0.550 OA
ATOM     32  O   UNL     1      96.508 -66.321 107.017  1.00  0.00    -0.550 OA
ENDBRANCH   1  30
BRANCH  27  33
ATOM     33  O   UNL     1     106.731 -61.039 103.779  1.00  0.00    -0.393 OA
ATOM     34  H   UNL     1     107.208 -60.978 102.909  1.00  0.00     0.210 HD
ENDBRANCH  27  33
TORSDOF 2
ENDMDL
MODEL 3
REMARK VINA RESULT:    -7.504      3.196      5.506
REMARK INTER + INTRA:          -8.351
REMARK INTER:                  -8.144
REMARK INTRA:                  -0.206
REMARK UNBOUND:                -0.188
REMARK SMILES CC1(C)CC[C@]2(C(=O)[O-])CC[C@@]3(C)C(=CC[C@H]4[C@@]5(C)CC[C@H](O)C(C)(C)[C@H]5CC[C@@]43C)[C@@H]2C1
REMARK SMILES IDX 6 1 5 2 10 3 32 4 4 5 11 6 14 7 33 8 2 9 12 10 15 11 1 12
REMARK SMILES IDX 3 13 13 14 30 15 16 16 17 17 29 18 31 19 18 20 28 21 27 22
REMARK SMILES IDX 20 23 19 24 24 25 21 26 22 27 25 28 26 29 7 30 8 31 9 32
REMARK SMILES IDX 23 33
REMARK H PARENT 23 34
REMARK Flexibility Score: inf
ROOT
ATOM      1  C   UNL     1      94.998 -62.667 103.094  1.00  0.00     0.017 C 
ATOM      2  C   UNL     1      95.526 -61.309 102.509  1.00  0.00     0.014 C 
ATOM      3  C   UNL     1      95.599 -63.837 102.235  1.00  0.00     0.014 C 
ATOM      4  C   UNL     1      93.407 -62.655 103.130  1.00  0.00     0.028 C 
ATOM      5  C   UNL     1      94.643 -60.123 102.915  1.00  0.00     0.007 C 
ATOM      6  C   UNL     1      94.565 -64.707 101.510  1.00  0.00     0.013 C 
ATOM      7  C   UNL     1      92.725 -64.025 103.049  1.00  0.00    -0.064 C 
ATOM      8  C   UNL     1      92.818 -61.714 102.046  1.00  0.00     0.015 C 
ATOM      9  C   UNL     1      93.224 -60.225 102.277  1.00  0.00    -0.035 C 
ATOM     10  C   UNL     1      93.431 -65.240 102.442  1.00  0.00    -0.006 C 
ATOM     11  C   UNL     1      91.438 -64.099 103.463  1.00  0.00    -0.027 C 
ATOM     12  C   UNL     1      93.206 -59.486 100.921  1.00  0.00     0.011 C 
ATOM     13  C   UNL     1      92.201 -59.539 103.211  1.00  0.00     0.011 C 
ATOM     14  C   UNL     1      94.106 -66.030 103.611  1.00  0.00     0.017 C 
ATOM     15  C   UNL     1      92.377 -66.149 101.625  1.00  0.00    -0.020 C 
ATOM     16  C   UNL     1      90.468 -65.152 103.004  1.00  0.00     0.032 C 
ATOM     17  C   UNL     1      91.130 -66.462 102.521  1.00  0.00     0.006 C 
ATOM     18  C   UNL     1      93.001 -67.518 101.258  1.00  0.00     0.008 C 
ATOM     19  C   UNL     1      91.929 -65.392 100.336  1.00  0.00     0.012 C 
ATOM     20  C   UNL     1      90.092 -67.602 102.036  1.00  0.00    -0.025 C 
ATOM     21  C   UNL     1      92.084 -68.346 100.377  1.00  0.00     0.005 C 
ATOM     22  C   UNL     1      90.708 -68.689 101.021  1.00  0.00     0.003 C 
ATOM     23  C   UNL     1      88.785 -66.990 101.439  1.00  0.00     0.010 C 
ATOM     24  C   UNL     1      89.664 -68.331 103.359  1.00  0.00     0.012 C 
ATOM     25  C   UNL     1      89.707 -69.274  99.918  1.00  0.00    -0.006 C 
ATOM     26  C   UNL     1      87.718 -68.012 100.990  1.00  0.00     0.033 C 
ATOM     27  C   UNL     1      88.255 -69.364 100.465  1.00  0.00     0.120 C 
ATOM     28  C   UNL     1      89.670 -68.444  98.596  1.00  0.00     0.014 C 
ATOM     29  C   UNL     1      90.155 -70.707  99.517  1.00  0.00     0.014 C 
ENDROOT
BRANCH   1  30
ATOM     30  C   UNL     1      95.560 -62.800 104.513  1.00  0.00     0.048 C 
ATOM     31  O   UNL     1      94.828 -63.125 105.487  1.00  0.00    -0.550 OA
ATOM     32  O   UNL     1      96.920 -62.612 104.738  1.00  0.00    -0.550 OA
ENDBRANCH   1  30
BRANCH  27  33
ATOM     33  O   UNL     1      88.165 -70.358 101.457  1.00  0.00    -0.393 OA
ATOM     34  H   UNL     1      87.474 -70.063 102.108  1.00  0.00     0.210 HD
ENDBRANCH  27  33
TORSDOF 2
ENDMDL
MODEL 4
REMARK VINA RESULT:    -7.242      2.049      3.787
REMARK INTER + INTRA:          -8.065
REMARK INTER:                  -7.826
REMARK INTRA:                  -0.240
REMARK UNBOUND:                -0.188
REMARK SMILES CC1(C)CC[C@]2(C(=O)[O-])CC[C@@]3(C)C(=CC[C@H]4[C@@]5(C)CC[C@H](O)C(C)(C)[C@H]5CC[C@@]43C)[C@@H]2C1
REMARK SMILES IDX 6 1 5 2 10 3 32 4 4 5 11 6 14 7 33 8 2 9 12 10 15 11 1 12
REMARK SMILES IDX 3 13 13 14 30 15 16 16 17 17 29 18 31 19 18 20 28 21 27 22
REMARK SMILES IDX 20 23 19 24 24 25 21 26 22 27 25 28 26 29 7 30 8 31 9 32
REMARK SMILES IDX 23 33
REMARK H PARENT 23 34
REMARK Flexibility Score: inf
ROOT
ATOM      1  C   UNL     1      96.906 -63.477 105.393  1.00  0.00     0.017 C 
ATOM      2  C   UNL     1      97.061 -63.641 106.947  1.00  0.00     0.014 C 
ATOM      3  C   UNL     1      95.699 -62.507 105.121  1.00  0.00     0.014 C 
ATOM      4  C   UNL     1      96.740 -64.906 104.715  1.00  0.00     0.028 C 
ATOM      5  C   UNL     1      97.836 -64.910 107.319  1.00  0.00     0.007 C 
ATOM      6  C   UNL     1      94.537 -63.123 104.333  1.00  0.00     0.013 C 
ATOM      7  C   UNL     1      95.970 -64.934 103.390  1.00  0.00    -0.064 C 
ATOM      8  C   UNL     1      96.124 -65.937 105.697  1.00  0.00     0.015 C 
ATOM      9  C   UNL     1      97.045 -66.196 106.931  1.00  0.00    -0.035 C 
ATOM     10  C   UNL     1      94.981 -63.828 103.012  1.00  0.00    -0.006 C 
ATOM     11  C   UNL     1      96.140 -66.019 102.600  1.00  0.00    -0.027 C 
ATOM     12  C   UNL     1      96.170 -66.651 108.120  1.00  0.00     0.011 C 
ATOM     13  C   UNL     1      98.047 -67.328 106.611  1.00  0.00     0.011 C 
ATOM     14  C   UNL     1      95.750 -62.778 102.145  1.00  0.00     0.017 C 
ATOM     15  C   UNL     1      93.717 -64.453 102.226  1.00  0.00    -0.020 C 
ATOM     16  C   UNL     1      95.139 -66.476 101.574  1.00  0.00     0.032 C 
ATOM     17  C   UNL     1      94.212 -65.358 101.046  1.00  0.00     0.006 C 
ATOM     18  C   UNL     1      92.861 -63.333 101.584  1.00  0.00     0.008 C 
ATOM     19  C   UNL     1      92.855 -65.296 103.218  1.00  0.00     0.012 C 
ATOM     20  C   UNL     1      93.141 -65.840  99.936  1.00  0.00    -0.025 C 
ATOM     21  C   UNL     1      91.594 -63.877 100.949  1.00  0.00     0.005 C 
ATOM     22  C   UNL     1      91.836 -64.906  99.806  1.00  0.00     0.003 C 
ATOM     23  C   UNL     1      92.718 -67.329 100.136  1.00  0.00     0.010 C 
ATOM     24  C   UNL     1      93.934 -65.792  98.581  1.00  0.00     0.012 C 
ATOM     25  C   UNL     1      90.470 -65.649  99.428  1.00  0.00    -0.006 C 
ATOM     26  C   UNL     1      91.728 -67.885  99.089  1.00  0.00     0.033 C 
ATOM     27  C   UNL     1      90.729 -66.865  98.494  1.00  0.00     0.120 C 
ATOM     28  C   UNL     1      89.664 -66.158 100.664  1.00  0.00     0.014 C 
ATOM     29  C   UNL     1      89.533 -64.663  98.676  1.00  0.00     0.014 C 
ENDROOT
BRANCH   1  30
ATOM     30  C   UNL     1      98.176 -62.790 104.880  1.00  0.00     0.048 C 
ATOM     31  O   UNL     1      98.999 -63.391 104.139  1.00  0.00    -0.550 OA
ATOM     32  O   UNL     1      98.411 -61.454 105.188  1.00  0.00    -0.550 OA
ENDBRANCH   1  30
BRANCH  27  33
ATOM     33  O   UNL     1      91.153 -66.428  97.226  1.00  0.00    -0.393 OA
ATOM     34  H   UNL     1      91.346 -67.240  96.684  1.00  0.00     0.210 HD
ENDBRANCH  27  33
TORSDOF 2
ENDMDL
MODEL 5
REMARK VINA RESULT:    -7.231      1.544      2.041
REMARK INTER + INTRA:          -8.053
REMARK INTER:                  -7.850
REMARK INTRA:                  -0.203
REMARK UNBOUND:                -0.188
REMARK SMILES CC1(C)CC[C@]2(C(=O)[O-])CC[C@@]3(C)C(=CC[C@H]4[C@@]5(C)CC[C@H](O)C(C)(C)[C@H]5CC[C@@]43C)[C@@H]2C1
REMARK SMILES IDX 6 1 5 2 10 3 32 4 4 5 11 6 14 7 33 8 2 9 12 10 15 11 1 12
REMARK SMILES IDX 3 13 13 14 30 15 16 16 17 17 29 18 31 19 18 20 28 21 27 22
REMARK SMILES IDX 20 23 19 24 24 25 21 26 22 27 25 28 26 29 7 30 8 31 9 32
REMARK SMILES IDX 23 33
REMARK H PARENT 23 34
REMARK Flexibility Score: inf
ROOT
ATOM      1  C   UNL     1      99.404 -64.973 105.954  1.00  0.00     0.017 C 
ATOM      2  C   UNL     1     100.921 -64.681 105.670  1.00  0.00     0.014 C 
ATOM      3  C   UNL     1      99.025 -66.324 105.245  1.00  0.00     0.014 C 
ATOM      4  C   UNL     1      98.521 -63.736 105.483  1.00  0.00     0.028 C 
ATOM      5  C   UNL     1     101.270 -63.200 105.862  1.00  0.00     0.007 C 
ATOM      6  C   UNL     1      97.941 -66.207 104.166  1.00  0.00     0.013 C 
ATOM      7  C   UNL     1      97.075 -64.057 105.088  1.00  0.00    -0.064 C 
ATOM      8  C   UNL     1      99.210 -62.943 104.342  1.00  0.00     0.015 C 
ATOM      9  C   UNL     1     100.559 -62.305 104.801  1.00  0.00    -0.035 C 
ATOM     10  C   UNL     1      96.656 -65.462 104.647  1.00  0.00    -0.006 C 
ATOM     11  C   UNL     1      96.198 -63.027 105.065  1.00  0.00    -0.027 C 
ATOM     12  C   UNL     1     101.473 -62.130 103.568  1.00  0.00     0.011 C 
ATOM     13  C   UNL     1     100.301 -60.909 105.409  1.00  0.00     0.011 C 
ATOM     14  C   UNL     1      96.113 -66.213 105.908  1.00  0.00     0.017 C 
ATOM     15  C   UNL     1      95.553 -65.374 103.473  1.00  0.00    -0.020 C 
ATOM     16  C   UNL     1      94.938 -63.015 104.244  1.00  0.00     0.032 C 
ATOM     17  C   UNL     1      94.388 -64.417 103.900  1.00  0.00     0.006 C 
ATOM     18  C   UNL     1      94.906 -66.759 103.221  1.00  0.00     0.008 C 
ATOM     19  C   UNL     1      96.226 -64.843 102.168  1.00  0.00     0.012 C 
ATOM     20  C   UNL     1      93.028 -64.411 103.027  1.00  0.00    -0.025 C 
ATOM     21  C   UNL     1      93.959 -66.740 102.036  1.00  0.00     0.005 C 
ATOM     22  C   UNL     1      92.762 -65.755 102.182  1.00  0.00     0.003 C 
ATOM     23  C   UNL     1      92.936 -63.162 102.093  1.00  0.00     0.010 C 
ATOM     24  C   UNL     1      91.882 -64.245 104.087  1.00  0.00     0.012 C 
ATOM     25  C   UNL     1      92.017 -65.571 100.778  1.00  0.00    -0.006 C 
ATOM     26  C   UNL     1      91.645 -63.055 101.254  1.00  0.00     0.033 C 
ATOM     27  C   UNL     1      91.001 -64.396 100.827  1.00  0.00     0.120 C 
ATOM     28  C   UNL     1      92.984 -65.319  99.578  1.00  0.00     0.014 C 
ATOM     29  C   UNL     1      91.229 -66.866 100.434  1.00  0.00     0.014 C 
ENDROOT
BRANCH   1  30
ATOM     30  C   UNL     1      99.258 -65.187 107.464  1.00  0.00     0.048 C 
ATOM     31  O   UNL     1      98.340 -64.630 108.124  1.00  0.00    -0.550 OA
ATOM     32  O   UNL     1     100.118 -66.057 108.125  1.00  0.00    -0.550 OA
ENDBRANCH   1  30
BRANCH  27  33
ATOM     33  O   UNL     1      89.916 -64.719 101.662  1.00  0.00    -0.393 OA
ATOM     34  H   UNL     1      89.721 -65.685 101.530  1.00  0.00     0.210 HD
ENDBRANCH  27  33
TORSDOF 2
ENDMDL
MODEL 6
REMARK VINA RESULT:    -7.200      2.599      8.944
REMARK INTER + INTRA:          -8.020
REMARK INTER:                  -7.872
REMARK INTRA:                  -0.148
REMARK UNBOUND:                -0.188
REMARK SMILES CC1(C)CC[C@]2(C(=O)[O-])CC[C@@]3(C)C(=CC[C@H]4[C@@]5(C)CC[C@H](O)C(C)(C)[C@H]5CC[C@@]43C)[C@@H]2C1
REMARK SMILES IDX 6 1 5 2 10 3 32 4 4 5 11 6 14 7 33 8 2 9 12 10 15 11 1 12
REMARK SMILES IDX 3 13 13 14 30 15 16 16 17 17 29 18 31 19 18 20 28 21 27 22
REMARK SMILES IDX 20 23 19 24 24 25 21 26 22 27 25 28 26 29 7 30 8 31 9 32
REMARK SMILES IDX 23 33
REMARK H PARENT 23 34
REMARK Flexibility Score: inf
ROOT
ATOM      1  C   UNL     1      88.883 -68.379 102.060  1.00  0.00     0.017 C 
ATOM      2  C   UNL     1      88.032 -68.706 100.781  1.00  0.00     0.014 C 
ATOM      3  C   UNL     1      88.640 -66.873 102.437  1.00  0.00     0.014 C 
ATOM      4  C   UNL     1      90.411 -68.731 101.793  1.00  0.00     0.028 C 
ATOM      5  C   UNL     1      88.556 -69.941 100.038  1.00  0.00     0.007 C 
ATOM      6  C   UNL     1      89.891 -65.985 102.399  1.00  0.00     0.013 C 
ATOM      7  C   UNL     1      91.435 -67.933 102.609  1.00  0.00    -0.064 C 
ATOM      8  C   UNL     1      90.764 -68.644 100.286  1.00  0.00     0.015 C 
ATOM      9  C   UNL     1      89.971 -69.685  99.435  1.00  0.00    -0.035 C 
ATOM     10  C   UNL     1      91.095 -66.564 103.206  1.00  0.00    -0.006 C 
ATOM     11  C   UNL     1      92.681 -68.450 102.712  1.00  0.00    -0.027 C 
ATOM     12  C   UNL     1      89.836 -69.153  97.992  1.00  0.00     0.011 C 
ATOM     13  C   UNL     1      90.746 -71.021  99.382  1.00  0.00     0.011 C 
ATOM     14  C   UNL     1      90.617 -66.794 104.678  1.00  0.00     0.017 C 
ATOM     15  C   UNL     1      92.378 -65.588 103.131  1.00  0.00    -0.020 C 
ATOM     16  C   UNL     1      93.910 -67.630 102.994  1.00  0.00     0.032 C 
ATOM     17  C   UNL     1      93.634 -66.302 103.735  1.00  0.00     0.006 C 
ATOM     18  C   UNL     1      92.150 -64.315 103.985  1.00  0.00     0.008 C 
ATOM     19  C   UNL     1      92.650 -65.202 101.642  1.00  0.00     0.012 C 
ATOM     20  C   UNL     1      94.952 -65.422 104.051  1.00  0.00    -0.025 C 
ATOM     21  C   UNL     1      93.281 -63.316 103.833  1.00  0.00     0.005 C 
ATOM     22  C   UNL     1      94.677 -63.850 104.267  1.00  0.00     0.003 C 
ATOM     23  C   UNL     1      96.067 -65.630 102.979  1.00  0.00     0.010 C 
ATOM     24  C   UNL     1      95.516 -66.025 105.386  1.00  0.00     0.012 C 
ATOM     25  C   UNL     1      95.832 -62.857 103.776  1.00  0.00    -0.006 C 
ATOM     26  C   UNL     1      97.381 -64.857 103.229  1.00  0.00     0.033 C 
ATOM     27  C   UNL     1      97.238 -63.496 103.951  1.00  0.00     0.120 C 
ATOM     28  C   UNL     1      95.690 -62.412 102.286  1.00  0.00     0.014 C 
ATOM     29  C   UNL     1      95.793 -61.555 104.623  1.00  0.00     0.014 C 
ENDROOT
BRANCH   1  30
ATOM     30  C   UNL     1      88.332 -69.236 103.203  1.00  0.00     0.048 C 
ATOM     31  O   UNL     1      88.537 -70.479 103.256  1.00  0.00    -0.550 OA
ATOM     32  O   UNL     1      87.631 -68.634 104.243  1.00  0.00    -0.550 OA
ENDBRANCH   1  30
BRANCH  27  33
ATOM     33  O   UNL     1      97.557 -63.616 105.316  1.00  0.00    -0.393 OA
ATOM     34  H   UNL     1      96.872 -63.105 105.824  1.00  0.00     0.210 HD
ENDBRANCH  27  33
TORSDOF 2
ENDMDL
MODEL 7
REMARK VINA RESULT:    -7.170      1.641      8.153
REMARK INTER + INTRA:          -7.987
REMARK INTER:                  -7.854
REMARK INTRA:                  -0.132
REMARK UNBOUND:                -0.188
REMARK SMILES CC1(C)CC[C@]2(C(=O)[O-])CC[C@@]3(C)C(=CC[C@H]4[C@@]5(C)CC[C@H](O)C(C)(C)[C@H]5CC[C@@]43C)[C@@H]2C1
REMARK SMILES IDX 6 1 5 2 10 3 32 4 4 5 11 6 14 7 33 8 2 9 12 10 15 11 1 12
REMARK SMILES IDX 3 13 13 14 30 15 16 16 17 17 29 18 31 19 18 20 28 21 27 22
REMARK SMILES IDX 20 23 19 24 24 25 21 26 22 27 25 28 26 29 7 30 8 31 9 32
REMARK SMILES IDX 23 33
REMARK H PARENT 23 34
REMARK Flexibility Score: inf
ROOT
ATOM      1  C   UNL     1      91.113 -66.424 101.801  1.00  0.00     0.017 C 
ATOM      2  C   UNL     1      90.782 -67.082 100.414  1.00  0.00     0.014 C 
ATOM      3  C   UNL     1      91.346 -64.887 101.570  1.00  0.00     0.014 C 
ATOM      4  C   UNL     1      92.355 -67.165 102.464  1.00  0.00     0.028 C 
ATOM      5  C   UNL     1      91.032 -68.595 100.418  1.00  0.00     0.007 C 
ATOM      6  C   UNL     1      92.747 -64.382 101.935  1.00  0.00     0.013 C 
ATOM      7  C   UNL     1      93.196 -66.326 103.433  1.00  0.00    -0.064 C 
ATOM      8  C   UNL     1      93.277 -67.806 101.394  1.00  0.00     0.015 C 
ATOM      9  C   UNL     1      92.548 -68.922 100.582  1.00  0.00    -0.035 C 
ATOM     10  C   UNL     1      93.208 -64.796 103.369  1.00  0.00    -0.006 C 
ATOM     11  C   UNL     1      93.994 -66.995 104.297  1.00  0.00    -0.027 C 
ATOM     12  C   UNL     1      93.210 -69.042  99.192  1.00  0.00     0.011 C 
ATOM     13  C   UNL     1      92.696 -70.280 101.303  1.00  0.00     0.011 C 
ATOM     14  C   UNL     1      92.141 -64.270 104.384  1.00  0.00     0.017 C 
ATOM     15  C   UNL     1      94.685 -64.235 103.696  1.00  0.00    -0.020 C 
ATOM     16  C   UNL     1      95.224 -66.407 104.932  1.00  0.00     0.032 C 
ATOM     17  C   UNL     1      95.217 -64.865 105.029  1.00  0.00     0.006 C 
ATOM     18  C   UNL     1      94.652 -62.702 103.925  1.00  0.00     0.008 C 
ATOM     19  C   UNL     1      95.648 -64.588 102.519  1.00  0.00     0.012 C 
ATOM     20  C   UNL     1      96.532 -64.228 105.719  1.00  0.00    -0.025 C 
ATOM     21  C   UNL     1      96.043 -62.122 104.107  1.00  0.00     0.005 C 
ATOM     22  C   UNL     1      96.827 -62.696 105.323  1.00  0.00     0.003 C 
ATOM     23  C   UNL     1      97.803 -65.101 105.476  1.00  0.00     0.010 C 
ATOM     24  C   UNL     1      96.242 -64.305 107.260  1.00  0.00     0.012 C 
ATOM     25  C   UNL     1      98.368 -62.272 105.242  1.00  0.00    -0.006 C 
ATOM     26  C   UNL     1      99.099 -64.586 106.140  1.00  0.00     0.033 C 
ATOM     27  C   UNL     1      99.224 -63.050 106.280  1.00  0.00     0.120 C 
ATOM     28  C   UNL     1      99.010 -62.487 103.835  1.00  0.00     0.014 C 
ATOM     29  C   UNL     1      98.507 -60.755 105.553  1.00  0.00     0.014 C 
ENDROOT
BRANCH   1  30
ATOM     30  C   UNL     1      89.871 -66.576 102.684  1.00  0.00     0.048 C 
ATOM     31  O   UNL     1      88.707 -66.488 102.208  1.00  0.00    -0.550 OA
ATOM     32  O   UNL     1      90.015 -66.870 104.036  1.00  0.00    -0.550 OA
ENDBRANCH   1  30
BRANCH  27  33
ATOM     33  O   UNL     1      98.904 -62.638 107.587  1.00  0.00    -0.393 OA
ATOM     34  H   UNL     1      97.985 -62.964 107.782  1.00  0.00     0.210 HD
ENDBRANCH  27  33
TORSDOF 2
ENDMDL
MODEL 8
REMARK VINA RESULT:    -7.079      3.753      6.930
REMARK INTER + INTRA:          -7.888
REMARK INTER:                  -7.643
REMARK INTRA:                  -0.245
REMARK UNBOUND:                -0.188
REMARK SMILES CC1(C)CC[C@]2(C(=O)[O-])CC[C@@]3(C)C(=CC[C@H]4[C@@]5(C)CC[C@H](O)C(C)(C)[C@H]5CC[C@@]43C)[C@@H]2C1
REMARK SMILES IDX 6 1 5 2 10 3 32 4 4 5 11 6 14 7 33 8 2 9 12 10 15 11 1 12
REMARK SMILES IDX 3 13 13 14 30 15 16 16 17 17 29 18 31 19 18 20 28 21 27 22
REMARK SMILES IDX 20 23 19 24 24 25 21 26 22 27 25 28 26 29 7 30 8 31 9 32
REMARK SMILES IDX 23 33
REMARK H PARENT 23 34
REMARK Flexibility Score: inf
ROOT
ATOM      1  C   UNL     1     105.416 -61.740 105.264  1.00  0.00     0.017 C 
ATOM      2  C   UNL     1     106.433 -60.958 104.358  1.00  0.00     0.014 C 
ATOM      3  C   UNL     1     105.060 -63.092 104.546  1.00  0.00     0.014 C 
ATOM      4  C   UNL     1     104.150 -60.825 105.564  1.00  0.00     0.028 C 
ATOM      5  C   UNL     1     106.460 -59.459 104.681  1.00  0.00     0.007 C 
ATOM      6  C   UNL     1     103.581 -63.261 104.180  1.00  0.00     0.013 C 
ATOM      7  C   UNL     1     102.841 -61.568 105.854  1.00  0.00    -0.064 C 
ATOM      8  C   UNL     1     103.919 -59.781 104.441  1.00  0.00     0.015 C 
ATOM      9  C   UNL     1     105.106 -58.774 104.321  1.00  0.00    -0.035 C 
ATOM     10  C   UNL     1     102.606 -63.002 105.372  1.00  0.00    -0.006 C 
ATOM     11  C   UNL     1     101.864 -60.875 106.486  1.00  0.00    -0.027 C 
ATOM     12  C   UNL     1     105.160 -58.235 102.875  1.00  0.00     0.011 C 
ATOM     13  C   UNL     1     104.879 -57.577 105.271  1.00  0.00     0.011 C 
ATOM     14  C   UNL     1     103.008 -63.966 106.536  1.00  0.00     0.017 C 
ATOM     15  C   UNL     1     101.067 -63.197 104.926  1.00  0.00    -0.020 C 
ATOM     16  C   UNL     1     100.402 -61.216 106.399  1.00  0.00     0.032 C 
ATOM     17  C   UNL     1     100.111 -62.696 106.062  1.00  0.00     0.006 C 
ATOM     18  C   UNL     1     100.742 -64.698 104.718  1.00  0.00     0.008 C 
ATOM     19  C   UNL     1     100.801 -62.395 103.613  1.00  0.00     0.012 C 
ATOM     20  C   UNL     1      98.542 -63.071 105.977  1.00  0.00    -0.025 C 
ATOM     21  C   UNL     1      99.342 -64.908 104.173  1.00  0.00     0.005 C 
ATOM     22  C   UNL     1      98.205 -64.372 105.091  1.00  0.00     0.003 C 
ATOM     23  C   UNL     1      97.674 -61.861 105.506  1.00  0.00     0.010 C 
ATOM     24  C   UNL     1      98.125 -63.350 107.465  1.00  0.00     0.012 C 
ATOM     25  C   UNL     1      96.814 -64.348 104.300  1.00  0.00    -0.006 C 
ATOM     26  C   UNL     1      96.153 -62.121 105.440  1.00  0.00     0.033 C 
ATOM     27  C   UNL     1      95.728 -63.567 105.091  1.00  0.00     0.120 C 
ATOM     28  C   UNL     1      96.910 -63.721 102.873  1.00  0.00     0.014 C 
ATOM     29  C   UNL     1      96.304 -65.802 104.101  1.00  0.00     0.014 C 
ENDROOT
BRANCH   1  30
ATOM     30  C   UNL     1     106.143 -62.086 106.568  1.00  0.00     0.048 C 
ATOM     31  O   UNL     1     107.099 -62.907 106.594  1.00  0.00    -0.550 OA
ATOM     32  O   UNL     1     105.784 -61.446 107.750  1.00  0.00    -0.550 OA
ENDBRANCH   1  30
BRANCH  27  33
ATOM     33  O   UNL     1      95.360 -64.275 106.250  1.00  0.00    -0.393 OA
ATOM     34  H   UNL     1      96.155 -64.294 106.848  1.00  0.00     0.210 HD
ENDBRANCH  27  33
TORSDOF 2
ENDMDL
MODEL 9
REMARK VINA RESULT:    -6.987      1.639      8.401
REMARK INTER + INTRA:          -7.788
REMARK INTER:                  -7.545
REMARK INTRA:                  -0.243
REMARK UNBOUND:                -0.188
REMARK SMILES CC1(C)CC[C@]2(C(=O)[O-])CC[C@@]3(C)C(=CC[C@H]4[C@@]5(C)CC[C@H](O)C(C)(C)[C@H]5CC[C@@]43C)[C@@H]2C1
REMARK SMILES IDX 6 1 5 2 10 3 32 4 4 5 11 6 14 7 33 8 2 9 12 10 15 11 1 12
REMARK SMILES IDX 3 13 13 14 30 15 16 16 17 17 29 18 31 19 18 20 28 21 27 22
REMARK SMILES IDX 20 23 19 24 24 25 21 26 22 27 25 28 26 29 7 30 8 31 9 32
REMARK SMILES IDX 23 33
REMARK H PARENT 23 34
REMARK Flexibility Score: inf
ROOT
ATOM      1  C   UNL     1      91.781 -66.455 100.719  1.00  0.00     0.017 C 
ATOM      2  C   UNL     1      90.751 -67.633 100.572  1.00  0.00     0.014 C 
ATOM      3  C   UNL     1      93.200 -66.994 100.312  1.00  0.00     0.014 C 
ATOM      4  C   UNL     1      91.720 -65.869 102.196  1.00  0.00     0.028 C 
ATOM      5  C   UNL     1      89.480 -67.394 101.396  1.00  0.00     0.007 C 
ATOM      6  C   UNL     1      94.255 -66.945 101.425  1.00  0.00     0.013 C 
ATOM      7  C   UNL     1      93.006 -65.209 102.707  1.00  0.00    -0.064 C 
ATOM      8  C   UNL     1      91.240 -66.934 103.215  1.00  0.00     0.015 C 
ATOM      9  C   UNL     1      89.781 -67.409 102.926  1.00  0.00    -0.035 C 
ATOM     10  C   UNL     1      94.375 -65.549 102.114  1.00  0.00    -0.006 C 
ATOM     11  C   UNL     1      92.891 -64.370 103.764  1.00  0.00    -0.027 C 
ATOM     12  C   UNL     1      89.602 -68.839 103.480  1.00  0.00     0.011 C 
ATOM     13  C   UNL     1      88.774 -66.485 103.647  1.00  0.00     0.011 C 
ATOM     14  C   UNL     1      94.686 -64.494 101.002  1.00  0.00     0.017 C 
ATOM     15  C   UNL     1      95.499 -65.559 103.272  1.00  0.00    -0.020 C 
ATOM     16  C   UNL     1      94.018 -64.050 104.707  1.00  0.00     0.032 C 
ATOM     17  C   UNL     1      95.428 -64.233 104.102  1.00  0.00     0.006 C 
ATOM     18  C   UNL     1      96.921 -65.609 102.656  1.00  0.00     0.008 C 
ATOM     19  C   UNL     1      95.269 -66.787 104.208  1.00  0.00     0.012 C 
ATOM     20  C   UNL     1      96.642 -63.880 105.108  1.00  0.00    -0.025 C 
ATOM     21  C   UNL     1      97.996 -65.752 103.717  1.00  0.00     0.005 C 
ATOM     22  C   UNL     1      98.043 -64.588 104.749  1.00  0.00     0.003 C 
ATOM     23  C   UNL     1      96.268 -64.154 106.599  1.00  0.00     0.010 C 
ATOM     24  C   UNL     1      96.815 -62.324 104.983  1.00  0.00     0.012 C 
ATOM     25  C   UNL     1      98.975 -64.980 105.990  1.00  0.00    -0.006 C 
ATOM     26  C   UNL     1      97.360 -63.802 107.633  1.00  0.00     0.033 C 
ATOM     27  C   UNL     1      98.822 -63.962 107.155  1.00  0.00     0.120 C 
ATOM     28  C   UNL     1      98.698 -66.406 106.561  1.00  0.00     0.014 C 
ATOM     29  C   UNL     1     100.464 -64.973 105.544  1.00  0.00     0.014 C 
ENDROOT
BRANCH   1  30
ATOM     30  C   UNL     1      91.387 -65.379  99.702  1.00  0.00     0.048 C 
ATOM     31  O   UNL     1      90.900 -64.274 100.065  1.00  0.00    -0.550 OA
ATOM     32  O   UNL     1      91.615 -65.592  98.346  1.00  0.00    -0.550 OA
ENDBRANCH   1  30
BRANCH  27  33
ATOM     33  O   UNL     1      99.372 -62.718 106.795  1.00  0.00    -0.393 OA
ATOM     34  H   UNL     1     100.359 -62.830 106.764  1.00  0.00     0.210 HD
ENDBRANCH  27  33
TORSDOF 2
ENDMDL
