MODEL 1
REMARK VINA RESULT:    -5.727      0.000      0.000
REMARK INTER + INTRA:          -6.725
REMARK INTER:                  -6.731
REMARK INTRA:                   0.006
REMARK UNBOUND:                 0.006
REMARK SMILES O=c1c(O)c(-c2ccc(O)c(O)c2)oc2cc(O)ccc12
REMARK SMILES IDX 5 1 3 2 2 3 1 4 21 5 15 6 14 7 16 8 17 9 19 10 20 11 6 12
REMARK SMILES IDX 7 13 8 14 9 15 13 16 11 17 10 18 12 20 4 22 18 24
REMARK H PARENT 10 19 12 21 4 23 18 25
REMARK Flexibility Score: inf
ROOT
ATOM      1  C   UNL     1       3.352   7.321  -7.373  1.00  0.00     0.180 A 
ATOM      2  C   UNL     1       4.685   7.125  -7.788  1.00  0.00     0.208 A 
ATOM      3  C   UNL     1       5.621   8.144  -7.557  1.00  0.00     0.235 A 
ATOM      4  O   UNL     1       6.823   7.988  -7.908  1.00  0.00    -0.285 OA
ATOM      5  C   UNL     1       5.208   9.336  -6.942  1.00  0.00     0.069 A 
ATOM      6  C   UNL     1       3.849   9.465  -6.578  1.00  0.00     0.142 A 
ATOM      7  O   UNL     1       2.997   8.472  -6.806  1.00  0.00    -0.452 OA
ATOM      8  C   UNL     1       3.396  10.642  -5.971  1.00  0.00     0.094 A 
ATOM      9  C   UNL     1       4.283  11.694  -5.722  1.00  0.00     0.119 A 
ATOM     10  C   UNL     1       5.632  11.569  -6.079  1.00  0.00     0.047 A 
ATOM     11  C   UNL     1       6.095  10.398  -6.687  1.00  0.00     0.020 A 
ENDROOT
BRANCH   1  12
ATOM     12  C   UNL     1       2.309   6.287  -7.562  1.00  0.00     0.025 A 
ATOM     13  C   UNL     1       2.099   5.679  -8.812  1.00  0.00     0.016 A 
ATOM     14  C   UNL     1       1.124   4.689  -8.960  1.00  0.00     0.051 A 
ATOM     15  C   UNL     1       0.356   4.281  -7.862  1.00  0.00     0.157 A 
ATOM     16  C   UNL     1       1.551   5.860  -6.459  1.00  0.00     0.062 A 
ATOM     17  C   UNL     1       0.574   4.869  -6.604  1.00  0.00     0.158 A 
BRANCH  15  18
ATOM     18  O   UNL     1      -0.616   3.294  -8.014  1.00  0.00    -0.504 OA
ATOM     19  H   UNL     1      -1.275   3.312  -8.785  1.00  0.00     0.293 HD
ENDBRANCH  15  18
BRANCH  17  20
ATOM     20  O   UNL     1      -0.169   4.481  -5.490  1.00  0.00    -0.504 OA
ATOM     21  H   UNL     1      -1.162   4.664  -5.414  1.00  0.00     0.293 HD
ENDBRANCH  17  20
ENDBRANCH   1  12
BRANCH   2  22
ATOM     22  O   UNL     1       5.057   5.948  -8.441  1.00  0.00    -0.502 OA
ATOM     23  H   UNL     1       5.660   5.256  -8.011  1.00  0.00     0.293 HD
ENDBRANCH   2  22
BRANCH   9  24
ATOM     24  O   UNL     1       3.815  12.857  -5.116  1.00  0.00    -0.508 OA
ATOM     25  H   UNL     1       3.681  13.712  -5.642  1.00  0.00     0.293 HD
ENDBRANCH   9  24
TORSDOF 5
ENDMDL
MODEL 2
REMARK VINA RESULT:    -5.675      2.685      7.203
REMARK INTER + INTRA:          -6.664
REMARK INTER:                  -6.362
REMARK INTRA:                  -0.302
REMARK UNBOUND:                 0.006
REMARK SMILES O=c1c(O)c(-c2ccc(O)c(O)c2)oc2cc(O)ccc12
REMARK SMILES IDX 5 1 3 2 2 3 1 4 21 5 15 6 14 7 16 8 17 9 19 10 20 11 6 12
REMARK SMILES IDX 7 13 8 14 9 15 13 16 11 17 10 18 12 20 4 22 18 24
REMARK H PARENT 10 19 12 21 4 23 18 25
REMARK Flexibility Score: inf
ROOT
ATOM      1  C   UNL     1       1.563   6.140  -6.093  1.00  0.00     0.180 A 
ATOM      2  C   UNL     1       1.763   5.990  -7.481  1.00  0.00     0.208 A 
ATOM      3  C   UNL     1       1.075   4.971  -8.157  1.00  0.00     0.235 A 
ATOM      4  O   UNL     1       1.229   4.823  -9.400  1.00  0.00    -0.285 OA
ATOM      5  C   UNL     1       0.225   4.116  -7.437  1.00  0.00     0.069 A 
ATOM      6  C   UNL     1       0.097   4.318  -6.045  1.00  0.00     0.142 A 
ATOM      7  O   UNL     1       0.759   5.300  -5.445  1.00  0.00    -0.452 OA
ATOM      8  C   UNL     1      -0.734   3.480  -5.291  1.00  0.00     0.094 A 
ATOM      9  C   UNL     1      -1.440   2.444  -5.910  1.00  0.00     0.119 A 
ATOM     10  C   UNL     1      -1.317   2.243  -7.291  1.00  0.00     0.047 A 
ATOM     11  C   UNL     1      -0.489   3.073  -8.053  1.00  0.00     0.020 A 
ENDROOT
BRANCH   1  12
ATOM     12  C   UNL     1       2.237   7.203  -5.312  1.00  0.00     0.025 A 
ATOM     13  C   UNL     1       1.762   8.526  -5.314  1.00  0.00     0.016 A 
ATOM     14  C   UNL     1       2.401   9.506  -4.551  1.00  0.00     0.051 A 
ATOM     15  C   UNL     1       3.512   9.178  -3.765  1.00  0.00     0.157 A 
ATOM     16  C   UNL     1       3.339   6.874  -4.505  1.00  0.00     0.062 A 
ATOM     17  C   UNL     1       3.982   7.853  -3.740  1.00  0.00     0.158 A 
BRANCH  15  18
ATOM     18  O   UNL     1       4.149  10.159  -3.005  1.00  0.00    -0.504 OA
ATOM     19  H   UNL     1       4.623   9.934  -2.138  1.00  0.00     0.293 HD
ENDBRANCH  15  18
BRANCH  17  20
ATOM     20  O   UNL     1       5.082   7.493  -2.963  1.00  0.00    -0.504 OA
ATOM     21  H   UNL     1       6.008   7.388  -3.357  1.00  0.00     0.293 HD
ENDBRANCH  17  20
ENDBRANCH   1  12
BRANCH   2  22
ATOM     22  O   UNL     1       2.653   6.824  -8.162  1.00  0.00    -0.502 OA
ATOM     23  H   UNL     1       2.387   7.743  -8.495  1.00  0.00     0.293 HD
ENDBRANCH   2  22
BRANCH   9  24
ATOM     24  O   UNL     1      -2.263   1.622  -5.144  1.00  0.00    -0.508 OA
ATOM     25  H   UNL     1      -2.754   0.836  -5.552  1.00  0.00     0.293 HD
ENDBRANCH   9  24
TORSDOF 5
ENDMDL
MODEL 3
REMARK VINA RESULT:    -5.637      2.008      7.368
REMARK INTER + INTRA:          -6.619
REMARK INTER:                  -6.521
REMARK INTRA:                  -0.098
REMARK UNBOUND:                 0.006
REMARK SMILES O=c1c(O)c(-c2ccc(O)c(O)c2)oc2cc(O)ccc12
REMARK SMILES IDX 5 1 3 2 2 3 1 4 21 5 15 6 14 7 16 8 17 9 19 10 20 11 6 12
REMARK SMILES IDX 7 13 8 14 9 15 13 16 11 17 10 18 12 20 4 22 18 24
REMARK H PARENT 10 19 12 21 4 23 18 25
REMARK Flexibility Score: inf
ROOT
ATOM      1  C   UNL     1       1.863   6.011  -6.057  1.00  0.00     0.180 A 
ATOM      2  C   UNL     1       1.472   5.863  -4.710  1.00  0.00     0.208 A 
ATOM      3  C   UNL     1       0.499   4.904  -4.390  1.00  0.00     0.235 A 
ATOM      4  O   UNL     1       0.141   4.745  -3.191  1.00  0.00    -0.285 OA
ATOM      5  C   UNL     1      -0.075   4.134  -5.414  1.00  0.00     0.069 A 
ATOM      6  C   UNL     1       0.354   4.359  -6.741  1.00  0.00     0.142 A 
ATOM      7  O   UNL     1       1.284   5.270  -7.000  1.00  0.00    -0.452 OA
ATOM      8  C   UNL     1      -0.201   3.617  -7.790  1.00  0.00     0.094 A 
ATOM      9  C   UNL     1      -1.179   2.651  -7.531  1.00  0.00     0.119 A 
ATOM     10  C   UNL     1      -1.605   2.424  -6.216  1.00  0.00     0.047 A 
ATOM     11  C   UNL     1      -1.057   3.160  -5.160  1.00  0.00     0.020 A 
ENDROOT
BRANCH   1  12
ATOM     12  C   UNL     1       2.896   6.986  -6.474  1.00  0.00     0.025 A 
ATOM     13  C   UNL     1       2.747   8.362  -6.228  1.00  0.00     0.016 A 
ATOM     14  C   UNL     1       3.746   9.260  -6.610  1.00  0.00     0.051 A 
ATOM     15  C   UNL     1       4.914   8.798  -7.229  1.00  0.00     0.157 A 
ATOM     16  C   UNL     1       4.079   6.525  -7.075  1.00  0.00     0.062 A 
ATOM     17  C   UNL     1       5.082   7.422  -7.460  1.00  0.00     0.158 A 
BRANCH  15  18
ATOM     18  O   UNL     1       5.909   9.697  -7.610  1.00  0.00    -0.504 OA
ATOM     19  H   UNL     1       6.030  10.586  -7.138  1.00  0.00     0.293 HD
ENDBRANCH  15  18
BRANCH  17  20
ATOM     20  O   UNL     1       6.236   6.929  -8.068  1.00  0.00    -0.504 OA
ATOM     21  H   UNL     1       7.125   6.891  -7.585  1.00  0.00     0.293 HD
ENDBRANCH  17  20
ENDBRANCH   1  12
BRANCH   2  22
ATOM     22  O   UNL     1       2.025   6.678  -3.719  1.00  0.00    -0.502 OA
ATOM     23  H   UNL     1       2.244   6.332  -2.793  1.00  0.00     0.293 HD
ENDBRANCH   2  22
BRANCH   9  24
ATOM     24  O   UNL     1      -1.720   1.922  -8.588  1.00  0.00    -0.508 OA
ATOM     25  H   UNL     1      -2.698   1.996  -8.837  1.00  0.00     0.293 HD
ENDBRANCH   9  24
TORSDOF 5
ENDMDL
MODEL 4
REMARK VINA RESULT:    -5.432      1.699      3.675
REMARK INTER + INTRA:          -6.378
REMARK INTER:                  -6.417
REMARK INTRA:                   0.038
REMARK UNBOUND:                 0.006
REMARK SMILES O=c1c(O)c(-c2ccc(O)c(O)c2)oc2cc(O)ccc12
REMARK SMILES IDX 5 1 3 2 2 3 1 4 21 5 15 6 14 7 16 8 17 9 19 10 20 11 6 12
REMARK SMILES IDX 7 13 8 14 9 15 13 16 11 17 10 18 12 20 4 22 18 24
REMARK H PARENT 10 19 12 21 4 23 18 25
REMARK Flexibility Score: inf
ROOT
ATOM      1  C   UNL     1       2.060   6.578  -5.957  1.00  0.00     0.180 A 
ATOM      2  C   UNL     1       1.861   7.772  -5.233  1.00  0.00     0.208 A 
ATOM      3  C   UNL     1       2.772   8.825  -5.402  1.00  0.00     0.235 A 
ATOM      4  O   UNL     1       2.609   9.908  -4.775  1.00  0.00    -0.285 OA
ATOM      5  C   UNL     1       3.866   8.660  -6.266  1.00  0.00     0.069 A 
ATOM      6  C   UNL     1       4.009   7.425  -6.937  1.00  0.00     0.142 A 
ATOM      7  O   UNL     1       3.118   6.456  -6.756  1.00  0.00    -0.452 OA
ATOM      8  C   UNL     1       5.091   7.218  -7.799  1.00  0.00     0.094 A 
ATOM      9  C   UNL     1       6.035   8.231  -8.003  1.00  0.00     0.119 A 
ATOM     10  C   UNL     1       5.895   9.458  -7.341  1.00  0.00     0.047 A 
ATOM     11  C   UNL     1       4.818   9.674  -6.477  1.00  0.00     0.020 A 
ENDROOT
BRANCH   1  12
ATOM     12  C   UNL     1       1.133   5.429  -5.848  1.00  0.00     0.025 A 
ATOM     13  C   UNL     1       0.713   4.941  -4.598  1.00  0.00     0.016 A 
ATOM     14  C   UNL     1      -0.180   3.870  -4.522  1.00  0.00     0.051 A 
ATOM     15  C   UNL     1      -0.678   3.280  -5.690  1.00  0.00     0.157 A 
ATOM     16  C   UNL     1       0.614   4.847  -7.017  1.00  0.00     0.062 A 
ATOM     17  C   UNL     1      -0.281   3.774  -6.944  1.00  0.00     0.158 A 
BRANCH  15  18
ATOM     18  O   UNL     1      -1.569   2.210  -5.610  1.00  0.00    -0.504 OA
ATOM     19  H   UNL     1      -2.448   2.213  -6.114  1.00  0.00     0.293 HD
ENDBRANCH  15  18
BRANCH  17  20
ATOM     20  O   UNL     1      -0.764   3.212  -8.126  1.00  0.00    -0.504 OA
ATOM     21  H   UNL     1      -0.233   2.532  -8.655  1.00  0.00     0.293 HD
ENDBRANCH  17  20
ENDBRANCH   1  12
BRANCH   2  22
ATOM     22  O   UNL     1       0.790   7.890  -4.343  1.00  0.00    -0.502 OA
ATOM     23  H   UNL     1       0.183   7.111  -4.120  1.00  0.00     0.293 HD
ENDBRANCH   2  22
BRANCH   9  24
ATOM     24  O   UNL     1       7.105   8.008  -8.866  1.00  0.00    -0.508 OA
ATOM     25  H   UNL     1       7.432   8.725  -9.500  1.00  0.00     0.293 HD
ENDBRANCH   9  24
TORSDOF 5
ENDMDL
MODEL 5
REMARK VINA RESULT:    -5.355      2.854      5.338
REMARK INTER + INTRA:          -6.288
REMARK INTER:                  -6.042
REMARK INTRA:                  -0.245
REMARK UNBOUND:                 0.006
REMARK SMILES O=c1c(O)c(-c2ccc(O)c(O)c2)oc2cc(O)ccc12
REMARK SMILES IDX 5 1 3 2 2 3 1 4 21 5 15 6 14 7 16 8 17 9 19 10 20 11 6 12
REMARK SMILES IDX 7 13 8 14 9 15 13 16 11 17 10 18 12 20 4 22 18 24
REMARK H PARENT 10 19 12 21 4 23 18 25
REMARK Flexibility Score: inf
ROOT
ATOM      1  C   UNL     1       2.682   9.047  -5.724  1.00  0.00     0.180 A 
ATOM      2  C   UNL     1       2.040   8.390  -4.654  1.00  0.00     0.208 A 
ATOM      3  C   UNL     1       0.941   9.011  -4.042  1.00  0.00     0.235 A 
ATOM      4  O   UNL     1       0.342   8.438  -3.090  1.00  0.00    -0.285 OA
ATOM      5  C   UNL     1       0.521  10.273  -4.491  1.00  0.00     0.069 A 
ATOM      6  C   UNL     1       1.232  10.875  -5.553  1.00  0.00     0.142 A 
ATOM      7  O   UNL     1       2.262  10.249  -6.111  1.00  0.00    -0.452 OA
ATOM      8  C   UNL     1       0.850  12.137  -6.023  1.00  0.00     0.094 A 
ATOM      9  C   UNL     1      -0.235  12.806  -5.447  1.00  0.00     0.119 A 
ATOM     10  C   UNL     1      -0.944  12.210  -4.396  1.00  0.00     0.047 A 
ATOM     11  C   UNL     1      -0.570  10.950  -3.918  1.00  0.00     0.020 A 
ENDROOT
BRANCH   1  12
ATOM     12  C   UNL     1       3.835   8.449  -6.435  1.00  0.00     0.025 A 
ATOM     13  C   UNL     1       5.148   8.899  -6.209  1.00  0.00     0.016 A 
ATOM     14  C   UNL     1       6.222   8.304  -6.875  1.00  0.00     0.051 A 
ATOM     15  C   UNL     1       6.005   7.244  -7.764  1.00  0.00     0.157 A 
ATOM     16  C   UNL     1       3.624   7.371  -7.311  1.00  0.00     0.062 A 
ATOM     17  C   UNL     1       4.698   6.773  -7.980  1.00  0.00     0.158 A 
BRANCH  15  18
ATOM     18  O   UNL     1       7.079   6.653  -8.428  1.00  0.00    -0.504 OA
ATOM     19  H   UNL     1       8.034   6.785  -8.114  1.00  0.00     0.293 HD
ENDBRANCH  15  18
BRANCH  17  20
ATOM     20  O   UNL     1       4.449   5.715  -8.853  1.00  0.00    -0.504 OA
ATOM     21  H   UNL     1       5.044   5.522  -9.648  1.00  0.00     0.293 HD
ENDBRANCH  17  20
ENDBRANCH   1  12
BRANCH   2  22
ATOM     22  O   UNL     1       2.510   7.157  -4.196  1.00  0.00    -0.502 OA
ATOM     23  H   UNL     1       2.034   6.286  -4.400  1.00  0.00     0.293 HD
ENDBRANCH   2  22
BRANCH   9  24
ATOM     24  O   UNL     1      -0.601  14.060  -5.929  1.00  0.00    -0.508 OA
ATOM     25  H   UNL     1      -1.542  14.250  -6.252  1.00  0.00     0.293 HD
ENDBRANCH   9  24
TORSDOF 5
ENDMDL
MODEL 6
REMARK VINA RESULT:    -5.338      2.574      4.830
REMARK INTER + INTRA:          -6.268
REMARK INTER:                  -6.820
REMARK INTRA:                   0.552
REMARK UNBOUND:                 0.006
REMARK SMILES O=c1c(O)c(-c2ccc(O)c(O)c2)oc2cc(O)ccc12
REMARK SMILES IDX 5 1 3 2 2 3 1 4 21 5 15 6 14 7 16 8 17 9 19 10 20 11 6 12
REMARK SMILES IDX 7 13 8 14 9 15 13 16 11 17 10 18 12 20 4 22 18 24
REMARK H PARENT 10 19 12 21 4 23 18 25
REMARK Flexibility Score: inf
ROOT
ATOM      1  C   UNL     1       0.358   4.520  -5.823  1.00  0.00     0.180 A 
ATOM      2  C   UNL     1       0.417   4.892  -4.464  1.00  0.00     0.208 A 
ATOM      3  C   UNL     1       1.259   5.949  -4.089  1.00  0.00     0.235 A 
ATOM      4  O   UNL     1       1.322   6.308  -2.881  1.00  0.00    -0.285 OA
ATOM      5  C   UNL     1       2.035   6.595  -5.065  1.00  0.00     0.069 A 
ATOM      6  C   UNL     1       1.937   6.148  -6.401  1.00  0.00     0.142 A 
ATOM      7  O   UNL     1       1.120   5.149  -6.716  1.00  0.00    -0.452 OA
ATOM      8  C   UNL     1       2.701   6.760  -7.401  1.00  0.00     0.094 A 
ATOM      9  C   UNL     1       3.562   7.815  -7.085  1.00  0.00     0.119 A 
ATOM     10  C   UNL     1       3.660   8.263  -5.761  1.00  0.00     0.047 A 
ATOM     11  C   UNL     1       2.902   7.658  -4.754  1.00  0.00     0.020 A 
ENDROOT
BRANCH   1  12
ATOM     12  C   UNL     1      -0.521   3.429  -6.303  1.00  0.00     0.025 A 
ATOM     13  C   UNL     1      -0.527   3.032  -7.651  1.00  0.00     0.016 A 
ATOM     14  C   UNL     1      -1.348   1.984  -8.075  1.00  0.00     0.051 A 
ATOM     15  C   UNL     1      -2.162   1.308  -7.158  1.00  0.00     0.157 A 
ATOM     16  C   UNL     1      -1.323   2.734  -5.383  1.00  0.00     0.062 A 
ATOM     17  C   UNL     1      -2.147   1.684  -5.804  1.00  0.00     0.158 A 
BRANCH  15  18
ATOM     18  O   UNL     1      -2.982   0.263  -7.584  1.00  0.00    -0.504 OA
ATOM     19  H   UNL     1      -3.968   0.405  -7.771  1.00  0.00     0.293 HD
ENDBRANCH  15  18
BRANCH  17  20
ATOM     20  O   UNL     1      -2.941   1.026  -4.865  1.00  0.00    -0.504 OA
ATOM     21  H   UNL     1      -3.607   1.519  -4.283  1.00  0.00     0.293 HD
ENDBRANCH  17  20
ENDBRANCH   1  12
BRANCH   2  22
ATOM     22  O   UNL     1      -0.329   4.199  -3.508  1.00  0.00    -0.502 OA
ATOM     23  H   UNL     1      -0.844   3.355  -3.729  1.00  0.00     0.293 HD
ENDBRANCH   2  22
BRANCH   9  24
ATOM     24  O   UNL     1       4.314   8.413  -8.094  1.00  0.00    -0.508 OA
ATOM     25  H   UNL     1       4.872   9.239  -7.919  1.00  0.00     0.293 HD
ENDBRANCH   9  24
TORSDOF 5
ENDMDL
MODEL 7
REMARK VINA RESULT:    -5.102      2.956      5.058
REMARK INTER + INTRA:          -5.990
REMARK INTER:                  -6.361
REMARK INTRA:                   0.371
REMARK UNBOUND:                 0.006
REMARK SMILES O=c1c(O)c(-c2ccc(O)c(O)c2)oc2cc(O)ccc12
REMARK SMILES IDX 5 1 3 2 2 3 1 4 21 5 15 6 14 7 16 8 17 9 19 10 20 11 6 12
REMARK SMILES IDX 7 13 8 14 9 15 13 16 11 17 10 18 12 20 4 22 18 24
REMARK H PARENT 10 19 12 21 4 23 18 25
REMARK Flexibility Score: inf
ROOT
ATOM      1  C   UNL     1       0.125   4.035  -6.500  1.00  0.00     0.180 A 
ATOM      2  C   UNL     1       0.514   4.543  -7.757  1.00  0.00     0.208 A 
ATOM      3  C   UNL     1       1.382   5.644  -7.802  1.00  0.00     0.235 A 
ATOM      4  O   UNL     1       1.753   6.110  -8.914  1.00  0.00    -0.285 OA
ATOM      5  C   UNL     1       1.824   6.225  -6.603  1.00  0.00     0.069 A 
ATOM      6  C   UNL     1       1.370   5.672  -5.385  1.00  0.00     0.142 A 
ATOM      7  O   UNL     1       0.555   4.623  -5.386  1.00  0.00    -0.452 OA
ATOM      8  C   UNL     1       1.780   6.229  -4.168  1.00  0.00     0.094 A 
ATOM      9  C   UNL     1       2.641   7.331  -4.151  1.00  0.00     0.119 A 
ATOM     10  C   UNL     1       3.095   7.880  -5.357  1.00  0.00     0.047 A 
ATOM     11  C   UNL     1       2.690   7.332  -6.578  1.00  0.00     0.020 A 
ENDROOT
BRANCH   1  12
ATOM     12  C   UNL     1      -0.772   2.864  -6.368  1.00  0.00     0.025 A 
ATOM     13  C   UNL     1      -1.609   2.705  -5.250  1.00  0.00     0.016 A 
ATOM     14  C   UNL     1      -2.464   1.603  -5.159  1.00  0.00     0.051 A 
ATOM     15  C   UNL     1      -2.506   0.654  -6.188  1.00  0.00     0.157 A 
ATOM     16  C   UNL     1      -0.834   1.921  -7.407  1.00  0.00     0.062 A 
ATOM     17  C   UNL     1      -1.688   0.816  -7.319  1.00  0.00     0.158 A 
BRANCH  15  18
ATOM     18  O   UNL     1      -3.359  -0.445  -6.093  1.00  0.00    -0.504 OA
ATOM     19  H   UNL     1      -3.671  -0.946  -6.917  1.00  0.00     0.293 HD
ENDBRANCH  15  18
BRANCH  17  20
ATOM     20  O   UNL     1      -1.712  -0.108  -8.363  1.00  0.00    -0.504 OA
ATOM     21  H   UNL     1      -1.156   0.011  -9.201  1.00  0.00     0.293 HD
ENDBRANCH  17  20
ENDBRANCH   1  12
BRANCH   2  22
ATOM     22  O   UNL     1       0.019   3.975  -8.933  1.00  0.00    -0.502 OA
ATOM     23  H   UNL     1      -0.234   2.996  -8.998  1.00  0.00     0.293 HD
ENDBRANCH   2  22
BRANCH   9  24
ATOM     24  O   UNL     1       3.041   7.871  -2.931  1.00  0.00    -0.508 OA
ATOM     25  H   UNL     1       3.109   7.302  -2.097  1.00  0.00     0.293 HD
ENDBRANCH   9  24
TORSDOF 5
ENDMDL
MODEL 8
REMARK VINA RESULT:    -5.076      2.968      8.372
REMARK INTER + INTRA:          -5.960
REMARK INTER:                  -6.408
REMARK INTRA:                   0.449
REMARK UNBOUND:                 0.006
REMARK SMILES O=c1c(O)c(-c2ccc(O)c(O)c2)oc2cc(O)ccc12
REMARK SMILES IDX 5 1 3 2 2 3 1 4 21 5 15 6 14 7 16 8 17 9 19 10 20 11 6 12
REMARK SMILES IDX 7 13 8 14 9 15 13 16 11 17 10 18 12 20 4 22 18 24
REMARK H PARENT 10 19 12 21 4 23 18 25
REMARK Flexibility Score: inf
ROOT
ATOM      1  C   UNL     1       0.191   3.988  -6.709  1.00  0.00     0.180 A 
ATOM      2  C   UNL     1       0.326   3.357  -7.963  1.00  0.00     0.208 A 
ATOM      3  C   UNL     1      -0.449   2.220  -8.235  1.00  0.00     0.235 A 
ATOM      4  O   UNL     1      -0.355   1.644  -9.353  1.00  0.00    -0.285 OA
ATOM      5  C   UNL     1      -1.320   1.726  -7.250  1.00  0.00     0.069 A 
ATOM      6  C   UNL     1      -1.380   2.401  -6.011  1.00  0.00     0.142 A 
ATOM      7  O   UNL     1      -0.636   3.480  -5.798  1.00  0.00    -0.452 OA
ATOM      8  C   UNL     1      -2.229   1.934  -5.001  1.00  0.00     0.094 A 
ATOM      9  C   UNL     1      -3.022   0.801  -5.213  1.00  0.00     0.119 A 
ATOM     10  C   UNL     1      -2.966   0.131  -6.442  1.00  0.00     0.047 A 
ATOM     11  C   UNL     1      -2.121   0.588  -7.457  1.00  0.00     0.020 A 
ENDROOT
BRANCH   1  12
ATOM     12  C   UNL     1       0.959   5.203  -6.353  1.00  0.00     0.025 A 
ATOM     13  C   UNL     1       1.168   5.572  -5.013  1.00  0.00     0.016 A 
ATOM     14  C   UNL     1       1.915   6.710  -4.702  1.00  0.00     0.051 A 
ATOM     15  C   UNL     1       2.476   7.489  -5.722  1.00  0.00     0.157 A 
ATOM     16  C   UNL     1       1.541   5.975  -7.372  1.00  0.00     0.062 A 
ATOM     17  C   UNL     1       2.290   7.117  -7.065  1.00  0.00     0.158 A 
BRANCH  15  18
ATOM     18  O   UNL     1       3.220   8.626  -5.409  1.00  0.00    -0.504 OA
ATOM     19  H   UNL     1       3.756   9.120  -6.114  1.00  0.00     0.293 HD
ENDBRANCH  15  18
BRANCH  17  20
ATOM     20  O   UNL     1       2.841   7.867  -8.103  1.00  0.00    -0.504 OA
ATOM     21  H   UNL     1       3.833   8.056  -8.163  1.00  0.00     0.293 HD
ENDBRANCH  17  20
ENDBRANCH   1  12
BRANCH   2  22
ATOM     22  O   UNL     1       1.237   3.842  -8.905  1.00  0.00    -0.502 OA
ATOM     23  H   UNL     1       1.797   3.228  -9.484  1.00  0.00     0.293 HD
ENDBRANCH   2  22
BRANCH   9  24
ATOM     24  O   UNL     1      -3.862   0.352  -4.197  1.00  0.00    -0.508 OA
ATOM     25  H   UNL     1      -4.659  -0.241  -4.392  1.00  0.00     0.293 HD
ENDBRANCH   9  24
TORSDOF 5
ENDMDL
MODEL 9
REMARK VINA RESULT:    -4.822      2.829      6.279
REMARK INTER + INTRA:          -5.662
REMARK INTER:                  -5.376
REMARK INTRA:                  -0.286
REMARK UNBOUND:                 0.006
REMARK SMILES O=c1c(O)c(-c2ccc(O)c(O)c2)oc2cc(O)ccc12
REMARK SMILES IDX 5 1 3 2 2 3 1 4 21 5 15 6 14 7 16 8 17 9 19 10 20 11 6 12
REMARK SMILES IDX 7 13 8 14 9 15 13 16 11 17 10 18 12 20 4 22 18 24
REMARK H PARENT 10 19 12 21 4 23 18 25
REMARK Flexibility Score: inf
ROOT
ATOM      1  C   UNL     1       2.829  10.879  -5.694  1.00  0.00     0.180 A 
ATOM      2  C   UNL     1       4.084  11.497  -5.508  1.00  0.00     0.208 A 
ATOM      3  C   UNL     1       5.229  10.866  -6.015  1.00  0.00     0.235 A 
ATOM      4  O   UNL     1       6.362  11.404  -5.872  1.00  0.00    -0.285 OA
ATOM      5  C   UNL     1       5.105   9.632  -6.673  1.00  0.00     0.069 A 
ATOM      6  C   UNL     1       3.816   9.067  -6.797  1.00  0.00     0.142 A 
ATOM      7  O   UNL     1       2.755   9.702  -6.311  1.00  0.00    -0.452 OA
ATOM      8  C   UNL     1       3.652   7.834  -7.438  1.00  0.00     0.094 A 
ATOM      9  C   UNL     1       4.759   7.156  -7.958  1.00  0.00     0.119 A 
ATOM     10  C   UNL     1       6.039   7.714  -7.839  1.00  0.00     0.047 A 
ATOM     11  C   UNL     1       6.214   8.945  -7.199  1.00  0.00     0.020 A 
ENDROOT
BRANCH   1  12
ATOM     12  C   UNL     1       1.572  11.491  -5.207  1.00  0.00     0.025 A 
ATOM     13  C   UNL     1       0.983  11.088  -3.996  1.00  0.00     0.016 A 
ATOM     14  C   UNL     1      -0.192  11.695  -3.545  1.00  0.00     0.051 A 
ATOM     15  C   UNL     1      -0.787  12.723  -4.288  1.00  0.00     0.157 A 
ATOM     16  C   UNL     1       0.983  12.536  -5.937  1.00  0.00     0.062 A 
ATOM     17  C   UNL     1      -0.193  13.147  -5.490  1.00  0.00     0.158 A 
BRANCH  15  18
ATOM     18  O   UNL     1      -1.960  13.327  -3.837  1.00  0.00    -0.504 OA
ATOM     19  H   UNL     1      -2.784  13.389  -4.424  1.00  0.00     0.293 HD
ENDBRANCH  15  18
BRANCH  17  20
ATOM     20  O   UNL     1      -0.757  14.172  -6.249  1.00  0.00    -0.504 OA
ATOM     21  H   UNL     1      -1.759  14.298  -6.323  1.00  0.00     0.293 HD
ENDBRANCH  17  20
ENDBRANCH   1  12
BRANCH   2  22
ATOM     22  O   UNL     1       4.183  12.701  -4.807  1.00  0.00    -0.502 OA
ATOM     23  H   UNL     1       3.709  12.855  -3.925  1.00  0.00     0.293 HD
ENDBRANCH   2  22
BRANCH   9  24
ATOM     24  O   UNL     1       4.576   5.930  -8.594  1.00  0.00    -0.508 OA
ATOM     25  H   UNL     1       4.469   5.865  -9.599  1.00  0.00     0.293 HD
ENDBRANCH   9  24
TORSDOF 5
ENDMDL
