MODEL 1
REMARK VINA RESULT:    -2.971      0.000      0.000
REMARK INTER + INTRA:          -3.275
REMARK INTER:                  -3.232
REMARK INTRA:                  -0.043
REMARK UNBOUND:                -0.043
REMARK SMILES COc1ccccc1O
REMARK SMILES IDX 3 1 4 2 5 3 6 4 7 5 8 6 2 7 1 8 9 9
REMARK H PARENT 9 10
REMARK Flexibility Score: inf
ROOT
ATOM      1  C   UNL     1      15.809  -0.753  10.056  1.00  0.00     0.160 A 
ATOM      2  C   UNL     1      15.062  -1.657   9.272  1.00  0.00     0.050 A 
ATOM      3  C   UNL     1      15.343  -1.810   7.912  1.00  0.00     0.004 A 
ATOM      4  C   UNL     1      16.367  -1.069   7.320  1.00  0.00     0.004 A 
ATOM      5  C   UNL     1      17.113  -0.172   8.087  1.00  0.00     0.050 A 
ATOM      6  C   UNL     1      16.841  -0.010   9.450  1.00  0.00     0.157 A 
ENDROOT
BRANCH   1   7
ATOM      7  O   UNL     1      15.556  -0.572  11.425  1.00  0.00    -0.493 OA
ATOM      8  C   UNL     1      16.113  -1.373  12.463  1.00  0.00     0.278 C 
ENDBRANCH   1   7
BRANCH   6   9
ATOM      9  O   UNL     1      17.605   0.895  10.188  1.00  0.00    -0.504 OA
ATOM     10  H   UNL     1      18.062   1.690   9.760  1.00  0.00     0.293 HD
ENDBRANCH   6   9
TORSDOF 2
ENDMDL
MODEL 2
REMARK VINA RESULT:    -2.909      1.377      3.309
REMARK INTER + INTRA:          -3.207
REMARK INTER:                  -3.168
REMARK INTRA:                  -0.039
REMARK UNBOUND:                -0.043
REMARK SMILES COc1ccccc1O
REMARK SMILES IDX 3 1 4 2 5 3 6 4 7 5 8 6 2 7 1 8 9 9
REMARK H PARENT 9 10
REMARK Flexibility Score: inf
ROOT
ATOM      1  C   UNL     1      17.422  -0.164   8.084  1.00  0.00     0.160 A 
ATOM      2  C   UNL     1      16.647  -1.062   7.322  1.00  0.00     0.050 A 
ATOM      3  C   UNL     1      15.484  -1.622   7.857  1.00  0.00     0.004 A 
ATOM      4  C   UNL     1      15.080  -1.294   9.152  1.00  0.00     0.004 A 
ATOM      5  C   UNL     1      15.839  -0.405   9.916  1.00  0.00     0.050 A 
ATOM      6  C   UNL     1      17.006   0.161   9.390  1.00  0.00     0.157 A 
ENDROOT
BRANCH   1   7
ATOM      7  O   UNL     1      18.596   0.417   7.581  1.00  0.00    -0.493 OA
ATOM      8  C   UNL     1      18.656   1.242   6.422  1.00  0.00     0.278 C 
ENDBRANCH   1   7
BRANCH   6   9
ATOM      9  O   UNL     1      17.741   1.045  10.180  1.00  0.00    -0.504 OA
ATOM     10  H   UNL     1      17.302   1.664  10.851  1.00  0.00     0.293 HD
ENDBRANCH   6   9
TORSDOF 2
ENDMDL
MODEL 3
REMARK VINA RESULT:    -2.876      4.053      5.600
REMARK INTER + INTRA:          -3.171
REMARK INTER:                  -3.140
REMARK INTRA:                  -0.031
REMARK UNBOUND:                -0.043
REMARK SMILES COc1ccccc1O
REMARK SMILES IDX 3 1 4 2 5 3 6 4 7 5 8 6 2 7 1 8 9 9
REMARK H PARENT 9 10
REMARK Flexibility Score: inf
ROOT
ATOM      1  C   UNL     1      20.106   1.380   9.603  1.00  0.00     0.160 A 
ATOM      2  C   UNL     1      20.936   0.241   9.633  1.00  0.00     0.050 A 
ATOM      3  C   UNL     1      21.570  -0.140  10.818  1.00  0.00     0.004 A 
ATOM      4  C   UNL     1      21.383   0.606  11.983  1.00  0.00     0.004 A 
ATOM      5  C   UNL     1      20.563   1.735  11.966  1.00  0.00     0.050 A 
ATOM      6  C   UNL     1      19.923   2.126  10.783  1.00  0.00     0.157 A 
ENDROOT
BRANCH   1   7
ATOM      7  O   UNL     1      19.454   1.794   8.431  1.00  0.00    -0.493 OA
ATOM      8  C   UNL     1      18.777   0.920   7.532  1.00  0.00     0.278 C 
ENDBRANCH   1   7
BRANCH   6   9
ATOM      9  O   UNL     1      19.110   3.260  10.800  1.00  0.00    -0.504 OA
ATOM     10  H   UNL     1      18.686   3.633   9.960  1.00  0.00     0.293 HD
ENDBRANCH   6   9
TORSDOF 2
ENDMDL
MODEL 4
REMARK VINA RESULT:    -2.873     18.431     19.334
REMARK INTER + INTRA:          -3.168
REMARK INTER:                  -3.122
REMARK INTRA:                  -0.046
REMARK UNBOUND:                -0.043
REMARK SMILES COc1ccccc1O
REMARK SMILES IDX 3 1 4 2 5 3 6 4 7 5 8 6 2 7 1 8 9 9
REMARK H PARENT 9 10
REMARK Flexibility Score: inf
ROOT
ATOM      1  C   UNL     1      16.127  11.064  24.549  1.00  0.00     0.160 A 
ATOM      2  C   UNL     1      16.100  12.463  24.725  1.00  0.00     0.050 A 
ATOM      3  C   UNL     1      17.283  13.205  24.664  1.00  0.00     0.004 A 
ATOM      4  C   UNL     1      18.500  12.565  24.425  1.00  0.00     0.004 A 
ATOM      5  C   UNL     1      18.539  11.181  24.249  1.00  0.00     0.050 A 
ATOM      6  C   UNL     1      17.360  10.427  24.309  1.00  0.00     0.157 A 
ENDROOT
BRANCH   1   7
ATOM      7  O   UNL     1      14.961  10.286  24.605  1.00  0.00    -0.493 OA
ATOM      8  C   UNL     1      14.332   9.859  25.810  1.00  0.00     0.278 C 
ENDBRANCH   1   7
BRANCH   6   9
ATOM      9  O   UNL     1      17.434   9.046  24.129  1.00  0.00    -0.504 OA
ATOM     10  H   UNL     1      18.223   8.601  23.677  1.00  0.00     0.293 HD
ENDBRANCH   6   9
TORSDOF 2
ENDMDL
MODEL 5
REMARK VINA RESULT:    -2.820      4.459      4.849
REMARK INTER + INTRA:          -3.110
REMARK INTER:                  -3.083
REMARK INTRA:                  -0.027
REMARK UNBOUND:                -0.043
REMARK SMILES COc1ccccc1O
REMARK SMILES IDX 3 1 4 2 5 3 6 4 7 5 8 6 2 7 1 8 9 9
REMARK H PARENT 9 10
REMARK Flexibility Score: inf
ROOT
ATOM      1  C   UNL     1      20.136   0.993  10.927  1.00  0.00     0.160 A 
ATOM      2  C   UNL     1      20.962   0.028  10.314  1.00  0.00     0.050 A 
ATOM      3  C   UNL     1      21.604   0.313   9.107  1.00  0.00     0.004 A 
ATOM      4  C   UNL     1      21.433   1.558   8.499  1.00  0.00     0.004 A 
ATOM      5  C   UNL     1      20.618   2.521   9.096  1.00  0.00     0.050 A 
ATOM      6  C   UNL     1      19.969   2.246  10.305  1.00  0.00     0.157 A 
ENDROOT
BRANCH   1   7
ATOM      7  O   UNL     1      19.474   0.742  12.139  1.00  0.00    -0.493 OA
ATOM      8  C   UNL     1      19.017  -0.540  12.560  1.00  0.00     0.278 C 
ENDBRANCH   1   7
BRANCH   6   9
ATOM      9  O   UNL     1      19.161   3.230  10.876  1.00  0.00    -0.504 OA
ATOM     10  H   UNL     1      18.511   3.028  11.626  1.00  0.00     0.293 HD
ENDBRANCH   6   9
TORSDOF 2
ENDMDL
MODEL 6
REMARK VINA RESULT:    -2.731      0.967      2.515
REMARK INTER + INTRA:          -3.013
REMARK INTER:                  -2.967
REMARK INTRA:                  -0.046
REMARK UNBOUND:                -0.043
REMARK SMILES COc1ccccc1O
REMARK SMILES IDX 3 1 4 2 5 3 6 4 7 5 8 6 2 7 1 8 9 9
REMARK H PARENT 9 10
REMARK Flexibility Score: inf
ROOT
ATOM      1  C   UNL     1      16.936  -0.161   9.378  1.00  0.00     0.160 A 
ATOM      2  C   UNL     1      16.924  -0.562   8.026  1.00  0.00     0.050 A 
ATOM      3  C   UNL     1      15.901  -1.381   7.542  1.00  0.00     0.004 A 
ATOM      4  C   UNL     1      14.881  -1.806   8.395  1.00  0.00     0.004 A 
ATOM      5  C   UNL     1      14.882  -1.415   9.735  1.00  0.00     0.050 A 
ATOM      6  C   UNL     1      15.903  -0.595  10.231  1.00  0.00     0.157 A 
ENDROOT
BRANCH   1   7
ATOM      7  O   UNL     1      17.948   0.660   9.900  1.00  0.00    -0.493 OA
ATOM      8  C   UNL     1      19.255   0.211  10.246  1.00  0.00     0.278 C 
ENDBRANCH   1   7
BRANCH   6   9
ATOM      9  O   UNL     1      15.875  -0.222  11.575  1.00  0.00    -0.504 OA
ATOM     10  H   UNL     1      16.115   0.712  11.882  1.00  0.00     0.293 HD
ENDBRANCH   6   9
TORSDOF 2
ENDMDL
MODEL 7
REMARK VINA RESULT:    -2.694      1.936      2.985
REMARK INTER + INTRA:          -2.973
REMARK INTER:                  -2.930
REMARK INTRA:                  -0.043
REMARK UNBOUND:                -0.043
REMARK SMILES COc1ccccc1O
REMARK SMILES IDX 3 1 4 2 5 3 6 4 7 5 8 6 2 7 1 8 9 9
REMARK H PARENT 9 10
REMARK Flexibility Score: inf
ROOT
ATOM      1  C   UNL     1      18.043  -0.256  10.711  1.00  0.00     0.160 A 
ATOM      2  C   UNL     1      17.260  -0.978  11.635  1.00  0.00     0.050 A 
ATOM      3  C   UNL     1      15.923  -1.267  11.354  1.00  0.00     0.004 A 
ATOM      4  C   UNL     1      15.353  -0.844  10.152  1.00  0.00     0.004 A 
ATOM      5  C   UNL     1      16.118  -0.129   9.229  1.00  0.00     0.050 A 
ATOM      6  C   UNL     1      17.459   0.167   9.501  1.00  0.00     0.157 A 
ENDROOT
BRANCH   1   7
ATOM      7  O   UNL     1      19.389   0.054  10.959  1.00  0.00    -0.493 OA
ATOM      8  C   UNL     1      19.834   1.196  11.687  1.00  0.00     0.278 C 
ENDBRANCH   1   7
BRANCH   6   9
ATOM      9  O   UNL     1      18.195   0.883   8.558  1.00  0.00    -0.504 OA
ATOM     10  H   UNL     1      18.276   0.584   7.594  1.00  0.00     0.293 HD
ENDBRANCH   6   9
TORSDOF 2
ENDMDL
MODEL 8
REMARK VINA RESULT:    -2.682     18.347     19.102
REMARK INTER + INTRA:          -2.960
REMARK INTER:                  -2.917
REMARK INTRA:                  -0.043
REMARK UNBOUND:                -0.043
REMARK SMILES COc1ccccc1O
REMARK SMILES IDX 3 1 4 2 5 3 6 4 7 5 8 6 2 7 1 8 9 9
REMARK H PARENT 9 10
REMARK Flexibility Score: inf
ROOT
ATOM      1  C   UNL     1      16.799  10.134  24.595  1.00  0.00     0.160 A 
ATOM      2  C   UNL     1      15.500  10.551  24.951  1.00  0.00     0.050 A 
ATOM      3  C   UNL     1      15.182  11.911  24.991  1.00  0.00     0.004 A 
ATOM      4  C   UNL     1      16.150  12.867  24.678  1.00  0.00     0.004 A 
ATOM      5  C   UNL     1      17.439  12.466  24.325  1.00  0.00     0.050 A 
ATOM      6  C   UNL     1      17.769  11.106  24.281  1.00  0.00     0.157 A 
ENDROOT
BRANCH   1   7
ATOM      7  O   UNL     1      17.156   8.777  24.545  1.00  0.00    -0.493 OA
ATOM      8  C   UNL     1      17.601   8.017  25.665  1.00  0.00     0.278 C 
ENDBRANCH   1   7
BRANCH   6   9
ATOM      9  O   UNL     1      19.067  10.738  23.925  1.00  0.00    -0.504 OA
ATOM     10  H   UNL     1      19.730  11.400  23.540  1.00  0.00     0.293 HD
ENDBRANCH   6   9
TORSDOF 2
ENDMDL
