MODEL 1
REMARK VINA RESULT:    -6.180      0.000      0.000
REMARK INTER + INTRA:          -9.837
REMARK INTER:                  -9.071
REMARK INTRA:                  -0.766
REMARK UNBOUND:                -0.766
REMARK SMILES CCCOC(=O)c1ccccc1C(=O)OCCC
REMARK SMILES IDX 7 1 8 2 9 3 10 4 11 5 12 6 5 7 6 8 4 9 3 10 2 11 1 12 13 13
REMARK SMILES IDX 14 14 15 15 16 16 17 17 18 18
REMARK H PARENT
REMARK Flexibility Score: inf
ROOT
ATOM      1  C   UNL     1      49.639  50.241  23.094  1.00  0.00     0.074 A 
ATOM      2  C   UNL     1      50.678  49.323  22.859  1.00  0.00     0.016 A 
ATOM      3  C   UNL     1      50.644  48.047  23.421  1.00  0.00     0.001 A 
ATOM      4  C   UNL     1      49.573  47.668  24.228  1.00  0.00     0.001 A 
ATOM      5  C   UNL     1      48.521  48.555  24.457  1.00  0.00     0.016 A 
ATOM      6  C   UNL     1      48.523  49.839  23.882  1.00  0.00     0.074 A 
ENDROOT
BRANCH   1   7
ATOM      7  C   UNL     1      49.797  51.613  22.562  1.00  0.00     0.339 C 
ATOM      8  O   UNL     1      49.203  51.957  21.504  1.00  0.00    -0.246 OA
BRANCH   7   9
ATOM      9  O   UNL     1      50.568  52.542  23.273  1.00  0.00    -0.462 OA
BRANCH   9  10
ATOM     10  C   UNL     1      51.380  53.541  22.657  1.00  0.00     0.233 C 
BRANCH  10  11
ATOM     11  C   UNL     1      52.806  53.027  22.430  1.00  0.00     0.038 C 
ATOM     12  C   UNL     1      52.935  52.202  21.152  1.00  0.00     0.007 C 
ENDBRANCH  10  11
ENDBRANCH   9  10
ENDBRANCH   7   9
ENDBRANCH   1   7
BRANCH   6  13
ATOM     13  C   UNL     1      47.325  50.687  24.075  1.00  0.00     0.339 C 
ATOM     14  O   UNL     1      46.540  50.911  23.114  1.00  0.00    -0.246 OA
BRANCH  13  15
ATOM     15  O   UNL     1      47.038  51.192  25.347  1.00  0.00    -0.462 OA
BRANCH  15  16
ATOM     16  C   UNL     1      46.481  52.485  25.554  1.00  0.00     0.233 C 
BRANCH  16  17
ATOM     17  C   UNL     1      47.348  53.259  26.545  1.00  0.00     0.038 C 
ATOM     18  C   UNL     1      48.831  53.109  26.217  1.00  0.00     0.007 C 
ENDBRANCH  16  17
ENDBRANCH  15  16
ENDBRANCH  13  15
ENDBRANCH   6  13
TORSDOF 8
ENDMDL
MODEL 2
REMARK VINA RESULT:    -6.170      1.518      4.022
REMARK INTER + INTRA:          -9.821
REMARK INTER:                  -9.038
REMARK INTRA:                  -0.784
REMARK UNBOUND:                -0.766
REMARK SMILES CCCOC(=O)c1ccccc1C(=O)OCCC
REMARK SMILES IDX 7 1 8 2 9 3 10 4 11 5 12 6 5 7 6 8 4 9 3 10 2 11 1 12 13 13
REMARK SMILES IDX 14 14 15 15 16 16 17 17 18 18
REMARK H PARENT
REMARK Flexibility Score: inf
ROOT
ATOM      1  C   UNL     1      51.547  52.204  22.508  1.00  0.00     0.074 A 
ATOM      2  C   UNL     1      52.888  52.626  22.499  1.00  0.00     0.016 A 
ATOM      3  C   UNL     1      53.309  53.682  23.308  1.00  0.00     0.001 A 
ATOM      4  C   UNL     1      52.398  54.332  24.138  1.00  0.00     0.001 A 
ATOM      5  C   UNL     1      51.067  53.915  24.178  1.00  0.00     0.016 A 
ATOM      6  C   UNL     1      50.625  52.838  23.388  1.00  0.00     0.074 A 
ENDROOT
BRANCH   1   7
ATOM      7  C   UNL     1      51.147  51.157  21.541  1.00  0.00     0.339 C 
ATOM      8  O   UNL     1      50.883  51.462  20.346  1.00  0.00    -0.246 OA
BRANCH   7   9
ATOM      9  O   UNL     1      51.120  49.817  21.951  1.00  0.00    -0.462 OA
BRANCH   9  10
ATOM     10  C   UNL     1      49.934  49.132  22.353  1.00  0.00     0.233 C 
BRANCH  10  11
ATOM     11  C   UNL     1      50.089  48.545  23.760  1.00  0.00     0.038 C 
ATOM     12  C   UNL     1      51.119  47.420  23.816  1.00  0.00     0.007 C 
ENDBRANCH  10  11
ENDBRANCH   9  10
ENDBRANCH   7   9
ENDBRANCH   1   7
BRANCH   6  13
ATOM     13  C   UNL     1      49.229  52.377  23.563  1.00  0.00     0.339 C 
ATOM     14  O   UNL     1      48.392  52.512  22.629  1.00  0.00    -0.246 OA
BRANCH  13  15
ATOM     15  O   UNL     1      48.859  51.739  24.750  1.00  0.00    -0.462 OA
BRANCH  15  16
ATOM     16  C   UNL     1      47.552  51.844  25.305  1.00  0.00     0.233 C 
BRANCH  16  17
ATOM     17  C   UNL     1      47.494  53.051  26.240  1.00  0.00     0.038 C 
ATOM     18  C   UNL     1      46.225  53.868  26.010  1.00  0.00     0.007 C 
ENDBRANCH  16  17
ENDBRANCH  15  16
ENDBRANCH  13  15
ENDBRANCH   6  13
TORSDOF 8
ENDMDL
MODEL 3
REMARK VINA RESULT:    -6.134      0.957      4.324
REMARK INTER + INTRA:          -9.769
REMARK INTER:                  -8.984
REMARK INTRA:                  -0.784
REMARK UNBOUND:                -0.766
REMARK SMILES CCCOC(=O)c1ccccc1C(=O)OCCC
REMARK SMILES IDX 7 1 8 2 9 3 10 4 11 5 12 6 5 7 6 8 4 9 3 10 2 11 1 12 13 13
REMARK SMILES IDX 14 14 15 15 16 16 17 17 18 18
REMARK H PARENT
REMARK Flexibility Score: inf
ROOT
ATOM      1  C   UNL     1      48.610  50.028  23.674  1.00  0.00     0.074 A 
ATOM      2  C   UNL     1      48.242  48.912  24.447  1.00  0.00     0.016 A 
ATOM      3  C   UNL     1      49.050  47.775  24.489  1.00  0.00     0.001 A 
ATOM      4  C   UNL     1      50.235  47.734  23.758  1.00  0.00     0.001 A 
ATOM      5  C   UNL     1      50.630  48.838  23.002  1.00  0.00     0.016 A 
ATOM      6  C   UNL     1      49.843  50.003  22.963  1.00  0.00     0.074 A 
ENDROOT
BRANCH   1   7
ATOM      7  C   UNL     1      47.651  51.152  23.585  1.00  0.00     0.339 C 
ATOM      8  O   UNL     1      46.546  51.000  22.996  1.00  0.00    -0.246 OA
BRANCH   7   9
ATOM      9  O   UNL     1      47.958  52.368  24.209  1.00  0.00    -0.462 OA
BRANCH   9  10
ATOM     10  C   UNL     1      48.511  52.473  25.520  1.00  0.00     0.233 C 
BRANCH  10  11
ATOM     11  C   UNL     1      47.553  53.204  26.466  1.00  0.00     0.038 C 
ATOM     12  C   UNL     1      46.229  53.563  25.796  1.00  0.00     0.007 C 
ENDBRANCH  10  11
ENDBRANCH   9  10
ENDBRANCH   7   9
ENDBRANCH   1   7
BRANCH   6  13
ATOM     13  C   UNL     1      50.375  51.175  22.231  1.00  0.00     0.339 C 
ATOM     14  O   UNL     1      50.249  51.255  20.979  1.00  0.00    -0.246 OA
BRANCH  13  15
ATOM     15  O   UNL     1      50.969  52.221  22.945  1.00  0.00    -0.462 OA
BRANCH  15  16
ATOM     16  C   UNL     1      50.924  53.574  22.506  1.00  0.00     0.233 C 
BRANCH  16  17
ATOM     17  C   UNL     1      52.342  54.061  22.218  1.00  0.00     0.038 C 
ATOM     18  C   UNL     1      53.372  53.269  23.018  1.00  0.00     0.007 C 
ENDBRANCH  16  17
ENDBRANCH  15  16
ENDBRANCH  13  15
ENDBRANCH   6  13
TORSDOF 8
ENDMDL
MODEL 4
REMARK VINA RESULT:    -6.099      1.536      5.353
REMARK INTER + INTRA:          -9.718
REMARK INTER:                  -8.941
REMARK INTRA:                  -0.777
REMARK UNBOUND:                -0.766
REMARK SMILES CCCOC(=O)c1ccccc1C(=O)OCCC
REMARK SMILES IDX 7 1 8 2 9 3 10 4 11 5 12 6 5 7 6 8 4 9 3 10 2 11 1 12 13 13
REMARK SMILES IDX 14 14 15 15 16 16 17 17 18 18
REMARK H PARENT
REMARK Flexibility Score: inf
ROOT
ATOM      1  C   UNL     1      50.677  52.824  23.308  1.00  0.00     0.074 A 
ATOM      2  C   UNL     1      51.151  53.915  24.057  1.00  0.00     0.016 A 
ATOM      3  C   UNL     1      52.501  54.269  24.028  1.00  0.00     0.001 A 
ATOM      4  C   UNL     1      53.397  53.538  23.250  1.00  0.00     0.001 A 
ATOM      5  C   UNL     1      52.943  52.465  22.482  1.00  0.00     0.016 A 
ATOM      6  C   UNL     1      51.584  52.106  22.479  1.00  0.00     0.074 A 
ENDROOT
BRANCH   1   7
ATOM      7  C   UNL     1      49.259  52.437  23.477  1.00  0.00     0.339 C 
ATOM      8  O   UNL     1      48.419  52.683  22.568  1.00  0.00    -0.246 OA
BRANCH   7   9
ATOM      9  O   UNL     1      48.868  51.745  24.630  1.00  0.00    -0.462 OA
BRANCH   9  10
ATOM     10  C   UNL     1      47.599  51.905  25.264  1.00  0.00     0.233 C 
BRANCH  10  11
ATOM     11  C   UNL     1      47.508  53.258  25.978  1.00  0.00     0.038 C 
ATOM     12  C   UNL     1      46.066  53.712  26.190  1.00  0.00     0.007 C 
ENDBRANCH  10  11
ENDBRANCH   9  10
ENDBRANCH   7   9
ENDBRANCH   1   7
BRANCH   6  13
ATOM     13  C   UNL     1      51.154  51.029  21.557  1.00  0.00     0.339 C 
ATOM     14  O   UNL     1      50.967  51.275  20.334  1.00  0.00    -0.246 OA
BRANCH  13  15
ATOM     15  O   UNL     1      51.012  49.725  22.040  1.00  0.00    -0.462 OA
BRANCH  15  16
ATOM     16  C   UNL     1      49.750  49.167  22.391  1.00  0.00     0.233 C 
BRANCH  16  17
ATOM     17  C   UNL     1      49.867  48.452  23.735  1.00  0.00     0.038 C 
ATOM     18  C   UNL     1      51.087  47.535  23.769  1.00  0.00     0.007 C 
ENDBRANCH  16  17
ENDBRANCH  15  16
ENDBRANCH  13  15
ENDBRANCH   6  13
TORSDOF 8
ENDMDL
MODEL 5
REMARK VINA RESULT:    -6.069      1.493      4.021
REMARK INTER + INTRA:          -9.674
REMARK INTER:                  -8.957
REMARK INTRA:                  -0.717
REMARK UNBOUND:                -0.766
REMARK SMILES CCCOC(=O)c1ccccc1C(=O)OCCC
REMARK SMILES IDX 7 1 8 2 9 3 10 4 11 5 12 6 5 7 6 8 4 9 3 10 2 11 1 12 13 13
REMARK SMILES IDX 14 14 15 15 16 16 17 17 18 18
REMARK H PARENT
REMARK Flexibility Score: inf
ROOT
ATOM      1  C   UNL     1      49.547  52.682  24.394  1.00  0.00     0.074 A 
ATOM      2  C   UNL     1      49.146  53.299  25.592  1.00  0.00     0.016 A 
ATOM      3  C   UNL     1      47.902  53.016  26.159  1.00  0.00     0.001 A 
ATOM      4  C   UNL     1      47.040  52.116  25.537  1.00  0.00     0.001 A 
ATOM      5  C   UNL     1      47.427  51.476  24.359  1.00  0.00     0.016 A 
ATOM      6  C   UNL     1      48.685  51.728  23.783  1.00  0.00     0.074 A 
ENDROOT
BRANCH   1   7
ATOM      7  C   UNL     1      50.827  53.114  23.791  1.00  0.00     0.339 C 
ATOM      8  O   UNL     1      51.924  52.722  24.277  1.00  0.00    -0.246 OA
BRANCH   7   9
ATOM      9  O   UNL     1      50.810  53.917  22.644  1.00  0.00    -0.462 OA
BRANCH   9  10
ATOM     10  C   UNL     1      51.973  54.244  21.883  1.00  0.00     0.233 C 
BRANCH  10  11
ATOM     11  C   UNL     1      52.150  53.279  20.706  1.00  0.00     0.038 C 
ATOM     12  C   UNL     1      52.937  52.028  21.088  1.00  0.00     0.007 C 
ENDBRANCH  10  11
ENDBRANCH   9  10
ENDBRANCH   7   9
ENDBRANCH   1   7
BRANCH   6  13
ATOM     13  C   UNL     1      49.074  50.934  22.595  1.00  0.00     0.339 C 
ATOM     14  O   UNL     1      49.229  51.494  21.476  1.00  0.00    -0.246 OA
BRANCH  13  15
ATOM     15  O   UNL     1      49.327  49.565  22.735  1.00  0.00    -0.462 OA
BRANCH  15  16
ATOM     16  C   UNL     1      50.644  49.027  22.783  1.00  0.00     0.233 C 
BRANCH  16  17
ATOM     17  C   UNL     1      50.665  47.823  23.722  1.00  0.00     0.038 C 
ATOM     18  C   UNL     1      49.323  47.646  24.427  1.00  0.00     0.007 C 
ENDBRANCH  16  17
ENDBRANCH  15  16
ENDBRANCH  13  15
ENDBRANCH   6  13
TORSDOF 8
ENDMDL
MODEL 6
REMARK VINA RESULT:    -6.022      1.446      5.046
REMARK INTER + INTRA:          -9.604
REMARK INTER:                  -9.029
REMARK INTRA:                  -0.576
REMARK UNBOUND:                -0.766
REMARK SMILES CCCOC(=O)c1ccccc1C(=O)OCCC
REMARK SMILES IDX 7 1 8 2 9 3 10 4 11 5 12 6 5 7 6 8 4 9 3 10 2 11 1 12 13 13
REMARK SMILES IDX 14 14 15 15 16 16 17 17 18 18
REMARK H PARENT
REMARK Flexibility Score: inf
ROOT
ATOM      1  C   UNL     1      48.478  51.731  23.820  1.00  0.00     0.074 A 
ATOM      2  C   UNL     1      47.223  51.470  24.399  1.00  0.00     0.016 A 
ATOM      3  C   UNL     1      46.842  52.095  25.587  1.00  0.00     0.001 A 
ATOM      4  C   UNL     1      47.707  52.988  26.215  1.00  0.00     0.001 A 
ATOM      5  C   UNL     1      48.947  53.277  25.647  1.00  0.00     0.016 A 
ATOM      6  C   UNL     1      49.343  52.677  24.438  1.00  0.00     0.074 A 
ENDROOT
BRANCH   1   7
ATOM      7  C   UNL     1      48.862  50.947  22.625  1.00  0.00     0.339 C 
ATOM      8  O   UNL     1      48.965  51.511  21.501  1.00  0.00    -0.246 OA
BRANCH   7   9
ATOM      9  O   UNL     1      49.164  49.586  22.763  1.00  0.00    -0.462 OA
BRANCH   9  10
ATOM     10  C   UNL     1      50.488  49.057  22.725  1.00  0.00     0.233 C 
BRANCH  10  11
ATOM     11  C   UNL     1      50.647  47.902  23.721  1.00  0.00     0.038 C 
ATOM     12  C   UNL     1      49.347  47.573  24.450  1.00  0.00     0.007 C 
ENDBRANCH  10  11
ENDBRANCH   9  10
ENDBRANCH   7   9
ENDBRANCH   1   7
BRANCH   6  13
ATOM     13  C   UNL     1      50.624  53.113  23.835  1.00  0.00     0.339 C 
ATOM     14  O   UNL     1      51.718  52.860  24.409  1.00  0.00    -0.246 OA
BRANCH  13  15
ATOM     15  O   UNL     1      50.615  53.756  22.594  1.00  0.00    -0.462 OA
BRANCH  15  16
ATOM     16  C   UNL     1      51.807  54.169  21.933  1.00  0.00     0.233 C 
BRANCH  16  17
ATOM     17  C   UNL     1      52.078  53.242  20.750  1.00  0.00     0.038 C 
ATOM     18  C   UNL     1      52.950  52.059  21.163  1.00  0.00     0.007 C 
ENDBRANCH  16  17
ENDBRANCH  15  16
ENDBRANCH  13  15
ENDBRANCH   6  13
TORSDOF 8
ENDMDL
MODEL 7
REMARK VINA RESULT:    -6.007      1.404      4.206
REMARK INTER + INTRA:          -9.583
REMARK INTER:                  -9.274
REMARK INTRA:                  -0.309
REMARK UNBOUND:                -0.766
REMARK SMILES CCCOC(=O)c1ccccc1C(=O)OCCC
REMARK SMILES IDX 7 1 8 2 9 3 10 4 11 5 12 6 5 7 6 8 4 9 3 10 2 11 1 12 13 13
REMARK SMILES IDX 14 14 15 15 16 16 17 17 18 18
REMARK H PARENT
REMARK Flexibility Score: inf
ROOT
ATOM      1  C   UNL     1      50.417  51.280  22.448  1.00  0.00     0.074 A 
ATOM      2  C   UNL     1      51.062  50.632  21.379  1.00  0.00     0.016 A 
ATOM      3  C   UNL     1      52.145  51.227  20.733  1.00  0.00     0.001 A 
ATOM      4  C   UNL     1      52.601  52.479  21.141  1.00  0.00     0.001 A 
ATOM      5  C   UNL     1      51.989  53.130  22.213  1.00  0.00     0.016 A 
ATOM      6  C   UNL     1      50.910  52.538  22.895  1.00  0.00     0.074 A 
ENDROOT
BRANCH   1   7
ATOM      7  C   UNL     1      49.205  50.644  23.010  1.00  0.00     0.339 C 
ATOM      8  O   UNL     1      48.074  50.862  22.495  1.00  0.00    -0.246 OA
BRANCH   7   9
ATOM      9  O   UNL     1      49.332  49.753  24.084  1.00  0.00    -0.462 OA
BRANCH   9  10
ATOM     10  C   UNL     1      48.703  48.473  24.137  1.00  0.00     0.233 C 
BRANCH  10  11
ATOM     11  C   UNL     1      49.709  47.380  24.513  1.00  0.00     0.038 C 
ATOM     12  C   UNL     1      51.037  47.527  23.776  1.00  0.00     0.007 C 
ENDBRANCH  10  11
ENDBRANCH   9  10
ENDBRANCH   7   9
ENDBRANCH   1   7
BRANCH   6  13
ATOM     13  C   UNL     1      50.382  53.233  24.091  1.00  0.00     0.339 C 
ATOM     14  O   UNL     1      51.127  53.991  24.770  1.00  0.00    -0.246 OA
BRANCH  13  15
ATOM     15  O   UNL     1      49.033  53.090  24.430  1.00  0.00    -0.462 OA
BRANCH  15  16
ATOM     16  C   UNL     1      48.585  52.977  25.776  1.00  0.00     0.233 C 
BRANCH  16  17
ATOM     17  C   UNL     1      47.145  52.470  25.792  1.00  0.00     0.038 C 
ATOM     18  C   UNL     1      46.173  53.577  26.192  1.00  0.00     0.007 C 
ENDBRANCH  16  17
ENDBRANCH  15  16
ENDBRANCH  13  15
ENDBRANCH   6  13
TORSDOF 8
ENDMDL
MODEL 8
REMARK VINA RESULT:    -5.817      2.132      5.572
REMARK INTER + INTRA:          -9.304
REMARK INTER:                  -8.370
REMARK INTRA:                  -0.934
REMARK UNBOUND:                -0.766
REMARK SMILES CCCOC(=O)c1ccccc1C(=O)OCCC
REMARK SMILES IDX 7 1 8 2 9 3 10 4 11 5 12 6 5 7 6 8 4 9 3 10 2 11 1 12 13 13
REMARK SMILES IDX 14 14 15 15 16 16 17 17 18 18
REMARK H PARENT
REMARK Flexibility Score: inf
ROOT
ATOM      1  C   UNL     1      52.180  53.501  21.218  1.00  0.00     0.074 A 
ATOM      2  C   UNL     1      52.136  54.283  20.050  1.00  0.00     0.016 A 
ATOM      3  C   UNL     1      52.443  55.644  20.091  1.00  0.00     0.001 A 
ATOM      4  C   UNL     1      52.798  56.244  21.297  1.00  0.00     0.001 A 
ATOM      5  C   UNL     1      52.869  55.481  22.463  1.00  0.00     0.016 A 
ATOM      6  C   UNL     1      52.586  54.104  22.442  1.00  0.00     0.074 A 
ENDROOT
BRANCH   1   7
ATOM      7  C   UNL     1      51.731  52.094  21.122  1.00  0.00     0.339 C 
ATOM      8  O   UNL     1      52.530  51.196  20.737  1.00  0.00    -0.246 OA
BRANCH   7   9
ATOM      9  O   UNL     1      50.429  51.760  21.516  1.00  0.00    -0.462 OA
BRANCH   9  10
ATOM     10  C   UNL     1      49.941  50.421  21.599  1.00  0.00     0.233 C 
BRANCH  10  11
ATOM     11  C   UNL     1      50.327  49.776  22.934  1.00  0.00     0.038 C 
ATOM     12  C   UNL     1      49.130  49.164  23.657  1.00  0.00     0.007 C 
ENDBRANCH  10  11
ENDBRANCH   9  10
ENDBRANCH   7   9
ENDBRANCH   1   7
BRANCH   6  13
ATOM     13  C   UNL     1      52.789  53.335  23.691  1.00  0.00     0.339 C 
ATOM     14  O   UNL     1      53.954  53.094  24.109  1.00  0.00    -0.246 OA
BRANCH  13  15
ATOM     15  O   UNL     1      51.678  52.928  24.436  1.00  0.00    -0.462 OA
BRANCH  15  16
ATOM     16  C   UNL     1      50.507  53.726  24.571  1.00  0.00     0.233 C 
BRANCH  16  17
ATOM     17  C   UNL     1      49.280  52.819  24.630  1.00  0.00     0.038 C 
ATOM     18  C   UNL     1      48.524  52.996  25.945  1.00  0.00     0.007 C 
ENDBRANCH  16  17
ENDBRANCH  15  16
ENDBRANCH  13  15
ENDBRANCH   6  13
TORSDOF 8
ENDMDL
MODEL 9
REMARK VINA RESULT:    -5.718      1.715      4.080
REMARK INTER + INTRA:          -9.158
REMARK INTER:                  -8.556
REMARK INTRA:                  -0.602
REMARK UNBOUND:                -0.766
REMARK SMILES CCCOC(=O)c1ccccc1C(=O)OCCC
REMARK SMILES IDX 7 1 8 2 9 3 10 4 11 5 12 6 5 7 6 8 4 9 3 10 2 11 1 12 13 13
REMARK SMILES IDX 14 14 15 15 16 16 17 17 18 18
REMARK H PARENT
REMARK Flexibility Score: inf
ROOT
ATOM      1  C   UNL     1      48.589  52.327  24.562  1.00  0.00     0.074 A 
ATOM      2  C   UNL     1      47.951  53.238  25.423  1.00  0.00     0.016 A 
ATOM      3  C   UNL     1      46.802  52.870  26.125  1.00  0.00     0.001 A 
ATOM      4  C   UNL     1      46.273  51.590  25.977  1.00  0.00     0.001 A 
ATOM      5  C   UNL     1      46.903  50.664  25.145  1.00  0.00     0.016 A 
ATOM      6  C   UNL     1      48.075  51.005  24.445  1.00  0.00     0.074 A 
ENDROOT
BRANCH   1   7
ATOM      7  C   UNL     1      49.733  52.820  23.763  1.00  0.00     0.339 C 
ATOM      8  O   UNL     1      49.549  53.277  22.602  1.00  0.00    -0.246 OA
BRANCH   7   9
ATOM      9  O   UNL     1      51.015  52.827  24.329  1.00  0.00    -0.462 OA
BRANCH   9  10
ATOM     10  C   UNL     1      51.822  53.996  24.458  1.00  0.00     0.233 C 
BRANCH  10  11
ATOM     11  C   UNL     1      52.874  54.065  23.346  1.00  0.00     0.038 C 
ATOM     12  C   UNL     1      54.107  53.219  23.652  1.00  0.00     0.007 C 
ENDBRANCH  10  11
ENDBRANCH   9  10
ENDBRANCH   7   9
ENDBRANCH   1   7
BRANCH   6  13
ATOM     13  C   UNL     1      48.752  49.942  23.668  1.00  0.00     0.339 C 
ATOM     14  O   UNL     1      48.993  48.822  24.196  1.00  0.00    -0.246 OA
BRANCH  13  15
ATOM     15  O   UNL     1      49.070  50.167  22.326  1.00  0.00    -0.462 OA
BRANCH  15  16
ATOM     16  C   UNL     1      50.322  49.797  21.759  1.00  0.00     0.233 C 
BRANCH  16  17
ATOM     17  C   UNL     1      50.729  50.829  20.709  1.00  0.00     0.038 C 
ATOM     18  C   UNL     1      52.102  51.420  21.018  1.00  0.00     0.007 C 
ENDBRANCH  16  17
ENDBRANCH  15  16
ENDBRANCH  13  15
ENDBRANCH   6  13
TORSDOF 8
ENDMDL
