MODEL 1
REMARK VINA RESULT:    -4.992      0.000      0.000
REMARK INTER + INTRA:          -5.457
REMARK INTER:                  -5.284
REMARK INTRA:                  -0.173
REMARK UNBOUND:                -0.173
REMARK SMILES C=C(C)[C@H]1CC=C(C)CC1
REMARK SMILES IDX 8 1 7 2 6 3 5 4 4 5 10 6 9 7 2 8 1 9 3 10
REMARK H PARENT
REMARK Flexibility Score: inf
ROOT
ATOM      1  C   UNL     1      50.667 -38.897   7.523  1.00  0.00     0.039 C 
ATOM      2  C   UNL     1      50.827 -37.643   8.337  1.00  0.00    -0.077 C 
ATOM      3  C   UNL     1      50.049 -36.576   8.095  1.00  0.00    -0.027 C 
ATOM      4  C   UNL     1      50.191 -35.348   8.951  1.00  0.00     0.035 C 
ATOM      5  C   UNL     1      50.253 -35.740  10.448  1.00  0.00     0.018 C 
ATOM      6  C   UNL     1      51.161 -36.981  10.732  1.00  0.00     0.013 C 
ATOM      7  C   UNL     1      51.824 -37.566   9.471  1.00  0.00     0.031 C 
ENDROOT
BRANCH   5   8
ATOM      8  C   UNL     1      50.662 -34.541  11.291  1.00  0.00    -0.077 C 
ATOM      9  C   UNL     1      51.700 -33.773  10.923  1.00  0.00     0.008 C 
ATOM     10  C   UNL     1      49.930 -34.209  12.567  1.00  0.00     0.039 C 
ENDBRANCH   5   8
TORSDOF 1
ENDMDL
MODEL 2
REMARK VINA RESULT:    -4.971     12.877     14.164
REMARK INTER + INTRA:          -5.435
REMARK INTER:                  -5.263
REMARK INTRA:                  -0.172
REMARK UNBOUND:                -0.173
REMARK SMILES C=C(C)[C@H]1CC=C(C)CC1
REMARK SMILES IDX 8 1 7 2 6 3 5 4 4 5 10 6 9 7 2 8 1 9 3 10
REMARK H PARENT
REMARK Flexibility Score: inf
ROOT
ATOM      1  C   UNL     1      54.147 -39.562  -1.872  1.00  0.00     0.039 C 
ATOM      2  C   UNL     1      52.886 -39.965  -2.586  1.00  0.00    -0.077 C 
ATOM      3  C   UNL     1      52.321 -41.157  -2.338  1.00  0.00    -0.027 C 
ATOM      4  C   UNL     1      51.035 -41.522  -3.026  1.00  0.00     0.035 C 
ATOM      5  C   UNL     1      50.036 -40.341  -2.963  1.00  0.00     0.018 C 
ATOM      6  C   UNL     1      50.693 -38.952  -3.254  1.00  0.00     0.013 C 
ATOM      7  C   UNL     1      52.201 -39.030  -3.556  1.00  0.00     0.031 C 
ENDROOT
BRANCH   5   8
ATOM      8  C   UNL     1      48.849 -40.603  -3.878  1.00  0.00    -0.077 C 
ATOM      9  C   UNL     1      49.040 -40.859  -5.183  1.00  0.00     0.008 C 
ATOM     10  C   UNL     1      47.439 -40.554  -3.346  1.00  0.00     0.039 C 
ENDBRANCH   5   8
TORSDOF 1
ENDMDL
MODEL 3
REMARK VINA RESULT:    -4.882     13.132     14.028
REMARK INTER + INTRA:          -5.340
REMARK INTER:                  -5.182
REMARK INTRA:                  -0.158
REMARK UNBOUND:                -0.173
REMARK SMILES C=C(C)[C@H]1CC=C(C)CC1
REMARK SMILES IDX 8 1 7 2 6 3 5 4 4 5 10 6 9 7 2 8 1 9 3 10
REMARK H PARENT
REMARK Flexibility Score: inf
ROOT
ATOM      1  C   UNL     1      48.379 -40.260  -4.832  1.00  0.00     0.039 C 
ATOM      2  C   UNL     1      49.818 -40.235  -4.396  1.00  0.00    -0.077 C 
ATOM      3  C   UNL     1      50.491 -39.075  -4.348  1.00  0.00    -0.027 C 
ATOM      4  C   UNL     1      51.914 -39.064  -3.863  1.00  0.00     0.035 C 
ATOM      5  C   UNL     1      52.049 -39.908  -2.573  1.00  0.00     0.018 C 
ATOM      6  C   UNL     1      51.269 -41.262  -2.628  1.00  0.00     0.013 C 
ATOM      7  C   UNL     1      50.526 -41.497  -3.956  1.00  0.00     0.031 C 
ENDROOT
BRANCH   5   8
ATOM      8  C   UNL     1      53.518 -40.121  -2.232  1.00  0.00    -0.077 C 
ATOM      9  C   UNL     1      53.965 -41.337  -1.882  1.00  0.00     0.008 C 
ATOM     10  C   UNL     1      54.489 -38.968  -2.253  1.00  0.00     0.039 C 
ENDBRANCH   5   8
TORSDOF 1
ENDMDL
MODEL 4
REMARK VINA RESULT:    -4.840     13.151     13.978
REMARK INTER + INTRA:          -5.296
REMARK INTER:                  -5.137
REMARK INTRA:                  -0.159
REMARK UNBOUND:                -0.173
REMARK SMILES C=C(C)[C@H]1CC=C(C)CC1
REMARK SMILES IDX 8 1 7 2 6 3 5 4 4 5 10 6 9 7 2 8 1 9 3 10
REMARK H PARENT
REMARK Flexibility Score: inf
ROOT
ATOM      1  C   UNL     1      47.085 -40.123  -4.286  1.00  0.00     0.039 C 
ATOM      2  C   UNL     1      48.422 -40.288  -3.615  1.00  0.00    -0.077 C 
ATOM      3  C   UNL     1      49.045 -41.476  -3.633  1.00  0.00    -0.027 C 
ATOM      4  C   UNL     1      50.401 -41.609  -2.998  1.00  0.00     0.035 C 
ATOM      5  C   UNL     1      51.311 -40.430  -3.420  1.00  0.00     0.018 C 
ATOM      6  C   UNL     1      50.587 -39.044  -3.397  1.00  0.00     0.013 C 
ATOM      7  C   UNL     1      49.115 -39.120  -2.951  1.00  0.00     0.031 C 
ENDROOT
BRANCH   5   8
ATOM      8  C   UNL     1      52.579 -40.414  -2.579  1.00  0.00    -0.077 C 
ATOM      9  C   UNL     1      53.349 -39.315  -2.531  1.00  0.00     0.008 C 
ATOM     10  C   UNL     1      53.009 -41.637  -1.808  1.00  0.00     0.039 C 
ENDBRANCH   5   8
TORSDOF 1
ENDMDL
MODEL 5
REMARK VINA RESULT:    -4.796     13.060     14.067
REMARK INTER + INTRA:          -5.249
REMARK INTER:                  -5.078
REMARK INTRA:                  -0.171
REMARK UNBOUND:                -0.173
REMARK SMILES C=C(C)[C@H]1CC=C(C)CC1
REMARK SMILES IDX 8 1 7 2 6 3 5 4 4 5 10 6 9 7 2 8 1 9 3 10
REMARK H PARENT
REMARK Flexibility Score: inf
ROOT
ATOM      1  C   UNL     1      54.840 -40.176  -1.975  1.00  0.00     0.039 C 
ATOM      2  C   UNL     1      53.359 -40.178  -2.239  1.00  0.00    -0.077 C 
ATOM      3  C   UNL     1      52.792 -39.166  -2.913  1.00  0.00    -0.027 C 
ATOM      4  C   UNL     1      51.318 -39.209  -3.209  1.00  0.00     0.035 C 
ATOM      5  C   UNL     1      50.917 -40.605  -3.742  1.00  0.00     0.018 C 
ATOM      6  C   UNL     1      51.575 -41.786  -2.956  1.00  0.00     0.013 C 
ATOM      7  C   UNL     1      52.486 -41.331  -1.801  1.00  0.00     0.031 C 
ENDROOT
BRANCH   5   8
ATOM      8  C   UNL     1      49.401 -40.738  -3.787  1.00  0.00    -0.077 C 
ATOM      9  C   UNL     1      48.680 -40.691  -2.656  1.00  0.00     0.008 C 
ATOM     10  C   UNL     1      48.685 -40.953  -5.097  1.00  0.00     0.039 C 
ENDBRANCH   5   8
TORSDOF 1
ENDMDL
MODEL 6
REMARK VINA RESULT:    -4.793     13.194     14.687
REMARK INTER + INTRA:          -5.246
REMARK INTER:                  -5.085
REMARK INTRA:                  -0.160
REMARK UNBOUND:                -0.173
REMARK SMILES C=C(C)[C@H]1CC=C(C)CC1
REMARK SMILES IDX 8 1 7 2 6 3 5 4 4 5 10 6 9 7 2 8 1 9 3 10
REMARK H PARENT
REMARK Flexibility Score: inf
ROOT
ATOM      1  C   UNL     1      50.727 -41.697  -3.277  1.00  0.00     0.039 C 
ATOM      2  C   UNL     1      49.447 -40.934  -3.484  1.00  0.00    -0.077 C 
ATOM      3  C   UNL     1      48.864 -40.909  -4.693  1.00  0.00    -0.027 C 
ATOM      4  C   UNL     1      47.561 -40.180  -4.870  1.00  0.00     0.035 C 
ATOM      5  C   UNL     1      46.585 -40.535  -3.722  1.00  0.00     0.018 C 
ATOM      6  C   UNL     1      47.263 -40.562  -2.313  1.00  0.00     0.013 C 
ATOM      7  C   UNL     1      48.764 -40.221  -2.339  1.00  0.00     0.031 C 
ENDROOT
BRANCH   5   8
ATOM      8  C   UNL     1      45.379 -39.607  -3.746  1.00  0.00    -0.077 C 
ATOM      9  C   UNL     1      45.307 -38.610  -4.642  1.00  0.00     0.008 C 
ATOM     10  C   UNL     1      44.260 -39.771  -2.750  1.00  0.00     0.039 C 
ENDBRANCH   5   8
TORSDOF 1
ENDMDL
MODEL 7
REMARK VINA RESULT:    -4.775     13.016     14.508
REMARK INTER + INTRA:          -5.227
REMARK INTER:                  -5.059
REMARK INTRA:                  -0.168
REMARK UNBOUND:                -0.173
REMARK SMILES C=C(C)[C@H]1CC=C(C)CC1
REMARK SMILES IDX 8 1 7 2 6 3 5 4 4 5 10 6 9 7 2 8 1 9 3 10
REMARK H PARENT
REMARK Flexibility Score: inf
ROOT
ATOM      1  C   UNL     1      45.025 -39.975  -3.560  1.00  0.00     0.039 C 
ATOM      2  C   UNL     1      46.523 -40.008  -3.425  1.00  0.00    -0.077 C 
ATOM      3  C   UNL     1      47.089 -40.164  -2.218  1.00  0.00    -0.027 C 
ATOM      4  C   UNL     1      48.587 -40.242  -2.109  1.00  0.00     0.035 C 
ATOM      5  C   UNL     1      49.156 -41.197  -3.185  1.00  0.00     0.018 C 
ATOM      6  C   UNL     1      48.499 -41.015  -4.592  1.00  0.00     0.013 C 
ATOM      7  C   UNL     1      47.422 -39.915  -4.637  1.00  0.00     0.031 C 
ENDROOT
BRANCH   5   8
ATOM      8  C   UNL     1      50.671 -41.074  -3.253  1.00  0.00    -0.077 C 
ATOM      9  C   UNL     1      51.449 -42.160  -3.117  1.00  0.00     0.008 C 
ATOM     10  C   UNL     1      51.327 -39.730  -3.447  1.00  0.00     0.039 C 
ENDBRANCH   5   8
TORSDOF 1
ENDMDL
MODEL 8
REMARK VINA RESULT:    -4.675      1.790      3.167
REMARK INTER + INTRA:          -5.121
REMARK INTER:                  -4.958
REMARK INTRA:                  -0.164
REMARK UNBOUND:                -0.173
REMARK SMILES C=C(C)[C@H]1CC=C(C)CC1
REMARK SMILES IDX 8 1 7 2 6 3 5 4 4 5 10 6 9 7 2 8 1 9 3 10
REMARK H PARENT
REMARK Flexibility Score: inf
ROOT
ATOM      1  C   UNL     1      49.861 -41.830   7.889  1.00  0.00     0.039 C 
ATOM      2  C   UNL     1      49.779 -40.422   8.412  1.00  0.00    -0.077 C 
ATOM      3  C   UNL     1      49.469 -40.196   9.698  1.00  0.00    -0.027 C 
ATOM      4  C   UNL     1      49.438 -38.785  10.214  1.00  0.00     0.035 C 
ATOM      5  C   UNL     1      50.689 -38.009   9.736  1.00  0.00     0.018 C 
ATOM      6  C   UNL     1      51.050 -38.269   8.237  1.00  0.00     0.013 C 
ATOM      7  C   UNL     1      50.086 -39.237   7.526  1.00  0.00     0.031 C 
ENDROOT
BRANCH   5   8
ATOM      8  C   UNL     1      50.533 -36.523  10.026  1.00  0.00    -0.077 C 
ATOM      9  C   UNL     1      50.217 -36.101  11.260  1.00  0.00     0.008 C 
ATOM     10  C   UNL     1      50.702 -35.502   8.929  1.00  0.00     0.039 C 
ENDBRANCH   5   8
TORSDOF 1
ENDMDL
MODEL 9
REMARK VINA RESULT:    -4.642      2.285      5.014
REMARK INTER + INTRA:          -5.087
REMARK INTER:                  -4.921
REMARK INTRA:                  -0.166
REMARK UNBOUND:                -0.173
REMARK SMILES C=C(C)[C@H]1CC=C(C)CC1
REMARK SMILES IDX 8 1 7 2 6 3 5 4 4 5 10 6 9 7 2 8 1 9 3 10
REMARK H PARENT
REMARK Flexibility Score: inf
ROOT
ATOM      1  C   UNL     1      50.580 -35.191   8.237  1.00  0.00     0.039 C 
ATOM      2  C   UNL     1      50.296 -36.615   8.629  1.00  0.00    -0.077 C 
ATOM      3  C   UNL     1      49.060 -36.980   9.001  1.00  0.00    -0.027 C 
ATOM      4  C   UNL     1      48.785 -38.418   9.344  1.00  0.00     0.035 C 
ATOM      5  C   UNL     1      49.411 -39.354   8.281  1.00  0.00     0.018 C 
ATOM      6  C   UNL     1      50.853 -38.931   7.849  1.00  0.00     0.013 C 
ATOM      7  C   UNL     1      51.374 -37.674   8.570  1.00  0.00     0.031 C 
ENDROOT
BRANCH   5   8
ATOM      8  C   UNL     1      49.369 -40.798   8.758  1.00  0.00    -0.077 C 
ATOM      9  C   UNL     1      49.162 -41.081  10.054  1.00  0.00     0.008 C 
ATOM     10  C   UNL     1      49.587 -41.936   7.792  1.00  0.00     0.039 C 
ENDBRANCH   5   8
TORSDOF 1
ENDMDL
