MODEL 1
REMARK VINA RESULT:    -3.252      0.000      0.000
REMARK INTER + INTRA:          -7.715
REMARK INTER:                  -5.534
REMARK INTRA:                  -2.181
REMARK UNBOUND:                -2.181
REMARK SMILES CC(=O)CCC[C@H](C)CCC[C@@H](C)CCCC(C)C
REMARK SMILES IDX 10 1 11 2 12 3 13 4 14 5 15 6 16 7 17 8 18 9 19 10 9 11 7 12
REMARK SMILES IDX 8 13 6 14 5 15 4 16 2 17 3 18 1 19
REMARK H PARENT
REMARK Flexibility Score: inf
ROOT
ATOM      1  C   UNL     1     116.698 114.303 113.227  1.00  0.00     0.001 C 
ENDROOT
BRANCH   1   2
ATOM      2  C   UNL     1     115.637 114.627 112.157  1.00  0.00     0.003 C 
BRANCH   2   3
ATOM      3  C   UNL     1     114.390 115.330 112.748  1.00  0.00    -0.014 C 
ATOM      4  C   UNL     1     114.528 115.503 114.274  1.00  0.00     0.007 C 
BRANCH   3   5
ATOM      5  C   UNL     1     114.177 116.697 112.052  1.00  0.00     0.003 C 
BRANCH   5   6
ATOM      6  C   UNL     1     115.238 117.742 112.434  1.00  0.00     0.001 C 
BRANCH   6   7
ATOM      7  C   UNL     1     114.583 119.083 112.807  1.00  0.00     0.003 C 
BRANCH   7   8
ATOM      8  C   UNL     1     114.054 119.108 114.259  1.00  0.00    -0.017 C 
ATOM      9  C   UNL     1     113.070 120.265 114.492  1.00  0.00     0.007 C 
ATOM     10  C   UNL     1     115.226 119.216 115.243  1.00  0.00     0.007 C 
ENDBRANCH   7   8
ENDBRANCH   6   7
ENDBRANCH   5   6
ENDBRANCH   3   5
ENDBRANCH   2   3
ENDBRANCH   1   2
BRANCH   1  11
ATOM     11  C   UNL     1     118.137 114.313 112.674  1.00  0.00     0.003 C 
BRANCH  11  12
ATOM     12  C   UNL     1     118.995 115.554 113.035  1.00  0.00    -0.014 C 
ATOM     13  C   UNL     1     118.925 116.562 111.875  1.00  0.00     0.007 C 
BRANCH  12  14
ATOM     14  C   UNL     1     118.542 116.196 114.370  1.00  0.00     0.004 C 
BRANCH  14  15
ATOM     15  C   UNL     1     118.180 117.684 114.235  1.00  0.00     0.008 C 
BRANCH  15  16
ATOM     16  C   UNL     1     119.178 118.566 114.996  1.00  0.00     0.075 C 
BRANCH  16  17
ATOM     17  C   UNL     1     119.425 119.854 114.254  1.00  0.00     0.129 C 
ATOM     18  O   UNL     1     120.155 120.701 114.746  1.00  0.00    -0.300 OA
ATOM     19  C   UNL     1     118.786 120.125 112.924  1.00  0.00     0.087 C 
ENDBRANCH  16  17
ENDBRANCH  15  16
ENDBRANCH  14  15
ENDBRANCH  12  14
ENDBRANCH  11  12
ENDBRANCH   1  11
TORSDOF 12
ENDMDL
MODEL 2
REMARK VINA RESULT:    -3.153      2.549      4.731
REMARK INTER + INTRA:          -7.546
REMARK INTER:                  -5.381
REMARK INTRA:                  -2.164
REMARK UNBOUND:                -2.181
REMARK SMILES CC(=O)CCC[C@H](C)CCC[C@@H](C)CCCC(C)C
REMARK SMILES IDX 10 1 11 2 12 3 13 4 14 5 15 6 16 7 17 8 18 9 19 10 9 11 7 12
REMARK SMILES IDX 8 13 6 14 5 15 4 16 2 17 3 18 1 19
REMARK H PARENT
REMARK Flexibility Score: inf
ROOT
ATOM      1  C   UNL     1     118.416 117.139 114.678  1.00  0.00     0.001 C 
ENDROOT
BRANCH   1   2
ATOM      2  C   UNL     1     119.252 118.330 114.174  1.00  0.00     0.003 C 
BRANCH   2   3
ATOM      3  C   UNL     1     118.406 119.362 113.388  1.00  0.00    -0.014 C 
ATOM      4  C   UNL     1     118.752 119.328 111.887  1.00  0.00     0.007 C 
BRANCH   3   5
ATOM      5  C   UNL     1     116.898 119.091 113.617  1.00  0.00     0.003 C 
BRANCH   5   6
ATOM      6  C   UNL     1     116.057 119.239 112.339  1.00  0.00     0.001 C 
BRANCH   6   7
ATOM      7  C   UNL     1     114.557 119.096 112.646  1.00  0.00     0.003 C 
BRANCH   7   8
ATOM      8  C   UNL     1     114.256 119.059 114.163  1.00  0.00    -0.017 C 
ATOM      9  C   UNL     1     113.939 117.636 114.651  1.00  0.00     0.007 C 
ATOM     10  C   UNL     1     113.084 119.993 114.488  1.00  0.00     0.007 C 
ENDBRANCH   7   8
ENDBRANCH   6   7
ENDBRANCH   5   6
ENDBRANCH   3   5
ENDBRANCH   2   3
ENDBRANCH   1   2
BRANCH   1  11
ATOM     11  C   UNL     1     118.817 115.799 114.029  1.00  0.00     0.003 C 
BRANCH  11  12
ATOM     12  C   UNL     1     118.642 115.710 112.491  1.00  0.00    -0.014 C 
ATOM     13  C   UNL     1     119.931 115.141 111.875  1.00  0.00     0.007 C 
BRANCH  12  14
ATOM     14  C   UNL     1     117.406 114.860 112.102  1.00  0.00     0.004 C 
BRANCH  14  15
ATOM     15  C   UNL     1     116.070 115.545 112.435  1.00  0.00     0.008 C 
BRANCH  15  16
ATOM     16  C   UNL     1     114.899 114.563 112.302  1.00  0.00     0.075 C 
BRANCH  16  17
ATOM     17  C   UNL     1     114.519 114.000 113.646  1.00  0.00     0.129 C 
ATOM     18  O   UNL     1     113.473 113.381 113.766  1.00  0.00    -0.300 OA
ATOM     19  C   UNL     1     115.394 114.192 114.849  1.00  0.00     0.087 C 
ENDBRANCH  16  17
ENDBRANCH  15  16
ENDBRANCH  14  15
ENDBRANCH  12  14
ENDBRANCH  11  12
ENDBRANCH   1  11
TORSDOF 12
ENDMDL
MODEL 3
REMARK VINA RESULT:    -3.124      3.180      6.494
REMARK INTER + INTRA:          -7.497
REMARK INTER:                  -4.917
REMARK INTRA:                  -2.580
REMARK UNBOUND:                -2.181
REMARK SMILES CC(=O)CCC[C@H](C)CCC[C@@H](C)CCCC(C)C
REMARK SMILES IDX 10 1 11 2 12 3 13 4 14 5 15 6 16 7 17 8 18 9 19 10 9 11 7 12
REMARK SMILES IDX 8 13 6 14 5 15 4 16 2 17 3 18 1 19
REMARK H PARENT
REMARK Flexibility Score: inf
ROOT
ATOM      1  C   UNL     1     115.039 118.731 113.147  1.00  0.00     0.001 C 
ENDROOT
BRANCH   1   2
ATOM      2  C   UNL     1     116.024 118.478 111.990  1.00  0.00     0.003 C 
BRANCH   2   3
ATOM      3  C   UNL     1     117.504 118.614 112.427  1.00  0.00    -0.014 C 
ATOM      4  C   UNL     1     118.093 119.962 111.965  1.00  0.00     0.007 C 
BRANCH   3   5
ATOM      5  C   UNL     1     117.617 118.457 113.964  1.00  0.00     0.003 C 
BRANCH   5   6
ATOM      6  C   UNL     1     118.211 117.106 114.392  1.00  0.00     0.001 C 
BRANCH   6   7
ATOM      7  C   UNL     1     118.890 116.401 113.206  1.00  0.00     0.003 C 
BRANCH   7   8
ATOM      8  C   UNL     1     118.408 114.944 113.017  1.00  0.00    -0.017 C 
ATOM      9  C   UNL     1     117.387 114.821 111.875  1.00  0.00     0.007 C 
ATOM     10  C   UNL     1     117.794 114.421 114.322  1.00  0.00     0.007 C 
ENDBRANCH   7   8
ENDBRANCH   6   7
ENDBRANCH   5   6
ENDBRANCH   3   5
ENDBRANCH   2   3
ENDBRANCH   1   2
BRANCH   1  11
ATOM     11  C   UNL     1     114.035 117.579 113.349  1.00  0.00     0.003 C 
BRANCH  11  12
ATOM     12  C   UNL     1     114.622 116.253 113.899  1.00  0.00    -0.014 C 
ATOM     13  C   UNL     1     114.490 116.248 115.432  1.00  0.00     0.007 C 
BRANCH  12  14
ATOM     14  C   UNL     1     113.936 115.016 113.268  1.00  0.00     0.004 C 
BRANCH  14  15
ATOM     15  C   UNL     1     114.286 113.700 113.982  1.00  0.00     0.008 C 
BRANCH  15  16
ATOM     16  C   UNL     1     113.018 112.951 114.412  1.00  0.00     0.075 C 
BRANCH  16  17
ATOM     17  C   UNL     1     112.972 112.797 115.910  1.00  0.00     0.129 C 
ATOM     18  O   UNL     1     111.892 112.794 116.482  1.00  0.00    -0.300 OA
ATOM     19  C   UNL     1     114.226 112.655 116.720  1.00  0.00     0.087 C 
ENDBRANCH  16  17
ENDBRANCH  15  16
ENDBRANCH  14  15
ENDBRANCH  12  14
ENDBRANCH  11  12
ENDBRANCH   1  11
TORSDOF 12
ENDMDL
MODEL 4
REMARK VINA RESULT:    -3.112      1.922      4.459
REMARK INTER + INTRA:          -7.476
REMARK INTER:                  -5.118
REMARK INTRA:                  -2.358
REMARK UNBOUND:                -2.181
REMARK SMILES CC(=O)CCC[C@H](C)CCC[C@@H](C)CCCC(C)C
REMARK SMILES IDX 10 1 11 2 12 3 13 4 14 5 15 6 16 7 17 8 18 9 19 10 9 11 7 12
REMARK SMILES IDX 8 13 6 14 5 15 4 16 2 17 3 18 1 19
REMARK H PARENT
REMARK Flexibility Score: inf
ROOT
ATOM      1  C   UNL     1     117.352 114.213 113.681  1.00  0.00     0.001 C 
ENDROOT
BRANCH   1   2
ATOM      2  C   UNL     1     117.950 115.606 113.951  1.00  0.00     0.003 C 
BRANCH   2   3
ATOM      3  C   UNL     1     119.242 115.869 113.137  1.00  0.00    -0.014 C 
ATOM      4  C   UNL     1     119.638 114.624 112.318  1.00  0.00     0.007 C 
BRANCH   3   5
ATOM      5  C   UNL     1     119.044 117.099 112.217  1.00  0.00     0.003 C 
BRANCH   5   6
ATOM      6  C   UNL     1     117.684 117.789 112.414  1.00  0.00     0.001 C 
BRANCH   6   7
ATOM      7  C   UNL     1     117.861 119.190 113.022  1.00  0.00     0.003 C 
BRANCH   7   8
ATOM      8  C   UNL     1     118.651 119.172 114.351  1.00  0.00    -0.017 C 
ATOM      9  C   UNL     1     117.753 119.490 115.558  1.00  0.00     0.007 C 
ATOM     10  C   UNL     1     119.810 120.175 114.286  1.00  0.00     0.007 C 
ENDBRANCH   7   8
ENDBRANCH   6   7
ENDBRANCH   5   6
ENDBRANCH   3   5
ENDBRANCH   2   3
ENDBRANCH   1   2
BRANCH   1  11
ATOM     11  C   UNL     1     116.143 114.247 112.725  1.00  0.00     0.003 C 
BRANCH  11  12
ATOM     12  C   UNL     1     115.051 115.301 113.049  1.00  0.00    -0.014 C 
ATOM     13  C   UNL     1     114.058 115.365 111.876  1.00  0.00     0.007 C 
BRANCH  12  14
ATOM     14  C   UNL     1     114.330 114.988 114.384  1.00  0.00     0.004 C 
BRANCH  14  15
ATOM     15  C   UNL     1     114.040 116.243 115.224  1.00  0.00     0.008 C 
BRANCH  15  16
ATOM     16  C   UNL     1     114.934 117.414 114.794  1.00  0.00     0.075 C 
BRANCH  16  17
ATOM     17  C   UNL     1     114.099 118.602 114.395  1.00  0.00     0.129 C 
ATOM     18  O   UNL     1     113.463 119.204 115.246  1.00  0.00    -0.300 OA
ATOM     19  C   UNL     1     114.023 119.060 112.968  1.00  0.00     0.087 C 
ENDBRANCH  16  17
ENDBRANCH  15  16
ENDBRANCH  14  15
ENDBRANCH  12  14
ENDBRANCH  11  12
ENDBRANCH   1  11
TORSDOF 12
ENDMDL
MODEL 5
REMARK VINA RESULT:    -3.111      2.360      6.077
REMARK INTER + INTRA:          -7.474
REMARK INTER:                  -4.982
REMARK INTRA:                  -2.492
REMARK UNBOUND:                -2.181
REMARK SMILES CC(=O)CCC[C@H](C)CCC[C@@H](C)CCCC(C)C
REMARK SMILES IDX 10 1 11 2 12 3 13 4 14 5 15 6 16 7 17 8 18 9 19 10 9 11 7 12
REMARK SMILES IDX 8 13 6 14 5 15 4 16 2 17 3 18 1 19
REMARK H PARENT
REMARK Flexibility Score: inf
ROOT
ATOM      1  C   UNL     1     117.230 118.605 111.875  1.00  0.00     0.001 C 
ENDROOT
BRANCH   1   2
ATOM      2  C   UNL     1     117.723 119.626 112.917  1.00  0.00     0.003 C 
BRANCH   2   3
ATOM      3  C   UNL     1     118.929 119.106 113.738  1.00  0.00    -0.014 C 
ATOM      4  C   UNL     1     118.824 119.548 115.211  1.00  0.00     0.007 C 
BRANCH   3   5
ATOM      5  C   UNL     1     119.015 117.563 113.627  1.00  0.00     0.003 C 
BRANCH   5   6
ATOM      6  C   UNL     1     118.624 116.840 114.926  1.00  0.00     0.001 C 
BRANCH   6   7
ATOM      7  C   UNL     1     118.173 115.398 114.640  1.00  0.00     0.003 C 
BRANCH   7   8
ATOM      8  C   UNL     1     118.398 114.979 113.169  1.00  0.00    -0.017 C 
ATOM      9  C   UNL     1     117.094 114.522 112.496  1.00  0.00     0.007 C 
ATOM     10  C   UNL     1     119.442 113.857 113.096  1.00  0.00     0.007 C 
ENDBRANCH   7   8
ENDBRANCH   6   7
ENDBRANCH   5   6
ENDBRANCH   3   5
ENDBRANCH   2   3
ENDBRANCH   1   2
BRANCH   1  11
ATOM     11  C   UNL     1     115.717 118.322 111.972  1.00  0.00     0.003 C 
BRANCH  11  12
ATOM     12  C   UNL     1     115.021 118.791 113.276  1.00  0.00    -0.014 C 
ATOM     13  C   UNL     1     113.553 119.126 112.963  1.00  0.00     0.007 C 
BRANCH  12  14
ATOM     14  C   UNL     1     115.131 117.728 114.399  1.00  0.00     0.004 C 
BRANCH  14  15
ATOM     15  C   UNL     1     114.534 116.367 114.005  1.00  0.00     0.008 C 
BRANCH  15  16
ATOM     16  C   UNL     1     114.051 115.598 115.242  1.00  0.00     0.075 C 
BRANCH  16  17
ATOM     17  C   UNL     1     114.289 114.120 115.077  1.00  0.00     0.129 C 
ATOM     18  O   UNL     1     115.301 113.618 115.541  1.00  0.00    -0.300 OA
ATOM     19  C   UNL     1     113.313 113.248 114.344  1.00  0.00     0.087 C 
ENDBRANCH  16  17
ENDBRANCH  15  16
ENDBRANCH  14  15
ENDBRANCH  12  14
ENDBRANCH  11  12
ENDBRANCH   1  11
TORSDOF 12
ENDMDL
MODEL 6
REMARK VINA RESULT:    -3.086      2.325      4.630
REMARK INTER + INTRA:          -7.433
REMARK INTER:                  -4.717
REMARK INTRA:                  -2.716
REMARK UNBOUND:                -2.181
REMARK SMILES CC(=O)CCC[C@H](C)CCC[C@@H](C)CCCC(C)C
REMARK SMILES IDX 10 1 11 2 12 3 13 4 14 5 15 6 16 7 17 8 18 9 19 10 9 11 7 12
REMARK SMILES IDX 8 13 6 14 5 15 4 16 2 17 3 18 1 19
REMARK H PARENT
REMARK Flexibility Score: inf
ROOT
ATOM      1  C   UNL     1     114.689 113.704 115.302  1.00  0.00     0.001 C 
ENDROOT
BRANCH   1   2
ATOM      2  C   UNL     1     114.047 114.292 114.031  1.00  0.00     0.003 C 
BRANCH   2   3
ATOM      3  C   UNL     1     114.936 114.110 112.775  1.00  0.00    -0.014 C 
ATOM      4  C   UNL     1     114.393 112.983 111.876  1.00  0.00     0.007 C 
BRANCH   3   5
ATOM      5  C   UNL     1     115.027 115.446 111.996  1.00  0.00     0.003 C 
BRANCH   5   6
ATOM      6  C   UNL     1     116.464 115.979 111.876  1.00  0.00     0.001 C 
BRANCH   6   7
ATOM      7  C   UNL     1     117.488 114.893 112.244  1.00  0.00     0.003 C 
BRANCH   7   8
ATOM      8  C   UNL     1     118.852 115.477 112.680  1.00  0.00    -0.017 C 
ATOM      9  C   UNL     1     119.321 114.899 114.025  1.00  0.00     0.007 C 
ATOM     10  C   UNL     1     118.762 117.006 112.775  1.00  0.00     0.007 C 
ENDBRANCH   7   8
ENDBRANCH   6   7
ENDBRANCH   5   6
ENDBRANCH   3   5
ENDBRANCH   2   3
ENDBRANCH   1   2
BRANCH   1  11
ATOM     11  C   UNL     1     116.083 114.291 115.603  1.00  0.00     0.003 C 
BRANCH  11  12
ATOM     12  C   UNL     1     116.102 115.631 116.384  1.00  0.00    -0.014 C 
ATOM     13  C   UNL     1     117.224 115.579 117.435  1.00  0.00     0.007 C 
BRANCH  12  14
ATOM     14  C   UNL     1     116.271 116.845 115.436  1.00  0.00     0.004 C 
BRANCH  14  15
ATOM     15  C   UNL     1     114.940 117.533 115.090  1.00  0.00     0.008 C 
BRANCH  15  16
ATOM     16  C   UNL     1     115.162 118.724 114.149  1.00  0.00     0.075 C 
BRANCH  16  17
ATOM     17  C   UNL     1     113.846 119.285 113.678  1.00  0.00     0.129 C 
ATOM     18  O   UNL     1     113.329 120.205 114.294  1.00  0.00    -0.300 OA
ATOM     19  C   UNL     1     113.147 118.730 112.472  1.00  0.00     0.087 C 
ENDBRANCH  16  17
ENDBRANCH  15  16
ENDBRANCH  14  15
ENDBRANCH  12  14
ENDBRANCH  11  12
ENDBRANCH   1  11
TORSDOF 12
ENDMDL
MODEL 7
REMARK VINA RESULT:    -3.065      1.745      4.016
REMARK INTER + INTRA:          -7.397
REMARK INTER:                  -5.307
REMARK INTRA:                  -2.090
REMARK UNBOUND:                -2.181
REMARK SMILES CC(=O)CCC[C@H](C)CCC[C@@H](C)CCCC(C)C
REMARK SMILES IDX 10 1 11 2 12 3 13 4 14 5 15 6 16 7 17 8 18 9 19 10 9 11 7 12
REMARK SMILES IDX 8 13 6 14 5 15 4 16 2 17 3 18 1 19
REMARK H PARENT
REMARK Flexibility Score: inf
ROOT
ATOM      1  C   UNL     1     117.819 116.705 114.867  1.00  0.00     0.001 C 
ENDROOT
BRANCH   1   2
ATOM      2  C   UNL     1     119.080 116.189 114.149  1.00  0.00     0.003 C 
BRANCH   2   3
ATOM      3  C   UNL     1     118.749 115.234 112.975  1.00  0.00    -0.014 C 
ATOM      4  C   UNL     1     119.977 114.382 112.597  1.00  0.00     0.007 C 
BRANCH   3   5
ATOM      5  C   UNL     1     117.545 114.336 113.351  1.00  0.00     0.003 C 
BRANCH   5   6
ATOM      6  C   UNL     1     116.506 114.215 112.224  1.00  0.00     0.001 C 
BRANCH   6   7
ATOM      7  C   UNL     1     115.762 115.545 112.015  1.00  0.00     0.003 C 
BRANCH   7   8
ATOM      8  C   UNL     1     114.330 115.529 112.599  1.00  0.00    -0.017 C 
ATOM      9  C   UNL     1     114.244 116.290 113.931  1.00  0.00     0.007 C 
ATOM     10  C   UNL     1     113.860 114.082 112.796  1.00  0.00     0.007 C 
ENDBRANCH   7   8
ENDBRANCH   6   7
ENDBRANCH   5   6
ENDBRANCH   3   5
ENDBRANCH   2   3
ENDBRANCH   1   2
BRANCH   1  11
ATOM     11  C   UNL     1     117.573 118.212 114.653  1.00  0.00     0.003 C 
BRANCH  11  12
ATOM     12  C   UNL     1     117.838 118.747 113.221  1.00  0.00    -0.014 C 
ATOM     13  C   UNL     1     116.497 119.152 112.586  1.00  0.00     0.007 C 
BRANCH  12  14
ATOM     14  C   UNL     1     118.841 119.927 113.226  1.00  0.00     0.004 C 
BRANCH  14  15
ATOM     15  C   UNL     1     119.964 119.764 114.263  1.00  0.00     0.008 C 
BRANCH  15  16
ATOM     16  C   UNL     1     120.010 120.962 115.221  1.00  0.00     0.075 C 
BRANCH  16  17
ATOM     17  C   UNL     1     120.781 120.619 116.468  1.00  0.00     0.129 C 
ATOM     18  O   UNL     1     121.945 120.975 116.574  1.00  0.00    -0.300 OA
ATOM     19  C   UNL     1     120.154 119.837 117.584  1.00  0.00     0.087 C 
ENDBRANCH  16  17
ENDBRANCH  15  16
ENDBRANCH  14  15
ENDBRANCH  12  14
ENDBRANCH  11  12
ENDBRANCH   1  11
TORSDOF 12
ENDMDL
MODEL 8
REMARK VINA RESULT:    -3.017      3.041      5.656
REMARK INTER + INTRA:          -7.315
REMARK INTER:                  -4.955
REMARK INTRA:                  -2.360
REMARK UNBOUND:                -2.181
REMARK SMILES CC(=O)CCC[C@H](C)CCC[C@@H](C)CCCC(C)C
REMARK SMILES IDX 10 1 11 2 12 3 13 4 14 5 15 6 16 7 17 8 18 9 19 10 9 11 7 12
REMARK SMILES IDX 8 13 6 14 5 15 4 16 2 17 3 18 1 19
REMARK H PARENT
REMARK Flexibility Score: inf
ROOT
ATOM      1  C   UNL     1     117.701 114.149 111.969  1.00  0.00     0.001 C 
ENDROOT
BRANCH   1   2
ATOM      2  C   UNL     1     118.988 114.476 112.749  1.00  0.00     0.003 C 
BRANCH   2   3
ATOM      3  C   UNL     1     118.876 114.131 114.255  1.00  0.00    -0.014 C 
ATOM      4  C   UNL     1     120.052 113.242 114.704  1.00  0.00     0.007 C 
BRANCH   3   5
ATOM      5  C   UNL     1     118.815 115.434 115.090  1.00  0.00     0.003 C 
BRANCH   5   6
ATOM      6  C   UNL     1     118.889 116.708 114.232  1.00  0.00     0.001 C 
BRANCH   6   7
ATOM      7  C   UNL     1     117.889 117.765 114.728  1.00  0.00     0.003 C 
BRANCH   7   8
ATOM      8  C   UNL     1     117.689 118.921 113.721  1.00  0.00    -0.017 C 
ATOM      9  C   UNL     1     116.302 118.873 113.060  1.00  0.00     0.007 C 
ATOM     10  C   UNL     1     118.780 118.872 112.643  1.00  0.00     0.007 C 
ENDBRANCH   7   8
ENDBRANCH   6   7
ENDBRANCH   5   6
ENDBRANCH   3   5
ENDBRANCH   2   3
ENDBRANCH   1   2
BRANCH   1  11
ATOM     11  C   UNL     1     116.729 115.342 111.875  1.00  0.00     0.003 C 
BRANCH  11  12
ATOM     12  C   UNL     1     115.279 115.076 112.355  1.00  0.00    -0.014 C 
ATOM     13  C   UNL     1     114.889 113.635 111.985  1.00  0.00     0.007 C 
BRANCH  12  14
ATOM     14  C   UNL     1     115.121 115.332 113.875  1.00  0.00     0.004 C 
BRANCH  14  15
ATOM     15  C   UNL     1     115.211 114.050 114.718  1.00  0.00     0.008 C 
BRANCH  15  16
ATOM     16  C   UNL     1     114.473 114.214 116.053  1.00  0.00     0.075 C 
BRANCH  16  17
ATOM     17  C   UNL     1     113.273 113.306 116.114  1.00  0.00     0.129 C 
ATOM     18  O   UNL     1     112.663 113.185 117.165  1.00  0.00    -0.300 OA
ATOM     19  C   UNL     1     112.813 112.536 114.911  1.00  0.00     0.087 C 
ENDBRANCH  16  17
ENDBRANCH  15  16
ENDBRANCH  14  15
ENDBRANCH  12  14
ENDBRANCH  11  12
ENDBRANCH   1  11
TORSDOF 12
ENDMDL
MODEL 9
REMARK VINA RESULT:    -2.990      2.334      4.571
REMARK INTER + INTRA:          -7.270
REMARK INTER:                  -4.889
REMARK INTRA:                  -2.381
REMARK UNBOUND:                -2.181
REMARK SMILES CC(=O)CCC[C@H](C)CCC[C@@H](C)CCCC(C)C
REMARK SMILES IDX 10 1 11 2 12 3 13 4 14 5 15 6 16 7 17 8 18 9 19 10 9 11 7 12
REMARK SMILES IDX 8 13 6 14 5 15 4 16 2 17 3 18 1 19
REMARK H PARENT
REMARK Flexibility Score: inf
ROOT
ATOM      1  C   UNL     1     116.826 119.227 112.435  1.00  0.00     0.001 C 
ENDROOT
BRANCH   1   2
ATOM      2  C   UNL     1     115.381 118.804 112.756  1.00  0.00     0.003 C 
BRANCH   2   3
ATOM      3  C   UNL     1     115.313 117.504 113.597  1.00  0.00    -0.014 C 
ATOM      4  C   UNL     1     114.925 117.814 115.057  1.00  0.00     0.007 C 
BRANCH   3   5
ATOM      5  C   UNL     1     114.312 116.512 112.955  1.00  0.00     0.003 C 
BRANCH   5   6
ATOM      6  C   UNL     1     114.999 115.360 112.204  1.00  0.00     0.001 C 
BRANCH   6   7
ATOM      7  C   UNL     1     115.287 114.181 113.148  1.00  0.00     0.003 C 
BRANCH   7   8
ATOM      8  C   UNL     1     114.348 114.152 114.376  1.00  0.00    -0.017 C 
ATOM      9  C   UNL     1     115.108 113.832 115.673  1.00  0.00     0.007 C 
ATOM     10  C   UNL     1     113.232 113.122 114.160  1.00  0.00     0.007 C 
ENDBRANCH   7   8
ENDBRANCH   6   7
ENDBRANCH   5   6
ENDBRANCH   3   5
ENDBRANCH   2   3
ENDBRANCH   1   2
BRANCH   1  11
ATOM     11  C   UNL     1     117.685 118.076 111.875  1.00  0.00     0.003 C 
BRANCH  11  12
ATOM     12  C   UNL     1     118.906 117.659 112.736  1.00  0.00    -0.014 C 
ATOM     13  C   UNL     1     118.880 118.450 114.054  1.00  0.00     0.007 C 
BRANCH  12  14
ATOM     14  C   UNL     1     118.930 116.131 112.994  1.00  0.00     0.004 C 
BRANCH  14  15
ATOM     15  C   UNL     1     118.651 115.760 114.460  1.00  0.00     0.008 C 
BRANCH  15  16
ATOM     16  C   UNL     1     118.794 114.249 114.684  1.00  0.00     0.075 C 
BRANCH  16  17
ATOM     17  C   UNL     1     119.674 113.967 115.873  1.00  0.00     0.129 C 
ATOM     18  O   UNL     1     119.767 114.799 116.763  1.00  0.00    -0.300 OA
ATOM     19  C   UNL     1     120.449 112.688 115.987  1.00  0.00     0.087 C 
ENDBRANCH  16  17
ENDBRANCH  15  16
ENDBRANCH  14  15
ENDBRANCH  12  14
ENDBRANCH  11  12
ENDBRANCH   1  11
TORSDOF 12
ENDMDL
