MODEL 1
REMARK VINA RESULT:    -4.186      0.000      0.000
REMARK INTER + INTRA:          -5.389
REMARK INTER:                  -5.165
REMARK INTRA:                  -0.225
REMARK UNBOUND:                -0.225
REMARK SMILES CCCCC(=O)c1ccccc1
REMARK SMILES IDX 4 1 3 2 2 3 1 4 5 5 6 6 7 7 8 8 12 9 9 10 11 11 10 12
REMARK H PARENT
REMARK Flexibility Score: inf
ROOT
ATOM      1  C   UNL     1     160.975 170.303  19.147  1.00  0.00     0.081 C 
ENDROOT
BRANCH   1   2
ATOM      2  C   UNL     1     160.807 171.094  20.452  1.00  0.00     0.008 C 
BRANCH   2   3
ATOM      3  C   UNL     1     159.606 172.051  20.410  1.00  0.00    -0.003 C 
ATOM      4  C   UNL     1     159.877 173.369  21.135  1.00  0.00     0.004 C 
ENDBRANCH   2   3
ENDBRANCH   1   2
BRANCH   1   5
ATOM      5  C   UNL     1     162.384 169.790  19.014  1.00  0.00     0.162 C 
ATOM      6  O   UNL     1     162.898 169.212  20.010  1.00  0.00    -0.294 OA
BRANCH   5   7
ATOM      7  C   UNL     1     163.193 169.967  17.774  1.00  0.00     0.017 A 
ATOM      8  C   UNL     1     162.792 170.845  16.745  1.00  0.00     0.012 A 
ATOM      9  C   UNL     1     164.395 169.248  17.614  1.00  0.00     0.012 A 
ATOM     10  C   UNL     1     163.572 170.992  15.592  1.00  0.00     0.001 A 
ATOM     11  C   UNL     1     165.170 169.400  16.461  1.00  0.00     0.001 A 
ATOM     12  C   UNL     1     164.759 170.271  15.451  1.00  0.00     0.000 A 
ENDBRANCH   5   7
ENDBRANCH   1   5
TORSDOF 4
ENDMDL
MODEL 2
REMARK VINA RESULT:    -4.103      0.508      1.457
REMARK INTER + INTRA:          -5.287
REMARK INTER:                  -5.041
REMARK INTRA:                  -0.246
REMARK UNBOUND:                -0.225
REMARK SMILES CCCCC(=O)c1ccccc1
REMARK SMILES IDX 4 1 3 2 2 3 1 4 5 5 6 6 7 7 8 8 12 9 9 10 11 11 10 12
REMARK H PARENT
REMARK Flexibility Score: inf
ROOT
ATOM      1  C   UNL     1     160.914 170.254  19.089  1.00  0.00     0.081 C 
ENDROOT
BRANCH   1   2
ATOM      2  C   UNL     1     160.843 171.085  20.379  1.00  0.00     0.008 C 
BRANCH   2   3
ATOM      3  C   UNL     1     159.653 172.057  20.388  1.00  0.00    -0.003 C 
ATOM      4  C   UNL     1     159.950 173.344  21.158  1.00  0.00     0.004 C 
ENDBRANCH   2   3
ENDBRANCH   1   2
BRANCH   1   5
ATOM      5  C   UNL     1     162.337 169.864  18.787  1.00  0.00     0.162 C 
ATOM      6  O   UNL     1     162.997 169.289  19.694  1.00  0.00    -0.294 OA
BRANCH   5   7
ATOM      7  C   UNL     1     162.993 170.159  17.480  1.00  0.00     0.017 A 
ATOM      8  C   UNL     1     164.347 169.848  17.242  1.00  0.00     0.012 A 
ATOM      9  C   UNL     1     162.248 170.762  16.445  1.00  0.00     0.012 A 
ATOM     10  C   UNL     1     164.935 170.135  16.005  1.00  0.00     0.001 A 
ATOM     11  C   UNL     1     162.842 171.045  15.212  1.00  0.00     0.001 A 
ATOM     12  C   UNL     1     164.184 170.733  14.992  1.00  0.00     0.000 A 
ENDBRANCH   5   7
ENDBRANCH   1   5
TORSDOF 4
ENDMDL
MODEL 3
REMARK VINA RESULT:    -4.075      1.776      2.730
REMARK INTER + INTRA:          -5.252
REMARK INTER:                  -4.916
REMARK INTRA:                  -0.336
REMARK UNBOUND:                -0.225
REMARK SMILES CCCCC(=O)c1ccccc1
REMARK SMILES IDX 4 1 3 2 2 3 1 4 5 5 6 6 7 7 8 8 12 9 9 10 11 11 10 12
REMARK H PARENT
REMARK Flexibility Score: inf
ROOT
ATOM      1  C   UNL     1     161.718 170.637  19.771  1.00  0.00     0.081 C 
ENDROOT
BRANCH   1   2
ATOM      2  C   UNL     1     161.581 169.325  20.558  1.00  0.00     0.008 C 
BRANCH   2   3
ATOM      3  C   UNL     1     162.838 168.999  21.380  1.00  0.00    -0.003 C 
ATOM      4  C   UNL     1     162.679 169.344  22.860  1.00  0.00     0.004 C 
ENDBRANCH   2   3
ENDBRANCH   1   2
BRANCH   1   5
ATOM      5  C   UNL     1     161.607 170.382  18.291  1.00  0.00     0.162 C 
ATOM      6  O   UNL     1     160.453 170.253  17.800  1.00  0.00    -0.294 OA
BRANCH   5   7
ATOM      7  C   UNL     1     162.799 170.247  17.405  1.00  0.00     0.017 A 
ATOM      8  C   UNL     1     163.895 169.431  17.753  1.00  0.00     0.012 A 
ATOM      9  C   UNL     1     162.842 170.946  16.181  1.00  0.00     0.012 A 
ATOM     10  C   UNL     1     164.999 169.323  16.901  1.00  0.00     0.001 A 
ATOM     11  C   UNL     1     163.948 170.832  15.334  1.00  0.00     0.001 A 
ATOM     12  C   UNL     1     165.026 170.022  15.693  1.00  0.00     0.000 A 
ENDBRANCH   5   7
ENDBRANCH   1   5
TORSDOF 4
ENDMDL
MODEL 4
REMARK VINA RESULT:    -3.859     20.956     22.757
REMARK INTER + INTRA:          -4.986
REMARK INTER:                  -4.427
REMARK INTRA:                  -0.559
REMARK UNBOUND:                -0.225
REMARK SMILES CCCCC(=O)c1ccccc1
REMARK SMILES IDX 4 1 3 2 2 3 1 4 5 5 6 6 7 7 8 8 12 9 9 10 11 11 10 12
REMARK H PARENT
REMARK Flexibility Score: inf
ROOT
ATOM      1  C   UNL     1     170.959 186.898  32.748  1.00  0.00     0.081 C 
ENDROOT
BRANCH   1   2
ATOM      2  C   UNL     1     169.492 186.978  32.302  1.00  0.00     0.008 C 
BRANCH   2   3
ATOM      3  C   UNL     1     169.017 185.690  31.612  1.00  0.00    -0.003 C 
ATOM      4  C   UNL     1     169.837 185.352  30.367  1.00  0.00     0.004 C 
ENDBRANCH   2   3
ENDBRANCH   1   2
BRANCH   1   5
ATOM      5  C   UNL     1     171.107 185.963  33.920  1.00  0.00     0.162 C 
ATOM      6  O   UNL     1     170.545 186.280  35.003  1.00  0.00    -0.294 OA
BRANCH   5   7
ATOM      7  C   UNL     1     171.911 184.709  33.852  1.00  0.00     0.017 A 
ATOM      8  C   UNL     1     172.501 184.267  32.650  1.00  0.00     0.012 A 
ATOM      9  C   UNL     1     172.099 183.936  35.017  1.00  0.00     0.012 A 
ATOM     10  C   UNL     1     173.251 183.087  32.617  1.00  0.00     0.001 A 
ATOM     11  C   UNL     1     172.851 182.758  34.978  1.00  0.00     0.001 A 
ATOM     12  C   UNL     1     173.426 182.334  33.779  1.00  0.00     0.000 A 
ENDBRANCH   5   7
ENDBRANCH   1   5
TORSDOF 4
ENDMDL
MODEL 5
REMARK VINA RESULT:    -3.815     20.534     21.686
REMARK INTER + INTRA:          -4.932
REMARK INTER:                  -4.379
REMARK INTRA:                  -0.553
REMARK UNBOUND:                -0.225
REMARK SMILES CCCCC(=O)c1ccccc1
REMARK SMILES IDX 4 1 3 2 2 3 1 4 5 5 6 6 7 7 8 8 12 9 9 10 11 11 10 12
REMARK H PARENT
REMARK Flexibility Score: inf
ROOT
ATOM      1  C   UNL     1     172.434 183.878  32.230  1.00  0.00     0.081 C 
ENDROOT
BRANCH   1   2
ATOM      2  C   UNL     1     172.868 183.219  33.547  1.00  0.00     0.008 C 
BRANCH   2   3
ATOM      3  C   UNL     1     171.700 182.536  34.276  1.00  0.00    -0.003 C 
ATOM      4  C   UNL     1     170.959 181.535  33.390  1.00  0.00     0.004 C 
ENDBRANCH   2   3
ENDBRANCH   1   2
BRANCH   1   5
ATOM      5  C   UNL     1     171.543 185.063  32.497  1.00  0.00     0.162 C 
ATOM      6  O   UNL     1     171.993 185.986  33.228  1.00  0.00    -0.294 OA
BRANCH   5   7
ATOM      7  C   UNL     1     170.155 185.164  31.961  1.00  0.00     0.017 A 
ATOM      8  C   UNL     1     169.030 184.831  32.743  1.00  0.00     0.012 A 
ATOM      9  C   UNL     1     169.947 185.609  30.639  1.00  0.00     0.012 A 
ATOM     10  C   UNL     1     167.739 184.937  32.214  1.00  0.00     0.001 A 
ATOM     11  C   UNL     1     168.655 185.714  30.117  1.00  0.00     0.001 A 
ATOM     12  C   UNL     1     167.552 185.378  30.903  1.00  0.00     0.000 A 
ENDBRANCH   5   7
ENDBRANCH   1   5
TORSDOF 4
ENDMDL
MODEL 6
REMARK VINA RESULT:    -3.811     19.941     21.518
REMARK INTER + INTRA:          -4.927
REMARK INTER:                  -4.180
REMARK INTRA:                  -0.747
REMARK UNBOUND:                -0.225
REMARK SMILES CCCCC(=O)c1ccccc1
REMARK SMILES IDX 4 1 3 2 2 3 1 4 5 5 6 6 7 7 8 8 12 9 9 10 11 11 10 12
REMARK H PARENT
REMARK Flexibility Score: inf
ROOT
ATOM      1  C   UNL     1     166.765 184.983  30.983  1.00  0.00     0.081 C 
ENDROOT
BRANCH   1   2
ATOM      2  C   UNL     1     166.502 185.085  32.493  1.00  0.00     0.008 C 
BRANCH   2   3
ATOM      3  C   UNL     1     166.924 183.817  33.250  1.00  0.00    -0.003 C 
ATOM      4  C   UNL     1     168.150 184.041  34.136  1.00  0.00     0.004 C 
ENDBRANCH   2   3
ENDBRANCH   1   2
BRANCH   1   5
ATOM      5  C   UNL     1     167.835 185.956  30.564  1.00  0.00     0.162 C 
ATOM      6  O   UNL     1     167.641 186.633  29.518  1.00  0.00    -0.294 OA
BRANCH   5   7
ATOM      7  C   UNL     1     169.113 186.120  31.316  1.00  0.00     0.017 A 
ATOM      8  C   UNL     1     169.306 187.174  32.232  1.00  0.00     0.012 A 
ATOM      9  C   UNL     1     170.164 185.200  31.117  1.00  0.00     0.012 A 
ATOM     10  C   UNL     1     170.516 187.302  32.924  1.00  0.00     0.001 A 
ATOM     11  C   UNL     1     171.369 185.333  31.812  1.00  0.00     0.001 A 
ATOM     12  C   UNL     1     171.545 186.383  32.715  1.00  0.00     0.000 A 
ENDBRANCH   5   7
ENDBRANCH   1   5
TORSDOF 4
ENDMDL
MODEL 7
REMARK VINA RESULT:    -3.786     20.557     21.907
REMARK INTER + INTRA:          -4.896
REMARK INTER:                  -4.689
REMARK INTRA:                  -0.206
REMARK UNBOUND:                -0.225
REMARK SMILES CCCCC(=O)c1ccccc1
REMARK SMILES IDX 4 1 3 2 2 3 1 4 5 5 6 6 7 7 8 8 12 9 9 10 11 11 10 12
REMARK H PARENT
REMARK Flexibility Score: inf
ROOT
ATOM      1  C   UNL     1     172.056 183.215  32.298  1.00  0.00     0.081 C 
ENDROOT
BRANCH   1   2
ATOM      2  C   UNL     1     173.482 183.217  32.869  1.00  0.00     0.008 C 
BRANCH   2   3
ATOM      3  C   UNL     1     173.596 182.406  34.169  1.00  0.00    -0.003 C 
ATOM      4  C   UNL     1     174.874 182.718  34.948  1.00  0.00     0.004 C 
ENDBRANCH   2   3
ENDBRANCH   1   2
BRANCH   1   5
ATOM      5  C   UNL     1     171.402 184.556  32.502  1.00  0.00     0.162 C 
ATOM      6  O   UNL     1     171.995 185.398  33.229  1.00  0.00    -0.294 OA
BRANCH   5   7
ATOM      7  C   UNL     1     170.079 184.904  31.908  1.00  0.00     0.017 A 
ATOM      8  C   UNL     1     169.968 185.468  30.621  1.00  0.00     0.012 A 
ATOM      9  C   UNL     1     168.899 184.665  32.642  1.00  0.00     0.012 A 
ATOM     10  C   UNL     1     168.713 185.784  30.089  1.00  0.00     0.001 A 
ATOM     11  C   UNL     1     167.648 184.982  32.104  1.00  0.00     0.001 A 
ATOM     12  C   UNL     1     167.555 185.541  30.829  1.00  0.00     0.000 A 
ENDBRANCH   5   7
ENDBRANCH   1   5
TORSDOF 4
ENDMDL
MODEL 8
REMARK VINA RESULT:    -3.760     20.354     22.293
REMARK INTER + INTRA:          -4.864
REMARK INTER:                  -4.256
REMARK INTRA:                  -0.608
REMARK UNBOUND:                -0.225
REMARK SMILES CCCCC(=O)c1ccccc1
REMARK SMILES IDX 4 1 3 2 2 3 1 4 5 5 6 6 7 7 8 8 12 9 9 10 11 11 10 12
REMARK H PARENT
REMARK Flexibility Score: inf
ROOT
ATOM      1  C   UNL     1     171.427 186.779  32.617  1.00  0.00     0.081 C 
ENDROOT
BRANCH   1   2
ATOM      2  C   UNL     1     171.679 185.732  33.712  1.00  0.00     0.008 C 
BRANCH   2   3
ATOM      3  C   UNL     1     172.263 184.425  33.153  1.00  0.00    -0.003 C 
ATOM      4  C   UNL     1     171.368 183.787  32.092  1.00  0.00     0.004 C 
ENDBRANCH   2   3
ENDBRANCH   1   2
BRANCH   1   5
ATOM      5  C   UNL     1     170.002 187.262  32.662  1.00  0.00     0.162 C 
ATOM      6  O   UNL     1     169.773 188.378  33.202  1.00  0.00    -0.294 OA
BRANCH   5   7
ATOM      7  C   UNL     1     168.863 186.461  32.127  1.00  0.00     0.017 A 
ATOM      8  C   UNL     1     168.549 186.443  30.752  1.00  0.00     0.012 A 
ATOM      9  C   UNL     1     168.074 185.693  33.008  1.00  0.00     0.012 A 
ATOM     10  C   UNL     1     167.475 185.682  30.278  1.00  0.00     0.001 A 
ATOM     11  C   UNL     1     167.003 184.933  32.527  1.00  0.00     0.001 A 
ATOM     12  C   UNL     1     166.703 184.928  31.165  1.00  0.00     0.000 A 
ENDBRANCH   5   7
ENDBRANCH   1   5
TORSDOF 4
ENDMDL
MODEL 9
REMARK VINA RESULT:    -3.121      1.592      5.441
REMARK INTER + INTRA:          -4.075
REMARK INTER:                  -3.757
REMARK INTRA:                  -0.318
REMARK UNBOUND:                -0.225
REMARK SMILES CCCCC(=O)c1ccccc1
REMARK SMILES IDX 4 1 3 2 2 3 1 4 5 5 6 6 7 7 8 8 12 9 9 10 11 11 10 12
REMARK H PARENT
REMARK Flexibility Score: inf
ROOT
ATOM      1  C   UNL     1     163.186 170.793  17.529  1.00  0.00     0.081 C 
ENDROOT
BRANCH   1   2
ATOM      2  C   UNL     1     164.416 169.927  17.220  1.00  0.00     0.008 C 
BRANCH   2   3
ATOM      3  C   UNL     1     164.883 170.069  15.763  1.00  0.00    -0.003 C 
ATOM      4  C   UNL     1     163.843 170.752  14.875  1.00  0.00     0.004 C 
ENDBRANCH   2   3
ENDBRANCH   1   2
BRANCH   1   5
ATOM      5  C   UNL     1     162.102 169.965  18.167  1.00  0.00     0.162 C 
ATOM      6  O   UNL     1     161.368 169.271  17.413  1.00  0.00    -0.294 OA
BRANCH   5   7
ATOM      7  C   UNL     1     161.849 169.963  19.637  1.00  0.00     0.017 A 
ATOM      8  C   UNL     1     162.633 169.198  20.525  1.00  0.00     0.012 A 
ATOM      9  C   UNL     1     160.804 170.747  20.168  1.00  0.00     0.012 A 
ATOM     10  C   UNL     1     162.374 169.218  21.900  1.00  0.00     0.001 A 
ATOM     11  C   UNL     1     160.551 170.763  21.542  1.00  0.00     0.001 A 
ATOM     12  C   UNL     1     161.334 169.999  22.408  1.00  0.00     0.000 A 
ENDBRANCH   5   7
ENDBRANCH   1   5
TORSDOF 4
ENDMDL
