MODEL 1
REMARK VINA RESULT:    -3.123      0.000      0.000
REMARK INTER + INTRA:          -5.438
REMARK INTER:                  -4.402
REMARK INTRA:                  -1.036
REMARK UNBOUND:                -1.036
REMARK SMILES CC(=O)OCC[C@@H](C)CCC=C(C)C
REMARK SMILES IDX 8 1 7 2 9 3 10 4 11 5 12 6 13 7 14 8 6 9 5 10 4 11 2 12 3 13
REMARK SMILES IDX 1 14
REMARK H PARENT
REMARK Flexibility Score: inf
ROOT
ATOM      1  C   UNL     1      -1.949   3.574  -3.795  1.00  0.00     0.008 C 
ATOM      2  C   UNL     1      -1.590   2.088  -3.655  1.00  0.00    -0.011 C 
ENDROOT
BRANCH   2   3
ATOM      3  C   UNL     1      -0.062   1.846  -3.796  1.00  0.00     0.007 C 
BRANCH   3   4
ATOM      4  C   UNL     1       0.782   2.089  -2.526  1.00  0.00     0.027 C 
BRANCH   4   5
ATOM      5  C   UNL     1       1.526   3.403  -2.568  1.00  0.00    -0.028 C 
ATOM      6  C   UNL     1       1.261   4.458  -1.765  1.00  0.00    -0.080 C 
ATOM      7  C   UNL     1       2.103   5.699  -1.913  1.00  0.00     0.039 C 
ATOM      8  C   UNL     1       0.135   4.439  -0.757  1.00  0.00     0.039 C 
ENDBRANCH   4   5
ENDBRANCH   3   4
ENDBRANCH   2   3
BRANCH   2   9
ATOM      9  C   UNL     1      -2.232   1.503  -2.372  1.00  0.00     0.045 C 
BRANCH   9  10
ATOM     10  C   UNL     1      -3.382   0.525  -2.644  1.00  0.00     0.233 C 
BRANCH  10  11
ATOM     11  O   UNL     1      -4.600   1.048  -2.123  1.00  0.00    -0.466 OA
BRANCH  11  12
ATOM     12  C   UNL     1      -5.182   2.226  -2.597  1.00  0.00     0.302 C 
ATOM     13  O   UNL     1      -5.385   3.201  -1.823  1.00  0.00    -0.253 OA
ATOM     14  C   UNL     1      -5.515   2.347  -4.044  1.00  0.00     0.139 C 
ENDBRANCH  11  12
ENDBRANCH  10  11
ENDBRANCH   9  10
ENDBRANCH   2   9
TORSDOF 7
ENDMDL
MODEL 2
REMARK VINA RESULT:    -3.068      1.293      2.107
REMARK INTER + INTRA:          -5.359
REMARK INTER:                  -4.294
REMARK INTRA:                  -1.065
REMARK UNBOUND:                -1.036
REMARK SMILES CC(=O)OCC[C@@H](C)CCC=C(C)C
REMARK SMILES IDX 8 1 7 2 9 3 10 4 11 5 12 6 13 7 14 8 6 9 5 10 4 11 2 12 3 13
REMARK SMILES IDX 1 14
REMARK H PARENT
REMARK Flexibility Score: inf
ROOT
ATOM      1  C   UNL     1      -1.742   3.094  -3.617  1.00  0.00     0.008 C 
ATOM      2  C   UNL     1      -1.194   1.871  -2.870  1.00  0.00    -0.011 C 
ENDROOT
BRANCH   2   3
ATOM      3  C   UNL     1       0.177   2.166  -2.204  1.00  0.00     0.007 C 
BRANCH   3   4
ATOM      4  C   UNL     1       0.331   3.559  -1.556  1.00  0.00     0.027 C 
BRANCH   4   5
ATOM      5  C   UNL     1       0.050   3.541  -0.072  1.00  0.00    -0.028 C 
ATOM      6  C   UNL     1      -1.095   3.981   0.496  1.00  0.00    -0.080 C 
ATOM      7  C   UNL     1      -1.237   3.882   1.993  1.00  0.00     0.039 C 
ATOM      8  C   UNL     1      -2.212   4.595  -0.317  1.00  0.00     0.039 C 
ENDBRANCH   4   5
ENDBRANCH   3   4
ENDBRANCH   2   3
BRANCH   2   9
ATOM      9  C   UNL     1      -2.275   1.297  -1.918  1.00  0.00     0.045 C 
BRANCH   9  10
ATOM     10  C   UNL     1      -3.391   0.530  -2.638  1.00  0.00     0.233 C 
BRANCH  10  11
ATOM     11  O   UNL     1      -4.664   1.006  -2.212  1.00  0.00    -0.466 OA
BRANCH  11  12
ATOM     12  C   UNL     1      -5.190   2.233  -2.624  1.00  0.00     0.302 C 
ATOM     13  O   UNL     1      -5.308   3.189  -1.811  1.00  0.00    -0.253 OA
ATOM     14  C   UNL     1      -5.566   2.425  -4.053  1.00  0.00     0.139 C 
ENDBRANCH  11  12
ENDBRANCH  10  11
ENDBRANCH   9  10
ENDBRANCH   2   9
TORSDOF 7
ENDMDL
MODEL 3
REMARK VINA RESULT:    -3.050      1.489      1.975
REMARK INTER + INTRA:          -5.334
REMARK INTER:                  -4.464
REMARK INTRA:                  -0.869
REMARK UNBOUND:                -1.036
REMARK SMILES CC(=O)OCC[C@@H](C)CCC=C(C)C
REMARK SMILES IDX 8 1 7 2 9 3 10 4 11 5 12 6 13 7 14 8 6 9 5 10 4 11 2 12 3 13
REMARK SMILES IDX 1 14
REMARK H PARENT
REMARK Flexibility Score: inf
ROOT
ATOM      1  C   UNL     1      -1.830   3.433  -3.842  1.00  0.00     0.008 C 
ATOM      2  C   UNL     1      -1.340   2.011  -3.533  1.00  0.00    -0.011 C 
ENDROOT
BRANCH   2   3
ATOM      3  C   UNL     1       0.205   1.897  -3.638  1.00  0.00     0.007 C 
BRANCH   3   4
ATOM      4  C   UNL     1       0.999   2.227  -2.355  1.00  0.00     0.027 C 
BRANCH   4   5
ATOM      5  C   UNL     1       1.458   3.665  -2.312  1.00  0.00    -0.028 C 
ATOM      6  C   UNL     1       0.998   4.589  -1.439  1.00  0.00    -0.080 C 
ATOM      7  C   UNL     1       1.566   5.983  -1.507  1.00  0.00     0.039 C 
ATOM      8  C   UNL     1      -0.083   4.276  -0.430  1.00  0.00     0.039 C 
ENDBRANCH   4   5
ENDBRANCH   3   4
ENDBRANCH   2   3
BRANCH   2   9
ATOM      9  C   UNL     1      -1.945   1.517  -2.195  1.00  0.00     0.045 C 
BRANCH   9  10
ATOM     10  C   UNL     1      -3.386   1.007  -2.316  1.00  0.00     0.233 C 
BRANCH  10  11
ATOM     11  O   UNL     1      -3.421  -0.173  -3.112  1.00  0.00    -0.466 OA
BRANCH  11  12
ATOM     12  C   UNL     1      -3.761  -0.161  -4.467  1.00  0.00     0.302 C 
ATOM     13  O   UNL     1      -3.363  -1.075  -5.240  1.00  0.00    -0.253 OA
ATOM     14  C   UNL     1      -4.647   0.917  -4.991  1.00  0.00     0.139 C 
ENDBRANCH  11  12
ENDBRANCH  10  11
ENDBRANCH   9  10
ENDBRANCH   2   9
TORSDOF 7
ENDMDL
MODEL 4
REMARK VINA RESULT:    -2.963      2.973      5.918
REMARK INTER + INTRA:          -5.212
REMARK INTER:                  -4.256
REMARK INTRA:                  -0.956
REMARK UNBOUND:                -1.036
REMARK SMILES CC(=O)OCC[C@@H](C)CCC=C(C)C
REMARK SMILES IDX 8 1 7 2 9 3 10 4 11 5 12 6 13 7 14 8 6 9 5 10 4 11 2 12 3 13
REMARK SMILES IDX 1 14
REMARK H PARENT
REMARK Flexibility Score: inf
ROOT
ATOM      1  C   UNL     1      -2.231   3.975  -3.133  1.00  0.00     0.008 C 
ATOM      2  C   UNL     1      -2.461   3.203  -1.827  1.00  0.00    -0.011 C 
ENDROOT
BRANCH   2   3
ATOM      3  C   UNL     1      -2.058   1.709  -1.960  1.00  0.00     0.007 C 
BRANCH   3   4
ATOM      4  C   UNL     1      -3.218   0.708  -2.151  1.00  0.00     0.027 C 
BRANCH   4   5
ATOM      5  C   UNL     1      -3.457   0.369  -3.603  1.00  0.00    -0.028 C 
ATOM      6  C   UNL     1      -4.412   0.936  -4.374  1.00  0.00    -0.080 C 
ATOM      7  C   UNL     1      -4.517   0.508  -5.815  1.00  0.00     0.039 C 
ATOM      8  C   UNL     1      -5.388   1.953  -3.829  1.00  0.00     0.039 C 
ENDBRANCH   4   5
ENDBRANCH   3   4
ENDBRANCH   2   3
BRANCH   2   9
ATOM      9  C   UNL     1      -1.808   3.955  -0.640  1.00  0.00     0.045 C 
BRANCH   9  10
ATOM     10  C   UNL     1      -0.392   3.473  -0.302  1.00  0.00     0.233 C 
BRANCH  10  11
ATOM     11  O   UNL     1       0.524   4.560  -0.375  1.00  0.00    -0.466 OA
BRANCH  11  12
ATOM     12  C   UNL     1       1.372   4.763  -1.467  1.00  0.00     0.302 C 
ATOM     13  O   UNL     1       2.087   5.799  -1.544  1.00  0.00    -0.253 OA
ATOM     14  C   UNL     1       1.468   3.717  -2.524  1.00  0.00     0.139 C 
ENDBRANCH  11  12
ENDBRANCH  10  11
ENDBRANCH   9  10
ENDBRANCH   2   9
TORSDOF 7
ENDMDL
MODEL 5
REMARK VINA RESULT:    -2.943      1.775      2.653
REMARK INTER + INTRA:          -5.184
REMARK INTER:                  -4.434
REMARK INTRA:                  -0.750
REMARK UNBOUND:                -1.036
REMARK SMILES CC(=O)OCC[C@@H](C)CCC=C(C)C
REMARK SMILES IDX 8 1 7 2 9 3 10 4 11 5 12 6 13 7 14 8 6 9 5 10 4 11 2 12 3 13
REMARK SMILES IDX 1 14
REMARK H PARENT
REMARK Flexibility Score: inf
ROOT
ATOM      1  C   UNL     1      -3.883   3.429  -2.257  1.00  0.00     0.008 C 
ATOM      2  C   UNL     1      -2.433   3.030  -1.948  1.00  0.00    -0.011 C 
ENDROOT
BRANCH   2   3
ATOM      3  C   UNL     1      -1.892   3.751  -0.684  1.00  0.00     0.007 C 
BRANCH   3   4
ATOM      4  C   UNL     1      -0.439   3.417  -0.281  1.00  0.00     0.027 C 
BRANCH   4   5
ATOM      5  C   UNL     1       0.576   4.215  -1.064  1.00  0.00    -0.028 C 
ATOM      6  C   UNL     1       1.285   3.737  -2.111  1.00  0.00    -0.080 C 
ATOM      7  C   UNL     1       2.251   4.662  -2.805  1.00  0.00     0.039 C 
ATOM      8  C   UNL     1       1.161   2.305  -2.579  1.00  0.00     0.039 C 
ENDBRANCH   4   5
ENDBRANCH   3   4
ENDBRANCH   2   3
BRANCH   2   9
ATOM      9  C   UNL     1      -2.297   1.486  -1.931  1.00  0.00     0.045 C 
BRANCH   9  10
ATOM     10  C   UNL     1      -3.609   0.743  -2.210  1.00  0.00     0.233 C 
BRANCH  10  11
ATOM     11  O   UNL     1      -3.420  -0.209  -3.252  1.00  0.00    -0.466 OA
BRANCH  11  12
ATOM     12  C   UNL     1      -3.846   0.011  -4.564  1.00  0.00     0.302 C 
ATOM     13  O   UNL     1      -4.638   0.954  -4.836  1.00  0.00    -0.253 OA
ATOM     14  C   UNL     1      -3.317  -0.850  -5.660  1.00  0.00     0.139 C 
ENDBRANCH  11  12
ENDBRANCH  10  11
ENDBRANCH   9  10
ENDBRANCH   2   9
TORSDOF 7
ENDMDL
MODEL 6
REMARK VINA RESULT:    -2.878      1.664      3.142
REMARK INTER + INTRA:          -5.091
REMARK INTER:                  -4.032
REMARK INTRA:                  -1.059
REMARK UNBOUND:                -1.036
REMARK SMILES CC(=O)OCC[C@@H](C)CCC=C(C)C
REMARK SMILES IDX 8 1 7 2 9 3 10 4 11 5 12 6 13 7 14 8 6 9 5 10 4 11 2 12 3 13
REMARK SMILES IDX 1 14
REMARK H PARENT
REMARK Flexibility Score: inf
ROOT
ATOM      1  C   UNL     1      -3.124   5.259  -3.258  1.00  0.00     0.008 C 
ATOM      2  C   UNL     1      -3.350   4.320  -2.065  1.00  0.00    -0.011 C 
ENDROOT
BRANCH   2   3
ATOM      3  C   UNL     1      -2.837   4.940  -0.736  1.00  0.00     0.007 C 
BRANCH   3   4
ATOM      4  C   UNL     1      -1.716   4.162  -0.013  1.00  0.00     0.027 C 
BRANCH   4   5
ATOM      5  C   UNL     1      -1.109   3.083  -0.878  1.00  0.00    -0.028 C 
ATOM      6  C   UNL     1       0.081   3.189  -1.512  1.00  0.00    -0.080 C 
ATOM      7  C   UNL     1       0.564   2.018  -2.328  1.00  0.00     0.039 C 
ATOM      8  C   UNL     1       0.914   4.449  -1.453  1.00  0.00     0.039 C 
ENDBRANCH   4   5
ENDBRANCH   3   4
ENDBRANCH   2   3
BRANCH   2   9
ATOM      9  C   UNL     1      -4.821   3.835  -2.037  1.00  0.00     0.045 C 
BRANCH   9  10
ATOM     10  C   UNL     1      -5.114   2.685  -3.008  1.00  0.00     0.233 C 
BRANCH  10  11
ATOM     11  O   UNL     1      -4.737   1.443  -2.422  1.00  0.00    -0.466 OA
BRANCH  11  12
ATOM     12  C   UNL     1      -3.479   0.867  -2.612  1.00  0.00     0.302 C 
ATOM     13  O   UNL     1      -2.950   0.162  -1.711  1.00  0.00    -0.253 OA
ATOM     14  C   UNL     1      -2.780   1.049  -3.916  1.00  0.00     0.139 C 
ENDBRANCH  11  12
ENDBRANCH  10  11
ENDBRANCH   9  10
ENDBRANCH   2   9
TORSDOF 7
ENDMDL
MODEL 7
REMARK VINA RESULT:    -2.821      1.107      1.569
REMARK INTER + INTRA:          -5.011
REMARK INTER:                  -4.116
REMARK INTRA:                  -0.895
REMARK UNBOUND:                -1.036
REMARK SMILES CC(=O)OCC[C@@H](C)CCC=C(C)C
REMARK SMILES IDX 8 1 7 2 9 3 10 4 11 5 12 6 13 7 14 8 6 9 5 10 4 11 2 12 3 13
REMARK SMILES IDX 1 14
REMARK H PARENT
REMARK Flexibility Score: inf
ROOT
ATOM      1  C   UNL     1      -1.879   3.446  -4.038  1.00  0.00     0.008 C 
ATOM      2  C   UNL     1      -1.558   2.001  -3.628  1.00  0.00    -0.011 C 
ENDROOT
BRANCH   2   3
ATOM      3  C   UNL     1      -0.918   1.930  -2.215  1.00  0.00     0.007 C 
BRANCH   3   4
ATOM      4  C   UNL     1       0.620   2.054  -2.160  1.00  0.00     0.027 C 
BRANCH   4   5
ATOM      5  C   UNL     1       1.075   3.435  -1.750  1.00  0.00    -0.028 C 
ATOM      6  C   UNL     1       1.755   4.286  -2.550  1.00  0.00    -0.080 C 
ATOM      7  C   UNL     1       2.125   5.641  -2.004  1.00  0.00     0.039 C 
ATOM      8  C   UNL     1       2.178   3.908  -3.951  1.00  0.00     0.039 C 
ENDBRANCH   4   5
ENDBRANCH   3   4
ENDBRANCH   2   3
BRANCH   2   9
ATOM      9  C   UNL     1      -2.801   1.099  -3.832  1.00  0.00     0.045 C 
BRANCH   9  10
ATOM     10  C   UNL     1      -3.523   0.734  -2.529  1.00  0.00     0.233 C 
BRANCH  10  11
ATOM     11  O   UNL     1      -4.892   1.122  -2.604  1.00  0.00    -0.466 OA
BRANCH  11  12
ATOM     12  C   UNL     1      -5.297   2.393  -3.017  1.00  0.00     0.302 C 
ATOM     13  O   UNL     1      -5.889   2.555  -4.118  1.00  0.00    -0.253 OA
ATOM     14  C   UNL     1      -5.070   3.561  -2.119  1.00  0.00     0.139 C 
ENDBRANCH  11  12
ENDBRANCH  10  11
ENDBRANCH   9  10
ENDBRANCH   2   9
TORSDOF 7
ENDMDL
MODEL 8
REMARK VINA RESULT:    -2.807      1.172      1.693
REMARK INTER + INTRA:          -4.992
REMARK INTER:                  -3.947
REMARK INTRA:                  -1.045
REMARK UNBOUND:                -1.036
REMARK SMILES CC(=O)OCC[C@@H](C)CCC=C(C)C
REMARK SMILES IDX 8 1 7 2 9 3 10 4 11 5 12 6 13 7 14 8 6 9 5 10 4 11 2 12 3 13
REMARK SMILES IDX 1 14
REMARK H PARENT
REMARK Flexibility Score: inf
ROOT
ATOM      1  C   UNL     1      -1.999   4.009  -4.290  1.00  0.00     0.008 C 
ATOM      2  C   UNL     1      -1.635   2.530  -4.103  1.00  0.00    -0.011 C 
ENDROOT
BRANCH   2   3
ATOM      3  C   UNL     1      -1.697   2.104  -2.611  1.00  0.00     0.007 C 
BRANCH   3   4
ATOM      4  C   UNL     1      -0.342   1.805  -1.933  1.00  0.00     0.027 C 
BRANCH   4   5
ATOM      5  C   UNL     1       0.834   2.243  -2.773  1.00  0.00    -0.028 C 
ATOM      6  C   UNL     1       1.488   3.417  -2.623  1.00  0.00    -0.080 C 
ATOM      7  C   UNL     1       2.658   3.706  -3.527  1.00  0.00     0.039 C 
ATOM      8  C   UNL     1       1.062   4.450  -1.605  1.00  0.00     0.039 C 
ENDBRANCH   4   5
ENDBRANCH   3   4
ENDBRANCH   2   3
BRANCH   2   9
ATOM      9  C   UNL     1      -2.462   1.648  -5.072  1.00  0.00     0.045 C 
BRANCH   9  10
ATOM     10  C   UNL     1      -3.259   0.539  -4.375  1.00  0.00     0.233 C 
BRANCH  10  11
ATOM     11  O   UNL     1      -4.653   0.824  -4.440  1.00  0.00    -0.466 OA
BRANCH  11  12
ATOM     12  C   UNL     1      -5.292   1.685  -3.543  1.00  0.00     0.302 C 
ATOM     13  O   UNL     1      -5.473   1.346  -2.342  1.00  0.00    -0.253 OA
ATOM     14  C   UNL     1      -5.715   3.038  -4.003  1.00  0.00     0.139 C 
ENDBRANCH  11  12
ENDBRANCH  10  11
ENDBRANCH   9  10
ENDBRANCH   2   9
TORSDOF 7
ENDMDL
MODEL 9
REMARK VINA RESULT:    -2.761      1.862      2.734
REMARK INTER + INTRA:          -4.927
REMARK INTER:                  -3.718
REMARK INTRA:                  -1.209
REMARK UNBOUND:                -1.036
REMARK SMILES CC(=O)OCC[C@@H](C)CCC=C(C)C
REMARK SMILES IDX 8 1 7 2 9 3 10 4 11 5 12 6 13 7 14 8 6 9 5 10 4 11 2 12 3 13
REMARK SMILES IDX 1 14
REMARK H PARENT
REMARK Flexibility Score: inf
ROOT
ATOM      1  C   UNL     1      -0.193   3.852  -4.419  1.00  0.00     0.008 C 
ATOM      2  C   UNL     1       0.390   2.444  -4.228  1.00  0.00    -0.011 C 
ENDROOT
BRANCH   2   3
ATOM      3  C   UNL     1       0.701   2.145  -2.737  1.00  0.00     0.007 C 
BRANCH   3   4
ATOM      4  C   UNL     1       1.032   3.368  -1.854  1.00  0.00     0.027 C 
BRANCH   4   5
ATOM      5  C   UNL     1       0.273   3.361  -0.548  1.00  0.00    -0.028 C 
ATOM      6  C   UNL     1      -0.654   4.279  -0.197  1.00  0.00    -0.080 C 
ATOM      7  C   UNL     1      -1.342   4.129   1.136  1.00  0.00     0.039 C 
ATOM      8  C   UNL     1      -0.994   5.458  -1.079  1.00  0.00     0.039 C 
ENDBRANCH   4   5
ENDBRANCH   3   4
ENDBRANCH   2   3
BRANCH   2   9
ATOM      9  C   UNL     1      -0.506   1.395  -4.935  1.00  0.00     0.045 C 
BRANCH   9  10
ATOM     10  C   UNL     1      -1.996   1.758  -4.948  1.00  0.00     0.233 C 
BRANCH  10  11
ATOM     11  O   UNL     1      -2.708   0.930  -4.035  1.00  0.00    -0.466 OA
BRANCH  11  12
ATOM     12  C   UNL     1      -2.893   1.268  -2.693  1.00  0.00     0.302 C 
ATOM     13  O   UNL     1      -2.770   0.400  -1.786  1.00  0.00    -0.253 OA
ATOM     14  C   UNL     1      -3.187   2.683  -2.328  1.00  0.00     0.139 C 
ENDBRANCH  11  12
ENDBRANCH  10  11
ENDBRANCH   9  10
ENDBRANCH   2   9
TORSDOF 7
ENDMDL
