MODEL 1
REMARK VINA RESULT:    -2.546      0.000      0.000
REMARK INTER + INTRA:          -3.111
REMARK INTER:                  -2.992
REMARK INTRA:                  -0.119
REMARK UNBOUND:                -0.119
REMARK SMILES O=C([O-])CCC(=O)[O-]
REMARK SMILES IDX 4 1 2 2 1 3 3 4 5 5 6 6 7 7 8 8
REMARK H PARENT
REMARK Flexibility Score: inf
ROOT
ATOM      1  C   UNL     1       0.059   4.843  -1.870  1.00  0.00     0.059 C 
ENDROOT
BRANCH   1   2
ATOM      2  C   UNL     1      -0.304   3.392  -1.786  1.00  0.00     0.042 C 
ATOM      3  O   UNL     1      -0.885   2.942  -0.763  1.00  0.00    -0.550 OA
ATOM      4  O   UNL     1       0.035   2.529  -2.820  1.00  0.00    -0.550 OA
ENDBRANCH   1   2
BRANCH   1   5
ATOM      5  C   UNL     1      -1.186   5.731  -1.962  1.00  0.00     0.059 C 
BRANCH   5   6
ATOM      6  C   UNL     1      -1.441   6.459  -0.677  1.00  0.00     0.042 C 
ATOM      7  O   UNL     1      -1.030   7.640  -0.525  1.00  0.00    -0.550 OA
ATOM      8  O   UNL     1      -2.168   5.848   0.337  1.00  0.00    -0.550 OA
ENDBRANCH   5   6
ENDBRANCH   1   5
TORSDOF 3
ENDMDL
MODEL 2
REMARK VINA RESULT:    -2.503      0.099      3.812
REMARK INTER + INTRA:          -3.060
REMARK INTER:                  -2.940
REMARK INTRA:                  -0.120
REMARK UNBOUND:                -0.119
REMARK SMILES O=C([O-])CCC(=O)[O-]
REMARK SMILES IDX 4 1 2 2 1 3 3 4 5 5 6 6 7 7 8 8
REMARK H PARENT
REMARK Flexibility Score: inf
ROOT
ATOM      1  C   UNL     1      -1.222   5.735  -1.921  1.00  0.00     0.059 C 
ENDROOT
BRANCH   1   2
ATOM      2  C   UNL     1      -1.472   6.456  -0.632  1.00  0.00     0.042 C 
ATOM      3  O   UNL     1      -2.102   5.889   0.300  1.00  0.00    -0.550 OA
ATOM      4  O   UNL     1      -1.043   7.767  -0.474  1.00  0.00    -0.550 OA
ENDBRANCH   1   2
BRANCH   1   5
ATOM      5  C   UNL     1       0.049   4.882  -1.853  1.00  0.00     0.059 C 
BRANCH   5   6
ATOM      6  C   UNL     1      -0.270   3.419  -1.791  1.00  0.00     0.042 C 
ATOM      7  O   UNL     1       0.110   2.648  -2.712  1.00  0.00    -0.550 OA
ATOM      8  O   UNL     1      -0.952   2.900  -0.698  1.00  0.00    -0.550 OA
ENDBRANCH   5   6
ENDBRANCH   1   5
TORSDOF 3
ENDMDL
MODEL 3
REMARK VINA RESULT:    -2.492      1.890      2.359
REMARK INTER + INTRA:          -3.047
REMARK INTER:                  -2.855
REMARK INTRA:                  -0.192
REMARK UNBOUND:                -0.119
REMARK SMILES O=C([O-])CCC(=O)[O-]
REMARK SMILES IDX 4 1 2 2 1 3 3 4 5 5 6 6 7 7 8 8
REMARK H PARENT
REMARK Flexibility Score: inf
ROOT
ATOM      1  C   UNL     1       0.353   4.503  -1.899  1.00  0.00     0.059 C 
ENDROOT
BRANCH   1   2
ATOM      2  C   UNL     1      -0.300   3.156  -1.957  1.00  0.00     0.042 C 
ATOM      3  O   UNL     1      -0.072   2.381  -2.923  1.00  0.00    -0.550 OA
ATOM      4  O   UNL     1      -1.192   2.772  -0.964  1.00  0.00    -0.550 OA
ENDBRANCH   1   2
BRANCH   1   5
ATOM      5  C   UNL     1      -0.683   5.628  -1.798  1.00  0.00     0.059 C 
BRANCH   5   6
ATOM      6  C   UNL     1      -1.566   5.676  -3.008  1.00  0.00     0.042 C 
ATOM      7  O   UNL     1      -1.073   5.912  -4.142  1.00  0.00    -0.550 OA
ATOM      8  O   UNL     1      -2.926   5.418  -2.888  1.00  0.00    -0.550 OA
ENDBRANCH   5   6
ENDBRANCH   1   5
TORSDOF 3
ENDMDL
MODEL 4
REMARK VINA RESULT:    -2.482      1.455      4.151
REMARK INTER + INTRA:          -3.035
REMARK INTER:                  -2.917
REMARK INTRA:                  -0.119
REMARK UNBOUND:                -0.119
REMARK SMILES O=C([O-])CCC(=O)[O-]
REMARK SMILES IDX 4 1 2 2 1 3 3 4 5 5 6 6 7 7 8 8
REMARK H PARENT
REMARK Flexibility Score: inf
ROOT
ATOM      1  C   UNL     1      -0.915   4.496  -1.305  1.00  0.00     0.059 C 
ENDROOT
BRANCH   1   2
ATOM      2  C   UNL     1      -0.924   5.950  -1.665  1.00  0.00     0.042 C 
ATOM      3  O   UNL     1      -0.781   6.826  -0.771  1.00  0.00    -0.550 OA
ATOM      4  O   UNL     1      -1.130   6.339  -2.982  1.00  0.00    -0.550 OA
ENDBRANCH   1   2
BRANCH   1   5
ATOM      5  C   UNL     1       0.411   3.829  -1.686  1.00  0.00     0.059 C 
BRANCH   5   6
ATOM      6  C   UNL     1       0.311   3.112  -2.998  1.00  0.00     0.042 C 
ATOM      7  O   UNL     1      -0.289   2.007  -3.072  1.00  0.00    -0.550 OA
ATOM      8  O   UNL     1       0.845   3.684  -4.146  1.00  0.00    -0.550 OA
ENDBRANCH   5   6
ENDBRANCH   1   5
TORSDOF 3
ENDMDL
MODEL 5
REMARK VINA RESULT:    -2.465      1.978      3.620
REMARK INTER + INTRA:          -3.016
REMARK INTER:                  -2.844
REMARK INTRA:                  -0.173
REMARK UNBOUND:                -0.119
REMARK SMILES O=C([O-])CCC(=O)[O-]
REMARK SMILES IDX 4 1 2 2 1 3 3 4 5 5 6 6 7 7 8 8
REMARK H PARENT
REMARK Flexibility Score: inf
ROOT
ATOM      1  C   UNL     1      -1.123   5.743  -1.876  1.00  0.00     0.059 C 
ENDROOT
BRANCH   1   2
ATOM      2  C   UNL     1      -1.780   5.644  -3.219  1.00  0.00     0.042 C 
ATOM      3  O   UNL     1      -2.984   5.285  -3.311  1.00  0.00    -0.550 OA
ATOM      4  O   UNL     1      -1.052   5.908  -4.371  1.00  0.00    -0.550 OA
ENDBRANCH   1   2
BRANCH   1   5
ATOM      5  C   UNL     1       0.084   4.804  -1.769  1.00  0.00     0.059 C 
BRANCH   5   6
ATOM      6  C   UNL     1      -0.338   3.367  -1.722  1.00  0.00     0.042 C 
ATOM      7  O   UNL     1      -0.995   2.931  -0.740  1.00  0.00    -0.550 OA
ATOM      8  O   UNL     1      -0.040   2.519  -2.781  1.00  0.00    -0.550 OA
ENDBRANCH   5   6
ENDBRANCH   1   5
TORSDOF 3
ENDMDL
MODEL 6
REMARK VINA RESULT:    -2.460      1.409      1.821
REMARK INTER + INTRA:          -3.011
REMARK INTER:                  -2.917
REMARK INTRA:                  -0.094
REMARK UNBOUND:                -0.119
REMARK SMILES O=C([O-])CCC(=O)[O-]
REMARK SMILES IDX 4 1 2 2 1 3 3 4 5 5 6 6 7 7 8 8
REMARK H PARENT
REMARK Flexibility Score: inf
ROOT
ATOM      1  C   UNL     1       0.380   3.814  -1.806  1.00  0.00     0.059 C 
ENDROOT
BRANCH   1   2
ATOM      2  C   UNL     1      -0.012   2.876  -2.906  1.00  0.00     0.042 C 
ATOM      3  O   UNL     1      -0.750   1.885  -2.662  1.00  0.00    -0.550 OA
ATOM      4  O   UNL     1       0.471   3.074  -4.193  1.00  0.00    -0.550 OA
ENDBRANCH   1   2
BRANCH   1   5
ATOM      5  C   UNL     1      -0.840   4.522  -1.207  1.00  0.00     0.059 C 
BRANCH   5   6
ATOM      6  C   UNL     1      -0.915   5.954  -1.639  1.00  0.00     0.042 C 
ATOM      7  O   UNL     1      -0.769   6.879  -0.797  1.00  0.00    -0.550 OA
ATOM      8  O   UNL     1      -1.106   6.268  -2.979  1.00  0.00    -0.550 OA
ENDBRANCH   5   6
ENDBRANCH   1   5
TORSDOF 3
ENDMDL
MODEL 7
REMARK VINA RESULT:    -2.370      2.830      3.962
REMARK INTER + INTRA:          -2.904
REMARK INTER:                  -2.809
REMARK INTRA:                  -0.095
REMARK UNBOUND:                -0.119
REMARK SMILES O=C([O-])CCC(=O)[O-]
REMARK SMILES IDX 4 1 2 2 1 3 3 4 5 5 6 6 7 7 8 8
REMARK H PARENT
REMARK Flexibility Score: inf
ROOT
ATOM      1  C   UNL     1      -0.210   3.772  -4.365  1.00  0.00     0.059 C 
ENDROOT
BRANCH   1   2
ATOM      2  C   UNL     1       0.082   5.024  -5.134  1.00  0.00     0.042 C 
ATOM      3  O   UNL     1       1.214   5.198  -5.657  1.00  0.00    -0.550 OA
ATOM      4  O   UNL     1      -0.884   6.017  -5.240  1.00  0.00    -0.550 OA
ENDBRANCH   1   2
BRANCH   1   5
ATOM      5  C   UNL     1       0.790   3.567  -3.222  1.00  0.00     0.059 C 
BRANCH   5   6
ATOM      6  C   UNL     1       0.188   3.909  -1.893  1.00  0.00     0.042 C 
ATOM      7  O   UNL     1      -0.003   3.009  -1.034  1.00  0.00    -0.550 OA
ATOM      8  O   UNL     1      -0.123   5.229  -1.589  1.00  0.00    -0.550 OA
ENDBRANCH   5   6
ENDBRANCH   1   5
TORSDOF 3
ENDMDL
MODEL 8
REMARK VINA RESULT:    -2.347      2.592      4.402
REMARK INTER + INTRA:          -2.877
REMARK INTER:                  -2.780
REMARK INTRA:                  -0.097
REMARK UNBOUND:                -0.119
REMARK SMILES O=C([O-])CCC(=O)[O-]
REMARK SMILES IDX 4 1 2 2 1 3 3 4 5 5 6 6 7 7 8 8
REMARK H PARENT
REMARK Flexibility Score: inf
ROOT
ATOM      1  C   UNL     1       0.719   4.007  -2.277  1.00  0.00     0.059 C 
ENDROOT
BRANCH   1   2
ATOM      2  C   UNL     1      -0.305   3.003  -1.845  1.00  0.00     0.042 C 
ATOM      3  O   UNL     1      -0.818   3.072  -0.697  1.00  0.00    -0.550 OA
ATOM      4  O   UNL     1      -0.665   1.966  -2.697  1.00  0.00    -0.550 OA
ENDBRANCH   1   2
BRANCH   1   5
ATOM      5  C   UNL     1       0.797   4.113  -3.804  1.00  0.00     0.059 C 
BRANCH   5   6
ATOM      6  C   UNL     1       2.058   3.503  -4.335  1.00  0.00     0.042 C 
ATOM      7  O   UNL     1       2.005   2.509  -5.107  1.00  0.00    -0.550 OA
ATOM      8  O   UNL     1       3.290   4.059  -4.012  1.00  0.00    -0.550 OA
ENDBRANCH   5   6
ENDBRANCH   1   5
TORSDOF 3
ENDMDL
MODEL 9
REMARK VINA RESULT:    -2.322      2.459      3.641
REMARK INTER + INTRA:          -2.847
REMARK INTER:                  -2.820
REMARK INTRA:                  -0.027
REMARK UNBOUND:                -0.119
REMARK SMILES O=C([O-])CCC(=O)[O-]
REMARK SMILES IDX 4 1 2 2 1 3 3 4 5 5 6 6 7 7 8 8
REMARK H PARENT
REMARK Flexibility Score: inf
ROOT
ATOM      1  C   UNL     1       0.735   3.536  -3.638  1.00  0.00     0.059 C 
ENDROOT
BRANCH   1   2
ATOM      2  C   UNL     1       1.864   4.061  -4.471  1.00  0.00     0.042 C 
ATOM      3  O   UNL     1       1.636   4.854  -5.422  1.00  0.00    -0.550 OA
ATOM      4  O   UNL     1       3.165   3.645  -4.221  1.00  0.00    -0.550 OA
ENDBRANCH   1   2
BRANCH   1   5
ATOM      5  C   UNL     1       0.800   4.065  -2.201  1.00  0.00     0.059 C 
BRANCH   5   6
ATOM      6  C   UNL     1      -0.492   3.849  -1.474  1.00  0.00     0.042 C 
ATOM      7  O   UNL     1      -1.002   2.699  -1.417  1.00  0.00    -0.550 OA
ATOM      8  O   UNL     1      -1.112   4.909  -0.825  1.00  0.00    -0.550 OA
ENDBRANCH   5   6
ENDBRANCH   1   5
TORSDOF 3
ENDMDL
