MODEL 1
REMARK VINA RESULT:    -4.461      0.000      0.000
REMARK INTER + INTRA:          -5.531
REMARK INTER:                  -5.113
REMARK INTRA:                  -0.418
REMARK UNBOUND:                -0.418
REMARK SMILES O=C1C[C@H](c2ccc(O)cc2)Oc2cc(O)cc(O)c21
REMARK SMILES IDX 3 1 4 2 12 3 13 4 14 5 15 6 17 7 18 8 20 9 2 10 1 11 5 12
REMARK SMILES IDX 6 13 11 14 7 15 10 16 8 17 9 18 19 20 16 22
REMARK H PARENT 9 19 19 21 16 23
REMARK Flexibility Score: inf
ROOT
ATOM      1  C   UNL     1       4.042  -2.469  -8.691  1.00  0.00     0.131 C 
ATOM      2  C   UNL     1       3.875  -3.961  -9.034  1.00  0.00     0.211 C 
ATOM      3  O   UNL     1       4.817  -4.774  -8.320  1.00  0.00    -0.484 OA
ATOM      4  C   UNL     1       5.284  -4.476  -7.033  1.00  0.00     0.138 A 
ATOM      5  C   UNL     1       6.051  -5.423  -6.349  1.00  0.00     0.093 A 
ATOM      6  C   UNL     1       6.498  -5.165  -5.049  1.00  0.00     0.123 A 
ATOM      7  C   UNL     1       6.179  -3.951  -4.433  1.00  0.00     0.093 A 
ATOM      8  C   UNL     1       5.422  -2.985  -5.112  1.00  0.00     0.133 A 
ATOM      9  C   UNL     1       4.974  -3.245  -6.426  1.00  0.00     0.102 A 
ATOM     10  C   UNL     1       4.197  -2.264  -7.213  1.00  0.00     0.174 C 
ATOM     11  O   UNL     1       3.708  -1.234  -6.675  1.00  0.00    -0.294 OA
ENDROOT
BRANCH   2  12
ATOM     12  C   UNL     1       2.449  -4.428  -8.803  1.00  0.00    -0.007 A 
ATOM     13  C   UNL     1       1.343  -3.718  -9.309  1.00  0.00     0.011 A 
ATOM     14  C   UNL     1       2.223  -5.638  -8.122  1.00  0.00     0.011 A 
ATOM     15  C   UNL     1       0.044  -4.195  -9.110  1.00  0.00     0.046 A 
ATOM     16  C   UNL     1       0.922  -6.112  -7.926  1.00  0.00     0.046 A 
ATOM     17  C   UNL     1      -0.171  -5.390  -8.419  1.00  0.00     0.115 A 
BRANCH  17  18
ATOM     18  O   UNL     1      -1.472  -5.852  -8.230  1.00  0.00    -0.508 OA
ATOM     19  H   UNL     1      -1.825  -6.660  -8.730  1.00  0.00     0.293 HD
ENDBRANCH  17  18
ENDBRANCH   2  12
BRANCH   8  20
ATOM     20  O   UNL     1       5.127  -1.775  -4.487  1.00  0.00    -0.507 OA
ATOM     21  H   UNL     1       4.934  -0.933  -5.018  1.00  0.00     0.293 HD
ENDBRANCH   8  20
BRANCH   6  22
ATOM     22  O   UNL     1       7.258  -6.106  -4.358  1.00  0.00    -0.508 OA
ATOM     23  H   UNL     1       7.190  -7.096  -4.565  1.00  0.00     0.293 HD
ENDBRANCH   6  22
TORSDOF 4
ENDMDL
MODEL 2
REMARK VINA RESULT:    -4.399      1.841      6.437
REMARK INTER + INTRA:          -5.460
REMARK INTER:                  -5.183
REMARK INTRA:                  -0.277
REMARK UNBOUND:                -0.418
REMARK SMILES O=C1C[C@H](c2ccc(O)cc2)Oc2cc(O)cc(O)c21
REMARK SMILES IDX 3 1 4 2 12 3 13 4 14 5 15 6 17 7 18 8 20 9 2 10 1 11 5 12
REMARK SMILES IDX 6 13 11 14 7 15 10 16 8 17 9 18 19 20 16 22
REMARK H PARENT 9 19 19 21 16 23
REMARK Flexibility Score: inf
ROOT
ATOM      1  C   UNL     1       3.573  -4.572  -9.238  1.00  0.00     0.131 C 
ATOM      2  C   UNL     1       3.766  -3.048  -9.136  1.00  0.00     0.211 C 
ATOM      3  O   UNL     1       2.552  -2.342  -9.423  1.00  0.00    -0.484 OA
ATOM      4  C   UNL     1       1.276  -2.833  -9.116  1.00  0.00     0.138 A 
ATOM      5  C   UNL     1       0.168  -1.994  -9.263  1.00  0.00     0.093 A 
ATOM      6  C   UNL     1      -1.112  -2.448  -8.927  1.00  0.00     0.123 A 
ATOM      7  C   UNL     1      -1.284  -3.750  -8.448  1.00  0.00     0.093 A 
ATOM      8  C   UNL     1      -0.183  -4.609  -8.308  1.00  0.00     0.133 A 
ATOM      9  C   UNL     1       1.107  -4.151  -8.651  1.00  0.00     0.102 A 
ATOM     10  C   UNL     1       2.309  -5.007  -8.557  1.00  0.00     0.174 C 
ATOM     11  O   UNL     1       2.276  -6.118  -7.963  1.00  0.00    -0.294 OA
ENDROOT
BRANCH   2  12
ATOM     12  C   UNL     1       4.336  -2.649  -7.786  1.00  0.00    -0.007 A 
ATOM     13  C   UNL     1       4.721  -3.608  -6.829  1.00  0.00     0.011 A 
ATOM     14  C   UNL     1       4.548  -1.287  -7.504  1.00  0.00     0.011 A 
ATOM     15  C   UNL     1       5.277  -3.208  -5.610  1.00  0.00     0.046 A 
ATOM     16  C   UNL     1       5.105  -0.891  -6.284  1.00  0.00     0.046 A 
ATOM     17  C   UNL     1       5.469  -1.852  -5.333  1.00  0.00     0.115 A 
BRANCH  17  18
ATOM     18  O   UNL     1       6.025  -1.470  -4.113  1.00  0.00    -0.508 OA
ATOM     19  H   UNL     1       6.373  -0.531  -3.961  1.00  0.00     0.293 HD
ENDBRANCH  17  18
ENDBRANCH   2  12
BRANCH   8  20
ATOM     20  O   UNL     1      -0.377  -5.908  -7.843  1.00  0.00    -0.507 OA
ATOM     21  H   UNL     1      -1.133  -6.490  -8.186  1.00  0.00     0.293 HD
ENDBRANCH   8  20
BRANCH   6  22
ATOM     22  O   UNL     1      -2.221  -1.615  -9.064  1.00  0.00    -0.508 OA
ATOM     23  H   UNL     1      -3.154  -1.991  -9.181  1.00  0.00     0.293 HD
ENDBRANCH   6  22
TORSDOF 4
ENDMDL
MODEL 3
REMARK VINA RESULT:    -4.365      5.240      7.670
REMARK INTER + INTRA:          -5.422
REMARK INTER:                  -4.960
REMARK INTRA:                  -0.461
REMARK UNBOUND:                -0.418
REMARK SMILES O=C1C[C@H](c2ccc(O)cc2)Oc2cc(O)cc(O)c21
REMARK SMILES IDX 3 1 4 2 12 3 13 4 14 5 15 6 17 7 18 8 20 9 2 10 1 11 5 12
REMARK SMILES IDX 6 13 11 14 7 15 10 16 8 17 9 18 19 20 16 22
REMARK H PARENT 9 19 19 21 16 23
REMARK Flexibility Score: inf
ROOT
ATOM      1  C   UNL     1       6.033   1.232  -9.202  1.00  0.00     0.131 C 
ATOM      2  C   UNL     1       7.103   0.799  -8.181  1.00  0.00     0.211 C 
ATOM      3  O   UNL     1       7.716   1.930  -7.549  1.00  0.00    -0.484 OA
ATOM      4  C   UNL     1       7.044   3.130  -7.281  1.00  0.00     0.138 A 
ATOM      5  C   UNL     1       7.671   4.102  -6.495  1.00  0.00     0.093 A 
ATOM      6  C   UNL     1       7.007   5.293  -6.182  1.00  0.00     0.123 A 
ATOM      7  C   UNL     1       5.712   5.514  -6.661  1.00  0.00     0.093 A 
ATOM      8  C   UNL     1       5.076   4.554  -7.463  1.00  0.00     0.133 A 
ATOM      9  C   UNL     1       5.749   3.354  -7.781  1.00  0.00     0.102 A 
ATOM     10  C   UNL     1       5.153   2.310  -8.643  1.00  0.00     0.174 C 
ATOM     11  O   UNL     1       3.933   2.340  -8.959  1.00  0.00    -0.294 OA
ENDROOT
BRANCH   2  12
ATOM     12  C   UNL     1       6.536  -0.171  -7.159  1.00  0.00    -0.007 A 
ATOM     13  C   UNL     1       5.585  -1.150  -7.510  1.00  0.00     0.011 A 
ATOM     14  C   UNL     1       7.017  -0.137  -5.838  1.00  0.00     0.011 A 
ATOM     15  C   UNL     1       5.111  -2.051  -6.553  1.00  0.00     0.046 A 
ATOM     16  C   UNL     1       6.540  -1.041  -4.884  1.00  0.00     0.046 A 
ATOM     17  C   UNL     1       5.584  -1.999  -5.239  1.00  0.00     0.115 A 
BRANCH  17  18
ATOM     18  O   UNL     1       5.101  -2.906  -4.298  1.00  0.00    -0.508 OA
ATOM     19  H   UNL     1       5.716  -3.349  -3.625  1.00  0.00     0.293 HD
ENDBRANCH  17  18
ENDBRANCH   2  12
BRANCH   8  20
ATOM     20  O   UNL     1       3.791   4.799  -7.944  1.00  0.00    -0.507 OA
ATOM     21  H   UNL     1       3.059   5.163  -7.346  1.00  0.00     0.293 HD
ENDBRANCH   8  20
BRANCH   6  22
ATOM     22  O   UNL     1       7.622   6.263  -5.394  1.00  0.00    -0.508 OA
ATOM     23  H   UNL     1       8.563   6.139  -5.040  1.00  0.00     0.293 HD
ENDBRANCH   6  22
TORSDOF 4
ENDMDL
MODEL 4
REMARK VINA RESULT:    -4.238      1.357      1.864
REMARK INTER + INTRA:          -5.276
REMARK INTER:                  -4.884
REMARK INTRA:                  -0.392
REMARK UNBOUND:                -0.418
REMARK SMILES O=C1C[C@H](c2ccc(O)cc2)Oc2cc(O)cc(O)c21
REMARK SMILES IDX 3 1 4 2 12 3 13 4 14 5 15 6 17 7 18 8 20 9 2 10 1 11 5 12
REMARK SMILES IDX 6 13 11 14 7 15 10 16 8 17 9 18 19 20 16 22
REMARK H PARENT 9 19 19 21 16 23
REMARK Flexibility Score: inf
ROOT
ATOM      1  C   UNL     1       4.575  -2.116  -8.790  1.00  0.00     0.131 C 
ATOM      2  C   UNL     1       3.801  -3.428  -9.020  1.00  0.00     0.211 C 
ATOM      3  O   UNL     1       4.222  -4.454  -8.112  1.00  0.00    -0.484 OA
ATOM      4  C   UNL     1       4.656  -4.205  -6.803  1.00  0.00     0.138 A 
ATOM      5  C   UNL     1       4.865  -5.282  -5.937  1.00  0.00     0.093 A 
ATOM      6  C   UNL     1       5.262  -5.057  -4.613  1.00  0.00     0.123 A 
ATOM      7  C   UNL     1       5.455  -3.750  -4.158  1.00  0.00     0.093 A 
ATOM      8  C   UNL     1       5.262  -2.659  -5.020  1.00  0.00     0.133 A 
ATOM      9  C   UNL     1       4.865  -2.887  -6.356  1.00  0.00     0.102 A 
ATOM     10  C   UNL     1       4.671  -1.790  -7.329  1.00  0.00     0.174 C 
ATOM     11  O   UNL     1       4.638  -0.586  -6.958  1.00  0.00    -0.294 OA
ENDROOT
BRANCH   2  12
ATOM     12  C   UNL     1       2.300  -3.207  -8.954  1.00  0.00    -0.007 A 
ATOM     13  C   UNL     1       1.407  -4.257  -8.660  1.00  0.00     0.011 A 
ATOM     14  C   UNL     1       1.787  -1.909  -9.125  1.00  0.00     0.011 A 
ATOM     15  C   UNL     1       0.033  -4.013  -8.570  1.00  0.00     0.046 A 
ATOM     16  C   UNL     1       0.412  -1.669  -9.033  1.00  0.00     0.046 A 
ATOM     17  C   UNL     1      -0.468  -2.722  -8.757  1.00  0.00     0.115 A 
BRANCH  17  18
ATOM     18  O   UNL     1      -1.840  -2.496  -8.663  1.00  0.00    -0.508 OA
ATOM     19  H   UNL     1      -2.260  -1.641  -9.008  1.00  0.00     0.293 HD
ENDBRANCH  17  18
ENDBRANCH   2  12
BRANCH   8  20
ATOM     20  O   UNL     1       5.474  -1.364  -4.552  1.00  0.00    -0.507 OA
ATOM     21  H   UNL     1       5.196  -0.551  -5.089  1.00  0.00     0.293 HD
ENDBRANCH   8  20
BRANCH   6  22
ATOM     22  O   UNL     1       5.466  -6.125  -3.742  1.00  0.00    -0.508 OA
ATOM     23  H   UNL     1       6.063  -6.037  -2.928  1.00  0.00     0.293 HD
ENDBRANCH   6  22
TORSDOF 4
ENDMDL
MODEL 5
REMARK VINA RESULT:    -4.118      5.043      7.625
REMARK INTER + INTRA:          -5.139
REMARK INTER:                  -4.736
REMARK INTRA:                  -0.402
REMARK UNBOUND:                -0.418
REMARK SMILES O=C1C[C@H](c2ccc(O)cc2)Oc2cc(O)cc(O)c21
REMARK SMILES IDX 3 1 4 2 12 3 13 4 14 5 15 6 17 7 18 8 20 9 2 10 1 11 5 12
REMARK SMILES IDX 6 13 11 14 7 15 10 16 8 17 9 18 19 20 16 22
REMARK H PARENT 9 19 19 21 16 23
REMARK Flexibility Score: inf
ROOT
ATOM      1  C   UNL     1       3.864   0.863 -10.004  1.00  0.00     0.131 C 
ATOM      2  C   UNL     1       5.277   0.487  -9.522  1.00  0.00     0.211 C 
ATOM      3  O   UNL     1       6.134   1.635  -9.456  1.00  0.00    -0.484 OA
ATOM      4  C   UNL     1       5.685   2.923  -9.135  1.00  0.00     0.138 A 
ATOM      5  C   UNL     1       6.621   3.937  -8.913  1.00  0.00     0.093 A 
ATOM      6  C   UNL     1       6.200   5.222  -8.554  1.00  0.00     0.123 A 
ATOM      7  C   UNL     1       4.835   5.495  -8.425  1.00  0.00     0.093 A 
ATOM      8  C   UNL     1       3.883   4.491  -8.659  1.00  0.00     0.133 A 
ATOM      9  C   UNL     1       4.309   3.196  -9.024  1.00  0.00     0.102 A 
ATOM     10  C   UNL     1       3.363   2.097  -9.314  1.00  0.00     0.174 C 
ATOM     11  O   UNL     1       2.137   2.200  -9.040  1.00  0.00    -0.294 OA
ENDROOT
BRANCH   2  12
ATOM     12  C   UNL     1       5.234  -0.252  -8.196  1.00  0.00    -0.007 A 
ATOM     13  C   UNL     1       4.427  -1.391  -8.006  1.00  0.00     0.011 A 
ATOM     14  C   UNL     1       6.069   0.169  -7.146  1.00  0.00     0.011 A 
ATOM     15  C   UNL     1       4.438  -2.071  -6.785  1.00  0.00     0.046 A 
ATOM     16  C   UNL     1       6.078  -0.515  -5.926  1.00  0.00     0.046 A 
ATOM     17  C   UNL     1       5.261  -1.635  -5.742  1.00  0.00     0.115 A 
BRANCH  17  18
ATOM     18  O   UNL     1       5.260  -2.325  -4.531  1.00  0.00    -0.508 OA
ATOM     19  H   UNL     1       4.531  -2.184  -3.842  1.00  0.00     0.293 HD
ENDBRANCH  17  18
ENDBRANCH   2  12
BRANCH   8  20
ATOM     20  O   UNL     1       2.526   4.787  -8.539  1.00  0.00    -0.507 OA
ATOM     21  H   UNL     1       2.013   5.246  -9.283  1.00  0.00     0.293 HD
ENDBRANCH   8  20
BRANCH   6  22
ATOM     22  O   UNL     1       7.128   6.236  -8.324  1.00  0.00    -0.508 OA
ATOM     23  H   UNL     1       7.765   6.544  -9.049  1.00  0.00     0.293 HD
ENDBRANCH   6  22
TORSDOF 4
ENDMDL
MODEL 6
REMARK VINA RESULT:    -4.112      1.795      5.872
REMARK INTER + INTRA:          -5.132
REMARK INTER:                  -4.770
REMARK INTRA:                  -0.362
REMARK UNBOUND:                -0.418
REMARK SMILES O=C1C[C@H](c2ccc(O)cc2)Oc2cc(O)cc(O)c21
REMARK SMILES IDX 3 1 4 2 12 3 13 4 14 5 15 6 17 7 18 8 20 9 2 10 1 11 5 12
REMARK SMILES IDX 6 13 11 14 7 15 10 16 8 17 9 18 19 20 16 22
REMARK H PARENT 9 19 19 21 16 23
REMARK Flexibility Score: inf
ROOT
ATOM      1  C   UNL     1       2.860  -6.010  -8.591  1.00  0.00     0.131 C 
ATOM      2  C   UNL     1       4.130  -5.142  -8.520  1.00  0.00     0.211 C 
ATOM      3  O   UNL     1       3.932  -3.867  -9.147  1.00  0.00    -0.484 OA
ATOM      4  C   UNL     1       2.708  -3.186  -9.156  1.00  0.00     0.138 A 
ATOM      5  C   UNL     1       2.662  -1.871  -9.627  1.00  0.00     0.093 A 
ATOM      6  C   UNL     1       1.459  -1.157  -9.612  1.00  0.00     0.123 A 
ATOM      7  C   UNL     1       0.296  -1.764  -9.129  1.00  0.00     0.093 A 
ATOM      8  C   UNL     1       0.324  -3.089  -8.666  1.00  0.00     0.133 A 
ATOM      9  C   UNL     1       1.538  -3.809  -8.685  1.00  0.00     0.102 A 
ATOM     10  C   UNL     1       1.637  -5.216  -8.240  1.00  0.00     0.174 C 
ATOM     11  O   UNL     1       0.692  -5.775  -7.620  1.00  0.00    -0.294 OA
ENDROOT
BRANCH   2  12
ATOM     12  C   UNL     1       4.619  -4.989  -7.090  1.00  0.00    -0.007 A 
ATOM     13  C   UNL     1       4.585  -3.749  -6.421  1.00  0.00     0.011 A 
ATOM     14  C   UNL     1       5.059  -6.125  -6.388  1.00  0.00     0.011 A 
ATOM     15  C   UNL     1       5.008  -3.650  -5.093  1.00  0.00     0.046 A 
ATOM     16  C   UNL     1       5.481  -6.021  -5.059  1.00  0.00     0.046 A 
ATOM     17  C   UNL     1       5.458  -4.782  -4.409  1.00  0.00     0.115 A 
BRANCH  17  18
ATOM     18  O   UNL     1       5.876  -4.666  -3.085  1.00  0.00    -0.508 OA
ATOM     19  H   UNL     1       6.852  -4.759  -2.827  1.00  0.00     0.293 HD
ENDBRANCH  17  18
ENDBRANCH   2  12
BRANCH   8  20
ATOM     20  O   UNL     1      -0.849  -3.681  -8.202  1.00  0.00    -0.507 OA
ATOM     21  H   UNL     1      -0.855  -4.617  -7.813  1.00  0.00     0.293 HD
ENDBRANCH   8  20
BRANCH   6  22
ATOM     22  O   UNL     1       1.406   0.157 -10.073  1.00  0.00    -0.508 OA
ATOM     23  H   UNL     1       1.029   0.904  -9.503  1.00  0.00     0.293 HD
ENDBRANCH   6  22
TORSDOF 4
ENDMDL
MODEL 7
REMARK VINA RESULT:    -4.093     20.400     21.644
REMARK INTER + INTRA:          -5.109
REMARK INTER:                  -4.716
REMARK INTRA:                  -0.394
REMARK UNBOUND:                -0.418
REMARK SMILES O=C1C[C@H](c2ccc(O)cc2)Oc2cc(O)cc(O)c21
REMARK SMILES IDX 3 1 4 2 12 3 13 4 14 5 15 6 17 7 18 8 20 9 2 10 1 11 5 12
REMARK SMILES IDX 6 13 11 14 7 15 10 16 8 17 9 18 19 20 16 22
REMARK H PARENT 9 19 19 21 16 23
REMARK Flexibility Score: inf
ROOT
ATOM      1  C   UNL     1     -12.056   0.693   8.348  1.00  0.00     0.131 C 
ATOM      2  C   UNL     1     -11.397   1.719   9.288  1.00  0.00     0.211 C 
ATOM      3  O   UNL     1     -10.258   1.163   9.959  1.00  0.00    -0.484 OA
ATOM      4  C   UNL     1      -9.412   0.202   9.389  1.00  0.00     0.138 A 
ATOM      5  C   UNL     1      -8.226  -0.138  10.046  1.00  0.00     0.093 A 
ATOM      6  C   UNL     1      -7.346  -1.067   9.479  1.00  0.00     0.123 A 
ATOM      7  C   UNL     1      -7.659  -1.662   8.254  1.00  0.00     0.093 A 
ATOM      8  C   UNL     1      -8.853  -1.341   7.590  1.00  0.00     0.133 A 
ATOM      9  C   UNL     1      -9.741  -0.406   8.164  1.00  0.00     0.102 A 
ATOM     10  C   UNL     1     -11.030  -0.040   7.537  1.00  0.00     0.174 C 
ATOM     11  O   UNL     1     -11.301  -0.380   6.354  1.00  0.00    -0.294 OA
ENDROOT
BRANCH   2  12
ATOM     12  C   UNL     1     -11.039   2.999   8.552  1.00  0.00    -0.007 A 
ATOM     13  C   UNL     1      -9.710   3.456   8.459  1.00  0.00     0.011 A 
ATOM     14  C   UNL     1     -12.051   3.716   7.889  1.00  0.00     0.011 A 
ATOM     15  C   UNL     1      -9.410   4.619   7.743  1.00  0.00     0.046 A 
ATOM     16  C   UNL     1     -11.746   4.878   7.173  1.00  0.00     0.046 A 
ATOM     17  C   UNL     1     -10.425   5.333   7.100  1.00  0.00     0.115 A 
BRANCH  17  18
ATOM     18  O   UNL     1     -10.109   6.489   6.389  1.00  0.00    -0.508 OA
ATOM     19  H   UNL     1     -10.830   7.098   6.020  1.00  0.00     0.293 HD
ENDBRANCH  17  18
ENDBRANCH   2  12
BRANCH   8  20
ATOM     20  O   UNL     1      -9.153  -1.956   6.376  1.00  0.00    -0.507 OA
ATOM     21  H   UNL     1     -10.107  -2.175   6.112  1.00  0.00     0.293 HD
ENDBRANCH   8  20
BRANCH   6  22
ATOM     22  O   UNL     1      -6.159  -1.406  10.125  1.00  0.00    -0.508 OA
ATOM     23  H   UNL     1      -6.152  -2.006  10.941  1.00  0.00     0.293 HD
ENDBRANCH   6  22
TORSDOF 4
ENDMDL
MODEL 8
REMARK VINA RESULT:    -4.001      4.570      6.452
REMARK INTER + INTRA:          -5.004
REMARK INTER:                  -4.686
REMARK INTRA:                  -0.318
REMARK UNBOUND:                -0.418
REMARK SMILES O=C1C[C@H](c2ccc(O)cc2)Oc2cc(O)cc(O)c21
REMARK SMILES IDX 3 1 4 2 12 3 13 4 14 5 15 6 17 7 18 8 20 9 2 10 1 11 5 12
REMARK SMILES IDX 6 13 11 14 7 15 10 16 8 17 9 18 19 20 16 22
REMARK H PARENT 9 19 19 21 16 23
REMARK Flexibility Score: inf
ROOT
ATOM      1  C   UNL     1       7.309   1.563  -8.737  1.00  0.00     0.131 C 
ATOM      2  C   UNL     1       5.927   1.030  -9.158  1.00  0.00     0.211 C 
ATOM      3  O   UNL     1       5.568  -0.145  -8.418  1.00  0.00    -0.484 OA
ATOM      4  C   UNL     1       5.950  -0.374  -7.089  1.00  0.00     0.138 A 
ATOM      5  C   UNL     1       5.396  -1.455  -6.398  1.00  0.00     0.093 A 
ATOM      6  C   UNL     1       5.733  -1.684  -5.059  1.00  0.00     0.123 A 
ATOM      7  C   UNL     1       6.631  -0.831  -4.413  1.00  0.00     0.093 A 
ATOM      8  C   UNL     1       7.206   0.250  -5.099  1.00  0.00     0.133 A 
ATOM      9  C   UNL     1       6.869   0.478  -6.450  1.00  0.00     0.102 A 
ATOM     10  C   UNL     1       7.456   1.579  -7.245  1.00  0.00     0.174 C 
ATOM     11  O   UNL     1       8.120   2.499  -6.696  1.00  0.00    -0.294 OA
ENDROOT
BRANCH   2  12
ATOM     12  C   UNL     1       4.860   2.105  -9.048  1.00  0.00    -0.007 A 
ATOM     13  C   UNL     1       5.185   3.453  -8.800  1.00  0.00     0.011 A 
ATOM     14  C   UNL     1       3.513   1.761  -9.262  1.00  0.00     0.011 A 
ATOM     15  C   UNL     1       4.181   4.424  -8.741  1.00  0.00     0.046 A 
ATOM     16  C   UNL     1       2.512   2.736  -9.203  1.00  0.00     0.046 A 
ATOM     17  C   UNL     1       2.844   4.070  -8.940  1.00  0.00     0.115 A 
BRANCH  17  18
ATOM     18  O   UNL     1       1.856   5.051  -8.879  1.00  0.00    -0.508 OA
ATOM     19  H   UNL     1       1.048   5.027  -9.490  1.00  0.00     0.293 HD
ENDBRANCH  17  18
ENDBRANCH   2  12
BRANCH   8  20
ATOM     20  O   UNL     1       8.112   1.081  -4.441  1.00  0.00    -0.507 OA
ATOM     21  H   UNL     1       7.869   1.558  -3.580  1.00  0.00     0.293 HD
ENDBRANCH   8  20
BRANCH   6  22
ATOM     22  O   UNL     1       5.180  -2.756  -4.360  1.00  0.00    -0.508 OA
ATOM     23  H   UNL     1       4.578  -2.611  -3.559  1.00  0.00     0.293 HD
ENDBRANCH   6  22
TORSDOF 4
ENDMDL
MODEL 9
REMARK VINA RESULT:    -3.962      4.119      6.850
REMARK INTER + INTRA:          -4.959
REMARK INTER:                  -4.506
REMARK INTRA:                  -0.453
REMARK UNBOUND:                -0.418
REMARK SMILES O=C1C[C@H](c2ccc(O)cc2)Oc2cc(O)cc(O)c21
REMARK SMILES IDX 3 1 4 2 12 3 13 4 14 5 15 6 17 7 18 8 20 9 2 10 1 11 5 12
REMARK SMILES IDX 6 13 11 14 7 15 10 16 8 17 9 18 19 20 16 22
REMARK H PARENT 9 19 19 21 16 23
REMARK Flexibility Score: inf
ROOT
ATOM      1  C   UNL     1       8.020   0.238  -6.605  1.00  0.00     0.131 C 
ATOM      2  C   UNL     1       7.433   0.737  -7.938  1.00  0.00     0.211 C 
ATOM      3  O   UNL     1       6.644  -0.275  -8.579  1.00  0.00    -0.484 OA
ATOM      4  C   UNL     1       5.892  -1.231  -7.883  1.00  0.00     0.138 A 
ATOM      5  C   UNL     1       5.011  -2.053  -8.591  1.00  0.00     0.093 A 
ATOM      6  C   UNL     1       4.222  -2.990  -7.915  1.00  0.00     0.123 A 
ATOM      7  C   UNL     1       4.319  -3.108  -6.526  1.00  0.00     0.093 A 
ATOM      8  C   UNL     1       5.210  -2.300  -5.803  1.00  0.00     0.133 A 
ATOM      9  C   UNL     1       6.008  -1.357  -6.487  1.00  0.00     0.102 A 
ATOM     10  C   UNL     1       6.989  -0.491  -5.796  1.00  0.00     0.174 C 
ATOM     11  O   UNL     1       7.007  -0.398  -4.539  1.00  0.00    -0.294 OA
ENDROOT
BRANCH   2  12
ATOM     12  C   UNL     1       6.646   2.022  -7.753  1.00  0.00    -0.007 A 
ATOM     13  C   UNL     1       5.494   2.305  -8.514  1.00  0.00     0.011 A 
ATOM     14  C   UNL     1       7.035   2.929  -6.750  1.00  0.00     0.011 A 
ATOM     15  C   UNL     1       4.771   3.481  -8.293  1.00  0.00     0.046 A 
ATOM     16  C   UNL     1       6.308   4.103  -6.532  1.00  0.00     0.046 A 
ATOM     17  C   UNL     1       5.175   4.383  -7.305  1.00  0.00     0.115 A 
BRANCH  17  18
ATOM     18  O   UNL     1       4.442   5.550  -7.097  1.00  0.00    -0.508 OA
ATOM     19  H   UNL     1       4.126   5.819  -6.172  1.00  0.00     0.293 HD
ENDBRANCH  17  18
ENDBRANCH   2  12
BRANCH   8  20
ATOM     20  O   UNL     1       5.304  -2.443  -4.420  1.00  0.00    -0.507 OA
ATOM     21  H   UNL     1       4.627  -2.022  -3.794  1.00  0.00     0.293 HD
ENDBRANCH   8  20
BRANCH   6  22
ATOM     22  O   UNL     1       3.336  -3.809  -8.613  1.00  0.00    -0.508 OA
ATOM     23  H   UNL     1       2.400  -3.991  -8.270  1.00  0.00     0.293 HD
ENDBRANCH   6  22
TORSDOF 4
ENDMDL
