MODEL 1
REMARK VINA RESULT:    -3.316      0.000      0.000
REMARK INTER + INTRA:          -4.996
REMARK INTER:                  -4.770
REMARK INTRA:                  -0.226
REMARK UNBOUND:                -0.226
REMARK SMILES CCCCCCCCCO
REMARK SMILES IDX 6 1 5 2 4 3 3 4 2 5 1 6 7 7 8 8 9 9 10 10
REMARK H PARENT 10 11
REMARK Flexibility Score: inf
ROOT
ATOM      1  C   UNL     1     -29.357  23.722 -21.465  1.00  0.00     0.000 C 
ENDROOT
BRANCH   1   2
ATOM      2  C   UNL     1     -30.702  24.279 -21.961  1.00  0.00     0.000 C 
BRANCH   2   3
ATOM      3  C   UNL     1     -30.532  25.498 -22.881  1.00  0.00    -0.000 C 
BRANCH   3   4
ATOM      4  C   UNL     1     -30.260  26.794 -22.096  1.00  0.00    -0.000 C 
BRANCH   4   5
ATOM      5  C   UNL     1     -30.769  28.045 -22.831  1.00  0.00    -0.003 C 
ATOM      6  C   UNL     1     -30.283  28.122 -24.277  1.00  0.00     0.004 C 
ENDBRANCH   4   5
ENDBRANCH   3   4
ENDBRANCH   2   3
ENDBRANCH   1   2
BRANCH   1   7
ATOM      7  C   UNL     1     -29.121  23.980 -19.967  1.00  0.00     0.002 C 
BRANCH   7   8
ATOM      8  C   UNL     1     -27.994  23.116 -19.359  1.00  0.00     0.028 C 
BRANCH   8   9
ATOM      9  C   UNL     1     -28.512  22.167 -18.271  1.00  0.00     0.156 C 
BRANCH   9  10
ATOM     10  O   UNL     1     -29.032  21.003 -18.853  1.00  0.00    -0.396 OA
ATOM     11  H   UNL     1     -28.929  21.106 -19.834  1.00  0.00     0.210 HD
ENDBRANCH   9  10
ENDBRANCH   8   9
ENDBRANCH   7   8
ENDBRANCH   1   7
TORSDOF 8
ENDMDL
MODEL 2
REMARK VINA RESULT:    -3.273      1.274      2.071
REMARK INTER + INTRA:          -4.934
REMARK INTER:                  -4.335
REMARK INTRA:                  -0.600
REMARK UNBOUND:                -0.226
REMARK SMILES CCCCCCCCCO
REMARK SMILES IDX 6 1 5 2 4 3 3 4 2 5 1 6 7 7 8 8 9 9 10 10
REMARK H PARENT 10 11
REMARK Flexibility Score: inf
ROOT
ATOM      1  C   UNL     1     -30.608  24.344 -21.781  1.00  0.00     0.000 C 
ENDROOT
BRANCH   1   2
ATOM      2  C   UNL     1     -30.411  25.328 -22.946  1.00  0.00     0.000 C 
BRANCH   2   3
ATOM      3  C   UNL     1     -30.706  26.782 -22.545  1.00  0.00    -0.000 C 
BRANCH   3   4
ATOM      4  C   UNL     1     -29.430  27.565 -22.187  1.00  0.00    -0.000 C 
BRANCH   4   5
ATOM      5  C   UNL     1     -29.211  27.671 -20.670  1.00  0.00    -0.003 C 
ATOM      6  C   UNL     1     -27.815  27.224 -20.239  1.00  0.00     0.004 C 
ENDBRANCH   4   5
ENDBRANCH   3   4
ENDBRANCH   2   3
ENDBRANCH   1   2
BRANCH   1   7
ATOM      7  C   UNL     1     -29.293  23.687 -21.326  1.00  0.00     0.002 C 
BRANCH   7   8
ATOM      8  C   UNL     1     -29.165  23.555 -19.792  1.00  0.00     0.028 C 
BRANCH   8   9
ATOM      9  C   UNL     1     -28.247  22.397 -19.383  1.00  0.00     0.156 C 
BRANCH   9  10
ATOM     10  O   UNL     1     -29.012  21.289 -18.992  1.00  0.00    -0.396 OA
ATOM     11  H   UNL     1     -29.558  21.030 -19.779  1.00  0.00     0.210 HD
ENDBRANCH   9  10
ENDBRANCH   8   9
ENDBRANCH   7   8
ENDBRANCH   1   7
TORSDOF 8
ENDMDL
MODEL 3
REMARK VINA RESULT:    -3.248      1.728      2.294
REMARK INTER + INTRA:          -4.898
REMARK INTER:                  -4.252
REMARK INTRA:                  -0.646
REMARK UNBOUND:                -0.226
REMARK SMILES CCCCCCCCCO
REMARK SMILES IDX 6 1 5 2 4 3 3 4 2 5 1 6 7 7 8 8 9 9 10 10
REMARK H PARENT 10 11
REMARK Flexibility Score: inf
ROOT
ATOM      1  C   UNL     1     -30.440  24.026 -21.693  1.00  0.00     0.000 C 
ENDROOT
BRANCH   1   2
ATOM      2  C   UNL     1     -30.414  25.367 -22.445  1.00  0.00     0.000 C 
BRANCH   2   3
ATOM      3  C   UNL     1     -29.608  26.443 -21.701  1.00  0.00    -0.000 C 
BRANCH   3   4
ATOM      4  C   UNL     1     -28.415  26.960 -22.524  1.00  0.00    -0.000 C 
BRANCH   4   5
ATOM      5  C   UNL     1     -27.075  26.372 -22.053  1.00  0.00    -0.003 C 
ATOM      6  C   UNL     1     -26.555  25.269 -22.973  1.00  0.00     0.004 C 
ENDBRANCH   4   5
ENDBRANCH   3   4
ENDBRANCH   2   3
ENDBRANCH   1   2
BRANCH   1   7
ATOM      7  C   UNL     1     -29.580  24.039 -20.418  1.00  0.00     0.002 C 
BRANCH   7   8
ATOM      8  C   UNL     1     -28.539  22.900 -20.360  1.00  0.00     0.028 C 
BRANCH   8   9
ATOM      9  C   UNL     1     -28.397  22.314 -18.950  1.00  0.00     0.156 C 
BRANCH   9  10
ATOM     10  O   UNL     1     -29.012  21.056 -18.886  1.00  0.00    -0.396 OA
ATOM     11  H   UNL     1     -28.974  20.770 -17.936  1.00  0.00     0.210 HD
ENDBRANCH   9  10
ENDBRANCH   8   9
ENDBRANCH   7   8
ENDBRANCH   1   7
TORSDOF 8
ENDMDL
MODEL 4
REMARK VINA RESULT:    -3.227     19.585     20.680
REMARK INTER + INTRA:          -4.868
REMARK INTER:                  -4.488
REMARK INTRA:                  -0.380
REMARK UNBOUND:                -0.226
REMARK SMILES CCCCCCCCCO
REMARK SMILES IDX 6 1 5 2 4 3 3 4 2 5 1 6 7 7 8 8 9 9 10 10
REMARK H PARENT 10 11
REMARK Flexibility Score: inf
ROOT
ATOM      1  C   UNL     1     -15.165   9.378 -20.178  1.00  0.00     0.000 C 
ENDROOT
BRANCH   1   2
ATOM      2  C   UNL     1     -16.348   8.555 -20.714  1.00  0.00     0.000 C 
BRANCH   2   3
ATOM      3  C   UNL     1     -16.552   8.731 -22.227  1.00  0.00    -0.000 C 
BRANCH   3   4
ATOM      4  C   UNL     1     -15.222   8.754 -23.001  1.00  0.00    -0.000 C 
BRANCH   4   5
ATOM      5  C   UNL     1     -15.084   9.995 -23.897  1.00  0.00    -0.003 C 
ATOM      6  C   UNL     1     -14.564   9.664 -25.295  1.00  0.00     0.004 C 
ENDBRANCH   4   5
ENDBRANCH   3   4
ENDBRANCH   2   3
ENDBRANCH   1   2
BRANCH   1   7
ATOM      7  C   UNL     1     -15.579  10.375 -19.082  1.00  0.00     0.002 C 
BRANCH   7   8
ATOM      8  C   UNL     1     -17.082  10.322 -18.732  1.00  0.00     0.028 C 
BRANCH   8   9
ATOM      9  C   UNL     1     -17.324  10.003 -17.251  1.00  0.00     0.156 C 
BRANCH   9  10
ATOM     10  O   UNL     1     -17.253   8.619 -17.038  1.00  0.00    -0.396 OA
ATOM     11  H   UNL     1     -18.187   8.300 -16.934  1.00  0.00     0.210 HD
ENDBRANCH   9  10
ENDBRANCH   8   9
ENDBRANCH   7   8
ENDBRANCH   1   7
TORSDOF 8
ENDMDL
MODEL 5
REMARK VINA RESULT:    -3.194      2.962      4.423
REMARK INTER + INTRA:          -4.820
REMARK INTER:                  -4.315
REMARK INTRA:                  -0.505
REMARK UNBOUND:                -0.226
REMARK SMILES CCCCCCCCCO
REMARK SMILES IDX 6 1 5 2 4 3 3 4 2 5 1 6 7 7 8 8 9 9 10 10
REMARK H PARENT 10 11
REMARK Flexibility Score: inf
ROOT
ATOM      1  C   UNL     1     -28.001  21.245 -20.592  1.00  0.00     0.000 C 
ENDROOT
BRANCH   1   2
ATOM      2  C   UNL     1     -28.410  21.950 -19.288  1.00  0.00     0.000 C 
BRANCH   2   3
ATOM      3  C   UNL     1     -27.956  23.417 -19.245  1.00  0.00    -0.000 C 
BRANCH   3   4
ATOM      4  C   UNL     1     -29.112  24.400 -19.506  1.00  0.00    -0.000 C 
BRANCH   4   5
ATOM      5  C   UNL     1     -29.241  24.774 -20.992  1.00  0.00    -0.003 C 
ATOM      6  C   UNL     1     -30.407  24.068 -21.682  1.00  0.00     0.004 C 
ENDBRANCH   4   5
ENDBRANCH   3   4
ENDBRANCH   2   3
ENDBRANCH   1   2
BRANCH   1   7
ATOM      7  C   UNL     1     -26.896  21.996 -21.355  1.00  0.00     0.002 C 
BRANCH   7   8
ATOM      8  C   UNL     1     -25.876  21.064 -22.045  1.00  0.00     0.028 C 
BRANCH   8   9
ATOM      9  C   UNL     1     -24.427  21.491 -21.781  1.00  0.00     0.156 C 
BRANCH   9  10
ATOM     10  O   UNL     1     -23.671  20.394 -21.346  1.00  0.00    -0.396 OA
ATOM     11  H   UNL     1     -22.760  20.737 -21.153  1.00  0.00     0.210 HD
ENDBRANCH   9  10
ENDBRANCH   8   9
ENDBRANCH   7   8
ENDBRANCH   1   7
TORSDOF 8
ENDMDL
MODEL 6
REMARK VINA RESULT:    -3.193      4.482      6.028
REMARK INTER + INTRA:          -4.819
REMARK INTER:                  -4.363
REMARK INTRA:                  -0.456
REMARK UNBOUND:                -0.226
REMARK SMILES CCCCCCCCCO
REMARK SMILES IDX 6 1 5 2 4 3 3 4 2 5 1 6 7 7 8 8 9 9 10 10
REMARK H PARENT 10 11
REMARK Flexibility Score: inf
ROOT
ATOM      1  C   UNL     1     -27.223  26.801 -24.637  1.00  0.00     0.000 C 
ENDROOT
BRANCH   1   2
ATOM      2  C   UNL     1     -28.124  27.262 -23.480  1.00  0.00     0.000 C 
BRANCH   2   3
ATOM      3  C   UNL     1     -29.505  27.734 -23.960  1.00  0.00    -0.000 C 
BRANCH   3   4
ATOM      4  C   UNL     1     -30.654  26.916 -23.344  1.00  0.00    -0.000 C 
BRANCH   4   5
ATOM      5  C   UNL     1     -30.179  25.998 -22.207  1.00  0.00    -0.003 C 
ATOM      6  C   UNL     1     -30.754  24.586 -22.304  1.00  0.00     0.004 C 
ENDBRANCH   4   5
ENDBRANCH   3   4
ENDBRANCH   2   3
ENDBRANCH   1   2
BRANCH   1   7
ATOM      7  C   UNL     1     -27.922  25.804 -25.578  1.00  0.00     0.002 C 
BRANCH   7   8
ATOM      8  C   UNL     1     -27.133  25.517 -26.874  1.00  0.00     0.028 C 
BRANCH   8   9
ATOM      9  C   UNL     1     -25.789  24.832 -26.597  1.00  0.00     0.156 C 
BRANCH   9  10
ATOM     10  O   UNL     1     -24.738  25.603 -27.113  1.00  0.00    -0.396 OA
ATOM     11  H   UNL     1     -24.613  25.317 -28.055  1.00  0.00     0.210 HD
ENDBRANCH   9  10
ENDBRANCH   8   9
ENDBRANCH   7   8
ENDBRANCH   1   7
TORSDOF 8
ENDMDL
MODEL 7
REMARK VINA RESULT:    -3.177      3.861      4.452
REMARK INTER + INTRA:          -4.795
REMARK INTER:                  -4.113
REMARK INTRA:                  -0.682
REMARK UNBOUND:                -0.226
REMARK SMILES CCCCCCCCCO
REMARK SMILES IDX 6 1 5 2 4 3 3 4 2 5 1 6 7 7 8 8 9 9 10 10
REMARK H PARENT 10 11
REMARK Flexibility Score: inf
ROOT
ATOM      1  C   UNL     1     -28.795  27.003 -20.775  1.00  0.00     0.000 C 
ENDROOT
BRANCH   1   2
ATOM      2  C   UNL     1     -29.781  28.111 -21.181  1.00  0.00     0.000 C 
BRANCH   2   3
ATOM      3  C   UNL     1     -30.652  27.714 -22.383  1.00  0.00    -0.000 C 
BRANCH   3   4
ATOM      4  C   UNL     1     -30.770  26.188 -22.546  1.00  0.00    -0.000 C 
BRANCH   4   5
ATOM      5  C   UNL     1     -30.431  25.720 -23.970  1.00  0.00    -0.003 C 
ATOM      6  C   UNL     1     -30.298  26.877 -24.959  1.00  0.00     0.004 C 
ENDBRANCH   4   5
ENDBRANCH   3   4
ENDBRANCH   2   3
ENDBRANCH   1   2
BRANCH   1   7
ATOM      7  C   UNL     1     -27.324  27.418 -20.952  1.00  0.00     0.002 C 
BRANCH   7   8
ATOM      8  C   UNL     1     -26.497  26.423 -21.795  1.00  0.00     0.028 C 
BRANCH   8   9
ATOM      9  C   UNL     1     -26.902  26.437 -23.274  1.00  0.00     0.156 C 
BRANCH   9  10
ATOM     10  O   UNL     1     -26.810  27.738 -23.788  1.00  0.00    -0.396 OA
ATOM     11  H   UNL     1     -27.256  27.725 -24.674  1.00  0.00     0.210 HD
ENDBRANCH   9  10
ENDBRANCH   8   9
ENDBRANCH   7   8
ENDBRANCH   1   7
TORSDOF 8
ENDMDL
MODEL 8
REMARK VINA RESULT:    -3.156      3.286      3.977
REMARK INTER + INTRA:          -4.765
REMARK INTER:                  -3.950
REMARK INTRA:                  -0.816
REMARK UNBOUND:                -0.226
REMARK SMILES CCCCCCCCCO
REMARK SMILES IDX 6 1 5 2 4 3 3 4 2 5 1 6 7 7 8 8 9 9 10 10
REMARK H PARENT 10 11
REMARK Flexibility Score: inf
ROOT
ATOM      1  C   UNL     1     -28.588  24.391 -22.081  1.00  0.00     0.000 C 
ENDROOT
BRANCH   1   2
ATOM      2  C   UNL     1     -30.099  24.191 -21.878  1.00  0.00     0.000 C 
BRANCH   2   3
ATOM      3  C   UNL     1     -30.933  25.309 -22.522  1.00  0.00    -0.000 C 
BRANCH   3   4
ATOM      4  C   UNL     1     -30.382  26.712 -22.206  1.00  0.00    -0.000 C 
BRANCH   4   5
ATOM      5  C   UNL     1     -30.599  27.703 -23.361  1.00  0.00    -0.003 C 
ATOM      6  C   UNL     1     -30.239  27.115 -24.724  1.00  0.00     0.004 C 
ENDBRANCH   4   5
ENDBRANCH   3   4
ENDBRANCH   2   3
ENDBRANCH   1   2
BRANCH   1   7
ATOM      7  C   UNL     1     -28.135  24.105 -23.523  1.00  0.00     0.002 C 
BRANCH   7   8
ATOM      8  C   UNL     1     -27.116  25.129 -24.067  1.00  0.00     0.028 C 
BRANCH   8   9
ATOM      9  C   UNL     1     -26.822  26.249 -23.061  1.00  0.00     0.156 C 
BRANCH   9  10
ATOM     10  O   UNL     1     -26.655  27.469 -23.730  1.00  0.00    -0.396 OA
ATOM     11  H   UNL     1     -25.925  27.952 -23.261  1.00  0.00     0.210 HD
ENDBRANCH   9  10
ENDBRANCH   8   9
ENDBRANCH   7   8
ENDBRANCH   1   7
TORSDOF 8
ENDMDL
MODEL 9
REMARK VINA RESULT:    -3.143      3.231      4.761
REMARK INTER + INTRA:          -4.746
REMARK INTER:                  -4.116
REMARK INTRA:                  -0.630
REMARK UNBOUND:                -0.226
REMARK SMILES CCCCCCCCCO
REMARK SMILES IDX 6 1 5 2 4 3 3 4 2 5 1 6 7 7 8 8 9 9 10 10
REMARK H PARENT 10 11
REMARK Flexibility Score: inf
ROOT
ATOM      1  C   UNL     1     -28.448  21.409 -22.157  1.00  0.00     0.000 C 
ENDROOT
BRANCH   1   2
ATOM      2  C   UNL     1     -28.392  22.945 -22.161  1.00  0.00     0.000 C 
BRANCH   2   3
ATOM      3  C   UNL     1     -29.570  23.580 -21.406  1.00  0.00    -0.000 C 
BRANCH   3   4
ATOM      4  C   UNL     1     -29.113  24.414 -20.195  1.00  0.00    -0.000 C 
BRANCH   4   5
ATOM      5  C   UNL     1     -27.885  23.810 -19.495  1.00  0.00    -0.003 C 
ATOM      6  C   UNL     1     -28.248  22.687 -18.525  1.00  0.00     0.004 C 
ENDBRANCH   4   5
ENDBRANCH   3   4
ENDBRANCH   2   3
ENDBRANCH   1   2
BRANCH   1   7
ATOM      7  C   UNL     1     -27.159  20.765 -21.616  1.00  0.00     0.002 C 
BRANCH   7   8
ATOM      8  C   UNL     1     -25.910  21.662 -21.763  1.00  0.00     0.028 C 
BRANCH   8   9
ATOM      9  C   UNL     1     -24.636  20.846 -22.013  1.00  0.00     0.156 C 
BRANCH   9  10
ATOM     10  O   UNL     1     -24.966  19.548 -22.428  1.00  0.00    -0.396 OA
ATOM     11  H   UNL     1     -24.512  18.926 -21.803  1.00  0.00     0.210 HD
ENDBRANCH   9  10
ENDBRANCH   8   9
ENDBRANCH   7   8
ENDBRANCH   1   7
TORSDOF 8
ENDMDL
