MODEL 1
REMARK VINA RESULT:    -4.010      0.000      0.000
REMARK INTER + INTRA:          -5.445
REMARK INTER:                  -5.182
REMARK INTRA:                  -0.263
REMARK UNBOUND:                -0.263
REMARK SMILES CCCCCCC(=O)[O-]
REMARK SMILES IDX 5 1 6 2 7 3 8 4 9 5 4 6 3 7 2 8 1 9
REMARK H PARENT
REMARK Flexibility Score: inf
ROOT
ATOM      1  C   UNL     1     -26.247  44.556  90.570  1.00  0.00     0.006 C 
ENDROOT
BRANCH   1   2
ATOM      2  C   UNL     1     -27.002  43.522  91.415  1.00  0.00     0.053 C 
BRANCH   2   3
ATOM      3  C   UNL     1     -28.156  42.929  90.666  1.00  0.00     0.041 C 
ATOM      4  O   UNL     1     -29.232  42.666  91.264  1.00  0.00    -0.550 OA
ATOM      5  O   UNL     1     -28.029  42.636  89.315  1.00  0.00    -0.550 OA
ENDBRANCH   2   3
ENDBRANCH   1   2
BRANCH   1   6
ATOM      6  C   UNL     1     -27.016  45.879  90.447  1.00  0.00     0.000 C 
BRANCH   6   7
ATOM      7  C   UNL     1     -26.623  46.626  89.166  1.00  0.00    -0.000 C 
BRANCH   7   8
ATOM      8  C   UNL     1     -25.976  45.676  88.152  1.00  0.00    -0.003 C 
ATOM      9  C   UNL     1     -25.814  46.349  86.792  1.00  0.00     0.004 C 
ENDBRANCH   7   8
ENDBRANCH   6   7
ENDBRANCH   1   6
TORSDOF 5
ENDMDL
MODEL 2
REMARK VINA RESULT:    -3.852      7.600      9.047
REMARK INTER + INTRA:          -5.240
REMARK INTER:                  -4.899
REMARK INTRA:                  -0.341
REMARK UNBOUND:                -0.263
REMARK SMILES CCCCCCC(=O)[O-]
REMARK SMILES IDX 5 1 6 2 7 3 8 4 9 5 4 6 3 7 2 8 1 9
REMARK H PARENT
REMARK Flexibility Score: inf
ROOT
ATOM      1  C   UNL     1     -18.362  44.618  85.279  1.00  0.00     0.006 C 
ENDROOT
BRANCH   1   2
ATOM      2  C   UNL     1     -19.544  43.649  85.414  1.00  0.00     0.053 C 
BRANCH   2   3
ATOM      3  C   UNL     1     -20.620  44.204  86.295  1.00  0.00     0.041 C 
ATOM      4  O   UNL     1     -21.497  44.972  85.818  1.00  0.00    -0.550 OA
ATOM      5  O   UNL     1     -20.634  43.899  87.649  1.00  0.00    -0.550 OA
ENDBRANCH   2   3
ENDBRANCH   1   2
BRANCH   1   6
ATOM      6  C   UNL     1     -18.234  45.185  83.858  1.00  0.00     0.000 C 
BRANCH   6   7
ATOM      7  C   UNL     1     -18.950  46.537  83.738  1.00  0.00    -0.000 C 
BRANCH   7   8
ATOM      8  C   UNL     1     -19.688  46.651  82.400  1.00  0.00    -0.003 C 
ATOM      9  C   UNL     1     -21.116  46.124  82.511  1.00  0.00     0.004 C 
ENDBRANCH   7   8
ENDBRANCH   6   7
ENDBRANCH   1   6
TORSDOF 5
ENDMDL
MODEL 3
REMARK VINA RESULT:    -3.741     11.650     12.603
REMARK INTER + INTRA:          -5.098
REMARK INTER:                  -4.966
REMARK INTRA:                  -0.132
REMARK UNBOUND:                -0.263
REMARK SMILES CCCCCCC(=O)[O-]
REMARK SMILES IDX 5 1 6 2 7 3 8 4 9 5 4 6 3 7 2 8 1 9
REMARK H PARENT
REMARK Flexibility Score: inf
ROOT
ATOM      1  C   UNL     1     -18.926  37.398  84.941  1.00  0.00     0.006 C 
ENDROOT
BRANCH   1   2
ATOM      2  C   UNL     1     -18.693  36.996  83.479  1.00  0.00     0.053 C 
BRANCH   2   3
ATOM      3  C   UNL     1     -17.341  36.383  83.280  1.00  0.00     0.041 C 
ATOM      4  O   UNL     1     -17.222  35.136  83.151  1.00  0.00    -0.550 OA
ATOM      5  O   UNL     1     -16.209  37.187  83.270  1.00  0.00    -0.550 OA
ENDBRANCH   2   3
ENDBRANCH   1   2
BRANCH   1   6
ATOM      6  C   UNL     1     -20.258  38.136  85.136  1.00  0.00     0.000 C 
BRANCH   6   7
ATOM      7  C   UNL     1     -20.267  38.913  86.459  1.00  0.00    -0.000 C 
BRANCH   7   8
ATOM      8  C   UNL     1     -20.927  38.092  87.573  1.00  0.00    -0.003 C 
ATOM      9  C   UNL     1     -20.031  38.017  88.806  1.00  0.00     0.004 C 
ENDBRANCH   7   8
ENDBRANCH   6   7
ENDBRANCH   1   6
TORSDOF 5
ENDMDL
MODEL 4
REMARK VINA RESULT:    -3.676      7.237      8.828
REMARK INTER + INTRA:          -5.013
REMARK INTER:                  -4.717
REMARK INTRA:                  -0.296
REMARK UNBOUND:                -0.263
REMARK SMILES CCCCCCC(=O)[O-]
REMARK SMILES IDX 5 1 6 2 7 3 8 4 9 5 4 6 3 7 2 8 1 9
REMARK H PARENT
REMARK Flexibility Score: inf
ROOT
ATOM      1  C   UNL     1     -19.375  43.729  85.372  1.00  0.00     0.006 C 
ENDROOT
BRANCH   1   2
ATOM      2  C   UNL     1     -20.327  43.976  86.550  1.00  0.00     0.053 C 
BRANCH   2   3
ATOM      3  C   UNL     1     -21.474  44.857  86.160  1.00  0.00     0.041 C 
ATOM      4  O   UNL     1     -21.550  45.321  84.992  1.00  0.00    -0.550 OA
ATOM      5  O   UNL     1     -22.442  45.190  87.098  1.00  0.00    -0.550 OA
ENDBRANCH   2   3
ENDBRANCH   1   2
BRANCH   1   6
ATOM      6  C   UNL     1     -18.180  44.693  85.377  1.00  0.00     0.000 C 
BRANCH   6   7
ATOM      7  C   UNL     1     -17.972  45.319  83.992  1.00  0.00    -0.000 C 
BRANCH   7   8
ATOM      8  C   UNL     1     -18.434  46.780  83.975  1.00  0.00    -0.003 C 
ATOM      9  C   UNL     1     -19.408  47.037  82.828  1.00  0.00     0.004 C 
ENDBRANCH   7   8
ENDBRANCH   6   7
ENDBRANCH   1   6
TORSDOF 5
ENDMDL
MODEL 5
REMARK VINA RESULT:    -3.637      7.467      8.774
REMARK INTER + INTRA:          -4.963
REMARK INTER:                  -4.741
REMARK INTRA:                  -0.222
REMARK UNBOUND:                -0.263
REMARK SMILES CCCCCCC(=O)[O-]
REMARK SMILES IDX 5 1 6 2 7 3 8 4 9 5 4 6 3 7 2 8 1 9
REMARK H PARENT
REMARK Flexibility Score: inf
ROOT
ATOM      1  C   UNL     1     -19.634  43.943  85.194  1.00  0.00     0.006 C 
ENDROOT
BRANCH   1   2
ATOM      2  C   UNL     1     -20.282  43.735  86.569  1.00  0.00     0.053 C 
BRANCH   2   3
ATOM      3  C   UNL     1     -20.589  42.292  86.825  1.00  0.00     0.041 C 
ATOM      4  O   UNL     1     -21.756  41.939  87.141  1.00  0.00    -0.550 OA
ATOM      5  O   UNL     1     -19.580  41.342  86.747  1.00  0.00    -0.550 OA
ENDBRANCH   2   3
ENDBRANCH   1   2
BRANCH   1   6
ATOM      6  C   UNL     1     -18.233  44.563  85.298  1.00  0.00     0.000 C 
BRANCH   6   7
ATOM      7  C   UNL     1     -18.001  45.588  84.181  1.00  0.00    -0.000 C 
BRANCH   7   8
ATOM      8  C   UNL     1     -19.234  46.476  83.985  1.00  0.00    -0.003 C 
ATOM      9  C   UNL     1     -19.633  46.548  82.514  1.00  0.00     0.004 C 
ENDBRANCH   7   8
ENDBRANCH   6   7
ENDBRANCH   1   6
TORSDOF 5
ENDMDL
MODEL 6
REMARK VINA RESULT:    -3.626      7.460      8.705
REMARK INTER + INTRA:          -4.949
REMARK INTER:                  -4.765
REMARK INTRA:                  -0.183
REMARK UNBOUND:                -0.263
REMARK SMILES CCCCCCC(=O)[O-]
REMARK SMILES IDX 5 1 6 2 7 3 8 4 9 5 4 6 3 7 2 8 1 9
REMARK H PARENT
REMARK Flexibility Score: inf
ROOT
ATOM      1  C   UNL     1     -20.353  43.981  86.408  1.00  0.00     0.006 C 
ENDROOT
BRANCH   1   2
ATOM      2  C   UNL     1     -19.800  42.588  86.080  1.00  0.00     0.053 C 
BRANCH   2   3
ATOM      3  C   UNL     1     -20.526  41.513  86.830  1.00  0.00     0.041 C 
ATOM      4  O   UNL     1     -19.973  40.400  87.036  1.00  0.00    -0.550 OA
ATOM      5  O   UNL     1     -21.824  41.730  87.271  1.00  0.00    -0.550 OA
ENDBRANCH   2   3
ENDBRANCH   1   2
BRANCH   1   6
ATOM      6  C   UNL     1     -19.941  45.030  85.365  1.00  0.00     0.000 C 
BRANCH   6   7
ATOM      7  C   UNL     1     -18.771  44.527  84.511  1.00  0.00    -0.000 C 
BRANCH   7   8
ATOM      8  C   UNL     1     -17.500  45.336  84.788  1.00  0.00    -0.003 C 
ATOM      9  C   UNL     1     -17.627  46.761  84.258  1.00  0.00     0.004 C 
ENDBRANCH   7   8
ENDBRANCH   6   7
ENDBRANCH   1   6
TORSDOF 5
ENDMDL
MODEL 7
REMARK VINA RESULT:    -3.562      2.632      4.109
REMARK INTER + INTRA:          -4.867
REMARK INTER:                  -4.548
REMARK INTRA:                  -0.318
REMARK UNBOUND:                -0.263
REMARK SMILES CCCCCCC(=O)[O-]
REMARK SMILES IDX 5 1 6 2 7 3 8 4 9 5 4 6 3 7 2 8 1 9
REMARK H PARENT
REMARK Flexibility Score: inf
ROOT
ATOM      1  C   UNL     1     -26.414  46.391  89.819  1.00  0.00     0.006 C 
ENDROOT
BRANCH   1   2
ATOM      2  C   UNL     1     -25.260  45.464  89.418  1.00  0.00     0.053 C 
BRANCH   2   3
ATOM      3  C   UNL     1     -25.084  45.405  87.932  1.00  0.00     0.041 C 
ATOM      4  O   UNL     1     -25.993  45.826  87.169  1.00  0.00    -0.550 OA
ATOM      5  O   UNL     1     -23.930  44.857  87.390  1.00  0.00    -0.550 OA
ENDBRANCH   2   3
ENDBRANCH   1   2
BRANCH   1   6
ATOM      6  C   UNL     1     -27.509  45.651  90.601  1.00  0.00     0.000 C 
BRANCH   6   7
ATOM      7  C   UNL     1     -27.044  44.246  91.004  1.00  0.00    -0.000 C 
BRANCH   7   8
ATOM      8  C   UNL     1     -28.138  43.208  90.738  1.00  0.00    -0.003 C 
ATOM      9  C   UNL     1     -28.118  42.747  89.283  1.00  0.00     0.004 C 
ENDBRANCH   7   8
ENDBRANCH   6   7
ENDBRANCH   1   6
TORSDOF 5
ENDMDL
MODEL 8
REMARK VINA RESULT:    -3.515      7.795      8.353
REMARK INTER + INTRA:          -4.806
REMARK INTER:                  -4.678
REMARK INTRA:                  -0.128
REMARK UNBOUND:                -0.263
REMARK SMILES CCCCCCC(=O)[O-]
REMARK SMILES IDX 5 1 6 2 7 3 8 4 9 5 4 6 3 7 2 8 1 9
REMARK H PARENT
REMARK Flexibility Score: inf
ROOT
ATOM      1  C   UNL     1     -20.426  42.168  86.649  1.00  0.00     0.006 C 
ENDROOT
BRANCH   1   2
ATOM      2  C   UNL     1     -19.862  40.746  86.766  1.00  0.00     0.053 C 
BRANCH   2   3
ATOM      3  C   UNL     1     -20.719  39.879  87.635  1.00  0.00     0.041 C 
ATOM      4  O   UNL     1     -21.420  38.965  87.125  1.00  0.00    -0.550 OA
ATOM      5  O   UNL     1     -20.768  40.101  89.005  1.00  0.00    -0.550 OA
ENDBRANCH   2   3
ENDBRANCH   1   2
BRANCH   1   6
ATOM      6  C   UNL     1     -19.582  43.055  85.723  1.00  0.00     0.000 C 
BRANCH   6   7
ATOM      7  C   UNL     1     -20.327  44.348  85.370  1.00  0.00    -0.000 C 
BRANCH   7   8
ATOM      8  C   UNL     1     -19.373  45.383  84.763  1.00  0.00    -0.003 C 
ATOM      9  C   UNL     1     -17.918  44.952  84.923  1.00  0.00     0.004 C 
ENDBRANCH   7   8
ENDBRANCH   6   7
ENDBRANCH   1   6
TORSDOF 5
ENDMDL
MODEL 9
REMARK VINA RESULT:    -3.496      8.378      9.532
REMARK INTER + INTRA:          -4.780
REMARK INTER:                  -4.553
REMARK INTRA:                  -0.227
REMARK UNBOUND:                -0.263
REMARK SMILES CCCCCCC(=O)[O-]
REMARK SMILES IDX 5 1 6 2 7 3 8 4 9 5 4 6 3 7 2 8 1 9
REMARK H PARENT
REMARK Flexibility Score: inf
ROOT
ATOM      1  C   UNL     1     -20.933  39.265  86.629  1.00  0.00     0.006 C 
ENDROOT
BRANCH   1   2
ATOM      2  C   UNL     1     -20.010  40.468  86.863  1.00  0.00     0.053 C 
BRANCH   2   3
ATOM      3  C   UNL     1     -20.761  41.763  86.806  1.00  0.00     0.041 C 
ATOM      4  O   UNL     1     -20.234  42.779  86.280  1.00  0.00    -0.550 OA
ATOM      5  O   UNL     1     -22.029  41.856  87.364  1.00  0.00    -0.550 OA
ENDBRANCH   2   3
ENDBRANCH   1   2
BRANCH   1   6
ATOM      6  C   UNL     1     -20.671  38.128  87.626  1.00  0.00     0.000 C 
BRANCH   6   7
ATOM      7  C   UNL     1     -20.363  38.681  89.023  1.00  0.00    -0.000 C 
BRANCH   7   8
ATOM      8  C   UNL     1     -19.435  37.737  89.796  1.00  0.00    -0.003 C 
ATOM      9  C   UNL     1     -18.419  38.520  90.624  1.00  0.00     0.004 C 
ENDBRANCH   7   8
ENDBRANCH   6   7
ENDBRANCH   1   6
TORSDOF 5
ENDMDL
