MODEL 1
REMARK VINA RESULT:    -3.384      0.000      0.000
REMARK INTER + INTRA:          -3.806
REMARK INTER:                  -3.681
REMARK INTRA:                  -0.126
REMARK UNBOUND:                -0.126
REMARK SMILES Cc1ccc(C(C)C)cc1O
REMARK SMILES IDX 1 1 2 2 10 3 9 4 5 5 4 6 3 7 11 8 6 10 7 11 8 12
REMARK H PARENT 11 9
REMARK Flexibility Score: inf
ROOT
ATOM      1  C   UNL     1     227.131 230.891 234.612  1.00  0.00     0.048 C 
ATOM      2  C   UNL     1     228.297 231.527 233.909  1.00  0.00    -0.009 A 
ATOM      3  C   UNL     1     228.081 232.497 232.916  1.00  0.00     0.118 A 
ATOM      4  C   UNL     1     229.173 233.087 232.263  1.00  0.00     0.050 A 
ATOM      5  C   UNL     1     230.489 232.719 232.591  1.00  0.00    -0.042 A 
ATOM      6  C   UNL     1     230.695 231.747 233.587  1.00  0.00     0.004 A 
ATOM      7  C   UNL     1     229.609 231.158 234.239  1.00  0.00     0.007 A 
ENDROOT
BRANCH   3   8
ATOM      8  O   UNL     1     226.780 232.874 232.578  1.00  0.00    -0.508 OA
ATOM      9  H   UNL     1     225.979 232.559 233.113  1.00  0.00     0.293 HD
ENDBRANCH   3   8
BRANCH   5  10
ATOM     10  C   UNL     1     231.660 233.367 231.875  1.00  0.00     0.013 C 
ATOM     11  C   UNL     1     231.908 234.788 232.396  1.00  0.00     0.012 C 
ATOM     12  C   UNL     1     232.924 232.508 231.993  1.00  0.00     0.012 C 
ENDBRANCH   5  10
TORSDOF 2
ENDMDL
MODEL 2
REMARK VINA RESULT:    -3.372      7.091      8.847
REMARK INTER + INTRA:          -3.793
REMARK INTER:                  -3.667
REMARK INTRA:                  -0.127
REMARK UNBOUND:                -0.126
REMARK SMILES Cc1ccc(C(C)C)cc1O
REMARK SMILES IDX 1 1 2 2 10 3 9 4 5 5 4 6 3 7 11 8 6 10 7 11 8 12
REMARK H PARENT 11 9
REMARK Flexibility Score: inf
ROOT
ATOM      1  C   UNL     1     233.286 238.994 231.942  1.00  0.00     0.048 C 
ATOM      2  C   UNL     1     232.313 239.394 233.015  1.00  0.00    -0.009 A 
ATOM      3  C   UNL     1     232.143 240.748 233.348  1.00  0.00     0.118 A 
ATOM      4  C   UNL     1     231.233 241.115 234.351  1.00  0.00     0.050 A 
ATOM      5  C   UNL     1     230.486 240.139 235.032  1.00  0.00    -0.042 A 
ATOM      6  C   UNL     1     230.663 238.785 234.693  1.00  0.00     0.004 A 
ATOM      7  C   UNL     1     231.568 238.417 233.694  1.00  0.00     0.007 A 
ENDROOT
BRANCH   3   8
ATOM      8  O   UNL     1     232.877 241.729 232.681  1.00  0.00    -0.508 OA
ATOM      9  H   UNL     1     233.838 241.575 232.399  1.00  0.00     0.293 HD
ENDBRANCH   3   8
BRANCH   5  10
ATOM     10  C   UNL     1     229.506 240.552 236.116  1.00  0.00     0.013 C 
ATOM     11  C   UNL     1     228.605 241.697 235.638  1.00  0.00     0.012 C 
ATOM     12  C   UNL     1     228.673 239.357 236.593  1.00  0.00     0.012 C 
ENDBRANCH   5  10
TORSDOF 2
ENDMDL
MODEL 3
REMARK VINA RESULT:    -3.318      7.971      9.879
REMARK INTER + INTRA:          -3.735
REMARK INTER:                  -3.609
REMARK INTRA:                  -0.126
REMARK UNBOUND:                -0.126
REMARK SMILES Cc1ccc(C(C)C)cc1O
REMARK SMILES IDX 1 1 2 2 10 3 9 4 5 5 4 6 3 7 11 8 6 10 7 11 8 12
REMARK H PARENT 11 9
REMARK Flexibility Score: inf
ROOT
ATOM      1  C   UNL     1     235.504 229.614 232.536  1.00  0.00     0.048 C 
ATOM      2  C   UNL     1     236.502 228.882 233.388  1.00  0.00    -0.009 A 
ATOM      3  C   UNL     1     236.509 227.477 233.420  1.00  0.00     0.118 A 
ATOM      4  C   UNL     1     237.443 226.799 234.218  1.00  0.00     0.050 A 
ATOM      5  C   UNL     1     238.377 227.511 234.990  1.00  0.00    -0.042 A 
ATOM      6  C   UNL     1     238.362 228.917 234.951  1.00  0.00     0.004 A 
ATOM      7  C   UNL     1     237.433 229.595 234.158  1.00  0.00     0.007 A 
ENDROOT
BRANCH   3   8
ATOM      8  O   UNL     1     235.589 226.756 232.659  1.00  0.00    -0.508 OA
ATOM      9  H   UNL     1     235.600 225.743 232.630  1.00  0.00     0.293 HD
ENDBRANCH   3   8
BRANCH   5  10
ATOM     10  C   UNL     1     239.381 226.762 235.848  1.00  0.00     0.013 C 
ATOM     11  C   UNL     1     240.431 226.057 234.982  1.00  0.00     0.012 C 
ATOM     12  C   UNL     1     240.043 227.697 236.867  1.00  0.00     0.012 C 
ENDBRANCH   5  10
TORSDOF 2
ENDMDL
MODEL 4
REMARK VINA RESULT:    -3.300      9.386     11.957
REMARK INTER + INTRA:          -3.715
REMARK INTER:                  -3.596
REMARK INTRA:                  -0.119
REMARK UNBOUND:                -0.126
REMARK SMILES Cc1ccc(C(C)C)cc1O
REMARK SMILES IDX 1 1 2 2 10 3 9 4 5 5 4 6 3 7 11 8 6 10 7 11 8 12
REMARK H PARENT 11 9
REMARK Flexibility Score: inf
ROOT
ATOM      1  C   UNL     1     242.246 239.581 235.178  1.00  0.00     0.048 C 
ATOM      2  C   UNL     1     241.267 238.547 234.701  1.00  0.00    -0.009 A 
ATOM      3  C   UNL     1     239.885 238.789 234.781  1.00  0.00     0.118 A 
ATOM      4  C   UNL     1     238.976 237.819 234.333  1.00  0.00     0.050 A 
ATOM      5  C   UNL     1     239.432 236.600 233.802  1.00  0.00    -0.042 A 
ATOM      6  C   UNL     1     240.817 236.367 233.726  1.00  0.00     0.004 A 
ATOM      7  C   UNL     1     241.725 237.331 234.171  1.00  0.00     0.007 A 
ENDROOT
BRANCH   3   8
ATOM      8  O   UNL     1     239.416 239.994 235.305  1.00  0.00    -0.508 OA
ATOM      9  H   UNL     1     239.777 240.373 236.173  1.00  0.00     0.293 HD
ENDBRANCH   3   8
BRANCH   5  10
ATOM     10  C   UNL     1     238.435 235.561 233.323  1.00  0.00     0.013 C 
ATOM     11  C   UNL     1     236.995 236.064 233.478  1.00  0.00     0.012 C 
ATOM     12  C   UNL     1     238.722 235.147 231.875  1.00  0.00     0.012 C 
ENDBRANCH   5  10
TORSDOF 2
ENDMDL
MODEL 5
REMARK VINA RESULT:    -3.295      2.224      3.374
REMARK INTER + INTRA:          -3.710
REMARK INTER:                  -3.585
REMARK INTRA:                  -0.125
REMARK UNBOUND:                -0.126
REMARK SMILES Cc1ccc(C(C)C)cc1O
REMARK SMILES IDX 1 1 2 2 10 3 9 4 5 5 4 6 3 7 11 8 6 10 7 11 8 12
REMARK H PARENT 11 9
REMARK Flexibility Score: inf
ROOT
ATOM      1  C   UNL     1     226.574 228.422 235.500  1.00  0.00     0.048 C 
ATOM      2  C   UNL     1     227.388 229.539 234.911  1.00  0.00    -0.009 A 
ATOM      3  C   UNL     1     228.788 229.532 235.027  1.00  0.00     0.118 A 
ATOM      4  C   UNL     1     229.542 230.579 234.476  1.00  0.00     0.050 A 
ATOM      5  C   UNL     1     228.912 231.640 233.804  1.00  0.00    -0.042 A 
ATOM      6  C   UNL     1     227.509 231.638 233.693  1.00  0.00     0.004 A 
ATOM      7  C   UNL     1     226.756 230.597 234.242  1.00  0.00     0.007 A 
ENDROOT
BRANCH   3   8
ATOM      8  O   UNL     1     229.430 228.485 235.691  1.00  0.00    -0.508 OA
ATOM      9  H   UNL     1     229.076 227.537 235.654  1.00  0.00     0.293 HD
ENDBRANCH   3   8
BRANCH   5  10
ATOM     10  C   UNL     1     229.743 232.765 233.213  1.00  0.00     0.013 C 
ATOM     11  C   UNL     1     231.210 232.346 233.061  1.00  0.00     0.012 C 
ATOM     12  C   UNL     1     229.162 233.237 231.876  1.00  0.00     0.012 C 
ENDBRANCH   5  10
TORSDOF 2
ENDMDL
MODEL 6
REMARK VINA RESULT:    -3.287      1.583      4.440
REMARK INTER + INTRA:          -3.700
REMARK INTER:                  -3.576
REMARK INTRA:                  -0.124
REMARK UNBOUND:                -0.126
REMARK SMILES Cc1ccc(C(C)C)cc1O
REMARK SMILES IDX 1 1 2 2 10 3 9 4 5 5 4 6 3 7 11 8 6 10 7 11 8 12
REMARK H PARENT 11 9
REMARK Flexibility Score: inf
ROOT
ATOM      1  C   UNL     1     229.605 233.296 231.875  1.00  0.00     0.048 C 
ATOM      2  C   UNL     1     229.227 232.420 233.036  1.00  0.00    -0.009 A 
ATOM      3  C   UNL     1     227.875 232.235 233.373  1.00  0.00     0.118 A 
ATOM      4  C   UNL     1     227.530 231.416 234.458  1.00  0.00     0.050 A 
ATOM      5  C   UNL     1     228.523 230.774 235.217  1.00  0.00    -0.042 A 
ATOM      6  C   UNL     1     229.874 230.965 234.871  1.00  0.00     0.004 A 
ATOM      7  C   UNL     1     230.221 231.780 233.791  1.00  0.00     0.007 A 
ENDROOT
BRANCH   3   8
ATOM      8  O   UNL     1     226.877 232.866 232.630  1.00  0.00    -0.508 OA
ATOM      9  H   UNL     1     226.924 232.928 231.620  1.00  0.00     0.293 HD
ENDBRANCH   3   8
BRANCH   5  10
ATOM     10  C   UNL     1     228.132 229.891 236.388  1.00  0.00     0.013 C 
ATOM     11  C   UNL     1     226.649 229.509 236.320  1.00  0.00     0.012 C 
ATOM     12  C   UNL     1     229.020 228.643 236.460  1.00  0.00     0.012 C 
ENDBRANCH   5  10
TORSDOF 2
ENDMDL
MODEL 7
REMARK VINA RESULT:    -3.282      5.992      8.010
REMARK INTER + INTRA:          -3.695
REMARK INTER:                  -3.576
REMARK INTRA:                  -0.119
REMARK UNBOUND:                -0.126
REMARK SMILES Cc1ccc(C(C)C)cc1O
REMARK SMILES IDX 1 1 2 2 10 3 9 4 5 5 4 6 3 7 11 8 6 10 7 11 8 12
REMARK H PARENT 11 9
REMARK Flexibility Score: inf
ROOT
ATOM      1  C   UNL     1     228.571 242.104 235.172  1.00  0.00     0.048 C 
ATOM      2  C   UNL     1     229.684 241.210 234.701  1.00  0.00    -0.009 A 
ATOM      3  C   UNL     1     229.576 239.815 234.833  1.00  0.00     0.118 A 
ATOM      4  C   UNL     1     230.618 238.987 234.391  1.00  0.00     0.050 A 
ATOM      5  C   UNL     1     231.776 239.537 233.815  1.00  0.00    -0.042 A 
ATOM      6  C   UNL     1     231.875 240.934 233.687  1.00  0.00     0.004 A 
ATOM      7  C   UNL     1     230.838 241.762 234.126  1.00  0.00     0.007 A 
ENDROOT
BRANCH   3   8
ATOM      8  O   UNL     1     228.433 239.254 235.403  1.00  0.00    -0.508 OA
ATOM      9  H   UNL     1     227.762 239.815 235.913  1.00  0.00     0.293 HD
ENDBRANCH   3   8
BRANCH   5  10
ATOM     10  C   UNL     1     232.895 238.626 233.342  1.00  0.00     0.013 C 
ATOM     11  C   UNL     1     232.536 237.152 233.560  1.00  0.00     0.012 C 
ATOM     12  C   UNL     1     233.245 238.897 231.875  1.00  0.00     0.012 C 
ENDBRANCH   5  10
TORSDOF 2
ENDMDL
MODEL 8
REMARK VINA RESULT:    -3.247     10.832     13.118
REMARK INTER + INTRA:          -3.657
REMARK INTER:                  -3.532
REMARK INTRA:                  -0.125
REMARK UNBOUND:                -0.126
REMARK SMILES Cc1ccc(C(C)C)cc1O
REMARK SMILES IDX 1 1 2 2 10 3 9 4 5 5 4 6 3 7 11 8 6 10 7 11 8 12
REMARK H PARENT 11 9
REMARK Flexibility Score: inf
ROOT
ATOM      1  C   UNL     1     238.972 235.884 233.138  1.00  0.00     0.048 C 
ATOM      2  C   UNL     1     239.836 236.930 233.784  1.00  0.00    -0.009 A 
ATOM      3  C   UNL     1     241.229 236.913 233.597  1.00  0.00     0.118 A 
ATOM      4  C   UNL     1     242.030 237.892 234.203  1.00  0.00     0.050 A 
ATOM      5  C   UNL     1     241.454 238.896 235.000  1.00  0.00    -0.042 A 
ATOM      6  C   UNL     1     240.059 238.905 235.182  1.00  0.00     0.004 A 
ATOM      7  C   UNL     1     239.259 237.931 234.580  1.00  0.00     0.007 A 
ENDROOT
BRANCH   3   8
ATOM      8  O   UNL     1     241.816 235.923 232.808  1.00  0.00    -0.508 OA
ATOM      9  H   UNL     1     242.720 236.057 232.372  1.00  0.00     0.293 HD
ENDBRANCH   3   8
BRANCH   5  10
ATOM     10  C   UNL     1     242.335 239.949 235.649  1.00  0.00     0.013 C 
ATOM     11  C   UNL     1     242.765 241.013 234.632  1.00  0.00     0.012 C 
ATOM     12  C   UNL     1     241.636 240.588 236.854  1.00  0.00     0.012 C 
ENDBRANCH   5  10
TORSDOF 2
ENDMDL
MODEL 9
REMARK VINA RESULT:    -3.201      2.151      3.503
REMARK INTER + INTRA:          -3.607
REMARK INTER:                  -3.480
REMARK INTRA:                  -0.127
REMARK UNBOUND:                -0.126
REMARK SMILES Cc1ccc(C(C)C)cc1O
REMARK SMILES IDX 1 1 2 2 10 3 9 4 5 5 4 6 3 7 11 8 6 10 7 11 8 12
REMARK H PARENT 11 9
REMARK Flexibility Score: inf
ROOT
ATOM      1  C   UNL     1     225.584 227.557 234.555  1.00  0.00     0.048 C 
ATOM      2  C   UNL     1     226.523 228.729 234.491  1.00  0.00    -0.009 A 
ATOM      3  C   UNL     1     226.184 229.867 233.740  1.00  0.00     0.118 A 
ATOM      4  C   UNL     1     227.066 230.957 233.684  1.00  0.00     0.050 A 
ATOM      5  C   UNL     1     228.290 230.925 234.373  1.00  0.00    -0.042 A 
ATOM      6  C   UNL     1     228.620 229.781 235.122  1.00  0.00     0.004 A 
ATOM      7  C   UNL     1     227.744 228.694 235.179  1.00  0.00     0.007 A 
ENDROOT
BRANCH   3   8
ATOM      8  O   UNL     1     224.972 229.915 233.051  1.00  0.00    -0.508 OA
ATOM      9  H   UNL     1     224.934 230.086 232.053  1.00  0.00     0.293 HD
ENDBRANCH   3   8
BRANCH   5  10
ATOM     10  C   UNL     1     229.233 232.113 234.302  1.00  0.00     0.013 C 
ATOM     11  C   UNL     1     230.560 231.807 235.006  1.00  0.00     0.012 C 
ATOM     12  C   UNL     1     229.465 232.548 232.851  1.00  0.00     0.012 C 
ENDBRANCH   5  10
TORSDOF 2
ENDMDL
