MODEL 1
REMARK VINA RESULT:     1.689      0.000      0.000
REMARK INTER + INTRA:           2.023
REMARK INTER:                   2.084
REMARK INTRA:                  -0.061
REMARK UNBOUND:                -0.061
REMARK SMILES CCCCCC(=O)[O-]
REMARK SMILES IDX 4 1 5 2 6 3 7 4 8 5 3 6 2 7 1 8
REMARK H PARENT
REMARK Flexibility Score: inf
ROOT
ATOM      1  C   UNL     1       2.918   7.705  -3.625  1.00  0.00     0.006 C 
ENDROOT
BRANCH   1   2
ATOM      2  C   UNL     1       3.597   7.279  -2.316  1.00  0.00     0.053 C 
BRANCH   2   3
ATOM      3  C   UNL     1       5.087   7.209  -2.460  1.00  0.00     0.041 C 
ATOM      4  O   UNL     1       5.625   6.207  -3.001  1.00  0.00    -0.550 OA
ATOM      5  O   UNL     1       5.879   8.264  -2.023  1.00  0.00    -0.550 OA
ENDBRANCH   2   3
ENDBRANCH   1   2
BRANCH   1   6
ATOM      6  C   UNL     1       1.410   7.402  -3.621  1.00  0.00     0.000 C 
BRANCH   6   7
ATOM      7  C   UNL     1       0.588   8.496  -4.320  1.00  0.00    -0.003 C 
ATOM      8  C   UNL     1       0.991   8.698  -5.781  1.00  0.00     0.004 C 
ENDBRANCH   6   7
ENDBRANCH   1   6
TORSDOF 4
ENDMDL
MODEL 2
REMARK VINA RESULT:     2.175      3.301      5.049
REMARK INTER + INTRA:           2.622
REMARK INTER:                   2.733
REMARK INTRA:                  -0.111
REMARK UNBOUND:                -0.061
REMARK SMILES CCCCCC(=O)[O-]
REMARK SMILES IDX 4 1 5 2 6 3 7 4 8 5 3 6 2 7 1 8
REMARK H PARENT
REMARK Flexibility Score: inf
ROOT
ATOM      1  C   UNL     1       5.381   5.303  -3.440  1.00  0.00     0.006 C 
ENDROOT
BRANCH   1   2
ATOM      2  C   UNL     1       6.035   6.328  -2.504  1.00  0.00     0.053 C 
BRANCH   2   3
ATOM      3  C   UNL     1       5.226   7.585  -2.402  1.00  0.00     0.041 C 
ATOM      4  O   UNL     1       4.058   7.626  -2.872  1.00  0.00    -0.550 OA
ATOM      5  O   UNL     1       5.750   8.701  -1.762  1.00  0.00    -0.550 OA
ENDBRANCH   2   3
ENDBRANCH   1   2
BRANCH   1   6
ATOM      6  C   UNL     1       6.404   4.627  -4.368  1.00  0.00     0.000 C 
BRANCH   6   7
ATOM      7  C   UNL     1       6.496   3.111  -4.138  1.00  0.00    -0.003 C 
ATOM      8  C   UNL     1       7.255   2.750  -2.862  1.00  0.00     0.004 C 
ENDBRANCH   6   7
ENDBRANCH   1   6
TORSDOF 4
ENDMDL
MODEL 3
REMARK VINA RESULT:     2.666      3.398      4.299
REMARK INTER + INTRA:           3.228
REMARK INTER:                   3.337
REMARK INTRA:                  -0.110
REMARK UNBOUND:                -0.061
REMARK SMILES CCCCCC(=O)[O-]
REMARK SMILES IDX 4 1 5 2 6 3 7 4 8 5 3 6 2 7 1 8
REMARK H PARENT
REMARK Flexibility Score: inf
ROOT
ATOM      1  C   UNL     1       4.536   5.977  -2.921  1.00  0.00     0.006 C 
ENDROOT
BRANCH   1   2
ATOM      2  C   UNL     1       6.011   5.576  -3.058  1.00  0.00     0.053 C 
BRANCH   2   3
ATOM      3  C   UNL     1       6.202   4.502  -4.086  1.00  0.00     0.041 C 
ATOM      4  O   UNL     1       5.822   4.686  -5.273  1.00  0.00    -0.550 OA
ATOM      5  O   UNL     1       6.827   3.311  -3.740  1.00  0.00    -0.550 OA
ENDBRANCH   2   3
ENDBRANCH   1   2
BRANCH   1   6
ATOM      6  C   UNL     1       4.369   7.352  -2.253  1.00  0.00     0.000 C 
BRANCH   6   7
ATOM      7  C   UNL     1       5.690   8.132  -2.170  1.00  0.00    -0.003 C 
ATOM      8  C   UNL     1       5.662   9.232  -1.109  1.00  0.00     0.004 C 
ENDBRANCH   6   7
ENDBRANCH   1   6
TORSDOF 4
ENDMDL
MODEL 4
REMARK VINA RESULT:     2.684      3.094      4.753
REMARK INTER + INTRA:           3.250
REMARK INTER:                   3.304
REMARK INTRA:                  -0.054
REMARK UNBOUND:                -0.061
REMARK SMILES CCCCCC(=O)[O-]
REMARK SMILES IDX 4 1 5 2 6 3 7 4 8 5 3 6 2 7 1 8
REMARK H PARENT
REMARK Flexibility Score: inf
ROOT
ATOM      1  C   UNL     1       3.050   7.653  -3.575  1.00  0.00     0.006 C 
ENDROOT
BRANCH   1   2
ATOM      2  C   UNL     1       1.544   7.358  -3.591  1.00  0.00     0.053 C 
BRANCH   2   3
ATOM      3  C   UNL     1       0.787   8.375  -4.390  1.00  0.00     0.041 C 
ATOM      4  O   UNL     1      -0.196   8.977  -3.882  1.00  0.00    -0.550 OA
ATOM      5  O   UNL     1       1.185   8.679  -5.686  1.00  0.00    -0.550 OA
ENDBRANCH   2   3
ENDBRANCH   1   2
BRANCH   1   6
ATOM      6  C   UNL     1       3.773   6.918  -2.434  1.00  0.00     0.000 C 
BRANCH   6   7
ATOM      7  C   UNL     1       5.293   7.138  -2.460  1.00  0.00    -0.003 C 
ATOM      8  C   UNL     1       5.717   8.425  -1.752  1.00  0.00     0.004 C 
ENDBRANCH   6   7
ENDBRANCH   1   6
TORSDOF 4
ENDMDL
MODEL 5
REMARK VINA RESULT:     3.902      3.934      5.169
REMARK INTER + INTRA:           4.754
REMARK INTER:                   4.874
REMARK INTRA:                  -0.120
REMARK UNBOUND:                -0.061
REMARK SMILES CCCCCC(=O)[O-]
REMARK SMILES IDX 4 1 5 2 6 3 7 4 8 5 3 6 2 7 1 8
REMARK H PARENT
REMARK Flexibility Score: inf
ROOT
ATOM      1  C   UNL     1       0.906   8.988  -5.533  1.00  0.00     0.006 C 
ENDROOT
BRANCH   1   2
ATOM      2  C   UNL     1       0.178   8.418  -6.758  1.00  0.00     0.053 C 
BRANCH   2   3
ATOM      3  C   UNL     1       1.068   8.371  -7.962  1.00  0.00     0.041 C 
ATOM      4  O   UNL     1       0.590   8.092  -9.094  1.00  0.00    -0.550 OA
ATOM      5  O   UNL     1       2.420   8.666  -7.840  1.00  0.00    -0.550 OA
ENDBRANCH   2   3
ENDBRANCH   1   2
BRANCH   1   6
ATOM      6  C   UNL     1       1.031   7.956  -4.401  1.00  0.00     0.000 C 
BRANCH   6   7
ATOM      7  C   UNL     1       0.085   8.251  -3.226  1.00  0.00    -0.003 C 
ATOM      8  C   UNL     1      -0.566   9.631  -3.323  1.00  0.00     0.004 C 
ENDBRANCH   6   7
ENDBRANCH   1   6
TORSDOF 4
ENDMDL
MODEL 6
REMARK VINA RESULT:     3.934      4.050      4.925
REMARK INTER + INTRA:           4.793
REMARK INTER:                   4.853
REMARK INTRA:                  -0.060
REMARK UNBOUND:                -0.061
REMARK SMILES CCCCCC(=O)[O-]
REMARK SMILES IDX 4 1 5 2 6 3 7 4 8 5 3 6 2 7 1 8
REMARK H PARENT
REMARK Flexibility Score: inf
ROOT
ATOM      1  C   UNL     1       0.337   8.856  -5.870  1.00  0.00     0.006 C 
ENDROOT
BRANCH   1   2
ATOM      2  C   UNL     1       1.803   8.828  -6.325  1.00  0.00     0.053 C 
BRANCH   2   3
ATOM      3  C   UNL     1       1.922   8.626  -7.805  1.00  0.00     0.041 C 
ATOM      4  O   UNL     1       0.981   8.090  -8.449  1.00  0.00    -0.550 OA
ATOM      5  O   UNL     1       3.058   9.057  -8.477  1.00  0.00    -0.550 OA
ENDBRANCH   2   3
ENDBRANCH   1   2
BRANCH   1   6
ATOM      6  C   UNL     1       0.205   8.812  -4.339  1.00  0.00     0.000 C 
BRANCH   6   7
ATOM      7  C   UNL     1       0.766   7.516  -3.735  1.00  0.00    -0.003 C 
ATOM      8  C   UNL     1       0.225   6.261  -4.419  1.00  0.00     0.004 C 
ENDBRANCH   6   7
ENDBRANCH   1   6
TORSDOF 4
ENDMDL
MODEL 7
REMARK VINA RESULT:     4.062      3.484      4.705
REMARK INTER + INTRA:           4.951
REMARK INTER:                   5.069
REMARK INTRA:                  -0.118
REMARK UNBOUND:                -0.061
REMARK SMILES CCCCCC(=O)[O-]
REMARK SMILES IDX 4 1 5 2 6 3 7 4 8 5 3 6 2 7 1 8
REMARK H PARENT
REMARK Flexibility Score: inf
ROOT
ATOM      1  C   UNL     1       0.185   8.341  -6.755  1.00  0.00     0.006 C 
ENDROOT
BRANCH   1   2
ATOM      2  C   UNL     1       0.959   8.934  -5.570  1.00  0.00     0.053 C 
BRANCH   2   3
ATOM      3  C   UNL     1       0.600   8.261  -4.279  1.00  0.00     0.041 C 
ATOM      4  O   UNL     1       1.082   7.132  -3.998  1.00  0.00    -0.550 OA
ATOM      5  O   UNL     1      -0.242   8.894  -3.375  1.00  0.00    -0.550 OA
ENDBRANCH   2   3
ENDBRANCH   1   2
BRANCH   1   6
ATOM      6  C   UNL     1       1.019   8.334  -8.047  1.00  0.00     0.000 C 
BRANCH   6   7
ATOM      7  C   UNL     1       2.458   8.822  -7.822  1.00  0.00    -0.003 C 
ATOM      8  C   UNL     1       3.110   9.352  -9.099  1.00  0.00     0.004 C 
ENDBRANCH   6   7
ENDBRANCH   1   6
TORSDOF 4
ENDMDL
MODEL 8
REMARK VINA RESULT:     4.243      2.753      4.138
REMARK INTER + INTRA:           5.174
REMARK INTER:                   5.302
REMARK INTRA:                  -0.128
REMARK UNBOUND:                -0.061
REMARK SMILES CCCCCC(=O)[O-]
REMARK SMILES IDX 4 1 5 2 6 3 7 4 8 5 3 6 2 7 1 8
REMARK H PARENT
REMARK Flexibility Score: inf
ROOT
ATOM      1  C   UNL     1       4.234   6.767  -3.206  1.00  0.00     0.006 C 
ENDROOT
BRANCH   1   2
ATOM      2  C   UNL     1       4.436   7.371  -1.810  1.00  0.00     0.053 C 
BRANCH   2   3
ATOM      3  C   UNL     1       5.533   8.392  -1.799  1.00  0.00     0.041 C 
ATOM      4  O   UNL     1       6.079   8.724  -0.714  1.00  0.00    -0.550 OA
ATOM      5  O   UNL     1       5.971   8.955  -2.991  1.00  0.00    -0.550 OA
ENDBRANCH   2   3
ENDBRANCH   1   2
BRANCH   1   6
ATOM      6  C   UNL     1       4.669   5.294  -3.270  1.00  0.00     0.000 C 
BRANCH   6   7
ATOM      7  C   UNL     1       6.166   5.134  -3.577  1.00  0.00    -0.003 C 
ATOM      8  C   UNL     1       6.561   3.685  -3.859  1.00  0.00     0.004 C 
ENDBRANCH   6   7
ENDBRANCH   1   6
TORSDOF 4
ENDMDL
