MODEL 1
REMARK VINA RESULT:    -5.215      0.000      0.000
REMARK INTER + INTRA:          -7.106
REMARK INTER:                  -6.740
REMARK INTRA:                  -0.367
REMARK UNBOUND:                -0.367
REMARK SMILES CCO[C@H]1O[C@H](CO)[C@@H](O)[C@H](O)[C@@H]1O
REMARK SMILES IDX 4 1 13 2 11 3 9 4 6 5 5 6 3 7 2 8 1 9 14 10 12 12 7 14 8 15
REMARK SMILES IDX 10 17
REMARK H PARENT 14 11 12 13 8 16 10 18
REMARK Flexibility Score: inf
ROOT
ATOM      1  C   UNL     1     108.128  52.149  -0.254  1.00  0.00     0.281 C 
ATOM      2  C   UNL     1     107.939  51.847  -1.755  1.00  0.00     0.202 C 
ATOM      3  C   UNL     1     107.856  53.157  -2.553  1.00  0.00     0.179 C 
ATOM      4  C   UNL     1     106.803  54.093  -1.935  1.00  0.00     0.177 C 
ATOM      5  C   UNL     1     107.076  54.249  -0.418  1.00  0.00     0.178 C 
ATOM      6  O   UNL     1     107.084  52.986   0.229  1.00  0.00    -0.341 OA
ENDROOT
BRANCH   1   7
ATOM      7  O   UNL     1     109.405  52.729  -0.033  1.00  0.00    -0.350 OA
BRANCH   7   8
ATOM      8  C   UNL     1     110.102  52.051   0.995  1.00  0.00     0.160 C 
ATOM      9  C   UNL     1     110.531  50.668   0.518  1.00  0.00     0.035 C 
ENDBRANCH   7   8
ENDBRANCH   1   7
BRANCH   2  10
ATOM     10  O   UNL     1     106.765  51.100  -1.948  1.00  0.00    -0.385 OA
ATOM     11  H   UNL     1     106.614  50.581  -1.115  1.00  0.00     0.211 HD
ENDBRANCH   2  10
BRANCH   3  12
ATOM     12  O   UNL     1     107.527  52.869  -3.888  1.00  0.00    -0.387 OA
ATOM     13  H   UNL     1     106.727  53.413  -4.113  1.00  0.00     0.211 HD
ENDBRANCH   3  12
BRANCH   5  14
ATOM     14  C   UNL     1     106.020  55.136   0.260  1.00  0.00     0.191 C 
BRANCH  14  15
ATOM     15  O   UNL     1     104.820  55.146  -0.466  1.00  0.00    -0.394 OA
ATOM     16  H   UNL     1     104.578  56.098  -0.609  1.00  0.00     0.210 HD
ENDBRANCH  14  15
ENDBRANCH   5  14
BRANCH   4  17
ATOM     17  O   UNL     1     106.877  55.345  -2.571  1.00  0.00    -0.387 OA
ATOM     18  H   UNL     1     107.260  55.193  -3.474  1.00  0.00     0.211 HD
ENDBRANCH   4  17
TORSDOF 7
ENDMDL
MODEL 2
REMARK VINA RESULT:    -5.086      1.380      4.419
REMARK INTER + INTRA:          -6.939
REMARK INTER:                  -6.541
REMARK INTRA:                  -0.398
REMARK UNBOUND:                -0.367
REMARK SMILES CCO[C@H]1O[C@H](CO)[C@@H](O)[C@H](O)[C@@H]1O
REMARK SMILES IDX 4 1 13 2 11 3 9 4 6 5 5 6 3 7 2 8 1 9 14 10 12 12 7 14 8 15
REMARK SMILES IDX 10 17
REMARK H PARENT 14 11 12 13 8 16 10 18
REMARK Flexibility Score: inf
ROOT
ATOM      1  C   UNL     1     106.196  55.482  -0.512  1.00  0.00     0.281 C 
ATOM      2  C   UNL     1     106.085  55.414  -2.049  1.00  0.00     0.202 C 
ATOM      3  C   UNL     1     106.049  53.950  -2.513  1.00  0.00     0.179 C 
ATOM      4  C   UNL     1     107.227  53.168  -1.906  1.00  0.00     0.177 C 
ATOM      5  C   UNL     1     107.255  53.384  -0.373  1.00  0.00     0.178 C 
ATOM      6  O   UNL     1     107.336  54.765  -0.055  1.00  0.00    -0.341 OA
ENDROOT
BRANCH   1   7
ATOM      7  O   UNL     1     105.002  54.996   0.083  1.00  0.00    -0.350 OA
BRANCH   7   8
ATOM      8  C   UNL     1     104.625  55.790   1.192  1.00  0.00     0.160 C 
ATOM      9  C   UNL     1     104.201  57.178   0.725  1.00  0.00     0.035 C 
ENDBRANCH   7   8
ENDBRANCH   1   7
BRANCH   2  10
ATOM     10  O   UNL     1     107.179  56.070  -2.637  1.00  0.00    -0.385 OA
ATOM     11  H   UNL     1     107.009  56.092  -3.616  1.00  0.00     0.211 HD
ENDBRANCH   2  10
BRANCH   3  12
ATOM     12  O   UNL     1     106.107  53.904  -3.917  1.00  0.00    -0.387 OA
ATOM     13  H   UNL     1     106.259  52.956  -4.169  1.00  0.00     0.211 HD
ENDBRANCH   3  12
BRANCH   5  14
ATOM     14  C   UNL     1     108.446  52.664   0.280  1.00  0.00     0.191 C 
BRANCH  14  15
ATOM     15  O   UNL     1     109.499  52.493  -0.631  1.00  0.00    -0.394 OA
ATOM     16  H   UNL     1     110.342  52.612  -0.121  1.00  0.00     0.210 HD
ENDBRANCH  14  15
ENDBRANCH   5  14
BRANCH   4  17
ATOM     17  O   UNL     1     107.067  51.802  -2.200  1.00  0.00    -0.387 OA
ATOM     18  H   UNL     1     107.708  51.581  -2.924  1.00  0.00     0.211 HD
ENDBRANCH   4  17
TORSDOF 7
ENDMDL
MODEL 3
REMARK VINA RESULT:    -5.011      1.188      1.291
REMARK INTER + INTRA:          -6.843
REMARK INTER:                  -6.715
REMARK INTRA:                  -0.128
REMARK UNBOUND:                -0.367
REMARK SMILES CCO[C@H]1O[C@H](CO)[C@@H](O)[C@H](O)[C@@H]1O
REMARK SMILES IDX 4 1 13 2 11 3 9 4 6 5 5 6 3 7 2 8 1 9 14 10 12 12 7 14 8 15
REMARK SMILES IDX 10 17
REMARK H PARENT 14 11 12 13 8 16 10 18
REMARK Flexibility Score: inf
ROOT
ATOM      1  C   UNL     1     107.197  53.142   0.134  1.00  0.00     0.281 C 
ATOM      2  C   UNL     1     107.312  52.576  -1.296  1.00  0.00     0.202 C 
ATOM      3  C   UNL     1     107.426  53.723  -2.312  1.00  0.00     0.179 C 
ATOM      4  C   UNL     1     106.293  54.741  -2.098  1.00  0.00     0.177 C 
ATOM      5  C   UNL     1     106.254  55.166  -0.609  1.00  0.00     0.178 C 
ATOM      6  O   UNL     1     106.098  54.038   0.238  1.00  0.00    -0.341 OA
ENDROOT
BRANCH   1   7
ATOM      7  O   UNL     1     108.416  53.767   0.508  1.00  0.00    -0.350 OA
BRANCH   7   8
ATOM      8  C   UNL     1     109.024  53.091   1.593  1.00  0.00     0.160 C 
ATOM      9  C   UNL     1     109.942  51.989   1.078  1.00  0.00     0.035 C 
ENDBRANCH   7   8
ENDBRANCH   1   7
BRANCH   2  10
ATOM     10  O   UNL     1     106.183  51.793  -1.592  1.00  0.00    -0.385 OA
ATOM     11  H   UNL     1     106.453  51.157  -2.306  1.00  0.00     0.211 HD
ENDBRANCH   2  10
BRANCH   3  12
ATOM     12  O   UNL     1     107.370  53.199  -3.614  1.00  0.00    -0.387 OA
ATOM     13  H   UNL     1     107.359  53.972  -4.237  1.00  0.00     0.211 HD
ENDBRANCH   3  12
BRANCH   5  14
ATOM     14  C   UNL     1     105.103  56.147  -0.329  1.00  0.00     0.191 C 
BRANCH  14  15
ATOM     15  O   UNL     1     105.036  56.477   1.032  1.00  0.00    -0.394 OA
ATOM     16  H   UNL     1     105.971  56.589   1.347  1.00  0.00     0.210 HD
ENDBRANCH  14  15
ENDBRANCH   5  14
BRANCH   4  17
ATOM     17  O   UNL     1     106.526  55.861  -2.916  1.00  0.00    -0.387 OA
ATOM     18  H   UNL     1     106.021  56.620  -2.524  1.00  0.00     0.211 HD
ENDBRANCH   4  17
TORSDOF 7
ENDMDL
MODEL 4
REMARK VINA RESULT:    -4.944      1.701      3.394
REMARK INTER + INTRA:          -6.755
REMARK INTER:                  -6.564
REMARK INTRA:                  -0.191
REMARK UNBOUND:                -0.367
REMARK SMILES CCO[C@H]1O[C@H](CO)[C@@H](O)[C@H](O)[C@@H]1O
REMARK SMILES IDX 4 1 13 2 11 3 9 4 6 5 5 6 3 7 2 8 1 9 14 10 12 12 7 14 8 15
REMARK SMILES IDX 10 17
REMARK H PARENT 14 11 12 13 8 16 10 18
REMARK Flexibility Score: inf
ROOT
ATOM      1  C   UNL     1     108.051  53.142  -0.589  1.00  0.00     0.281 C 
ATOM      2  C   UNL     1     107.717  53.359   0.901  1.00  0.00     0.202 C 
ATOM      3  C   UNL     1     106.290  53.909   1.049  1.00  0.00     0.179 C 
ATOM      4  C   UNL     1     106.095  55.140   0.148  1.00  0.00     0.177 C 
ATOM      5  C   UNL     1     106.534  54.797  -1.298  1.00  0.00     0.178 C 
ATOM      6  O   UNL     1     107.880  54.346  -1.327  1.00  0.00    -0.341 OA
ENDROOT
BRANCH   1   7
ATOM      7  O   UNL     1     107.257  52.091  -1.117  1.00  0.00    -0.350 OA
BRANCH   7   8
ATOM      8  C   UNL     1     108.023  51.243  -1.951  1.00  0.00     0.160 C 
ATOM      9  C   UNL     1     109.159  50.609  -1.157  1.00  0.00     0.035 C 
ENDBRANCH   7   8
ENDBRANCH   1   7
BRANCH   2  10
ATOM     10  O   UNL     1     108.632  54.261   1.470  1.00  0.00    -0.385 OA
ATOM     11  H   UNL     1     108.847  53.918   2.377  1.00  0.00     0.211 HD
ENDBRANCH   2  10
BRANCH   3  12
ATOM     12  O   UNL     1     106.059  54.249   2.393  1.00  0.00    -0.387 OA
ATOM     13  H   UNL     1     105.950  53.397   2.892  1.00  0.00     0.211 HD
ENDBRANCH   3  12
BRANCH   5  14
ATOM     14  C   UNL     1     106.408  56.011  -2.232  1.00  0.00     0.191 C 
BRANCH  14  15
ATOM     15  O   UNL     1     105.816  55.655  -3.453  1.00  0.00    -0.394 OA
ATOM     16  H   UNL     1     105.147  54.950  -3.252  1.00  0.00     0.210 HD
ENDBRANCH  14  15
ENDBRANCH   5  14
BRANCH   4  17
ATOM     17  O   UNL     1     104.738  55.510   0.167  1.00  0.00    -0.387 OA
ATOM     18  H   UNL     1     104.583  56.010   1.009  1.00  0.00     0.211 HD
ENDBRANCH   4  17
TORSDOF 7
ENDMDL
MODEL 5
REMARK VINA RESULT:    -4.841      3.513      5.205
REMARK INTER + INTRA:          -6.623
REMARK INTER:                  -6.309
REMARK INTRA:                  -0.313
REMARK UNBOUND:                -0.367
REMARK SMILES CCO[C@H]1O[C@H](CO)[C@@H](O)[C@H](O)[C@@H]1O
REMARK SMILES IDX 4 1 13 2 11 3 9 4 6 5 5 6 3 7 2 8 1 9 14 10 12 12 7 14 8 15
REMARK SMILES IDX 10 17
REMARK H PARENT 14 11 12 13 8 16 10 18
REMARK Flexibility Score: inf
ROOT
ATOM      1  C   UNL     1     108.588  53.894   3.893  1.00  0.00     0.281 C 
ATOM      2  C   UNL     1     107.575  54.935   4.412  1.00  0.00     0.202 C 
ATOM      3  C   UNL     1     106.230  54.772   3.689  1.00  0.00     0.179 C 
ATOM      4  C   UNL     1     106.440  54.765   2.165  1.00  0.00     0.177 C 
ATOM      5  C   UNL     1     107.528  53.726   1.798  1.00  0.00     0.178 C 
ATOM      6  O   UNL     1     108.742  53.996   2.482  1.00  0.00    -0.341 OA
ENDROOT
BRANCH   1   7
ATOM      7  O   UNL     1     108.184  52.589   4.279  1.00  0.00    -0.350 OA
BRANCH   7   8
ATOM      8  C   UNL     1     109.303  51.741   4.459  1.00  0.00     0.160 C 
ATOM      9  C   UNL     1     109.007  50.698   5.531  1.00  0.00     0.035 C 
ENDBRANCH   7   8
ENDBRANCH   1   7
BRANCH   2  10
ATOM     10  O   UNL     1     108.072  56.232   4.200  1.00  0.00    -0.385 OA
ATOM     11  H   UNL     1     108.664  56.443   4.969  1.00  0.00     0.211 HD
ENDBRANCH   2  10
BRANCH   3  12
ATOM     12  O   UNL     1     105.373  55.822   4.057  1.00  0.00    -0.387 OA
ATOM     13  H   UNL     1     104.496  55.414   4.286  1.00  0.00     0.211 HD
ENDBRANCH   3  12
BRANCH   5  14
ATOM     14  C   UNL     1     107.814  53.714   0.287  1.00  0.00     0.191 C 
BRANCH  14  15
ATOM     15  O   UNL     1     106.691  53.293  -0.440  1.00  0.00    -0.394 OA
ATOM     16  H   UNL     1     106.647  52.305  -0.355  1.00  0.00     0.210 HD
ENDBRANCH  14  15
ENDBRANCH   5  14
BRANCH   4  17
ATOM     17  O   UNL     1     105.225  54.435   1.539  1.00  0.00    -0.387 OA
ATOM     18  H   UNL     1     105.385  54.453   0.560  1.00  0.00     0.211 HD
ENDBRANCH   4  17
TORSDOF 7
ENDMDL
MODEL 6
REMARK VINA RESULT:    -4.829      1.718      4.790
REMARK INTER + INTRA:          -6.607
REMARK INTER:                  -6.253
REMARK INTRA:                  -0.354
REMARK UNBOUND:                -0.367
REMARK SMILES CCO[C@H]1O[C@H](CO)[C@@H](O)[C@H](O)[C@@H]1O
REMARK SMILES IDX 4 1 13 2 11 3 9 4 6 5 5 6 3 7 2 8 1 9 14 10 12 12 7 14 8 15
REMARK SMILES IDX 10 17
REMARK H PARENT 14 11 12 13 8 16 10 18
REMARK Flexibility Score: inf
ROOT
ATOM      1  C   UNL     1     106.515  54.261  -0.632  1.00  0.00     0.281 C 
ATOM      2  C   UNL     1     107.121  54.330   0.784  1.00  0.00     0.202 C 
ATOM      3  C   UNL     1     108.538  53.737   0.784  1.00  0.00     0.179 C 
ATOM      4  C   UNL     1     108.533  52.339   0.140  1.00  0.00     0.177 C 
ATOM      5  C   UNL     1     107.835  52.409  -1.241  1.00  0.00     0.178 C 
ATOM      6  O   UNL     1     106.518  52.925  -1.120  1.00  0.00    -0.341 OA
ENDROOT
BRANCH   1   7
ATOM      7  O   UNL     1     107.217  55.135  -1.504  1.00  0.00    -0.350 OA
BRANCH   7   8
ATOM      8  C   UNL     1     106.324  55.844  -2.342  1.00  0.00     0.160 C 
ATOM      9  C   UNL     1     105.309  56.611  -1.501  1.00  0.00     0.035 C 
ENDBRANCH   7   8
ENDBRANCH   1   7
BRANCH   2  10
ATOM     10  O   UNL     1     106.311  53.618   1.686  1.00  0.00    -0.385 OA
ATOM     11  H   UNL     1     106.196  52.706   1.311  1.00  0.00     0.211 HD
ENDBRANCH   2  10
BRANCH   3  12
ATOM     12  O   UNL     1     109.013  53.662   2.104  1.00  0.00    -0.387 OA
ATOM     13  H   UNL     1     108.416  54.230   2.659  1.00  0.00     0.211 HD
ENDBRANCH   3  12
BRANCH   5  14
ATOM     14  C   UNL     1     107.756  51.026  -1.907  1.00  0.00     0.191 C 
BRANCH  14  15
ATOM     15  O   UNL     1     109.035  50.520  -2.184  1.00  0.00    -0.394 OA
ATOM     16  H   UNL     1     109.553  50.573  -1.339  1.00  0.00     0.210 HD
ENDBRANCH  14  15
ENDBRANCH   5  14
BRANCH   4  17
ATOM     17  O   UNL     1     109.860  51.901  -0.010  1.00  0.00    -0.387 OA
ATOM     18  H   UNL     1     109.858  51.193  -0.705  1.00  0.00     0.211 HD
ENDBRANCH   4  17
TORSDOF 7
ENDMDL
MODEL 7
REMARK VINA RESULT:    -4.798      3.492      5.600
REMARK INTER + INTRA:          -6.568
REMARK INTER:                  -6.236
REMARK INTRA:                  -0.332
REMARK UNBOUND:                -0.367
REMARK SMILES CCO[C@H]1O[C@H](CO)[C@@H](O)[C@H](O)[C@@H]1O
REMARK SMILES IDX 4 1 13 2 11 3 9 4 6 5 5 6 3 7 2 8 1 9 14 10 12 12 7 14 8 15
REMARK SMILES IDX 10 17
REMARK H PARENT 14 11 12 13 8 16 10 18
REMARK Flexibility Score: inf
ROOT
ATOM      1  C   UNL     1     107.151  54.291   4.039  1.00  0.00     0.281 C 
ATOM      2  C   UNL     1     108.267  53.315   4.461  1.00  0.00     0.202 C 
ATOM      3  C   UNL     1     109.367  53.273   3.390  1.00  0.00     0.179 C 
ATOM      4  C   UNL     1     108.755  53.007   2.004  1.00  0.00     0.177 C 
ATOM      5  C   UNL     1     107.606  54.013   1.746  1.00  0.00     0.178 C 
ATOM      6  O   UNL     1     106.622  53.936   2.767  1.00  0.00    -0.341 OA
ENDROOT
BRANCH   1   7
ATOM      7  O   UNL     1     107.641  55.623   4.046  1.00  0.00    -0.350 OA
BRANCH   7   8
ATOM      8  C   UNL     1     106.628  56.538   4.418  1.00  0.00     0.160 C 
ATOM      9  C   UNL     1     107.249  57.792   5.023  1.00  0.00     0.035 C 
ENDBRANCH   7   8
ENDBRANCH   1   7
BRANCH   2  10
ATOM     10  O   UNL     1     107.734  52.027   4.642  1.00  0.00    -0.385 OA
ATOM     11  H   UNL     1     108.102  51.681   5.498  1.00  0.00     0.211 HD
ENDBRANCH   2  10
BRANCH   3  12
ATOM     12  O   UNL     1     110.294  52.267   3.713  1.00  0.00    -0.387 OA
ATOM     13  H   UNL     1     110.944  52.666   4.349  1.00  0.00     0.211 HD
ENDBRANCH   3  12
BRANCH   5  14
ATOM     14  C   UNL     1     106.922  53.759   0.392  1.00  0.00     0.191 C 
BRANCH  14  15
ATOM     15  O   UNL     1     107.772  54.084  -0.676  1.00  0.00    -0.394 OA
ATOM     16  H   UNL     1     107.220  54.568  -1.344  1.00  0.00     0.210 HD
ENDBRANCH  14  15
ENDBRANCH   5  14
BRANCH   4  17
ATOM     17  O   UNL     1     109.755  53.153   1.027  1.00  0.00    -0.387 OA
ATOM     18  H   UNL     1     109.990  52.243   0.710  1.00  0.00     0.211 HD
ENDBRANCH   4  17
TORSDOF 7
ENDMDL
MODEL 8
REMARK VINA RESULT:    -4.730      3.433      5.309
REMARK INTER + INTRA:          -6.480
REMARK INTER:                  -6.096
REMARK INTRA:                  -0.384
REMARK UNBOUND:                -0.367
REMARK SMILES CCO[C@H]1O[C@H](CO)[C@@H](O)[C@H](O)[C@@H]1O
REMARK SMILES IDX 4 1 13 2 11 3 9 4 6 5 5 6 3 7 2 8 1 9 14 10 12 12 7 14 8 15
REMARK SMILES IDX 10 17
REMARK H PARENT 14 11 12 13 8 16 10 18
REMARK Flexibility Score: inf
ROOT
ATOM      1  C   UNL     1     109.328  52.727   4.245  1.00  0.00     0.281 C 
ATOM      2  C   UNL     1     108.459  54.001   4.205  1.00  0.00     0.202 C 
ATOM      3  C   UNL     1     107.482  53.939   3.022  1.00  0.00     0.179 C 
ATOM      4  C   UNL     1     108.239  53.621   1.720  1.00  0.00     0.177 C 
ATOM      5  C   UNL     1     109.120  52.364   1.928  1.00  0.00     0.178 C 
ATOM      6  O   UNL     1     110.017  52.546   3.013  1.00  0.00    -0.341 OA
ENDROOT
BRANCH   1   7
ATOM      7  O   UNL     1     108.526  51.601   4.564  1.00  0.00    -0.350 OA
BRANCH   7   8
ATOM      8  C   UNL     1     109.096  50.851   5.619  1.00  0.00     0.160 C 
ATOM      9  C   UNL     1     109.498  49.466   5.124  1.00  0.00     0.035 C 
ENDBRANCH   7   8
ENDBRANCH   1   7
BRANCH   2  10
ATOM     10  O   UNL     1     109.279  55.136   4.084  1.00  0.00    -0.385 OA
ATOM     11  H   UNL     1     109.351  55.336   3.113  1.00  0.00     0.211 HD
ENDBRANCH   2  10
BRANCH   3  12
ATOM     12  O   UNL     1     106.811  55.168   2.906  1.00  0.00    -0.387 OA
ATOM     13  H   UNL     1     107.306  55.706   2.233  1.00  0.00     0.211 HD
ENDBRANCH   3  12
BRANCH   5  14
ATOM     14  C   UNL     1     109.939  52.031   0.671  1.00  0.00     0.191 C 
BRANCH  14  15
ATOM     15  O   UNL     1     109.164  51.343  -0.274  1.00  0.00    -0.394 OA
ATOM     16  H   UNL     1     108.225  51.639  -0.146  1.00  0.00     0.210 HD
ENDBRANCH  14  15
ENDBRANCH   5  14
BRANCH   4  17
ATOM     17  O   UNL     1     107.305  53.393   0.694  1.00  0.00    -0.387 OA
ATOM     18  H   UNL     1     107.276  52.414   0.536  1.00  0.00     0.211 HD
ENDBRANCH   4  17
TORSDOF 7
ENDMDL
MODEL 9
REMARK VINA RESULT:    -4.531      1.494      3.862
REMARK INTER + INTRA:          -6.222
REMARK INTER:                  -6.052
REMARK INTRA:                  -0.170
REMARK UNBOUND:                -0.367
REMARK SMILES CCO[C@H]1O[C@H](CO)[C@@H](O)[C@H](O)[C@@H]1O
REMARK SMILES IDX 4 1 13 2 11 3 9 4 6 5 5 6 3 7 2 8 1 9 14 10 12 12 7 14 8 15
REMARK SMILES IDX 10 17
REMARK H PARENT 14 11 12 13 8 16 10 18
REMARK Flexibility Score: inf
ROOT
ATOM      1  C   UNL     1     107.479  54.294   0.265  1.00  0.00     0.281 C 
ATOM      2  C   UNL     1     106.952  54.507  -1.168  1.00  0.00     0.202 C 
ATOM      3  C   UNL     1     106.693  53.152  -1.845  1.00  0.00     0.179 C 
ATOM      4  C   UNL     1     107.935  52.252  -1.731  1.00  0.00     0.177 C 
ATOM      5  C   UNL     1     108.392  52.187  -0.252  1.00  0.00     0.178 C 
ATOM      6  O   UNL     1     108.650  53.486   0.259  1.00  0.00    -0.341 OA
ENDROOT
BRANCH   1   7
ATOM      7  O   UNL     1     106.461  53.730   1.078  1.00  0.00    -0.350 OA
BRANCH   7   8
ATOM      8  C   UNL     1     106.181  54.557   2.192  1.00  0.00     0.160 C 
ATOM      9  C   UNL     1     107.132  54.236   3.339  1.00  0.00     0.035 C 
ENDBRANCH   7   8
ENDBRANCH   1   7
BRANCH   2  10
ATOM     10  O   UNL     1     107.888  55.239  -1.918  1.00  0.00    -0.385 OA
ATOM     11  H   UNL     1     107.431  56.068  -2.219  1.00  0.00     0.211 HD
ENDBRANCH   2  10
BRANCH   3  12
ATOM     12  O   UNL     1     106.366  53.361  -3.195  1.00  0.00    -0.387 OA
ATOM     13  H   UNL     1     106.706  54.262  -3.440  1.00  0.00     0.211 HD
ENDBRANCH   3  12
BRANCH   5  14
ATOM     14  C   UNL     1     109.664  51.339  -0.088  1.00  0.00     0.191 C 
BRANCH  14  15
ATOM     15  O   UNL     1     110.005  51.189   1.265  1.00  0.00    -0.394 OA
ATOM     16  H   UNL     1     109.194  50.857   1.730  1.00  0.00     0.210 HD
ENDBRANCH  14  15
ENDBRANCH   5  14
BRANCH   4  17
ATOM     17  O   UNL     1     107.611  50.965  -2.195  1.00  0.00    -0.387 OA
ATOM     18  H   UNL     1     106.941  50.588  -1.567  1.00  0.00     0.211 HD
ENDBRANCH   4  17
TORSDOF 7
ENDMDL
