MODEL 1
REMARK VINA RESULT:    -3.984      0.000      0.000
REMARK INTER + INTRA:          -5.041
REMARK INTER:                  -4.915
REMARK INTRA:                  -0.126
REMARK UNBOUND:                -0.126
REMARK SMILES CCCCC=CC(C)=O
REMARK SMILES IDX 4 1 3 2 2 3 1 4 5 5 6 6 7 7 9 8 8 9
REMARK H PARENT
REMARK Flexibility Score: inf
ROOT
ATOM      1  C   UNL     1      -2.191  14.557  -1.989  1.00  0.00     0.027 C 
ENDROOT
BRANCH   1   2
ATOM      2  C   UNL     1      -1.183  15.704  -2.155  1.00  0.00     0.004 C 
BRANCH   2   3
ATOM      3  C   UNL     1      -1.570  16.669  -3.287  1.00  0.00    -0.003 C 
ATOM      4  C   UNL     1      -1.265  16.103  -4.674  1.00  0.00     0.004 C 
ENDBRANCH   2   3
ENDBRANCH   1   2
BRANCH   1   5
ATOM      5  C   UNL     1      -2.119  13.969  -0.609  1.00  0.00    -0.023 C 
ATOM      6  C   UNL     1      -2.096  12.647  -0.412  1.00  0.00     0.042 C 
BRANCH   6   7
ATOM      7  C   UNL     1      -2.038  12.049   0.934  1.00  0.00     0.152 C 
ATOM      8  O   UNL     1      -2.052  10.797   1.086  1.00  0.00    -0.295 OA
ATOM      9  C   UNL     1      -1.962  12.936   2.135  1.00  0.00     0.093 C 
ENDBRANCH   6   7
ENDBRANCH   1   5
TORSDOF 4
ENDMDL
MODEL 2
REMARK VINA RESULT:    -3.833      2.708      5.608
REMARK INTER + INTRA:          -4.855
REMARK INTER:                  -4.705
REMARK INTRA:                  -0.150
REMARK UNBOUND:                -0.126
REMARK SMILES CCCCC=CC(C)=O
REMARK SMILES IDX 4 1 3 2 2 3 1 4 5 5 6 6 7 7 9 8 8 9
REMARK H PARENT
REMARK Flexibility Score: inf
ROOT
ATOM      1  C   UNL     1      -2.267  13.913  -0.402  1.00  0.00     0.027 C 
ENDROOT
BRANCH   1   2
ATOM      2  C   UNL     1      -1.931  12.440  -0.682  1.00  0.00     0.004 C 
BRANCH   2   3
ATOM      3  C   UNL     1      -2.031  11.563   0.576  1.00  0.00    -0.003 C 
ATOM      4  C   UNL     1      -1.926  12.372   1.869  1.00  0.00     0.004 C 
ENDBRANCH   2   3
ENDBRANCH   1   2
BRANCH   1   5
ATOM      5  C   UNL     1      -2.364  14.697  -1.679  1.00  0.00    -0.023 C 
ATOM      6  C   UNL     1      -1.427  15.587  -2.026  1.00  0.00     0.042 C 
BRANCH   6   7
ATOM      7  C   UNL     1      -1.509  16.376  -3.268  1.00  0.00     0.152 C 
ATOM      8  O   UNL     1      -1.948  17.559  -3.253  1.00  0.00    -0.295 OA
ATOM      9  C   UNL     1      -1.068  15.770  -4.561  1.00  0.00     0.093 C 
ENDBRANCH   6   7
ENDBRANCH   1   5
TORSDOF 4
ENDMDL
MODEL 3
REMARK VINA RESULT:    -3.573      1.538      2.432
REMARK INTER + INTRA:          -4.535
REMARK INTER:                  -4.303
REMARK INTRA:                  -0.232
REMARK UNBOUND:                -0.126
REMARK SMILES CCCCC=CC(C)=O
REMARK SMILES IDX 4 1 3 2 2 3 1 4 5 5 6 6 7 7 9 8 8 9
REMARK H PARENT
REMARK Flexibility Score: inf
ROOT
ATOM      1  C   UNL     1      -2.037  12.310  -0.754  1.00  0.00     0.027 C 
ENDROOT
BRANCH   1   2
ATOM      2  C   UNL     1      -2.110  13.318  -1.911  1.00  0.00     0.004 C 
BRANCH   2   3
ATOM      3  C   UNL     1      -2.067  14.776  -1.426  1.00  0.00    -0.003 C 
ATOM      4  C   UNL     1      -1.570  15.741  -2.503  1.00  0.00     0.004 C 
ENDBRANCH   2   3
ENDBRANCH   1   2
BRANCH   1   5
ATOM      5  C   UNL     1      -2.370  12.966   0.556  1.00  0.00    -0.023 C 
ATOM      6  C   UNL     1      -1.958  12.453   1.720  1.00  0.00     0.042 C 
BRANCH   6   7
ATOM      7  C   UNL     1      -2.284  13.074   3.017  1.00  0.00     0.152 C 
ATOM      8  O   UNL     1      -2.340  12.380   4.069  1.00  0.00    -0.295 OA
ATOM      9  C   UNL     1      -2.554  14.542   3.087  1.00  0.00     0.093 C 
ENDBRANCH   6   7
ENDBRANCH   1   5
TORSDOF 4
ENDMDL
MODEL 4
REMARK VINA RESULT:    -3.456     11.629     13.378
REMARK INTER + INTRA:          -4.390
REMARK INTER:                  -4.195
REMARK INTRA:                  -0.195
REMARK UNBOUND:                -0.126
REMARK SMILES CCCCC=CC(C)=O
REMARK SMILES IDX 4 1 3 2 2 3 1 4 5 5 6 6 7 7 9 8 8 9
REMARK H PARENT
REMARK Flexibility Score: inf
ROOT
ATOM      1  C   UNL     1      -9.397   6.686   4.758  1.00  0.00     0.027 C 
ENDROOT
BRANCH   1   2
ATOM      2  C   UNL     1      -9.865   7.986   5.428  1.00  0.00     0.004 C 
BRANCH   2   3
ATOM      3  C   UNL     1      -8.713   8.978   5.658  1.00  0.00    -0.003 C 
ATOM      4  C   UNL     1      -7.649   8.435   6.611  1.00  0.00     0.004 C 
ENDBRANCH   2   3
ENDBRANCH   1   2
BRANCH   1   5
ATOM      5  C   UNL     1      -9.900   5.483   5.503  1.00  0.00    -0.023 C 
ATOM      6  C   UNL     1      -9.136   4.398   5.677  1.00  0.00     0.042 C 
BRANCH   6   7
ATOM      7  C   UNL     1      -9.614   3.202   6.395  1.00  0.00     0.152 C 
ATOM      8  O   UNL     1     -10.804   3.129   6.806  1.00  0.00    -0.295 OA
ATOM      9  C   UNL     1      -8.679   2.063   6.639  1.00  0.00     0.093 C 
ENDBRANCH   6   7
ENDBRANCH   1   5
TORSDOF 4
ENDMDL
MODEL 5
REMARK VINA RESULT:    -3.363      1.736      2.795
REMARK INTER + INTRA:          -4.276
REMARK INTER:                  -4.117
REMARK INTRA:                  -0.159
REMARK UNBOUND:                -0.126
REMARK SMILES CCCCC=CC(C)=O
REMARK SMILES IDX 4 1 3 2 2 3 1 4 5 5 6 6 7 7 9 8 8 9
REMARK H PARENT
REMARK Flexibility Score: inf
ROOT
ATOM      1  C   UNL     1      -2.530  12.375  -0.156  1.00  0.00     0.027 C 
ENDROOT
BRANCH   1   2
ATOM      2  C   UNL     1      -2.140  13.107  -1.448  1.00  0.00     0.004 C 
BRANCH   2   3
ATOM      3  C   UNL     1      -2.158  14.636  -1.288  1.00  0.00    -0.003 C 
ATOM      4  C   UNL     1      -1.772  15.368  -2.573  1.00  0.00     0.004 C 
ENDBRANCH   2   3
ENDBRANCH   1   2
BRANCH   1   5
ATOM      5  C   UNL     1      -1.438  12.470   0.870  1.00  0.00    -0.023 C 
ATOM      6  C   UNL     1      -1.681  12.901   2.113  1.00  0.00     0.042 C 
BRANCH   6   7
ATOM      7  C   UNL     1      -0.621  13.014   3.131  1.00  0.00     0.152 C 
ATOM      8  O   UNL     1       0.586  12.798   2.834  1.00  0.00    -0.295 OA
ATOM      9  C   UNL     1      -0.978  13.387   4.534  1.00  0.00     0.093 C 
ENDBRANCH   6   7
ENDBRANCH   1   5
TORSDOF 4
ENDMDL
MODEL 6
REMARK VINA RESULT:    -3.324      2.621      6.151
REMARK INTER + INTRA:          -4.228
REMARK INTER:                  -4.046
REMARK INTRA:                  -0.182
REMARK UNBOUND:                -0.126
REMARK SMILES CCCCC=CC(C)=O
REMARK SMILES IDX 4 1 3 2 2 3 1 4 5 5 6 6 7 7 9 8 8 9
REMARK H PARENT
REMARK Flexibility Score: inf
ROOT
ATOM      1  C   UNL     1      -2.552  14.769   3.727  1.00  0.00     0.027 C 
ENDROOT
BRANCH   1   2
ATOM      2  C   UNL     1      -3.468  13.928   4.630  1.00  0.00     0.004 C 
BRANCH   2   3
ATOM      3  C   UNL     1      -2.834  12.584   5.024  1.00  0.00    -0.003 C 
ATOM      4  C   UNL     1      -3.771  11.712   5.859  1.00  0.00     0.004 C 
ENDBRANCH   2   3
ENDBRANCH   1   2
BRANCH   1   5
ATOM      5  C   UNL     1      -1.866  13.910   2.704  1.00  0.00    -0.023 C 
ATOM      6  C   UNL     1      -2.387  13.719   1.487  1.00  0.00     0.042 C 
BRANCH   6   7
ATOM      7  C   UNL     1      -1.735  12.870   0.473  1.00  0.00     0.152 C 
ATOM      8  O   UNL     1      -0.884  12.002   0.809  1.00  0.00    -0.295 OA
ATOM      9  C   UNL     1      -2.086  13.039  -0.970  1.00  0.00     0.093 C 
ENDBRANCH   6   7
ENDBRANCH   1   5
TORSDOF 4
ENDMDL
MODEL 7
REMARK VINA RESULT:    -3.296      7.386      9.451
REMARK INTER + INTRA:          -4.192
REMARK INTER:                  -4.042
REMARK INTRA:                  -0.150
REMARK UNBOUND:                -0.126
REMARK SMILES CCCCC=CC(C)=O
REMARK SMILES IDX 4 1 3 2 2 3 1 4 5 5 6 6 7 7 9 8 8 9
REMARK H PARENT
REMARK Flexibility Score: inf
ROOT
ATOM      1  C   UNL     1      -1.812   5.870  -3.220  1.00  0.00     0.027 C 
ENDROOT
BRANCH   1   2
ATOM      2  C   UNL     1      -0.976   4.580  -3.233  1.00  0.00     0.004 C 
BRANCH   2   3
ATOM      3  C   UNL     1      -1.538   3.505  -2.290  1.00  0.00    -0.003 C 
ATOM      4  C   UNL     1      -0.999   3.630  -0.865  1.00  0.00     0.004 C 
ENDBRANCH   2   3
ENDBRANCH   1   2
BRANCH   1   5
ATOM      5  C   UNL     1      -0.956   7.071  -3.502  1.00  0.00    -0.023 C 
ATOM      6  C   UNL     1      -1.171   7.848  -4.569  1.00  0.00     0.042 C 
BRANCH   6   7
ATOM      7  C   UNL     1      -0.335   9.024  -4.872  1.00  0.00     0.152 C 
ATOM      8  O   UNL     1      -0.811  10.011  -5.496  1.00  0.00    -0.295 OA
ATOM      9  C   UNL     1       1.095   9.048  -4.436  1.00  0.00     0.093 C 
ENDBRANCH   6   7
ENDBRANCH   1   5
TORSDOF 4
ENDMDL
MODEL 8
REMARK VINA RESULT:    -3.293      3.040      5.326
REMARK INTER + INTRA:          -4.189
REMARK INTER:                  -3.913
REMARK INTRA:                  -0.276
REMARK UNBOUND:                -0.126
REMARK SMILES CCCCC=CC(C)=O
REMARK SMILES IDX 4 1 3 2 2 3 1 4 5 5 6 6 7 7 9 8 8 9
REMARK H PARENT
REMARK Flexibility Score: inf
ROOT
ATOM      1  C   UNL     1      -1.543  14.573   3.322  1.00  0.00     0.027 C 
ENDROOT
BRANCH   1   2
ATOM      2  C   UNL     1      -0.894  13.663   4.376  1.00  0.00     0.004 C 
BRANCH   2   3
ATOM      3  C   UNL     1       0.593  13.984   4.596  1.00  0.00    -0.003 C 
ATOM      4  C   UNL     1       1.506  13.250   3.614  1.00  0.00     0.004 C 
ENDBRANCH   2   3
ENDBRANCH   1   2
BRANCH   1   5
ATOM      5  C   UNL     1      -1.949  13.789   2.107  1.00  0.00    -0.023 C 
ATOM      6  C   UNL     1      -1.674  12.485   1.992  1.00  0.00     0.042 C 
BRANCH   6   7
ATOM      7  C   UNL     1      -2.053  11.699   0.804  1.00  0.00     0.152 C 
ATOM      8  O   UNL     1      -2.317  10.470   0.899  1.00  0.00    -0.295 OA
ATOM      9  C   UNL     1      -2.124  12.366  -0.532  1.00  0.00     0.093 C 
ENDBRANCH   6   7
ENDBRANCH   1   5
TORSDOF 4
ENDMDL
MODEL 9
REMARK VINA RESULT:    -3.197      2.641      4.233
REMARK INTER + INTRA:          -4.071
REMARK INTER:                  -3.818
REMARK INTRA:                  -0.252
REMARK UNBOUND:                -0.126
REMARK SMILES CCCCC=CC(C)=O
REMARK SMILES IDX 4 1 3 2 2 3 1 4 5 5 6 6 7 7 9 8 8 9
REMARK H PARENT
REMARK Flexibility Score: inf
ROOT
ATOM      1  C   UNL     1      -1.375  12.557   1.430  1.00  0.00     0.027 C 
ENDROOT
BRANCH   1   2
ATOM      2  C   UNL     1      -2.354  12.116   0.330  1.00  0.00     0.004 C 
BRANCH   2   3
ATOM      3  C   UNL     1      -2.124  12.860  -0.995  1.00  0.00    -0.003 C 
ATOM      4  C   UNL     1      -2.210  14.378  -0.842  1.00  0.00     0.004 C 
ENDBRANCH   2   3
ENDBRANCH   1   2
BRANCH   1   5
ATOM      5  C   UNL     1      -2.103  12.881   2.703  1.00  0.00    -0.023 C 
ATOM      6  C   UNL     1      -2.581  14.107   2.943  1.00  0.00     0.042 C 
BRANCH   6   7
ATOM      7  C   UNL     1      -3.288  14.449   4.191  1.00  0.00     0.152 C 
ATOM      8  O   UNL     1      -3.763  13.546   4.931  1.00  0.00    -0.295 OA
ATOM      9  C   UNL     1      -3.444  15.883   4.583  1.00  0.00     0.093 C 
ENDBRANCH   6   7
ENDBRANCH   1   5
TORSDOF 4
ENDMDL
