MODEL 1
REMARK VINA RESULT:    -3.380      0.000      0.000
REMARK INTER + INTRA:          -5.197
REMARK INTER:                  -4.763
REMARK INTRA:                  -0.434
REMARK UNBOUND:                -0.434
REMARK SMILES CCCCCCCCC(=O)[O-]
REMARK SMILES IDX 6 1 7 2 8 3 9 4 10 5 11 6 5 7 4 8 3 9 2 10 1 11
REMARK H PARENT
REMARK Flexibility Score: inf
ROOT
ATOM      1  C   UNL     1      -8.443  22.472  17.801  1.00  0.00     0.000 C 
ENDROOT
BRANCH   1   2
ATOM      2  C   UNL     1      -8.976  23.100  19.099  1.00  0.00     0.006 C 
BRANCH   2   3
ATOM      3  C   UNL     1      -8.589  22.254  20.315  1.00  0.00     0.053 C 
BRANCH   3   4
ATOM      4  C   UNL     1      -8.025  23.120  21.398  1.00  0.00     0.041 C 
ATOM      5  O   UNL     1      -7.317  24.117  21.105  1.00  0.00    -0.550 OA
ATOM      6  O   UNL     1      -8.323  22.851  22.728  1.00  0.00    -0.550 OA
ENDBRANCH   3   4
ENDBRANCH   2   3
ENDBRANCH   1   2
BRANCH   1   7
ATOM      7  C   UNL     1      -7.562  21.236  18.063  1.00  0.00     0.000 C 
BRANCH   7   8
ATOM      8  C   UNL     1      -7.366  20.347  16.819  1.00  0.00    -0.000 C 
BRANCH   8   9
ATOM      9  C   UNL     1      -7.891  20.995  15.518  1.00  0.00    -0.000 C 
BRANCH   9  10
ATOM     10  C   UNL     1      -6.843  21.047  14.393  1.00  0.00    -0.003 C 
ATOM     11  C   UNL     1      -5.410  20.958  14.914  1.00  0.00     0.004 C 
ENDBRANCH   9  10
ENDBRANCH   8   9
ENDBRANCH   7   8
ENDBRANCH   1   7
TORSDOF 7
ENDMDL
MODEL 2
REMARK VINA RESULT:    -3.223      3.235      5.221
REMARK INTER + INTRA:          -4.976
REMARK INTER:                  -4.589
REMARK INTRA:                  -0.387
REMARK UNBOUND:                -0.434
REMARK SMILES CCCCCCCCC(=O)[O-]
REMARK SMILES IDX 6 1 7 2 8 3 9 4 10 5 11 6 5 7 4 8 3 9 2 10 1 11
REMARK H PARENT
REMARK Flexibility Score: inf
ROOT
ATOM      1  C   UNL     1      -5.337  20.963  14.805  1.00  0.00     0.000 C 
ENDROOT
BRANCH   1   2
ATOM      2  C   UNL     1      -5.003  20.235  16.117  1.00  0.00     0.006 C 
BRANCH   2   3
ATOM      3  C   UNL     1      -3.495  20.005  16.246  1.00  0.00     0.053 C 
BRANCH   3   4
ATOM      4  C   UNL     1      -3.084  20.014  17.685  1.00  0.00     0.041 C 
ATOM      5  O   UNL     1      -1.866  20.061  17.995  1.00  0.00    -0.550 OA
ATOM      6  O   UNL     1      -4.051  20.019  18.683  1.00  0.00    -0.550 OA
ENDBRANCH   3   4
ENDBRANCH   2   3
ENDBRANCH   1   2
BRANCH   1   7
ATOM      7  C   UNL     1      -6.817  21.383  14.724  1.00  0.00     0.000 C 
BRANCH   7   8
ATOM      8  C   UNL     1      -7.789  20.323  15.280  1.00  0.00    -0.000 C 
BRANCH   8   9
ATOM      9  C   UNL     1      -8.642  20.841  16.460  1.00  0.00    -0.000 C 
BRANCH   9  10
ATOM     10  C   UNL     1      -8.034  22.067  17.163  1.00  0.00    -0.003 C 
ATOM     11  C   UNL     1      -9.053  22.837  17.999  1.00  0.00     0.004 C 
ENDBRANCH   9  10
ENDBRANCH   8   9
ENDBRANCH   7   8
ENDBRANCH   1   7
TORSDOF 7
ENDMDL
MODEL 3
REMARK VINA RESULT:    -3.103      1.489      2.603
REMARK INTER + INTRA:          -4.808
REMARK INTER:                  -4.578
REMARK INTRA:                  -0.229
REMARK UNBOUND:                -0.434
REMARK SMILES CCCCCCCCC(=O)[O-]
REMARK SMILES IDX 6 1 7 2 8 3 9 4 10 5 11 6 5 7 4 8 3 9 2 10 1 11
REMARK H PARENT
REMARK Flexibility Score: inf
ROOT
ATOM      1  C   UNL     1      -7.598  21.754  16.366  1.00  0.00     0.000 C 
ENDROOT
BRANCH   1   2
ATOM      2  C   UNL     1      -8.744  21.591  17.377  1.00  0.00     0.006 C 
BRANCH   2   3
ATOM      3  C   UNL     1      -9.022  22.909  18.106  1.00  0.00     0.053 C 
BRANCH   3   4
ATOM      4  C   UNL     1      -8.563  22.828  19.528  1.00  0.00     0.041 C 
ATOM      5  O   UNL     1      -8.643  21.743  20.159  1.00  0.00    -0.550 OA
ATOM      6  O   UNL     1      -8.001  23.941  20.141  1.00  0.00    -0.550 OA
ENDBRANCH   3   4
ENDBRANCH   2   3
ENDBRANCH   1   2
BRANCH   1   7
ATOM      7  C   UNL     1      -7.641  20.696  15.248  1.00  0.00     0.000 C 
BRANCH   7   8
ATOM      8  C   UNL     1      -6.381  20.686  14.360  1.00  0.00    -0.000 C 
BRANCH   8   9
ATOM      9  C   UNL     1      -5.110  21.155  15.104  1.00  0.00    -0.000 C 
BRANCH   9  10
ATOM     10  C   UNL     1      -4.524  20.090  16.047  1.00  0.00    -0.003 C 
ATOM     11  C   UNL     1      -3.015  20.227  16.231  1.00  0.00     0.004 C 
ENDBRANCH   9  10
ENDBRANCH   8   9
ENDBRANCH   7   8
ENDBRANCH   1   7
TORSDOF 7
ENDMDL
MODEL 4
REMARK VINA RESULT:    -2.997      1.412      1.995
REMARK INTER + INTRA:          -4.658
REMARK INTER:                  -4.459
REMARK INTRA:                  -0.199
REMARK UNBOUND:                -0.434
REMARK SMILES CCCCCCCCC(=O)[O-]
REMARK SMILES IDX 6 1 7 2 8 3 9 4 10 5 11 6 5 7 4 8 3 9 2 10 1 11
REMARK H PARENT
REMARK Flexibility Score: inf
ROOT
ATOM      1  C   UNL     1      -7.783  22.336  19.618  1.00  0.00     0.000 C 
ENDROOT
BRANCH   1   2
ATOM      2  C   UNL     1      -7.933  23.171  20.900  1.00  0.00     0.006 C 
BRANCH   2   3
ATOM      3  C   UNL     1      -8.991  22.565  21.827  1.00  0.00     0.053 C 
BRANCH   3   4
ATOM      4  C   UNL     1      -8.423  22.337  23.192  1.00  0.00     0.041 C 
ATOM      5  O   UNL     1      -8.834  23.013  24.170  1.00  0.00    -0.550 OA
ATOM      6  O   UNL     1      -7.474  21.342  23.392  1.00  0.00    -0.550 OA
ENDBRANCH   3   4
ENDBRANCH   2   3
ENDBRANCH   1   2
BRANCH   1   7
ATOM      7  C   UNL     1      -8.662  22.858  18.467  1.00  0.00     0.000 C 
BRANCH   7   8
ATOM      8  C   UNL     1      -8.894  21.821  17.350  1.00  0.00    -0.000 C 
BRANCH   8   9
ATOM      9  C   UNL     1      -7.580  21.270  16.750  1.00  0.00    -0.000 C 
BRANCH   9  10
ATOM     10  C   UNL     1      -7.658  21.018  15.235  1.00  0.00    -0.003 C 
ATOM     11  C   UNL     1      -6.299  21.127  14.545  1.00  0.00     0.004 C 
ENDBRANCH   9  10
ENDBRANCH   8   9
ENDBRANCH   7   8
ENDBRANCH   1   7
TORSDOF 7
ENDMDL
MODEL 5
REMARK VINA RESULT:    -2.822      3.337      5.611
REMARK INTER + INTRA:          -4.411
REMARK INTER:                  -3.760
REMARK INTRA:                  -0.651
REMARK UNBOUND:                -0.434
REMARK SMILES CCCCCCCCC(=O)[O-]
REMARK SMILES IDX 6 1 7 2 8 3 9 4 10 5 11 6 5 7 4 8 3 9 2 10 1 11
REMARK H PARENT
REMARK Flexibility Score: inf
ROOT
ATOM      1  C   UNL     1      -8.531  22.890  17.827  1.00  0.00     0.000 C 
ENDROOT
BRANCH   1   2
ATOM      2  C   UNL     1      -8.441  21.371  17.607  1.00  0.00     0.006 C 
BRANCH   2   3
ATOM      3  C   UNL     1      -7.066  20.978  17.059  1.00  0.00     0.053 C 
BRANCH   3   4
ATOM      4  C   UNL     1      -7.089  20.937  15.564  1.00  0.00     0.041 C 
ATOM      5  O   UNL     1      -7.880  20.164  14.964  1.00  0.00    -0.550 OA
ATOM      6  O   UNL     1      -6.272  21.790  14.832  1.00  0.00    -0.550 OA
ENDBRANCH   3   4
ENDBRANCH   2   3
ENDBRANCH   1   2
BRANCH   1   7
ATOM      7  C   UNL     1      -9.070  23.253  19.223  1.00  0.00     0.000 C 
BRANCH   7   8
ATOM      8  C   UNL     1      -7.974  23.715  20.205  1.00  0.00    -0.000 C 
BRANCH   8   9
ATOM      9  C   UNL     1      -7.973  22.921  21.531  1.00  0.00    -0.000 C 
BRANCH   9  10
ATOM     10  C   UNL     1      -8.453  21.468  21.375  1.00  0.00    -0.003 C 
ATOM     11  C   UNL     1      -7.306  20.485  21.154  1.00  0.00     0.004 C 
ENDBRANCH   9  10
ENDBRANCH   8   9
ENDBRANCH   7   8
ENDBRANCH   1   7
TORSDOF 7
ENDMDL
MODEL 6
REMARK VINA RESULT:    -2.797      3.428      5.849
REMARK INTER + INTRA:          -4.376
REMARK INTER:                  -3.975
REMARK INTRA:                  -0.401
REMARK UNBOUND:                -0.434
REMARK SMILES CCCCCCCCC(=O)[O-]
REMARK SMILES IDX 6 1 7 2 8 3 9 4 10 5 11 6 5 7 4 8 3 9 2 10 1 11
REMARK H PARENT
REMARK Flexibility Score: inf
ROOT
ATOM      1  C   UNL     1      -8.127  21.459  17.866  1.00  0.00     0.000 C 
ENDROOT
BRANCH   1   2
ATOM      2  C   UNL     1      -8.472  20.794  16.524  1.00  0.00     0.006 C 
BRANCH   2   3
ATOM      3  C   UNL     1      -7.281  19.996  15.986  1.00  0.00     0.053 C 
BRANCH   3   4
ATOM      4  C   UNL     1      -6.412  20.864  15.131  1.00  0.00     0.041 C 
ATOM      5  O   UNL     1      -6.923  21.774  14.428  1.00  0.00    -0.550 OA
ATOM      6  O   UNL     1      -5.033  20.698  15.147  1.00  0.00    -0.550 OA
ENDBRANCH   3   4
ENDBRANCH   2   3
ENDBRANCH   1   2
BRANCH   1   7
ATOM      7  C   UNL     1      -8.611  22.919  17.943  1.00  0.00     0.000 C 
BRANCH   7   8
ATOM      8  C   UNL     1      -9.125  23.324  19.340  1.00  0.00    -0.000 C 
BRANCH   8   9
ATOM      9  C   UNL     1      -7.990  23.696  20.321  1.00  0.00    -0.000 C 
BRANCH   9  10
ATOM     10  C   UNL     1      -8.104  22.991  21.683  1.00  0.00    -0.003 C 
ATOM     11  C   UNL     1      -8.766  21.618  21.587  1.00  0.00     0.004 C 
ENDBRANCH   9  10
ENDBRANCH   8   9
ENDBRANCH   7   8
ENDBRANCH   1   7
TORSDOF 7
ENDMDL
MODEL 7
REMARK VINA RESULT:    -2.699      2.464      3.810
REMARK INTER + INTRA:          -4.238
REMARK INTER:                  -3.942
REMARK INTRA:                  -0.296
REMARK UNBOUND:                -0.434
REMARK SMILES CCCCCCCCC(=O)[O-]
REMARK SMILES IDX 6 1 7 2 8 3 9 4 10 5 11 6 5 7 4 8 3 9 2 10 1 11
REMARK H PARENT
REMARK Flexibility Score: inf
ROOT
ATOM      1  C   UNL     1      -7.010  21.560  14.956  1.00  0.00     0.000 C 
ENDROOT
BRANCH   1   2
ATOM      2  C   UNL     1      -7.832  21.035  16.143  1.00  0.00     0.006 C 
BRANCH   2   3
ATOM      3  C   UNL     1      -8.088  22.146  17.165  1.00  0.00     0.053 C 
BRANCH   3   4
ATOM      4  C   UNL     1      -7.921  21.626  18.558  1.00  0.00     0.041 C 
ATOM      5  O   UNL     1      -6.900  20.958  18.866  1.00  0.00    -0.550 OA
ATOM      6  O   UNL     1      -8.869  21.922  19.529  1.00  0.00    -0.550 OA
ENDBRANCH   3   4
ENDBRANCH   2   3
ENDBRANCH   1   2
BRANCH   1   7
ATOM      7  C   UNL     1      -5.696  20.781  14.757  1.00  0.00     0.000 C 
BRANCH   7   8
ATOM      8  C   UNL     1      -4.844  20.673  16.037  1.00  0.00    -0.000 C 
BRANCH   8   9
ATOM      9  C   UNL     1      -3.537  19.876  15.832  1.00  0.00    -0.000 C 
BRANCH   9  10
ATOM     10  C   UNL     1      -2.318  20.509  16.525  1.00  0.00    -0.003 C 
ATOM     11  C   UNL     1      -2.274  20.225  18.025  1.00  0.00     0.004 C 
ENDBRANCH   9  10
ENDBRANCH   8   9
ENDBRANCH   7   8
ENDBRANCH   1   7
TORSDOF 7
ENDMDL
MODEL 8
REMARK VINA RESULT:    -2.427     14.444     16.736
REMARK INTER + INTRA:          -3.854
REMARK INTER:                  -3.604
REMARK INTRA:                  -0.250
REMARK UNBOUND:                -0.434
REMARK SMILES CCCCCCCCC(=O)[O-]
REMARK SMILES IDX 6 1 7 2 8 3 9 4 10 5 11 6 5 7 4 8 3 9 2 10 1 11
REMARK H PARENT
REMARK Flexibility Score: inf
ROOT
ATOM      1  C   UNL     1       8.502  20.997  14.168  1.00  0.00     0.000 C 
ENDROOT
BRANCH   1   2
ATOM      2  C   UNL     1       7.589  20.096  15.014  1.00  0.00     0.006 C 
BRANCH   2   3
ATOM      3  C   UNL     1       6.123  20.262  14.602  1.00  0.00     0.053 C 
BRANCH   3   4
ATOM      4  C   UNL     1       5.293  20.683  15.775  1.00  0.00     0.041 C 
ATOM      5  O   UNL     1       4.136  20.215  15.931  1.00  0.00    -0.550 OA
ATOM      6  O   UNL     1       5.818  21.555  16.720  1.00  0.00    -0.550 OA
ENDBRANCH   3   4
ENDBRANCH   2   3
ENDBRANCH   1   2
BRANCH   1   7
ATOM      7  C   UNL     1       9.905  21.159  14.783  1.00  0.00     0.000 C 
BRANCH   7   8
ATOM      8  C   UNL     1      10.784  22.190  14.046  1.00  0.00    -0.000 C 
BRANCH   8   9
ATOM      9  C   UNL     1      10.088  22.814  12.816  1.00  0.00    -0.000 C 
BRANCH   9  10
ATOM     10  C   UNL     1      11.017  23.708  11.976  1.00  0.00    -0.003 C 
ATOM     11  C   UNL     1      10.399  25.067  11.655  1.00  0.00     0.004 C 
ENDBRANCH   9  10
ENDBRANCH   8   9
ENDBRANCH   7   8
ENDBRANCH   1   7
TORSDOF 7
ENDMDL
MODEL 9
REMARK VINA RESULT:    -2.350     16.026     18.547
REMARK INTER + INTRA:          -3.745
REMARK INTER:                  -3.514
REMARK INTRA:                  -0.232
REMARK UNBOUND:                -0.434
REMARK SMILES CCCCCCCCC(=O)[O-]
REMARK SMILES IDX 6 1 7 2 8 3 9 4 10 5 11 6 5 7 4 8 3 9 2 10 1 11
REMARK H PARENT
REMARK Flexibility Score: inf
ROOT
ATOM      1  C   UNL     1       9.631  22.134  13.256  1.00  0.00     0.000 C 
ENDROOT
BRANCH   1   2
ATOM      2  C   UNL     1      10.832  23.033  12.922  1.00  0.00     0.006 C 
BRANCH   2   3
ATOM      3  C   UNL     1      11.125  23.019  11.419  1.00  0.00     0.053 C 
BRANCH   3   4
ATOM      4  C   UNL     1      10.809  24.349  10.811  1.00  0.00     0.041 C 
ATOM      5  O   UNL     1      10.875  24.507   9.564  1.00  0.00    -0.550 OA
ATOM      6  O   UNL     1      10.395  25.402  11.618  1.00  0.00    -0.550 OA
ENDBRANCH   3   4
ENDBRANCH   2   3
ENDBRANCH   1   2
BRANCH   1   7
ATOM      7  C   UNL     1       9.782  21.427  14.615  1.00  0.00     0.000 C 
BRANCH   7   8
ATOM      8  C   UNL     1       8.857  20.204  14.780  1.00  0.00    -0.000 C 
BRANCH   8   9
ATOM      9  C   UNL     1       7.356  20.562  14.692  1.00  0.00    -0.000 C 
BRANCH   9  10
ATOM     10  C   UNL     1       6.558  20.162  15.945  1.00  0.00    -0.003 C 
ATOM     11  C   UNL     1       5.803  21.335  16.566  1.00  0.00     0.004 C 
ENDBRANCH   9  10
ENDBRANCH   8   9
ENDBRANCH   7   8
ENDBRANCH   1   7
TORSDOF 7
ENDMDL
