MODEL 1
REMARK VINA RESULT:    -3.577      0.000      0.000
REMARK INTER + INTRA:          -4.573
REMARK INTER:                  -4.518
REMARK INTRA:                  -0.055
REMARK UNBOUND:                -0.055
REMARK SMILES CCCCCCO
REMARK SMILES IDX 4 1 3 2 2 3 1 4 5 5 6 6 7 7
REMARK H PARENT 7 8
REMARK Flexibility Score: inf
ROOT
ATOM      1  C   UNL     1       2.059   0.108 -23.226  1.00  0.00     0.002 C 
ENDROOT
BRANCH   1   2
ATOM      2  C   UNL     1       3.150  -0.017 -24.299  1.00  0.00    -0.000 C 
BRANCH   2   3
ATOM      3  C   UNL     1       3.323   1.303 -25.061  1.00  0.00    -0.003 C 
ATOM      4  C   UNL     1       4.693   1.920 -24.793  1.00  0.00     0.004 C 
ENDBRANCH   2   3
ENDBRANCH   1   2
BRANCH   1   5
ATOM      5  C   UNL     1       2.403  -0.646 -21.930  1.00  0.00     0.028 C 
BRANCH   5   6
ATOM      6  C   UNL     1       1.725  -2.017 -21.822  1.00  0.00     0.156 C 
BRANCH   6   7
ATOM      7  O   UNL     1       0.583  -1.934 -21.015  1.00  0.00    -0.396 OA
ATOM      8  H   UNL     1       0.716  -2.589 -20.282  1.00  0.00     0.210 HD
ENDBRANCH   6   7
ENDBRANCH   5   6
ENDBRANCH   1   5
TORSDOF 5
ENDMDL
MODEL 2
REMARK VINA RESULT:    -3.437      2.387      4.246
REMARK INTER + INTRA:          -4.396
REMARK INTER:                  -4.336
REMARK INTRA:                  -0.060
REMARK UNBOUND:                -0.055
REMARK SMILES CCCCCCO
REMARK SMILES IDX 4 1 3 2 2 3 1 4 5 5 6 6 7 7
REMARK H PARENT 7 8
REMARK Flexibility Score: inf
ROOT
ATOM      1  C   UNL     1       2.307  -2.030 -21.578  1.00  0.00     0.002 C 
ENDROOT
BRANCH   1   2
ATOM      2  C   UNL     1       2.818  -3.223 -22.399  1.00  0.00    -0.000 C 
BRANCH   2   3
ATOM      3  C   UNL     1       3.886  -4.004 -21.623  1.00  0.00    -0.003 C 
ATOM      4  C   UNL     1       4.339  -5.238 -22.399  1.00  0.00     0.004 C 
ENDBRANCH   2   3
ENDBRANCH   1   2
BRANCH   1   5
ATOM      5  C   UNL     1       2.352  -0.703 -22.355  1.00  0.00     0.028 C 
BRANCH   5   6
ATOM      6  C   UNL     1       0.981  -0.032 -22.500  1.00  0.00     0.156 C 
BRANCH   6   7
ATOM      7  O   UNL     1       0.025  -0.706 -21.730  1.00  0.00    -0.396 OA
ATOM      8  H   UNL     1       0.349  -0.670 -20.794  1.00  0.00     0.210 HD
ENDBRANCH   6   7
ENDBRANCH   5   6
ENDBRANCH   1   5
TORSDOF 5
ENDMDL
MODEL 3
REMARK VINA RESULT:    -3.397      2.744      3.831
REMARK INTER + INTRA:          -4.346
REMARK INTER:                  -4.260
REMARK INTRA:                  -0.086
REMARK UNBOUND:                -0.055
REMARK SMILES CCCCCCO
REMARK SMILES IDX 4 1 3 2 2 3 1 4 5 5 6 6 7 7
REMARK H PARENT 7 8
REMARK Flexibility Score: inf
ROOT
ATOM      1  C   UNL     1       2.750  -2.769 -22.456  1.00  0.00     0.002 C 
ENDROOT
BRANCH   1   2
ATOM      2  C   UNL     1       1.686  -1.989 -21.669  1.00  0.00    -0.000 C 
BRANCH   2   3
ATOM      3  C   UNL     1       1.572  -0.547 -22.181  1.00  0.00    -0.003 C 
ATOM      4  C   UNL     1       2.616  -0.260 -23.257  1.00  0.00     0.004 C 
ENDBRANCH   2   3
ENDBRANCH   1   2
BRANCH   1   5
ATOM      5  C   UNL     1       3.525  -3.772 -21.585  1.00  0.00     0.028 C 
BRANCH   5   6
ATOM      6  C   UNL     1       4.176  -4.903 -22.389  1.00  0.00     0.156 C 
BRANCH   6   7
ATOM      7  O   UNL     1       4.404  -4.495 -23.709  1.00  0.00    -0.396 OA
ATOM      8  H   UNL     1       5.005  -5.175 -24.109  1.00  0.00     0.210 HD
ENDBRANCH   6   7
ENDBRANCH   5   6
ENDBRANCH   1   5
TORSDOF 5
ENDMDL
MODEL 4
REMARK VINA RESULT:    -3.361      8.760      9.647
REMARK INTER + INTRA:          -4.300
REMARK INTER:                  -4.201
REMARK INTRA:                  -0.099
REMARK UNBOUND:                -0.055
REMARK SMILES CCCCCCO
REMARK SMILES IDX 4 1 3 2 2 3 1 4 5 5 6 6 7 7
REMARK H PARENT 7 8
REMARK Flexibility Score: inf
ROOT
ATOM      1  C   UNL     1      -5.429   3.373 -22.376  1.00  0.00     0.002 C 
ENDROOT
BRANCH   1   2
ATOM      2  C   UNL     1      -6.775   3.564 -23.090  1.00  0.00    -0.000 C 
BRANCH   2   3
ATOM      3  C   UNL     1      -7.592   2.266 -23.078  1.00  0.00    -0.003 C 
ATOM      4  C   UNL     1      -8.117   1.932 -24.472  1.00  0.00     0.004 C 
ENDBRANCH   2   3
ENDBRANCH   1   2
BRANCH   1   5
ATOM      5  C   UNL     1      -5.462   2.253 -21.322  1.00  0.00     0.028 C 
BRANCH   5   6
ATOM      6  C   UNL     1      -4.986   2.703 -19.937  1.00  0.00     0.156 C 
BRANCH   6   7
ATOM      7  O   UNL     1      -3.593   2.851 -19.924  1.00  0.00    -0.396 OA
ATOM      8  H   UNL     1      -3.219   1.945 -20.078  1.00  0.00     0.210 HD
ENDBRANCH   6   7
ENDBRANCH   5   6
ENDBRANCH   1   5
TORSDOF 5
ENDMDL
MODEL 5
REMARK VINA RESULT:    -3.296      6.927      8.154
REMARK INTER + INTRA:          -4.217
REMARK INTER:                  -4.179
REMARK INTRA:                  -0.038
REMARK UNBOUND:                -0.055
REMARK SMILES CCCCCCO
REMARK SMILES IDX 4 1 3 2 2 3 1 4 5 5 6 6 7 7
REMARK H PARENT 7 8
REMARK Flexibility Score: inf
ROOT
ATOM      1  C   UNL     1      -2.874   3.950 -23.266  1.00  0.00     0.002 C 
ENDROOT
BRANCH   1   2
ATOM      2  C   UNL     1      -3.209   2.991 -22.115  1.00  0.00    -0.000 C 
BRANCH   2   3
ATOM      3  C   UNL     1      -4.692   3.089 -21.734  1.00  0.00    -0.003 C 
ATOM      4  C   UNL     1      -4.890   2.892 -20.234  1.00  0.00     0.004 C 
ENDBRANCH   2   3
ENDBRANCH   1   2
BRANCH   1   5
ATOM      5  C   UNL     1      -1.361   4.124 -23.481  1.00  0.00     0.028 C 
BRANCH   5   6
ATOM      6  C   UNL     1      -0.957   5.555 -23.855  1.00  0.00     0.156 C 
BRANCH   6   7
ATOM      7  O   UNL     1      -0.650   6.292 -22.705  1.00  0.00    -0.396 OA
ATOM      8  H   UNL     1      -0.572   5.634 -21.968  1.00  0.00     0.210 HD
ENDBRANCH   6   7
ENDBRANCH   5   6
ENDBRANCH   1   5
TORSDOF 5
ENDMDL
MODEL 6
REMARK VINA RESULT:    -3.240      8.890      9.640
REMARK INTER + INTRA:          -4.147
REMARK INTER:                  -4.048
REMARK INTRA:                  -0.099
REMARK UNBOUND:                -0.055
REMARK SMILES CCCCCCO
REMARK SMILES IDX 4 1 3 2 2 3 1 4 5 5 6 6 7 7
REMARK H PARENT 7 8
REMARK Flexibility Score: inf
ROOT
ATOM      1  C   UNL     1      -5.633   3.029 -22.142  1.00  0.00     0.002 C 
ENDROOT
BRANCH   1   2
ATOM      2  C   UNL     1      -6.956   2.960 -22.919  1.00  0.00    -0.000 C 
BRANCH   2   3
ATOM      3  C   UNL     1      -7.574   4.355 -23.075  1.00  0.00    -0.003 C 
ATOM      4  C   UNL     1      -7.103   5.294 -21.968  1.00  0.00     0.004 C 
ENDBRANCH   2   3
ENDBRANCH   1   2
BRANCH   1   5
ATOM      5  C   UNL     1      -5.494   1.912 -21.093  1.00  0.00     0.028 C 
BRANCH   5   6
ATOM      6  C   UNL     1      -4.865   2.386 -19.778  1.00  0.00     0.156 C 
BRANCH   6   7
ATOM      7  O   UNL     1      -3.580   2.893 -20.006  1.00  0.00    -0.396 OA
ATOM      8  H   UNL     1      -2.967   2.113 -19.983  1.00  0.00     0.210 HD
ENDBRANCH   6   7
ENDBRANCH   5   6
ENDBRANCH   1   5
TORSDOF 5
ENDMDL
MODEL 7
REMARK VINA RESULT:    -3.190      8.227      8.874
REMARK INTER + INTRA:          -4.084
REMARK INTER:                  -3.907
REMARK INTRA:                  -0.177
REMARK UNBOUND:                -0.055
REMARK SMILES CCCCCCO
REMARK SMILES IDX 4 1 3 2 2 3 1 4 5 5 6 6 7 7
REMARK H PARENT 7 8
REMARK Flexibility Score: inf
ROOT
ATOM      1  C   UNL     1      -6.169   2.648 -22.147  1.00  0.00     0.002 C 
ENDROOT
BRANCH   1   2
ATOM      2  C   UNL     1      -6.163   4.167 -21.928  1.00  0.00    -0.000 C 
BRANCH   2   3
ATOM      3  C   UNL     1      -5.700   4.902 -23.194  1.00  0.00    -0.003 C 
ATOM      4  C   UNL     1      -4.420   4.287 -23.751  1.00  0.00     0.004 C 
ENDBRANCH   2   3
ENDBRANCH   1   2
BRANCH   1   5
ATOM      5  C   UNL     1      -5.464   1.876 -21.019  1.00  0.00     0.028 C 
BRANCH   5   6
ATOM      6  C   UNL     1      -4.805   2.785 -19.976  1.00  0.00     0.156 C 
BRANCH   6   7
ATOM      7  O   UNL     1      -3.437   2.922 -20.242  1.00  0.00    -0.396 OA
ATOM      8  H   UNL     1      -3.318   2.694 -21.199  1.00  0.00     0.210 HD
ENDBRANCH   6   7
ENDBRANCH   5   6
ENDBRANCH   1   5
TORSDOF 5
ENDMDL
MODEL 8
REMARK VINA RESULT:    -3.166      6.145      7.343
REMARK INTER + INTRA:          -4.053
REMARK INTER:                  -3.968
REMARK INTRA:                  -0.085
REMARK UNBOUND:                -0.055
REMARK SMILES CCCCCCO
REMARK SMILES IDX 4 1 3 2 2 3 1 4 5 5 6 6 7 7
REMARK H PARENT 7 8
REMARK Flexibility Score: inf
ROOT
ATOM      1  C   UNL     1      -3.079   2.482 -22.002  1.00  0.00     0.002 C 
ENDROOT
BRANCH   1   2
ATOM      2  C   UNL     1      -4.274   3.400 -22.300  1.00  0.00    -0.000 C 
BRANCH   2   3
ATOM      3  C   UNL     1      -5.306   3.342 -21.166  1.00  0.00    -0.003 C 
ATOM      4  C   UNL     1      -4.792   2.511 -19.994  1.00  0.00     0.004 C 
ENDBRANCH   2   3
ENDBRANCH   1   2
BRANCH   1   5
ATOM      5  C   UNL     1      -1.843   2.810 -22.857  1.00  0.00     0.028 C 
BRANCH   5   6
ATOM      6  C   UNL     1      -1.060   1.569 -23.300  1.00  0.00     0.156 C 
BRANCH   6   7
ATOM      7  O   UNL     1      -1.479   0.445 -22.578  1.00  0.00    -0.396 OA
ATOM      8  H   UNL     1      -2.403   0.251 -22.880  1.00  0.00     0.210 HD
ENDBRANCH   6   7
ENDBRANCH   5   6
ENDBRANCH   1   5
TORSDOF 5
ENDMDL
MODEL 9
REMARK VINA RESULT:    -3.157      7.641      8.768
REMARK INTER + INTRA:          -4.043
REMARK INTER:                  -3.948
REMARK INTRA:                  -0.095
REMARK UNBOUND:                -0.055
REMARK SMILES CCCCCCO
REMARK SMILES IDX 4 1 3 2 2 3 1 4 5 5 6 6 7 7
REMARK H PARENT 7 8
REMARK Flexibility Score: inf
ROOT
ATOM      1  C   UNL     1      -4.018   2.587 -21.363  1.00  0.00     0.002 C 
ENDROOT
BRANCH   1   2
ATOM      2  C   UNL     1      -5.496   2.169 -21.388  1.00  0.00    -0.000 C 
BRANCH   2   3
ATOM      3  C   UNL     1      -6.272   2.959 -22.449  1.00  0.00    -0.003 C 
ATOM      4  C   UNL     1      -7.458   2.157 -22.977  1.00  0.00     0.004 C 
ENDBRANCH   2   3
ENDBRANCH   1   2
BRANCH   1   5
ATOM      5  C   UNL     1      -3.613   3.433 -22.582  1.00  0.00     0.028 C 
BRANCH   5   6
ATOM      6  C   UNL     1      -2.107   3.413 -22.866  1.00  0.00     0.156 C 
BRANCH   6   7
ATOM      7  O   UNL     1      -1.594   4.716 -22.868  1.00  0.00    -0.396 OA
ATOM      8  H   UNL     1      -0.711   4.664 -23.316  1.00  0.00     0.210 HD
ENDBRANCH   6   7
ENDBRANCH   5   6
ENDBRANCH   1   5
TORSDOF 5
ENDMDL
