MODEL 1
REMARK VINA RESULT:    -3.312      0.000      0.000
REMARK INTER + INTRA:          -4.496
REMARK INTER:                  -4.280
REMARK INTRA:                  -0.216
REMARK UNBOUND:                -0.216
REMARK SMILES CCCCCCC(=O)[O-]
REMARK SMILES IDX 5 1 6 2 7 3 8 4 9 5 4 6 3 7 2 8 1 9
REMARK H PARENT
REMARK Flexibility Score: inf
ROOT
ATOM      1  C   UNL     1     -44.571 -49.090  36.464  1.00  0.00     0.006 C 
ENDROOT
BRANCH   1   2
ATOM      2  C   UNL     1     -45.349 -49.563  37.699  1.00  0.00     0.053 C 
BRANCH   2   3
ATOM      3  C   UNL     1     -46.777 -49.831  37.344  1.00  0.00     0.041 C 
ATOM      4  O   UNL     1     -47.583 -48.876  37.191  1.00  0.00    -0.550 OA
ATOM      5  O   UNL     1     -47.208 -51.134  37.134  1.00  0.00    -0.550 OA
ENDBRANCH   2   3
ENDBRANCH   1   2
BRANCH   1   6
ATOM      6  C   UNL     1     -44.172 -50.248  35.535  1.00  0.00     0.000 C 
BRANCH   6   7
ATOM      7  C   UNL     1     -43.330 -49.780  34.335  1.00  0.00    -0.000 C 
BRANCH   7   8
ATOM      8  C   UNL     1     -42.796 -48.351  34.514  1.00  0.00    -0.003 C 
ATOM      9  C   UNL     1     -41.288 -48.307  34.760  1.00  0.00     0.004 C 
ENDBRANCH   7   8
ENDBRANCH   6   7
ENDBRANCH   1   6
TORSDOF 5
ENDMDL
MODEL 2
REMARK VINA RESULT:    -3.170      1.912      2.050
REMARK INTER + INTRA:          -4.313
REMARK INTER:                  -4.176
REMARK INTRA:                  -0.137
REMARK UNBOUND:                -0.216
REMARK SMILES CCCCCCC(=O)[O-]
REMARK SMILES IDX 5 1 6 2 7 3 8 4 9 5 4 6 3 7 2 8 1 9
REMARK H PARENT
REMARK Flexibility Score: inf
ROOT
ATOM      1  C   UNL     1     -44.097 -48.698  36.585  1.00  0.00     0.006 C 
ENDROOT
BRANCH   1   2
ATOM      2  C   UNL     1     -45.360 -48.703  37.457  1.00  0.00     0.053 C 
BRANCH   2   3
ATOM      3  C   UNL     1     -44.996 -48.566  38.901  1.00  0.00     0.041 C 
ATOM      4  O   UNL     1     -44.566 -47.469  39.346  1.00  0.00    -0.550 OA
ATOM      5  O   UNL     1     -45.176 -49.636  39.768  1.00  0.00    -0.550 OA
ENDBRANCH   2   3
ENDBRANCH   1   2
BRANCH   1   6
ATOM      6  C   UNL     1     -44.066 -49.858  35.577  1.00  0.00     0.000 C 
BRANCH   6   7
ATOM      7  C   UNL     1     -43.281 -49.511  34.300  1.00  0.00    -0.000 C 
BRANCH   7   8
ATOM      8  C   UNL     1     -42.558 -48.159  34.404  1.00  0.00    -0.003 C 
ATOM      9  C   UNL     1     -41.066 -48.305  34.703  1.00  0.00     0.004 C 
ENDBRANCH   7   8
ENDBRANCH   6   7
ENDBRANCH   1   6
TORSDOF 5
ENDMDL
MODEL 3
REMARK VINA RESULT:    -3.161      3.416      6.185
REMARK INTER + INTRA:          -4.301
REMARK INTER:                  -4.098
REMARK INTRA:                  -0.203
REMARK UNBOUND:                -0.216
REMARK SMILES CCCCCCC(=O)[O-]
REMARK SMILES IDX 5 1 6 2 7 3 8 4 9 5 4 6 3 7 2 8 1 9
REMARK H PARENT
REMARK Flexibility Score: inf
ROOT
ATOM      1  C   UNL     1     -47.298 -52.476  37.404  1.00  0.00     0.006 C 
ENDROOT
BRANCH   1   2
ATOM      2  C   UNL     1     -46.863 -51.218  38.168  1.00  0.00     0.053 C 
BRANCH   2   3
ATOM      3  C   UNL     1     -46.656 -50.079  37.221  1.00  0.00     0.041 C 
ATOM      4  O   UNL     1     -47.473 -49.120  37.193  1.00  0.00    -0.550 OA
ATOM      5  O   UNL     1     -45.535 -50.051  36.401  1.00  0.00    -0.550 OA
ENDBRANCH   2   3
ENDBRANCH   1   2
BRANCH   1   6
ATOM      6  C   UNL     1     -48.118 -53.443  38.272  1.00  0.00     0.000 C 
BRANCH   6   7
ATOM      7  C   UNL     1     -47.787 -53.319  39.770  1.00  0.00    -0.000 C 
BRANCH   7   8
ATOM      8  C   UNL     1     -49.040 -53.103  40.633  1.00  0.00    -0.003 C 
ATOM      9  C   UNL     1     -48.808 -52.121  41.781  1.00  0.00     0.004 C 
ENDBRANCH   7   8
ENDBRANCH   6   7
ENDBRANCH   1   6
TORSDOF 5
ENDMDL
MODEL 4
REMARK VINA RESULT:    -3.147      4.747      6.444
REMARK INTER + INTRA:          -4.283
REMARK INTER:                  -3.946
REMARK INTRA:                  -0.337
REMARK UNBOUND:                -0.216
REMARK SMILES CCCCCCC(=O)[O-]
REMARK SMILES IDX 5 1 6 2 7 3 8 4 9 5 4 6 3 7 2 8 1 9
REMARK H PARENT
REMARK Flexibility Score: inf
ROOT
ATOM      1  C   UNL     1     -48.231 -54.222  40.616  1.00  0.00     0.006 C 
ENDROOT
BRANCH   1   2
ATOM      2  C   UNL     1     -49.256 -53.138  40.978  1.00  0.00     0.053 C 
BRANCH   2   3
ATOM      3  C   UNL     1     -48.656 -52.152  41.929  1.00  0.00     0.041 C 
ATOM      4  O   UNL     1     -48.619 -50.928  41.634  1.00  0.00    -0.550 OA
ATOM      5  O   UNL     1     -48.180 -52.576  43.163  1.00  0.00    -0.550 OA
ENDBRANCH   2   3
ENDBRANCH   1   2
BRANCH   1   6
ATOM      6  C   UNL     1     -47.271 -53.781  39.500  1.00  0.00     0.000 C 
BRANCH   6   7
ATOM      7  C   UNL     1     -48.004 -53.441  38.190  1.00  0.00    -0.000 C 
BRANCH   7   8
ATOM      8  C   UNL     1     -47.318 -52.310  37.409  1.00  0.00    -0.003 C 
ATOM      9  C   UNL     1     -46.778 -51.205  38.315  1.00  0.00     0.004 C 
ENDBRANCH   7   8
ENDBRANCH   6   7
ENDBRANCH   1   6
TORSDOF 5
ENDMDL
MODEL 5
REMARK VINA RESULT:    -3.138      1.154      1.616
REMARK INTER + INTRA:          -4.272
REMARK INTER:                  -4.083
REMARK INTRA:                  -0.189
REMARK UNBOUND:                -0.216
REMARK SMILES CCCCCCC(=O)[O-]
REMARK SMILES IDX 5 1 6 2 7 3 8 4 9 5 4 6 3 7 2 8 1 9
REMARK H PARENT
REMARK Flexibility Score: inf
ROOT
ATOM      1  C   UNL     1     -45.041 -48.900  37.824  1.00  0.00     0.006 C 
ENDROOT
BRANCH   1   2
ATOM      2  C   UNL     1     -46.463 -49.318  37.423  1.00  0.00     0.053 C 
BRANCH   2   3
ATOM      3  C   UNL     1     -46.833 -50.606  38.088  1.00  0.00     0.041 C 
ATOM      4  O   UNL     1     -46.837 -50.693  39.344  1.00  0.00    -0.550 OA
ATOM      5  O   UNL     1     -47.222 -51.698  37.322  1.00  0.00    -0.550 OA
ENDBRANCH   2   3
ENDBRANCH   1   2
BRANCH   1   6
ATOM      6  C   UNL     1     -44.111 -48.723  36.613  1.00  0.00     0.000 C 
BRANCH   6   7
ATOM      7  C   UNL     1     -44.272 -49.848  35.575  1.00  0.00    -0.000 C 
BRANCH   7   8
ATOM      8  C   UNL     1     -43.312 -49.694  34.387  1.00  0.00    -0.003 C 
ATOM      9  C   UNL     1     -42.639 -48.322  34.341  1.00  0.00     0.004 C 
ENDBRANCH   7   8
ENDBRANCH   6   7
ENDBRANCH   1   6
TORSDOF 5
ENDMDL
MODEL 6
REMARK VINA RESULT:    -3.129      4.083      6.676
REMARK INTER + INTRA:          -4.261
REMARK INTER:                  -3.909
REMARK INTRA:                  -0.352
REMARK UNBOUND:                -0.216
REMARK SMILES CCCCCCC(=O)[O-]
REMARK SMILES IDX 5 1 6 2 7 3 8 4 9 5 4 6 3 7 2 8 1 9
REMARK H PARENT
REMARK Flexibility Score: inf
ROOT
ATOM      1  C   UNL     1     -48.065 -53.379  38.199  1.00  0.00     0.006 C 
ENDROOT
BRANCH   1   2
ATOM      2  C   UNL     1     -46.866 -52.657  37.571  1.00  0.00     0.053 C 
BRANCH   2   3
ATOM      3  C   UNL     1     -46.901 -51.199  37.907  1.00  0.00     0.041 C 
ATOM      4  O   UNL     1     -47.178 -50.350  37.020  1.00  0.00    -0.550 OA
ATOM      5  O   UNL     1     -46.676 -50.782  39.212  1.00  0.00    -0.550 OA
ENDBRANCH   2   3
ENDBRANCH   1   2
BRANCH   1   6
ATOM      6  C   UNL     1     -47.643 -54.497  39.166  1.00  0.00     0.000 C 
BRANCH   6   7
ATOM      7  C   UNL     1     -47.884 -54.125  40.640  1.00  0.00    -0.000 C 
BRANCH   7   8
ATOM      8  C   UNL     1     -49.131 -53.249  40.829  1.00  0.00    -0.003 C 
ATOM      9  C   UNL     1     -48.870 -52.027  41.709  1.00  0.00     0.004 C 
ENDBRANCH   7   8
ENDBRANCH   6   7
ENDBRANCH   1   6
TORSDOF 5
ENDMDL
MODEL 7
REMARK VINA RESULT:    -3.127      1.173      1.700
REMARK INTER + INTRA:          -4.258
REMARK INTER:                  -4.113
REMARK INTRA:                  -0.145
REMARK UNBOUND:                -0.216
REMARK SMILES CCCCCCC(=O)[O-]
REMARK SMILES IDX 5 1 6 2 7 3 8 4 9 5 4 6 3 7 2 8 1 9
REMARK H PARENT
REMARK Flexibility Score: inf
ROOT
ATOM      1  C   UNL     1     -43.716 -48.826  36.156  1.00  0.00     0.006 C 
ENDROOT
BRANCH   1   2
ATOM      2  C   UNL     1     -44.851 -49.809  36.472  1.00  0.00     0.053 C 
BRANCH   2   3
ATOM      3  C   UNL     1     -45.940 -49.120  37.232  1.00  0.00     0.041 C 
ATOM      4  O   UNL     1     -45.749 -47.972  37.713  1.00  0.00    -0.550 OA
ATOM      5  O   UNL     1     -47.183 -49.724  37.367  1.00  0.00    -0.550 OA
ENDBRANCH   2   3
ENDBRANCH   1   2
BRANCH   1   6
ATOM      6  C   UNL     1     -43.302 -48.853  34.676  1.00  0.00     0.000 C 
BRANCH   6   7
ATOM      7  C   UNL     1     -42.044 -48.011  34.400  1.00  0.00    -0.000 C 
BRANCH   7   8
ATOM      8  C   UNL     1     -40.899 -48.325  35.374  1.00  0.00    -0.003 C 
ATOM      9  C   UNL     1     -39.600 -48.699  34.663  1.00  0.00     0.004 C 
ENDBRANCH   7   8
ENDBRANCH   6   7
ENDBRANCH   1   6
TORSDOF 5
ENDMDL
MODEL 8
REMARK VINA RESULT:    -3.072      3.976      5.264
REMARK INTER + INTRA:          -4.186
REMARK INTER:                  -4.064
REMARK INTRA:                  -0.122
REMARK UNBOUND:                -0.216
REMARK SMILES CCCCCCC(=O)[O-]
REMARK SMILES IDX 5 1 6 2 7 3 8 4 9 5 4 6 3 7 2 8 1 9
REMARK H PARENT
REMARK Flexibility Score: inf
ROOT
ATOM      1  C   UNL     1     -44.372 -47.799  39.403  1.00  0.00     0.006 C 
ENDROOT
BRANCH   1   2
ATOM      2  C   UNL     1     -43.172 -47.157  40.114  1.00  0.00     0.053 C 
BRANCH   2   3
ATOM      3  C   UNL     1     -43.526 -45.787  40.598  1.00  0.00     0.041 C 
ATOM      4  O   UNL     1     -44.707 -45.364  40.496  1.00  0.00    -0.550 OA
ATOM      5  O   UNL     1     -42.561 -44.994  41.206  1.00  0.00    -0.550 OA
ENDBRANCH   2   3
ENDBRANCH   1   2
BRANCH   1   6
ATOM      6  C   UNL     1     -43.951 -48.766  38.285  1.00  0.00     0.000 C 
BRANCH   6   7
ATOM      7  C   UNL     1     -44.904 -48.723  37.077  1.00  0.00    -0.000 C 
BRANCH   7   8
ATOM      8  C   UNL     1     -45.486 -50.103  36.738  1.00  0.00    -0.003 C 
ATOM      9  C   UNL     1     -46.947 -50.252  37.162  1.00  0.00     0.004 C 
ENDBRANCH   7   8
ENDBRANCH   6   7
ENDBRANCH   1   6
TORSDOF 5
ENDMDL
MODEL 9
REMARK VINA RESULT:    -3.063      6.144      7.878
REMARK INTER + INTRA:          -4.175
REMARK INTER:                  -4.016
REMARK INTRA:                  -0.159
REMARK UNBOUND:                -0.216
REMARK SMILES CCCCCCC(=O)[O-]
REMARK SMILES IDX 5 1 6 2 7 3 8 4 9 5 4 6 3 7 2 8 1 9
REMARK H PARENT
REMARK Flexibility Score: inf
ROOT
ATOM      1  C   UNL     1     -46.671 -55.035  39.116  1.00  0.00     0.006 C 
ENDROOT
BRANCH   1   2
ATOM      2  C   UNL     1     -47.892 -54.282  38.573  1.00  0.00     0.053 C 
BRANCH   2   3
ATOM      3  C   UNL     1     -47.512 -52.891  38.173  1.00  0.00     0.041 C 
ATOM      4  O   UNL     1     -47.543 -52.549  36.961  1.00  0.00    -0.550 OA
ATOM      5  O   UNL     1     -47.167 -51.958  39.142  1.00  0.00    -0.550 OA
ENDBRANCH   2   3
ENDBRANCH   1   2
BRANCH   1   6
ATOM      6  C   UNL     1     -46.649 -56.513  38.694  1.00  0.00     0.000 C 
BRANCH   6   7
ATOM      7  C   UNL     1     -48.054 -57.140  38.670  1.00  0.00    -0.000 C 
BRANCH   7   8
ATOM      8  C   UNL     1     -48.083 -58.489  37.935  1.00  0.00    -0.003 C 
ATOM      9  C   UNL     1     -46.761 -59.249  38.036  1.00  0.00     0.004 C 
ENDBRANCH   7   8
ENDBRANCH   6   7
ENDBRANCH   1   6
TORSDOF 5
ENDMDL
