MODEL 1
REMARK VINA RESULT:    -3.510      0.000      0.000
REMARK INTER + INTRA:          -4.513
REMARK INTER:                  -4.331
REMARK INTRA:                  -0.182
REMARK UNBOUND:                -0.182
REMARK SMILES CCCCCC(=O)[O-]
REMARK SMILES IDX 4 1 5 2 6 3 7 4 8 5 3 6 2 7 1 8
REMARK H PARENT
REMARK Flexibility Score: inf
ROOT
ATOM      1  C   UNL     1      45.236  12.560  12.188  1.00  0.00     0.006 C 
ENDROOT
BRANCH   1   2
ATOM      2  C   UNL     1      45.588  13.941  12.764  1.00  0.00     0.053 C 
BRANCH   2   3
ATOM      3  C   UNL     1      46.473  14.725  11.846  1.00  0.00     0.041 C 
ATOM      4  O   UNL     1      46.788  15.911  12.128  1.00  0.00    -0.550 OA
ATOM      5  O   UNL     1      46.922  14.158  10.659  1.00  0.00    -0.550 OA
ENDBRANCH   2   3
ENDBRANCH   1   2
BRANCH   1   6
ATOM      6  C   UNL     1      45.661  11.377  13.078  1.00  0.00     0.000 C 
BRANCH   6   7
ATOM      7  C   UNL     1      46.816  10.565  12.476  1.00  0.00    -0.003 C 
ATOM      8  C   UNL     1      46.692  10.475  10.957  1.00  0.00     0.004 C 
ENDBRANCH   6   7
ENDBRANCH   1   6
TORSDOF 4
ENDMDL
MODEL 2
REMARK VINA RESULT:    -3.465      2.639      4.049
REMARK INTER + INTRA:          -4.457
REMARK INTER:                  -4.348
REMARK INTRA:                  -0.109
REMARK UNBOUND:                -0.182
REMARK SMILES CCCCCC(=O)[O-]
REMARK SMILES IDX 4 1 5 2 6 3 7 4 8 5 3 6 2 7 1 8
REMARK H PARENT
REMARK Flexibility Score: inf
ROOT
ATOM      1  C   UNL     1      45.247  12.759  11.295  1.00  0.00     0.006 C 
ENDROOT
BRANCH   1   2
ATOM      2  C   UNL     1      45.473  11.790  12.466  1.00  0.00     0.053 C 
BRANCH   2   3
ATOM      3  C   UNL     1      46.400  10.672  12.100  1.00  0.00     0.041 C 
ATOM      4  O   UNL     1      47.125  10.136  12.979  1.00  0.00    -0.550 OA
ATOM      5  O   UNL     1      46.489  10.245  10.781  1.00  0.00    -0.550 OA
ENDBRANCH   2   3
ENDBRANCH   1   2
BRANCH   1   6
ATOM      6  C   UNL     1      46.437  13.694  11.009  1.00  0.00     0.000 C 
BRANCH   6   7
ATOM      7  C   UNL     1      46.202  15.126  11.510  1.00  0.00    -0.003 C 
ATOM      8  C   UNL     1      46.577  15.262  12.983  1.00  0.00     0.004 C 
ENDBRANCH   6   7
ENDBRANCH   1   6
TORSDOF 4
ENDMDL
MODEL 3
REMARK VINA RESULT:    -3.311     17.314     18.801
REMARK INTER + INTRA:          -4.267
REMARK INTER:                  -4.059
REMARK INTRA:                  -0.208
REMARK UNBOUND:                -0.182
REMARK SMILES CCCCCC(=O)[O-]
REMARK SMILES IDX 4 1 5 2 6 3 7 4 8 5 3 6 2 7 1 8
REMARK H PARENT
REMARK Flexibility Score: inf
ROOT
ATOM      1  C   UNL     1      42.423  27.228   0.523  1.00  0.00     0.006 C 
ENDROOT
BRANCH   1   2
ATOM      2  C   UNL     1      43.137  27.841  -0.693  1.00  0.00     0.053 C 
BRANCH   2   3
ATOM      3  C   UNL     1      44.229  26.956  -1.209  1.00  0.00     0.041 C 
ATOM      4  O   UNL     1      43.949  25.867  -1.775  1.00  0.00    -0.550 OA
ATOM      5  O   UNL     1      45.559  27.317  -1.033  1.00  0.00    -0.550 OA
ENDBRANCH   2   3
ENDBRANCH   1   2
BRANCH   1   6
ATOM      6  C   UNL     1      42.667  27.979   1.845  1.00  0.00     0.000 C 
BRANCH   6   7
ATOM      7  C   UNL     1      44.124  27.890   2.319  1.00  0.00    -0.003 C 
ATOM      8  C   UNL     1      44.530  26.441   2.579  1.00  0.00     0.004 C 
ENDBRANCH   6   7
ENDBRANCH   1   6
TORSDOF 4
ENDMDL
MODEL 4
REMARK VINA RESULT:    -3.298     17.717     19.317
REMARK INTER + INTRA:          -4.251
REMARK INTER:                  -4.028
REMARK INTRA:                  -0.222
REMARK UNBOUND:                -0.182
REMARK SMILES CCCCCC(=O)[O-]
REMARK SMILES IDX 4 1 5 2 6 3 7 4 8 5 3 6 2 7 1 8
REMARK H PARENT
REMARK Flexibility Score: inf
ROOT
ATOM      1  C   UNL     1      42.853  28.686  -0.345  1.00  0.00     0.006 C 
ENDROOT
BRANCH   1   2
ATOM      2  C   UNL     1      43.296  28.166  -1.721  1.00  0.00     0.053 C 
BRANCH   2   3
ATOM      3  C   UNL     1      44.282  27.044  -1.608  1.00  0.00     0.041 C 
ATOM      4  O   UNL     1      45.494  27.286  -1.367  1.00  0.00    -0.550 OA
ATOM      5  O   UNL     1      43.868  25.732  -1.802  1.00  0.00    -0.550 OA
ENDBRANCH   2   3
ENDBRANCH   1   2
BRANCH   1   6
ATOM      6  C   UNL     1      42.297  27.600   0.594  1.00  0.00     0.000 C 
BRANCH   6   7
ATOM      7  C   UNL     1      42.919  27.650   1.996  1.00  0.00    -0.003 C 
ATOM      8  C   UNL     1      44.112  26.704   2.102  1.00  0.00     0.004 C 
ENDBRANCH   6   7
ENDBRANCH   1   6
TORSDOF 4
ENDMDL
MODEL 5
REMARK VINA RESULT:    -3.221     16.445     18.006
REMARK INTER + INTRA:          -4.156
REMARK INTER:                  -4.047
REMARK INTRA:                  -0.108
REMARK UNBOUND:                -0.182
REMARK SMILES CCCCCC(=O)[O-]
REMARK SMILES IDX 4 1 5 2 6 3 7 4 8 5 3 6 2 7 1 8
REMARK H PARENT
REMARK Flexibility Score: inf
ROOT
ATOM      1  C   UNL     1      43.448  27.476   1.667  1.00  0.00     0.006 C 
ENDROOT
BRANCH   1   2
ATOM      2  C   UNL     1      42.760  27.116   0.340  1.00  0.00     0.053 C 
BRANCH   2   3
ATOM      3  C   UNL     1      43.701  27.201  -0.822  1.00  0.00     0.041 C 
ATOM      4  O   UNL     1      44.169  28.314  -1.178  1.00  0.00    -0.550 OA
ATOM      5  O   UNL     1      44.032  26.055  -1.535  1.00  0.00    -0.550 OA
ENDBRANCH   2   3
ENDBRANCH   1   2
BRANCH   1   6
ATOM      6  C   UNL     1      44.778  26.740   1.910  1.00  0.00     0.000 C 
BRANCH   6   7
ATOM      7  C   UNL     1      44.795  25.966   3.235  1.00  0.00    -0.003 C 
ATOM      8  C   UNL     1      46.080  25.155   3.382  1.00  0.00     0.004 C 
ENDBRANCH   6   7
ENDBRANCH   1   6
TORSDOF 4
ENDMDL
MODEL 6
REMARK VINA RESULT:    -3.206     16.455     18.050
REMARK INTER + INTRA:          -4.137
REMARK INTER:                  -4.021
REMARK INTRA:                  -0.116
REMARK UNBOUND:                -0.182
REMARK SMILES CCCCCC(=O)[O-]
REMARK SMILES IDX 4 1 5 2 6 3 7 4 8 5 3 6 2 7 1 8
REMARK H PARENT
REMARK Flexibility Score: inf
ROOT
ATOM      1  C   UNL     1      43.582  27.539   1.595  1.00  0.00     0.006 C 
ENDROOT
BRANCH   1   2
ATOM      2  C   UNL     1      42.860  27.098   0.312  1.00  0.00     0.053 C 
BRANCH   2   3
ATOM      3  C   UNL     1      43.764  27.131  -0.882  1.00  0.00     0.041 C 
ATOM      4  O   UNL     1      44.022  26.071  -1.511  1.00  0.00    -0.550 OA
ATOM      5  O   UNL     1      44.349  28.327  -1.279  1.00  0.00    -0.550 OA
ENDBRANCH   2   3
ENDBRANCH   1   2
BRANCH   1   6
ATOM      6  C   UNL     1      44.874  26.757   1.895  1.00  0.00     0.000 C 
BRANCH   6   7
ATOM      7  C   UNL     1      44.784  25.934   3.187  1.00  0.00    -0.003 C 
ATOM      8  C   UNL     1      46.075  25.158   3.436  1.00  0.00     0.004 C 
ENDBRANCH   6   7
ENDBRANCH   1   6
TORSDOF 4
ENDMDL
MODEL 7
REMARK VINA RESULT:    -3.129     15.714     16.916
REMARK INTER + INTRA:          -4.043
REMARK INTER:                  -3.982
REMARK INTRA:                  -0.061
REMARK UNBOUND:                -0.182
REMARK SMILES CCCCCC(=O)[O-]
REMARK SMILES IDX 4 1 5 2 6 3 7 4 8 5 3 6 2 7 1 8
REMARK H PARENT
REMARK Flexibility Score: inf
ROOT
ATOM      1  C   UNL     1      45.129  26.341   2.498  1.00  0.00     0.006 C 
ENDROOT
BRANCH   1   2
ATOM      2  C   UNL     1      43.756  26.933   2.139  1.00  0.00     0.053 C 
BRANCH   2   3
ATOM      3  C   UNL     1      43.528  26.967   0.659  1.00  0.00     0.041 C 
ATOM      4  O   UNL     1      42.372  27.166   0.200  1.00  0.00    -0.550 OA
ATOM      5  O   UNL     1      44.586  26.746  -0.214  1.00  0.00    -0.550 OA
ENDBRANCH   2   3
ENDBRANCH   1   2
BRANCH   1   6
ATOM      6  C   UNL     1      45.185  25.665   3.881  1.00  0.00     0.000 C 
BRANCH   6   7
ATOM      7  C   UNL     1      46.353  26.166   4.740  1.00  0.00    -0.003 C 
ATOM      8  C   UNL     1      45.941  26.302   6.203  1.00  0.00     0.004 C 
ENDBRANCH   6   7
ENDBRANCH   1   6
TORSDOF 4
ENDMDL
MODEL 8
REMARK VINA RESULT:    -2.951     14.339     15.114
REMARK INTER + INTRA:          -3.823
REMARK INTER:                  -3.770
REMARK INTRA:                  -0.052
REMARK UNBOUND:                -0.182
REMARK SMILES CCCCCC(=O)[O-]
REMARK SMILES IDX 4 1 5 2 6 3 7 4 8 5 3 6 2 7 1 8
REMARK H PARENT
REMARK Flexibility Score: inf
ROOT
ATOM      1  C   UNL     1      46.061  26.271   6.216  1.00  0.00     0.006 C 
ENDROOT
BRANCH   1   2
ATOM      2  C   UNL     1      45.777  27.421   7.196  1.00  0.00     0.053 C 
BRANCH   2   3
ATOM      3  C   UNL     1      45.658  26.939   8.609  1.00  0.00     0.041 C 
ATOM      4  O   UNL     1      44.961  25.925   8.876  1.00  0.00    -0.550 OA
ATOM      5  O   UNL     1      46.288  27.631   9.636  1.00  0.00    -0.550 OA
ENDBRANCH   2   3
ENDBRANCH   1   2
BRANCH   1   6
ATOM      6  C   UNL     1      46.021  26.680   4.732  1.00  0.00     0.000 C 
BRANCH   6   7
ATOM      7  C   UNL     1      45.291  25.656   3.853  1.00  0.00    -0.003 C 
ATOM      8  C   UNL     1      44.606  26.335   2.670  1.00  0.00     0.004 C 
ENDBRANCH   6   7
ENDBRANCH   1   6
TORSDOF 4
ENDMDL
MODEL 9
REMARK VINA RESULT:    -2.940     14.257     15.263
REMARK INTER + INTRA:          -3.809
REMARK INTER:                  -3.732
REMARK INTRA:                  -0.077
REMARK UNBOUND:                -0.182
REMARK SMILES CCCCCC(=O)[O-]
REMARK SMILES IDX 4 1 5 2 6 3 7 4 8 5 3 6 2 7 1 8
REMARK H PARENT
REMARK Flexibility Score: inf
ROOT
ATOM      1  C   UNL     1      45.996  26.821   6.303  1.00  0.00     0.006 C 
ENDROOT
BRANCH   1   2
ATOM      2  C   UNL     1      46.606  26.024   5.139  1.00  0.00     0.053 C 
BRANCH   2   3
ATOM      3  C   UNL     1      45.734  26.050   3.922  1.00  0.00     0.041 C 
ATOM      4  O   UNL     1      45.260  27.139   3.505  1.00  0.00    -0.550 OA
ATOM      5  O   UNL     1      45.417  24.866   3.267  1.00  0.00    -0.550 OA
ENDBRANCH   2   3
ENDBRANCH   1   2
BRANCH   1   6
ATOM      6  C   UNL     1      46.078  26.112   7.668  1.00  0.00     0.000 C 
BRANCH   6   7
ATOM      7  C   UNL     1      45.261  26.822   8.756  1.00  0.00    -0.003 C 
ATOM      8  C   UNL     1      45.152  28.318   8.474  1.00  0.00     0.004 C 
ENDBRANCH   6   7
ENDBRANCH   1   6
TORSDOF 4
ENDMDL
