MODEL 1
REMARK VINA RESULT:    -8.963      0.000      0.000
REMARK INTER + INTRA:         -13.865
REMARK INTER:                 -12.369
REMARK INTRA:                  -1.497
REMARK UNBOUND:                -1.497
REMARK SMILES CC[C@@H](CC[C@H](C)[C@@H]1CC[C@@H]2[C@H]3CC=C4C[C@H](O)CC[C@]4(C)[C@H]3CC[C@]21C)C(C)C
REMARK SMILES IDX 5 1 4 2 3 3 2 4 1 5 28 6 29 7 30 8 6 9 7 10 8 11 9 12 26 13
REMARK SMILES IDX 10 14 11 15 25 16 27 17 12 18 24 19 23 20 13 21 21 22 14 23
REMARK SMILES IDX 15 24 20 25 22 26 16 27 19 28 17 29 18 30
REMARK H PARENT 18 31
REMARK Flexibility Score: inf
ROOT
ATOM      1  C   UNL     1     -12.057 -34.984  -9.989  1.00  0.00     0.004 C 
ENDROOT
BRANCH   1   2
ATOM      2  C   UNL     1     -12.815 -35.852 -11.027  1.00  0.00     0.004 C 
BRANCH   2   3
ATOM      3  C   UNL     1     -13.354 -35.093 -12.273  1.00  0.00    -0.009 C 
BRANCH   3   4
ATOM      4  C   UNL     1     -14.914 -35.051 -12.310  1.00  0.00     0.000 C 
ATOM      5  C   UNL     1     -15.545 -34.244 -13.455  1.00  0.00     0.004 C 
ENDBRANCH   3   4
BRANCH   3   6
ATOM      6  C   UNL     1     -12.683 -35.545 -13.619  1.00  0.00    -0.014 C 
ATOM      7  C   UNL     1     -11.888 -34.446 -14.338  1.00  0.00     0.007 C 
ATOM      8  C   UNL     1     -11.799 -36.790 -13.428  1.00  0.00     0.007 C 
ENDBRANCH   3   6
ENDBRANCH   2   3
ENDBRANCH   1   2
BRANCH   1   9
ATOM      9  C   UNL     1     -10.615 -34.572 -10.416  1.00  0.00    -0.011 C 
ATOM     10  C   UNL     1      -9.588 -34.828  -9.288  1.00  0.00     0.008 C 
BRANCH   9  11
ATOM     11  C   UNL     1     -10.584 -33.142 -11.069  1.00  0.00    -0.002 C 
ATOM     12  C   UNL     1      -9.155 -32.563 -11.241  1.00  0.00     0.005 C 
ATOM     13  C   UNL     1     -11.441 -31.962 -10.505  1.00  0.00    -0.026 C 
ATOM     14  C   UNL     1      -9.289 -31.038 -11.149  1.00  0.00     0.005 C 
ATOM     15  C   UNL     1     -10.791 -30.781 -11.239  1.00  0.00    -0.001 C 
ATOM     16  C   UNL     1     -12.920 -31.968 -10.935  1.00  0.00     0.007 C 
ATOM     17  C   UNL     1     -11.331 -31.854  -8.957  1.00  0.00     0.012 C 
ATOM     18  C   UNL     1     -11.304 -29.394 -10.794  1.00  0.00     0.000 C 
ATOM     19  C   UNL     1     -13.636 -30.650 -10.562  1.00  0.00     0.005 C 
ATOM     20  C   UNL     1     -12.878 -29.302 -10.874  1.00  0.00     0.003 C 
ATOM     21  C   UNL     1     -10.567 -28.284 -11.585  1.00  0.00     0.031 C 
ATOM     22  C   UNL     1     -13.440 -28.483 -12.109  1.00  0.00    -0.008 C 
ATOM     23  C   UNL     1     -11.390 -27.064 -11.846  1.00  0.00    -0.027 C 
ATOM     24  C   UNL     1     -12.692 -27.140 -12.182  1.00  0.00    -0.065 C 
ATOM     25  C   UNL     1     -14.978 -28.225 -11.902  1.00  0.00     0.014 C 
ATOM     26  C   UNL     1     -13.235 -29.246 -13.436  1.00  0.00     0.016 C 
ATOM     27  C   UNL     1     -13.320 -25.920 -12.826  1.00  0.00     0.063 C 
ATOM     28  C   UNL     1     -15.559 -27.063 -12.716  1.00  0.00     0.033 C 
ATOM     29  C   UNL     1     -14.801 -25.759 -12.471  1.00  0.00     0.118 C 
BRANCH  29  30
ATOM     30  O   UNL     1     -14.984 -25.293 -11.155  1.00  0.00    -0.393 OA
ATOM     31  H   UNL     1     -15.563 -24.487 -11.180  1.00  0.00     0.210 HD
ENDBRANCH  29  30
ENDBRANCH   9  11
ENDBRANCH   1   9
TORSDOF 7
ENDMDL
MODEL 2
REMARK VINA RESULT:    -8.780      0.592      1.455
REMARK INTER + INTRA:         -13.612
REMARK INTER:                 -12.344
REMARK INTRA:                  -1.268
REMARK UNBOUND:                -1.497
REMARK SMILES CC[C@@H](CC[C@H](C)[C@@H]1CC[C@@H]2[C@H]3CC=C4C[C@H](O)CC[C@]4(C)[C@H]3CC[C@]21C)C(C)C
REMARK SMILES IDX 5 1 4 2 3 3 2 4 1 5 28 6 29 7 30 8 6 9 7 10 8 11 9 12 26 13
REMARK SMILES IDX 10 14 11 15 25 16 27 17 12 18 24 19 23 20 13 21 21 22 14 23
REMARK SMILES IDX 15 24 20 25 22 26 16 27 19 28 17 29 18 30
REMARK H PARENT 18 31
REMARK Flexibility Score: inf
ROOT
ATOM      1  C   UNL     1     -12.063 -35.320 -10.651  1.00  0.00     0.004 C 
ENDROOT
BRANCH   1   2
ATOM      2  C   UNL     1     -12.537 -36.373 -11.687  1.00  0.00     0.004 C 
BRANCH   2   3
ATOM      3  C   UNL     1     -13.485 -35.842 -12.799  1.00  0.00    -0.009 C 
BRANCH   3   4
ATOM      4  C   UNL     1     -12.766 -34.850 -13.767  1.00  0.00     0.000 C 
ATOM      5  C   UNL     1     -12.769 -35.231 -15.255  1.00  0.00     0.004 C 
ENDBRANCH   3   4
BRANCH   3   6
ATOM      6  C   UNL     1     -14.866 -35.331 -12.252  1.00  0.00    -0.014 C 
ATOM      7  C   UNL     1     -15.597 -34.348 -13.176  1.00  0.00     0.007 C 
ATOM      8  C   UNL     1     -15.801 -36.496 -11.882  1.00  0.00     0.007 C 
ENDBRANCH   3   6
ENDBRANCH   2   3
ENDBRANCH   1   2
BRANCH   1   9
ATOM      9  C   UNL     1     -10.594 -34.837 -10.842  1.00  0.00    -0.011 C 
ATOM     10  C   UNL     1      -9.711 -35.187  -9.620  1.00  0.00     0.008 C 
BRANCH   9  11
ATOM     11  C   UNL     1     -10.527 -33.346 -11.338  1.00  0.00    -0.002 C 
ATOM     12  C   UNL     1      -9.091 -32.761 -11.374  1.00  0.00     0.005 C 
ATOM     13  C   UNL     1     -11.412 -32.227 -10.697  1.00  0.00    -0.026 C 
ATOM     14  C   UNL     1      -9.230 -31.253 -11.128  1.00  0.00     0.005 C 
ATOM     15  C   UNL     1     -10.724 -30.979 -11.268  1.00  0.00    -0.001 C 
ATOM     16  C   UNL     1     -12.867 -32.179 -11.202  1.00  0.00     0.007 C 
ATOM     17  C   UNL     1     -11.382 -32.283  -9.143  1.00  0.00     0.012 C 
ATOM     18  C   UNL     1     -11.258 -29.644 -10.706  1.00  0.00     0.000 C 
ATOM     19  C   UNL     1     -13.600 -30.904 -10.729  1.00  0.00     0.005 C 
ATOM     20  C   UNL     1     -12.827 -29.534 -10.858  1.00  0.00     0.003 C 
ATOM     21  C   UNL     1     -10.481 -28.461 -11.337  1.00  0.00     0.031 C 
ATOM     22  C   UNL     1     -13.323 -28.586 -12.027  1.00  0.00    -0.008 C 
ATOM     23  C   UNL     1     -11.289 -27.215 -11.510  1.00  0.00    -0.027 C 
ATOM     24  C   UNL     1     -12.572 -27.248 -11.919  1.00  0.00    -0.065 C 
ATOM     25  C   UNL     1     -14.870 -28.343 -11.874  1.00  0.00     0.014 C 
ATOM     26  C   UNL     1     -13.049 -29.206 -13.415  1.00  0.00     0.016 C 
ATOM     27  C   UNL     1     -13.165 -25.963 -12.463  1.00  0.00     0.063 C 
ATOM     28  C   UNL     1     -15.407 -27.098 -12.589  1.00  0.00     0.033 C 
ATOM     29  C   UNL     1     -14.662 -25.832 -12.169  1.00  0.00     0.118 C 
BRANCH  29  30
ATOM     30  O   UNL     1     -14.912 -25.505 -10.822  1.00  0.00    -0.393 OA
ATOM     31  H   UNL     1     -15.525 -24.724 -10.792  1.00  0.00     0.210 HD
ENDBRANCH  29  30
ENDBRANCH   9  11
ENDBRANCH   1   9
TORSDOF 7
ENDMDL
MODEL 3
REMARK VINA RESULT:    -8.121      2.636      7.254
REMARK INTER + INTRA:         -12.704
REMARK INTER:                 -11.937
REMARK INTRA:                  -0.767
REMARK UNBOUND:                -1.497
REMARK SMILES CC[C@@H](CC[C@H](C)[C@@H]1CC[C@@H]2[C@H]3CC=C4C[C@H](O)CC[C@]4(C)[C@H]3CC[C@]21C)C(C)C
REMARK SMILES IDX 5 1 4 2 3 3 2 4 1 5 28 6 29 7 30 8 6 9 7 10 8 11 9 12 26 13
REMARK SMILES IDX 10 14 11 15 25 16 27 17 12 18 24 19 23 20 13 21 21 22 14 23
REMARK SMILES IDX 15 24 20 25 22 26 16 27 19 28 17 29 18 30
REMARK H PARENT 18 31
REMARK Flexibility Score: inf
ROOT
ATOM      1  C   UNL     1     -10.341 -28.225 -11.070  1.00  0.00     0.004 C 
ENDROOT
BRANCH   1   2
ATOM      2  C   UNL     1     -11.278 -26.991 -11.137  1.00  0.00     0.004 C 
BRANCH   2   3
ATOM      3  C   UNL     1     -12.449 -27.090 -12.156  1.00  0.00    -0.009 C 
BRANCH   3   4
ATOM      4  C   UNL     1     -12.209 -26.204 -13.419  1.00  0.00     0.000 C 
ATOM      5  C   UNL     1     -12.933 -26.640 -14.702  1.00  0.00     0.004 C 
ENDBRANCH   3   4
BRANCH   3   6
ATOM      6  C   UNL     1     -13.865 -26.920 -11.500  1.00  0.00    -0.014 C 
ATOM      7  C   UNL     1     -14.507 -25.542 -11.712  1.00  0.00     0.007 C 
ATOM      8  C   UNL     1     -14.839 -28.025 -11.947  1.00  0.00     0.007 C 
ENDBRANCH   3   6
ENDBRANCH   2   3
ENDBRANCH   1   2
BRANCH   1   9
ATOM      9  C   UNL     1     -10.797 -29.332 -10.072  1.00  0.00    -0.011 C 
ATOM     10  C   UNL     1     -10.063 -29.218  -8.714  1.00  0.00     0.008 C 
BRANCH   9  11
ATOM     11  C   UNL     1     -10.800 -30.757 -10.739  1.00  0.00    -0.002 C 
ATOM     12  C   UNL     1      -9.478 -31.108 -11.471  1.00  0.00     0.005 C 
ATOM     13  C   UNL     1     -11.941 -31.208 -11.709  1.00  0.00    -0.026 C 
ATOM     14  C   UNL     1      -9.854 -32.058 -12.615  1.00  0.00     0.005 C 
ATOM     15  C   UNL     1     -11.297 -32.460 -12.319  1.00  0.00    -0.001 C 
ATOM     16  C   UNL     1     -13.231 -31.687 -11.017  1.00  0.00     0.007 C 
ATOM     17  C   UNL     1     -12.269 -30.113 -12.765  1.00  0.00     0.012 C 
ATOM     18  C   UNL     1     -12.107 -33.098 -13.468  1.00  0.00     0.000 C 
ATOM     19  C   UNL     1     -14.206 -32.355 -12.014  1.00  0.00     0.005 C 
ATOM     20  C   UNL     1     -13.597 -33.392 -13.036  1.00  0.00     0.003 C 
ATOM     21  C   UNL     1     -11.355 -34.336 -14.016  1.00  0.00     0.031 C 
ATOM     22  C   UNL     1     -13.918 -34.913 -12.726  1.00  0.00    -0.008 C 
ATOM     23  C   UNL     1     -12.246 -35.425 -14.522  1.00  0.00    -0.027 C 
ATOM     24  C   UNL     1     -13.383 -35.768 -13.888  1.00  0.00    -0.065 C 
ATOM     25  C   UNL     1     -15.476 -35.097 -12.602  1.00  0.00     0.014 C 
ATOM     26  C   UNL     1     -13.253 -35.376 -11.412  1.00  0.00     0.016 C 
ATOM     27  C   UNL     1     -13.986 -37.120 -14.215  1.00  0.00     0.063 C 
ATOM     28  C   UNL     1     -15.979 -36.532 -12.797  1.00  0.00     0.033 C 
ATOM     29  C   UNL     1     -15.514 -37.125 -14.127  1.00  0.00     0.118 C 
BRANCH  29  30
ATOM     30  O   UNL     1     -16.112 -36.471 -15.222  1.00  0.00    -0.393 OA
ATOM     31  H   UNL     1     -17.017 -36.854 -15.366  1.00  0.00     0.210 HD
ENDBRANCH  29  30
ENDBRANCH   9  11
ENDBRANCH   1   9
TORSDOF 7
ENDMDL
MODEL 4
REMARK VINA RESULT:    -8.010      2.652      7.124
REMARK INTER + INTRA:         -12.550
REMARK INTER:                 -11.367
REMARK INTRA:                  -1.183
REMARK UNBOUND:                -1.497
REMARK SMILES CC[C@@H](CC[C@H](C)[C@@H]1CC[C@@H]2[C@H]3CC=C4C[C@H](O)CC[C@]4(C)[C@H]3CC[C@]21C)C(C)C
REMARK SMILES IDX 5 1 4 2 3 3 2 4 1 5 28 6 29 7 30 8 6 9 7 10 8 11 9 12 26 13
REMARK SMILES IDX 10 14 11 15 25 16 27 17 12 18 24 19 23 20 13 21 21 22 14 23
REMARK SMILES IDX 15 24 20 25 22 26 16 27 19 28 17 29 18 30
REMARK H PARENT 18 31
REMARK Flexibility Score: inf
ROOT
ATOM      1  C   UNL     1     -10.200 -27.731 -11.128  1.00  0.00     0.004 C 
ENDROOT
BRANCH   1   2
ATOM      2  C   UNL     1     -11.230 -26.623 -11.472  1.00  0.00     0.004 C 
BRANCH   2   3
ATOM      3  C   UNL     1     -12.448 -27.078 -12.325  1.00  0.00    -0.009 C 
BRANCH   3   4
ATOM      4  C   UNL     1     -12.576 -26.267 -13.652  1.00  0.00     0.000 C 
ATOM      5  C   UNL     1     -13.307 -26.966 -14.809  1.00  0.00     0.004 C 
ENDBRANCH   3   4
BRANCH   3   6
ATOM      6  C   UNL     1     -13.779 -27.195 -11.502  1.00  0.00    -0.014 C 
ATOM      7  C   UNL     1     -14.773 -26.047 -11.725  1.00  0.00     0.007 C 
ATOM      8  C   UNL     1     -14.480 -28.546 -11.734  1.00  0.00     0.007 C 
ENDBRANCH   3   6
ENDBRANCH   2   3
ENDBRANCH   1   2
BRANCH   1   9
ATOM      9  C   UNL     1     -10.255 -28.233  -9.653  1.00  0.00    -0.011 C 
ATOM     10  C   UNL     1      -8.876 -28.127  -8.959  1.00  0.00     0.008 C 
BRANCH   9  11
ATOM     11  C   UNL     1     -10.985 -29.621  -9.534  1.00  0.00    -0.002 C 
ATOM     12  C   UNL     1     -10.834 -30.291  -8.144  1.00  0.00     0.005 C 
ATOM     13  C   UNL     1     -10.746 -30.766 -10.572  1.00  0.00    -0.026 C 
ATOM     14  C   UNL     1     -10.894 -31.805  -8.382  1.00  0.00     0.005 C 
ATOM     15  C   UNL     1     -11.379 -31.946  -9.822  1.00  0.00    -0.001 C 
ATOM     16  C   UNL     1     -11.534 -30.627 -11.889  1.00  0.00     0.007 C 
ATOM     17  C   UNL     1      -9.233 -30.973 -10.869  1.00  0.00     0.012 C 
ATOM     18  C   UNL     1     -11.184 -33.316 -10.507  1.00  0.00     0.000 C 
ATOM     19  C   UNL     1     -11.454 -31.909 -12.748  1.00  0.00     0.005 C 
ATOM     20  C   UNL     1     -11.666 -33.288 -12.011  1.00  0.00     0.003 C 
ATOM     21  C   UNL     1     -11.845 -34.428  -9.655  1.00  0.00     0.031 C 
ATOM     22  C   UNL     1     -13.060 -33.990 -12.281  1.00  0.00    -0.008 C 
ATOM     23  C   UNL     1     -12.397 -35.568 -10.450  1.00  0.00    -0.027 C 
ATOM     24  C   UNL     1     -13.043 -35.378 -11.615  1.00  0.00    -0.065 C 
ATOM     25  C   UNL     1     -13.268 -34.147 -13.833  1.00  0.00     0.014 C 
ATOM     26  C   UNL     1     -14.231 -33.168 -11.701  1.00  0.00     0.016 C 
ATOM     27  C   UNL     1     -13.915 -36.508 -12.124  1.00  0.00     0.063 C 
ATOM     28  C   UNL     1     -14.288 -35.214 -14.249  1.00  0.00     0.033 C 
ATOM     29  C   UNL     1     -13.958 -36.582 -13.653  1.00  0.00     0.118 C 
BRANCH  29  30
ATOM     30  O   UNL     1     -12.769 -37.110 -14.193  1.00  0.00    -0.393 OA
ATOM     31  H   UNL     1     -12.199 -36.359 -14.503  1.00  0.00     0.210 HD
ENDBRANCH  29  30
ENDBRANCH   9  11
ENDBRANCH   1   9
TORSDOF 7
ENDMDL
MODEL 5
REMARK VINA RESULT:    -7.596      2.750      7.961
REMARK INTER + INTRA:         -11.979
REMARK INTER:                 -10.608
REMARK INTRA:                  -1.371
REMARK UNBOUND:                -1.497
REMARK SMILES CC[C@@H](CC[C@H](C)[C@@H]1CC[C@@H]2[C@H]3CC=C4C[C@H](O)CC[C@]4(C)[C@H]3CC[C@]21C)C(C)C
REMARK SMILES IDX 5 1 4 2 3 3 2 4 1 5 28 6 29 7 30 8 6 9 7 10 8 11 9 12 26 13
REMARK SMILES IDX 10 14 11 15 25 16 27 17 12 18 24 19 23 20 13 21 21 22 14 23
REMARK SMILES IDX 15 24 20 25 22 26 16 27 19 28 17 29 18 30
REMARK H PARENT 18 31
REMARK Flexibility Score: inf
ROOT
ATOM      1  C   UNL     1     -14.981 -26.929 -11.233  1.00  0.00     0.004 C 
ENDROOT
BRANCH   1   2
ATOM      2  C   UNL     1     -13.789 -25.978 -11.520  1.00  0.00     0.004 C 
BRANCH   2   3
ATOM      3  C   UNL     1     -12.924 -26.340 -12.761  1.00  0.00    -0.009 C 
BRANCH   3   4
ATOM      4  C   UNL     1     -11.395 -26.288 -12.452  1.00  0.00     0.000 C 
ATOM      5  C   UNL     1     -10.984 -26.606 -11.005  1.00  0.00     0.004 C 
ENDBRANCH   3   4
BRANCH   3   6
ATOM      6  C   UNL     1     -13.351 -25.575 -14.065  1.00  0.00    -0.014 C 
ATOM      7  C   UNL     1     -13.717 -26.482 -15.248  1.00  0.00     0.007 C 
ATOM      8  C   UNL     1     -14.494 -24.580 -13.796  1.00  0.00     0.007 C 
ENDBRANCH   3   6
ENDBRANCH   2   3
ENDBRANCH   1   2
BRANCH   1   9
ATOM      9  C   UNL     1     -15.102 -28.133 -12.216  1.00  0.00    -0.011 C 
ATOM     10  C   UNL     1     -16.488 -28.176 -12.902  1.00  0.00     0.008 C 
BRANCH   9  11
ATOM     11  C   UNL     1     -14.614 -29.476 -11.559  1.00  0.00    -0.002 C 
ATOM     12  C   UNL     1     -14.291 -29.353 -10.047  1.00  0.00     0.005 C 
ATOM     13  C   UNL     1     -13.434 -30.306 -12.165  1.00  0.00    -0.026 C 
ATOM     14  C   UNL     1     -13.197 -30.386  -9.750  1.00  0.00     0.005 C 
ATOM     15  C   UNL     1     -13.150 -31.261 -10.999  1.00  0.00    -0.001 C 
ATOM     16  C   UNL     1     -13.815 -31.197 -13.363  1.00  0.00     0.007 C 
ATOM     17  C   UNL     1     -12.218 -29.405 -12.528  1.00  0.00     0.012 C 
ATOM     18  C   UNL     1     -11.905 -32.154 -11.195  1.00  0.00     0.000 C 
ATOM     19  C   UNL     1     -12.677 -32.173 -13.740  1.00  0.00     0.005 C 
ATOM     20  C   UNL     1     -11.965 -32.944 -12.562  1.00  0.00     0.003 C 
ATOM     21  C   UNL     1     -11.707 -33.059  -9.953  1.00  0.00     0.031 C 
ATOM     22  C   UNL     1     -12.341 -34.478 -12.434  1.00  0.00    -0.008 C 
ATOM     23  C   UNL     1     -11.106 -34.394 -10.254  1.00  0.00    -0.027 C 
ATOM     24  C   UNL     1     -11.457 -35.106 -11.342  1.00  0.00    -0.065 C 
ATOM     25  C   UNL     1     -12.076 -35.192 -13.810  1.00  0.00     0.014 C 
ATOM     26  C   UNL     1     -13.825 -34.667 -12.050  1.00  0.00     0.016 C 
ATOM     27  C   UNL     1     -11.131 -36.586 -11.345  1.00  0.00     0.063 C 
ATOM     28  C   UNL     1     -11.912 -36.714 -13.733  1.00  0.00     0.033 C 
ATOM     29  C   UNL     1     -10.819 -37.121 -12.746  1.00  0.00     0.118 C 
BRANCH  29  30
ATOM     30  O   UNL     1      -9.543 -36.728 -13.193  1.00  0.00    -0.393 OA
ATOM     31  H   UNL     1      -9.577 -36.595 -14.176  1.00  0.00     0.210 HD
ENDBRANCH  29  30
ENDBRANCH   9  11
ENDBRANCH   1   9
TORSDOF 7
ENDMDL
MODEL 6
REMARK VINA RESULT:    -7.541      1.608      3.970
REMARK INTER + INTRA:         -11.904
REMARK INTER:                 -10.486
REMARK INTRA:                  -1.418
REMARK UNBOUND:                -1.497
REMARK SMILES CC[C@@H](CC[C@H](C)[C@@H]1CC[C@@H]2[C@H]3CC=C4C[C@H](O)CC[C@]4(C)[C@H]3CC[C@]21C)C(C)C
REMARK SMILES IDX 5 1 4 2 3 3 2 4 1 5 28 6 29 7 30 8 6 9 7 10 8 11 9 12 26 13
REMARK SMILES IDX 10 14 11 15 25 16 27 17 12 18 24 19 23 20 13 21 21 22 14 23
REMARK SMILES IDX 15 24 20 25 22 26 16 27 19 28 17 29 18 30
REMARK H PARENT 18 31
REMARK Flexibility Score: inf
ROOT
ATOM      1  C   UNL     1     -10.901 -35.489 -12.468  1.00  0.00     0.004 C 
ENDROOT
BRANCH   1   2
ATOM      2  C   UNL     1      -9.729 -34.537 -12.112  1.00  0.00     0.004 C 
BRANCH   2   3
ATOM      3  C   UNL     1      -9.172 -34.668 -10.666  1.00  0.00    -0.009 C 
BRANCH   3   4
ATOM      4  C   UNL     1     -10.002 -35.667  -9.801  1.00  0.00     0.000 C 
ATOM      5  C   UNL     1      -9.512 -37.124  -9.787  1.00  0.00     0.004 C 
ENDBRANCH   3   4
BRANCH   3   6
ATOM      6  C   UNL     1      -8.892 -33.285  -9.976  1.00  0.00    -0.014 C 
ATOM      7  C   UNL     1      -9.327 -32.062 -10.795  1.00  0.00     0.007 C 
ATOM      8  C   UNL     1      -9.504 -33.215  -8.565  1.00  0.00     0.007 C 
ENDBRANCH   3   6
ENDBRANCH   2   3
ENDBRANCH   1   2
BRANCH   1   9
ATOM      9  C   UNL     1     -12.195 -34.770 -12.955  1.00  0.00    -0.011 C 
ATOM     10  C   UNL     1     -12.306 -34.771 -14.498  1.00  0.00     0.008 C 
BRANCH   9  11
ATOM     11  C   UNL     1     -12.394 -33.379 -12.248  1.00  0.00    -0.002 C 
ATOM     12  C   UNL     1     -12.914 -33.485 -10.791  1.00  0.00     0.005 C 
ATOM     13  C   UNL     1     -13.238 -32.237 -12.905  1.00  0.00    -0.026 C 
ATOM     14  C   UNL     1     -13.731 -32.214 -10.527  1.00  0.00     0.005 C 
ATOM     15  C   UNL     1     -13.402 -31.298 -11.702  1.00  0.00    -0.001 C 
ATOM     16  C   UNL     1     -12.501 -31.422 -13.984  1.00  0.00     0.007 C 
ATOM     17  C   UNL     1     -14.594 -32.763 -13.458  1.00  0.00     0.012 C 
ATOM     18  C   UNL     1     -14.341 -30.098 -11.954  1.00  0.00     0.000 C 
ATOM     19  C   UNL     1     -13.294 -30.162 -14.398  1.00  0.00     0.005 C 
ATOM     20  C   UNL     1     -13.918 -29.288 -13.241  1.00  0.00     0.003 C 
ATOM     21  C   UNL     1     -14.444 -29.235 -10.671  1.00  0.00     0.031 C 
ATOM     22  C   UNL     1     -13.175 -27.917 -12.956  1.00  0.00    -0.008 C 
ATOM     23  C   UNL     1     -14.638 -27.775 -10.926  1.00  0.00    -0.027 C 
ATOM     24  C   UNL     1     -13.990 -27.130 -11.914  1.00  0.00    -0.065 C 
ATOM     25  C   UNL     1     -13.081 -27.092 -14.292  1.00  0.00     0.014 C 
ATOM     26  C   UNL     1     -11.749 -28.148 -12.410  1.00  0.00     0.016 C 
ATOM     27  C   UNL     1     -13.919 -25.618 -11.835  1.00  0.00     0.063 C 
ATOM     28  C   UNL     1     -12.854 -25.586 -14.114  1.00  0.00     0.033 C 
ATOM     29  C   UNL     1     -13.913 -24.952 -13.214  1.00  0.00     0.118 C 
BRANCH  29  30
ATOM     30  O   UNL     1     -15.186 -24.969 -13.817  1.00  0.00    -0.393 OA
ATOM     31  H   UNL     1     -15.837 -24.545 -13.199  1.00  0.00     0.210 HD
ENDBRANCH  29  30
ENDBRANCH   9  11
ENDBRANCH   1   9
TORSDOF 7
ENDMDL
MODEL 7
REMARK VINA RESULT:    -7.295      1.605      3.136
REMARK INTER + INTRA:         -11.563
REMARK INTER:                 -10.435
REMARK INTRA:                  -1.128
REMARK UNBOUND:                -1.497
REMARK SMILES CC[C@@H](CC[C@H](C)[C@@H]1CC[C@@H]2[C@H]3CC=C4C[C@H](O)CC[C@]4(C)[C@H]3CC[C@]21C)C(C)C
REMARK SMILES IDX 5 1 4 2 3 3 2 4 1 5 28 6 29 7 30 8 6 9 7 10 8 11 9 12 26 13
REMARK SMILES IDX 10 14 11 15 25 16 27 17 12 18 24 19 23 20 13 21 21 22 14 23
REMARK SMILES IDX 15 24 20 25 22 26 16 27 19 28 17 29 18 30
REMARK H PARENT 18 31
REMARK Flexibility Score: inf
ROOT
ATOM      1  C   UNL     1     -13.382 -35.929 -13.220  1.00  0.00     0.004 C 
ENDROOT
BRANCH   1   2
ATOM      2  C   UNL     1     -12.057 -36.732 -13.137  1.00  0.00     0.004 C 
BRANCH   2   3
ATOM      3  C   UNL     1     -11.544 -37.038 -11.701  1.00  0.00    -0.009 C 
BRANCH   3   4
ATOM      4  C   UNL     1     -12.349 -36.265 -10.610  1.00  0.00     0.000 C 
ATOM      5  C   UNL     1     -13.203 -37.121  -9.662  1.00  0.00     0.004 C 
ENDBRANCH   3   4
BRANCH   3   6
ATOM      6  C   UNL     1      -9.984 -36.931 -11.559  1.00  0.00    -0.014 C 
ATOM      7  C   UNL     1      -9.244 -36.599 -12.862  1.00  0.00     0.007 C 
ATOM      8  C   UNL     1      -9.576 -35.936 -10.458  1.00  0.00     0.007 C 
ENDBRANCH   3   6
ENDBRANCH   2   3
ENDBRANCH   1   2
BRANCH   1   9
ATOM      9  C   UNL     1     -13.475 -34.955 -14.433  1.00  0.00    -0.011 C 
ATOM     10  C   UNL     1     -13.002 -35.625 -15.745  1.00  0.00     0.008 C 
BRANCH   9  11
ATOM     11  C   UNL     1     -12.844 -33.552 -14.106  1.00  0.00    -0.002 C 
ATOM     12  C   UNL     1     -11.388 -33.627 -13.576  1.00  0.00     0.005 C 
ATOM     13  C   UNL     1     -13.567 -32.521 -13.178  1.00  0.00    -0.026 C 
ATOM     14  C   UNL     1     -11.198 -32.419 -12.651  1.00  0.00     0.005 C 
ATOM     15  C   UNL     1     -12.416 -31.539 -12.917  1.00  0.00    -0.001 C 
ATOM     16  C   UNL     1     -14.680 -31.702 -13.858  1.00  0.00     0.007 C 
ATOM     17  C   UNL     1     -14.105 -33.189 -11.880  1.00  0.00     0.012 C 
ATOM     18  C   UNL     1     -12.739 -30.439 -11.883  1.00  0.00     0.000 C 
ATOM     19  C   UNL     1     -15.166 -30.537 -12.966  1.00  0.00     0.005 C 
ATOM     20  C   UNL     1     -14.063 -29.662 -12.254  1.00  0.00     0.003 C 
ATOM     21  C   UNL     1     -11.504 -29.524 -11.689  1.00  0.00     0.031 C 
ATOM     22  C   UNL     1     -13.842 -28.220 -12.873  1.00  0.00    -0.008 C 
ATOM     23  C   UNL     1     -11.837 -28.100 -11.374  1.00  0.00    -0.027 C 
ATOM     24  C   UNL     1     -12.851 -27.454 -11.979  1.00  0.00    -0.065 C 
ATOM     25  C   UNL     1     -15.219 -27.459 -12.915  1.00  0.00     0.014 C 
ATOM     26  C   UNL     1     -13.270 -28.299 -14.305  1.00  0.00     0.016 C 
ATOM     27  C   UNL     1     -12.849 -25.939 -11.920  1.00  0.00     0.063 C 
ATOM     28  C   UNL     1     -15.116 -25.932 -13.011  1.00  0.00     0.033 C 
ATOM     29  C   UNL     1     -14.261 -25.346 -11.889  1.00  0.00     0.118 C 
BRANCH  29  30
ATOM     30  O   UNL     1     -14.875 -25.503 -10.631  1.00  0.00    -0.393 OA
ATOM     31  H   UNL     1     -14.310 -26.099 -10.073  1.00  0.00     0.210 HD
ENDBRANCH  29  30
ENDBRANCH   9  11
ENDBRANCH   1   9
TORSDOF 7
ENDMDL
MODEL 8
REMARK VINA RESULT:    -7.229      1.842      3.273
REMARK INTER + INTRA:         -11.473
REMARK INTER:                 -10.993
REMARK INTRA:                  -0.480
REMARK UNBOUND:                -1.497
REMARK SMILES CC[C@@H](CC[C@H](C)[C@@H]1CC[C@@H]2[C@H]3CC=C4C[C@H](O)CC[C@]4(C)[C@H]3CC[C@]21C)C(C)C
REMARK SMILES IDX 5 1 4 2 3 3 2 4 1 5 28 6 29 7 30 8 6 9 7 10 8 11 9 12 26 13
REMARK SMILES IDX 10 14 11 15 25 16 27 17 12 18 24 19 23 20 13 21 21 22 14 23
REMARK SMILES IDX 15 24 20 25 22 26 16 27 19 28 17 29 18 30
REMARK H PARENT 18 31
REMARK Flexibility Score: inf
ROOT
ATOM      1  C   UNL     1     -12.599 -35.198 -13.930  1.00  0.00     0.004 C 
ENDROOT
BRANCH   1   2
ATOM      2  C   UNL     1     -13.105 -36.645 -14.171  1.00  0.00     0.004 C 
BRANCH   2   3
ATOM      3  C   UNL     1     -14.560 -36.767 -14.707  1.00  0.00    -0.009 C 
BRANCH   3   4
ATOM      4  C   UNL     1     -14.960 -35.560 -15.613  1.00  0.00     0.000 C 
ATOM      5  C   UNL     1     -14.221 -35.444 -16.955  1.00  0.00     0.004 C 
ENDBRANCH   3   4
BRANCH   3   6
ATOM      6  C   UNL     1     -15.609 -37.121 -13.593  1.00  0.00    -0.014 C 
ATOM      7  C   UNL     1     -15.308 -36.515 -12.216  1.00  0.00     0.007 C 
ATOM      8  C   UNL     1     -17.043 -36.761 -14.022  1.00  0.00     0.007 C 
ENDBRANCH   3   6
ENDBRANCH   2   3
ENDBRANCH   1   2
BRANCH   1   9
ATOM      9  C   UNL     1     -11.752 -35.015 -12.634  1.00  0.00    -0.011 C 
ATOM     10  C   UNL     1     -11.836 -36.257 -11.714  1.00  0.00     0.008 C 
BRANCH   9  11
ATOM     11  C   UNL     1     -12.025 -33.627 -11.948  1.00  0.00    -0.002 C 
ATOM     12  C   UNL     1     -12.533 -33.739 -10.486  1.00  0.00     0.005 C 
ATOM     13  C   UNL     1     -12.934 -32.544 -12.617  1.00  0.00    -0.026 C 
ATOM     14  C   UNL     1     -13.418 -32.512 -10.237  1.00  0.00     0.005 C 
ATOM     15  C   UNL     1     -13.145 -31.597 -11.428  1.00  0.00    -0.001 C 
ATOM     16  C   UNL     1     -12.249 -31.706 -13.712  1.00  0.00     0.007 C 
ATOM     17  C   UNL     1     -14.261 -33.153 -13.155  1.00  0.00     0.012 C 
ATOM     18  C   UNL     1     -14.151 -30.455 -11.693  1.00  0.00     0.000 C 
ATOM     19  C   UNL     1     -13.113 -30.498 -14.141  1.00  0.00     0.005 C 
ATOM     20  C   UNL     1     -13.779 -29.642 -12.994  1.00  0.00     0.003 C 
ATOM     21  C   UNL     1     -14.297 -29.579 -10.423  1.00  0.00     0.031 C 
ATOM     22  C   UNL     1     -13.113 -28.228 -12.734  1.00  0.00    -0.008 C 
ATOM     23  C   UNL     1     -14.573 -28.136 -10.699  1.00  0.00    -0.027 C 
ATOM     24  C   UNL     1     -13.966 -27.472 -11.700  1.00  0.00    -0.065 C 
ATOM     25  C   UNL     1     -13.071 -27.420 -14.083  1.00  0.00     0.014 C 
ATOM     26  C   UNL     1     -11.674 -28.370 -12.191  1.00  0.00     0.016 C 
ATOM     27  C   UNL     1     -13.979 -25.957 -11.644  1.00  0.00     0.063 C 
ATOM     28  C   UNL     1     -12.927 -25.901 -13.929  1.00  0.00     0.033 C 
ATOM     29  C   UNL     1     -14.016 -25.313 -13.033  1.00  0.00     0.118 C 
BRANCH  29  30
ATOM     30  O   UNL     1     -15.288 -25.411 -13.630  1.00  0.00    -0.393 OA
ATOM     31  H   UNL     1     -15.378 -24.691 -14.307  1.00  0.00     0.210 HD
ENDBRANCH  29  30
ENDBRANCH   9  11
ENDBRANCH   1   9
TORSDOF 7
ENDMDL
MODEL 9
REMARK VINA RESULT:    -7.164      2.659      7.122
REMARK INTER + INTRA:         -11.383
REMARK INTER:                 -10.311
REMARK INTRA:                  -1.072
REMARK UNBOUND:                -1.497
REMARK SMILES CC[C@@H](CC[C@H](C)[C@@H]1CC[C@@H]2[C@H]3CC=C4C[C@H](O)CC[C@]4(C)[C@H]3CC[C@]21C)C(C)C
REMARK SMILES IDX 5 1 4 2 3 3 2 4 1 5 28 6 29 7 30 8 6 9 7 10 8 11 9 12 26 13
REMARK SMILES IDX 10 14 11 15 25 16 27 17 12 18 24 19 23 20 13 21 21 22 14 23
REMARK SMILES IDX 15 24 20 25 22 26 16 27 19 28 17 29 18 30
REMARK H PARENT 18 31
REMARK Flexibility Score: inf
ROOT
ATOM      1  C   UNL     1     -11.137 -29.687  -8.998  1.00  0.00     0.004 C 
ENDROOT
BRANCH   1   2
ATOM      2  C   UNL     1     -10.152 -28.662  -9.619  1.00  0.00     0.004 C 
BRANCH   2   3
ATOM      3  C   UNL     1     -10.614 -28.008 -10.952  1.00  0.00    -0.009 C 
BRANCH   3   4
ATOM      4  C   UNL     1     -10.156 -26.520 -11.071  1.00  0.00     0.000 C 
ATOM      5  C   UNL     1      -9.470 -25.921  -9.833  1.00  0.00     0.004 C 
ENDBRANCH   3   4
BRANCH   3   6
ATOM      6  C   UNL     1     -12.132 -28.250 -11.273  1.00  0.00    -0.014 C 
ATOM      7  C   UNL     1     -13.007 -26.990 -11.213  1.00  0.00     0.007 C 
ATOM      8  C   UNL     1     -12.326 -28.957 -12.627  1.00  0.00     0.007 C 
ENDBRANCH   3   6
ENDBRANCH   2   3
ENDBRANCH   1   2
BRANCH   1   9
ATOM      9  C   UNL     1     -10.454 -30.865  -8.239  1.00  0.00    -0.011 C 
ATOM     10  C   UNL     1      -8.968 -30.563  -7.928  1.00  0.00     0.008 C 
BRANCH   9  11
ATOM     11  C   UNL     1     -10.750 -32.251  -8.921  1.00  0.00    -0.002 C 
ATOM     12  C   UNL     1      -9.715 -33.353  -8.576  1.00  0.00     0.005 C 
ATOM     13  C   UNL     1     -10.985 -32.374 -10.462  1.00  0.00    -0.026 C 
ATOM     14  C   UNL     1      -9.665 -34.296  -9.783  1.00  0.00     0.005 C 
ATOM     15  C   UNL     1     -10.869 -33.895 -10.631  1.00  0.00    -0.001 C 
ATOM     16  C   UNL     1     -12.402 -32.000 -10.936  1.00  0.00     0.007 C 
ATOM     17  C   UNL     1      -9.919 -31.586 -11.276  1.00  0.00     0.012 C 
ATOM     18  C   UNL     1     -10.898 -34.378 -12.098  1.00  0.00     0.000 C 
ATOM     19  C   UNL     1     -12.639 -32.391 -12.413  1.00  0.00     0.005 C 
ATOM     20  C   UNL     1     -12.163 -33.826 -12.866  1.00  0.00     0.003 C 
ATOM     21  C   UNL     1     -10.756 -35.920 -12.145  1.00  0.00     0.031 C 
ATOM     22  C   UNL     1     -13.324 -34.882 -13.092  1.00  0.00    -0.008 C 
ATOM     23  C   UNL     1     -11.481 -36.571 -13.279  1.00  0.00    -0.027 C 
ATOM     24  C   UNL     1     -12.705 -36.168 -13.668  1.00  0.00    -0.065 C 
ATOM     25  C   UNL     1     -14.369 -34.291 -14.109  1.00  0.00     0.014 C 
ATOM     26  C   UNL     1     -14.048 -35.220 -11.771  1.00  0.00     0.016 C 
ATOM     27  C   UNL     1     -13.521 -37.125 -14.515  1.00  0.00     0.063 C 
ATOM     28  C   UNL     1     -15.258 -35.328 -14.805  1.00  0.00     0.033 C 
ATOM     29  C   UNL     1     -14.434 -36.405 -15.511  1.00  0.00     0.118 C 
BRANCH  29  30
ATOM     30  O   UNL     1     -13.718 -35.878 -16.603  1.00  0.00    -0.393 OA
ATOM     31  H   UNL     1     -12.766 -36.146 -16.518  1.00  0.00     0.210 HD
ENDBRANCH  29  30
ENDBRANCH   9  11
ENDBRANCH   1   9
TORSDOF 7
ENDMDL
