MODEL 1
REMARK VINA RESULT:    -4.946      0.000      0.000
REMARK INTER + INTRA:          -5.803
REMARK INTER:                  -5.380
REMARK INTRA:                  -0.424
REMARK UNBOUND:                -0.424
REMARK SMILES C=C1C[C@]2(O)O[C@]3(C[C@@H]2C(C)C)[C@H](C)CC[C@@H]13
REMARK SMILES IDX 14 1 13 2 15 3 16 4 17 5 7 6 8 7 9 8 4 9 6 10 3 11 2 12 1 13
REMARK SMILES IDX 10 14 11 15 12 16 5 17
REMARK H PARENT 5 18
REMARK Flexibility Score: inf
ROOT
ATOM      1  C   UNL     1      41.735  20.914  -0.505  1.00  0.00     0.011 C 
ATOM      2  C   UNL     1      42.607  20.390  -1.659  1.00  0.00     0.019 C 
ATOM      3  C   UNL     1      42.506  21.296  -2.913  1.00  0.00     0.007 C 
ATOM      4  C   UNL     1      41.695  20.529  -3.975  1.00  0.00     0.011 C 
ATOM      5  C   UNL     1      41.097  19.357  -3.211  1.00  0.00     0.047 C 
ATOM      6  C   UNL     1      42.159  19.007  -2.168  1.00  0.00     0.081 C 
ATOM      7  C   UNL     1      43.352  18.200  -2.756  1.00  0.00     0.046 C 
ATOM      8  C   UNL     1      43.042  16.764  -2.356  1.00  0.00     0.054 C 
ATOM      9  C   UNL     1      41.582  16.892  -1.864  1.00  0.00     0.173 C 
ATOM     10  O   UNL     1      41.541  18.160  -1.224  1.00  0.00    -0.342 OA
ATOM     11  C   UNL     1      40.528  16.870  -3.028  1.00  0.00     0.096 C 
ATOM     12  C   UNL     1      40.672  18.095  -3.919  1.00  0.00    -0.066 C 
ATOM     13  C   UNL     1      40.239  18.089  -5.188  1.00  0.00     0.008 C 
ENDROOT
BRANCH   8  14
ATOM     14  C   UNL     1      43.342  15.713  -3.469  1.00  0.00    -0.009 C 
ATOM     15  C   UNL     1      44.355  14.659  -2.987  1.00  0.00     0.008 C 
ATOM     16  C   UNL     1      43.904  16.397  -4.727  1.00  0.00     0.008 C 
ENDBRANCH   8  14
BRANCH   9  17
ATOM     17  O   UNL     1      41.269  15.878  -0.942  1.00  0.00    -0.365 OA
ATOM     18  H   UNL     1      42.036  15.247  -0.920  1.00  0.00     0.214 HD
ENDBRANCH   9  17
TORSDOF 2
ENDMDL
MODEL 2
REMARK VINA RESULT:    -4.657      1.515      2.117
REMARK INTER + INTRA:          -5.489
REMARK INTER:                  -5.084
REMARK INTRA:                  -0.405
REMARK UNBOUND:                -0.424
REMARK SMILES C=C1C[C@]2(O)O[C@]3(C[C@@H]2C(C)C)[C@H](C)CC[C@@H]13
REMARK SMILES IDX 14 1 13 2 15 3 16 4 17 5 7 6 8 7 9 8 4 9 6 10 3 11 2 12 1 13
REMARK SMILES IDX 10 14 11 15 12 16 5 17
REMARK H PARENT 5 18
REMARK Flexibility Score: inf
ROOT
ATOM      1  C   UNL     1      40.054  20.382  -0.492  1.00  0.00     0.011 C 
ATOM      2  C   UNL     1      41.396  19.629  -0.519  1.00  0.00     0.019 C 
ATOM      3  C   UNL     1      42.602  20.603  -0.463  1.00  0.00     0.007 C 
ATOM      4  C   UNL     1      43.261  20.606  -1.857  1.00  0.00     0.011 C 
ATOM      5  C   UNL     1      42.253  19.889  -2.744  1.00  0.00     0.047 C 
ATOM      6  C   UNL     1      41.617  18.845  -1.826  1.00  0.00     0.081 C 
ATOM      7  C   UNL     1      42.520  17.598  -1.599  1.00  0.00     0.046 C 
ATOM      8  C   UNL     1      41.933  16.558  -2.544  1.00  0.00     0.054 C 
ATOM      9  C   UNL     1      40.980  17.425  -3.398  1.00  0.00     0.173 C 
ATOM     10  O   UNL     1      40.459  18.377  -2.480  1.00  0.00    -0.342 OA
ATOM     11  C   UNL     1      41.705  18.181  -4.568  1.00  0.00     0.096 C 
ATOM     12  C   UNL     1      42.678  19.219  -4.027  1.00  0.00    -0.066 C 
ATOM     13  C   UNL     1      43.716  19.648  -4.758  1.00  0.00     0.008 C 
ENDROOT
BRANCH   8  14
ATOM     14  C   UNL     1      43.001  15.703  -3.292  1.00  0.00    -0.009 C 
ATOM     15  C   UNL     1      42.682  14.200  -3.199  1.00  0.00     0.008 C 
ATOM     16  C   UNL     1      44.403  15.946  -2.706  1.00  0.00     0.008 C 
ENDBRANCH   8  14
BRANCH   9  17
ATOM     17  O   UNL     1      39.934  16.650  -3.930  1.00  0.00    -0.365 OA
ATOM     18  H   UNL     1      39.407  17.235  -4.536  1.00  0.00     0.214 HD
ENDBRANCH   9  17
TORSDOF 2
ENDMDL
MODEL 3
REMARK VINA RESULT:    -4.205      6.290      8.772
REMARK INTER + INTRA:          -4.997
REMARK INTER:                  -4.792
REMARK INTRA:                  -0.205
REMARK UNBOUND:                -0.424
REMARK SMILES C=C1C[C@]2(O)O[C@]3(C[C@@H]2C(C)C)[C@H](C)CC[C@@H]13
REMARK SMILES IDX 14 1 13 2 15 3 16 4 17 5 7 6 8 7 9 8 4 9 6 10 3 11 2 12 1 13
REMARK SMILES IDX 10 14 11 15 12 16 5 17
REMARK H PARENT 5 18
REMARK Flexibility Score: inf
ROOT
ATOM      1  C   UNL     1      48.282  10.876  -0.698  1.00  0.00     0.011 C 
ATOM      2  C   UNL     1      47.333  11.919  -1.312  1.00  0.00     0.019 C 
ATOM      3  C   UNL     1      45.972  11.293  -1.713  1.00  0.00     0.007 C 
ATOM      4  C   UNL     1      45.927  11.227  -3.252  1.00  0.00     0.011 C 
ATOM      5  C   UNL     1      47.358  11.522  -3.677  1.00  0.00     0.047 C 
ATOM      6  C   UNL     1      47.867  12.512  -2.629  1.00  0.00     0.081 C 
ATOM      7  C   UNL     1      47.349  13.962  -2.855  1.00  0.00     0.046 C 
ATOM      8  C   UNL     1      48.526  14.660  -3.522  1.00  0.00     0.054 C 
ATOM      9  C   UNL     1      49.439  13.461  -3.864  1.00  0.00     0.173 C 
ATOM     10  O   UNL     1      49.269  12.571  -2.769  1.00  0.00    -0.342 OA
ATOM     11  C   UNL     1      49.032  12.727  -5.191  1.00  0.00     0.096 C 
ATOM     12  C   UNL     1      47.671  12.060  -5.052  1.00  0.00    -0.066 C 
ATOM     13  C   UNL     1      46.916  11.786  -6.124  1.00  0.00     0.008 C 
ENDROOT
BRANCH   8  14
ATOM     14  C   UNL     1      48.124  15.619  -4.684  1.00  0.00    -0.009 C 
ATOM     15  C   UNL     1      49.269  16.585  -5.038  1.00  0.00     0.008 C 
ATOM     16  C   UNL     1      46.882  16.445  -4.304  1.00  0.00     0.008 C 
ENDBRANCH   8  14
BRANCH   9  17
ATOM     17  O   UNL     1      50.784  13.859  -3.954  1.00  0.00    -0.365 OA
ATOM     18  H   UNL     1      51.294  13.105  -4.352  1.00  0.00     0.214 HD
ENDBRANCH   9  17
TORSDOF 2
ENDMDL
MODEL 4
REMARK VINA RESULT:    -3.979      1.832      4.490
REMARK INTER + INTRA:          -4.752
REMARK INTER:                  -4.421
REMARK INTRA:                  -0.331
REMARK UNBOUND:                -0.424
REMARK SMILES C=C1C[C@]2(O)O[C@]3(C[C@@H]2C(C)C)[C@H](C)CC[C@@H]13
REMARK SMILES IDX 14 1 13 2 15 3 16 4 17 5 7 6 8 7 9 8 4 9 6 10 3 11 2 12 1 13
REMARK SMILES IDX 10 14 11 15 12 16 5 17
REMARK H PARENT 5 18
REMARK Flexibility Score: inf
ROOT
ATOM      1  C   UNL     1      45.507  16.195  -3.454  1.00  0.00     0.011 C 
ATOM      2  C   UNL     1      44.137  16.245  -2.755  1.00  0.00     0.019 C 
ATOM      3  C   UNL     1      43.213  15.089  -3.218  1.00  0.00     0.007 C 
ATOM      4  C   UNL     1      42.112  15.701  -4.106  1.00  0.00     0.011 C 
ATOM      5  C   UNL     1      42.601  17.116  -4.379  1.00  0.00     0.047 C 
ATOM      6  C   UNL     1      43.336  17.515  -3.099  1.00  0.00     0.081 C 
ATOM      7  C   UNL     1      42.377  17.916  -1.942  1.00  0.00     0.046 C 
ATOM      8  C   UNL     1      42.404  19.439  -1.969  1.00  0.00     0.054 C 
ATOM      9  C   UNL     1      43.123  19.707  -3.311  1.00  0.00     0.173 C 
ATOM     10  O   UNL     1      44.089  18.669  -3.402  1.00  0.00    -0.342 OA
ATOM     11  C   UNL     1      42.168  19.631  -4.556  1.00  0.00     0.096 C 
ATOM     12  C   UNL     1      41.641  18.217  -4.755  1.00  0.00    -0.066 C 
ATOM     13  C   UNL     1      40.500  17.985  -5.418  1.00  0.00     0.008 C 
ENDROOT
BRANCH   8  14
ATOM     14  C   UNL     1      41.011  20.105  -1.747  1.00  0.00    -0.009 C 
ATOM     15  C   UNL     1      40.941  20.818  -0.386  1.00  0.00     0.008 C 
ATOM     16  C   UNL     1      39.888  19.056  -1.812  1.00  0.00     0.008 C 
ENDBRANCH   8  14
BRANCH   9  17
ATOM     17  O   UNL     1      43.763  20.959  -3.299  1.00  0.00    -0.365 OA
ATOM     18  H   UNL     1      44.740  20.795  -3.378  1.00  0.00     0.214 HD
ENDBRANCH   9  17
TORSDOF 2
ENDMDL
MODEL 5
REMARK VINA RESULT:    -3.966      7.318      8.636
REMARK INTER + INTRA:          -4.737
REMARK INTER:                  -4.332
REMARK INTRA:                  -0.405
REMARK UNBOUND:                -0.424
REMARK SMILES C=C1C[C@]2(O)O[C@]3(C[C@@H]2C(C)C)[C@H](C)CC[C@@H]13
REMARK SMILES IDX 14 1 13 2 15 3 16 4 17 5 7 6 8 7 9 8 4 9 6 10 3 11 2 12 1 13
REMARK SMILES IDX 10 14 11 15 12 16 5 17
REMARK H PARENT 5 18
REMARK Flexibility Score: inf
ROOT
ATOM      1  C   UNL     1      48.799  16.837  -5.722  1.00  0.00     0.011 C 
ATOM      2  C   UNL     1      49.294  15.958  -4.561  1.00  0.00     0.019 C 
ATOM      3  C   UNL     1      50.829  15.746  -4.616  1.00  0.00     0.007 C 
ATOM      4  C   UNL     1      51.082  14.286  -5.038  1.00  0.00     0.011 C 
ATOM      5  C   UNL     1      49.720  13.796  -5.508  1.00  0.00     0.047 C 
ATOM      6  C   UNL     1      48.724  14.528  -4.608  1.00  0.00     0.081 C 
ATOM      7  C   UNL     1      48.616  13.909  -3.184  1.00  0.00     0.046 C 
ATOM      8  C   UNL     1      47.344  13.075  -3.256  1.00  0.00     0.054 C 
ATOM      9  C   UNL     1      47.060  13.079  -4.775  1.00  0.00     0.173 C 
ATOM     10  O   UNL     1      47.453  14.378  -5.199  1.00  0.00    -0.342 OA
ATOM     11  C   UNL     1      47.892  12.007  -5.567  1.00  0.00     0.096 C 
ATOM     12  C   UNL     1      49.379  12.326  -5.521  1.00  0.00    -0.066 C 
ATOM     13  C   UNL     1      50.302  11.372  -5.700  1.00  0.00     0.008 C 
ENDROOT
BRANCH   8  14
ATOM     14  C   UNL     1      47.447  11.692  -2.542  1.00  0.00    -0.009 C 
ATOM     15  C   UNL     1      46.249  11.452  -1.607  1.00  0.00     0.008 C 
ATOM     16  C   UNL     1      48.742  11.601  -1.716  1.00  0.00     0.008 C 
ENDBRANCH   8  14
BRANCH   9  17
ATOM     17  O   UNL     1      45.692  12.883  -5.034  1.00  0.00    -0.365 OA
ATOM     18  H   UNL     1      45.385  13.635  -5.606  1.00  0.00     0.214 HD
ENDBRANCH   9  17
TORSDOF 2
ENDMDL
MODEL 6
REMARK VINA RESULT:    -3.898      5.532      8.045
REMARK INTER + INTRA:          -4.664
REMARK INTER:                  -4.255
REMARK INTRA:                  -0.408
REMARK UNBOUND:                -0.424
REMARK SMILES C=C1C[C@]2(O)O[C@]3(C[C@@H]2C(C)C)[C@H](C)CC[C@@H]13
REMARK SMILES IDX 14 1 13 2 15 3 16 4 17 5 7 6 8 7 9 8 4 9 6 10 3 11 2 12 1 13
REMARK SMILES IDX 10 14 11 15 12 16 5 17
REMARK H PARENT 5 18
REMARK Flexibility Score: inf
ROOT
ATOM      1  C   UNL     1      43.428  13.722  -4.213  1.00  0.00     0.011 C 
ATOM      2  C   UNL     1      44.524  12.683  -4.506  1.00  0.00     0.019 C 
ATOM      3  C   UNL     1      44.114  11.266  -4.028  1.00  0.00     0.007 C 
ATOM      4  C   UNL     1      44.966  10.930  -2.788  1.00  0.00     0.011 C 
ATOM      5  C   UNL     1      45.606  12.257  -2.409  1.00  0.00     0.047 C 
ATOM      6  C   UNL     1      45.833  12.963  -3.746  1.00  0.00     0.081 C 
ATOM      7  C   UNL     1      47.070  12.423  -4.520  1.00  0.00     0.046 C 
ATOM      8  C   UNL     1      48.149  13.459  -4.233  1.00  0.00     0.054 C 
ATOM      9  C   UNL     1      47.489  14.281  -3.102  1.00  0.00     0.173 C 
ATOM     10  O   UNL     1      46.113  14.314  -3.453  1.00  0.00    -0.342 OA
ATOM     11  C   UNL     1      47.643  13.625  -1.684  1.00  0.00     0.096 C 
ATOM     12  C   UNL     1      46.882  12.309  -1.605  1.00  0.00    -0.066 C 
ATOM     13  C   UNL     1      47.216  11.363  -0.717  1.00  0.00     0.008 C 
ENDROOT
BRANCH   8  14
ATOM     14  C   UNL     1      49.559  12.852  -3.960  1.00  0.00    -0.009 C 
ATOM     15  C   UNL     1      50.640  13.537  -4.815  1.00  0.00     0.008 C 
ATOM     16  C   UNL     1      49.572  11.344  -4.265  1.00  0.00     0.008 C 
ENDBRANCH   8  14
BRANCH   9  17
ATOM     17  O   UNL     1      48.005  15.589  -3.061  1.00  0.00    -0.365 OA
ATOM     18  H   UNL     1      48.569  15.713  -3.870  1.00  0.00     0.214 HD
ENDBRANCH   9  17
TORSDOF 2
ENDMDL
MODEL 7
REMARK VINA RESULT:    -3.790      1.403      4.405
REMARK INTER + INTRA:          -4.545
REMARK INTER:                  -4.182
REMARK INTRA:                  -0.364
REMARK UNBOUND:                -0.424
REMARK SMILES C=C1C[C@]2(O)O[C@]3(C[C@@H]2C(C)C)[C@H](C)CC[C@@H]13
REMARK SMILES IDX 14 1 13 2 15 3 16 4 17 5 7 6 8 7 9 8 4 9 6 10 3 11 2 12 1 13
REMARK SMILES IDX 10 14 11 15 12 16 5 17
REMARK H PARENT 5 18
REMARK Flexibility Score: inf
ROOT
ATOM      1  C   UNL     1      39.882  14.791  -4.128  1.00  0.00     0.011 C 
ATOM      2  C   UNL     1      40.124  16.224  -4.635  1.00  0.00     0.019 C 
ATOM      3  C   UNL     1      40.690  16.235  -6.078  1.00  0.00     0.007 C 
ATOM      4  C   UNL     1      42.170  16.656  -5.994  1.00  0.00     0.011 C 
ATOM      5  C   UNL     1      42.494  16.575  -4.509  1.00  0.00     0.047 C 
ATOM      6  C   UNL     1      41.191  16.975  -3.817  1.00  0.00     0.081 C 
ATOM      7  C   UNL     1      40.941  18.511  -3.825  1.00  0.00     0.046 C 
ATOM      8  C   UNL     1      41.363  18.948  -2.428  1.00  0.00     0.054 C 
ATOM      9  C   UNL     1      42.076  17.676  -1.914  1.00  0.00     0.173 C 
ATOM     10  O   UNL     1      41.318  16.606  -2.461  1.00  0.00    -0.342 OA
ATOM     11  C   UNL     1      43.564  17.555  -2.403  1.00  0.00     0.096 C 
ATOM     12  C   UNL     1      43.630  17.367  -3.911  1.00  0.00    -0.066 C 
ATOM     13  C   UNL     1      44.727  17.695  -4.608  1.00  0.00     0.008 C 
ENDROOT
BRANCH   8  14
ATOM     14  C   UNL     1      42.158  20.289  -2.393  1.00  0.00    -0.009 C 
ATOM     15  C   UNL     1      41.760  21.145  -1.178  1.00  0.00     0.008 C 
ATOM     16  C   UNL     1      41.909  21.104  -3.673  1.00  0.00     0.008 C 
ENDBRANCH   8  14
BRANCH   9  17
ATOM     17  O   UNL     1      42.048  17.615  -0.509  1.00  0.00    -0.365 OA
ATOM     18  H   UNL     1      41.250  17.083  -0.249  1.00  0.00     0.214 HD
ENDBRANCH   9  17
TORSDOF 2
ENDMDL
MODEL 8
REMARK VINA RESULT:    -3.786      1.709      2.335
REMARK INTER + INTRA:          -4.541
REMARK INTER:                  -4.122
REMARK INTRA:                  -0.419
REMARK UNBOUND:                -0.424
REMARK SMILES C=C1C[C@]2(O)O[C@]3(C[C@@H]2C(C)C)[C@H](C)CC[C@@H]13
REMARK SMILES IDX 14 1 13 2 15 3 16 4 17 5 7 6 8 7 9 8 4 9 6 10 3 11 2 12 1 13
REMARK SMILES IDX 10 14 11 15 12 16 5 17
REMARK H PARENT 5 18
REMARK Flexibility Score: inf
ROOT
ATOM      1  C   UNL     1      43.577  20.997  -2.152  1.00  0.00     0.011 C 
ATOM      2  C   UNL     1      43.174  20.301  -3.464  1.00  0.00     0.019 C 
ATOM      3  C   UNL     1      41.716  20.640  -3.869  1.00  0.00     0.007 C 
ATOM      4  C   UNL     1      40.864  19.376  -3.638  1.00  0.00     0.011 C 
ATOM      5  C   UNL     1      41.772  18.461  -2.830  1.00  0.00     0.047 C 
ATOM      6  C   UNL     1      43.176  18.765  -3.352  1.00  0.00     0.081 C 
ATOM      7  C   UNL     1      43.479  18.093  -4.722  1.00  0.00     0.046 C 
ATOM      8  C   UNL     1      44.306  16.871  -4.344  1.00  0.00     0.054 C 
ATOM      9  C   UNL     1      44.113  16.835  -2.810  1.00  0.00     0.173 C 
ATOM     10  O   UNL     1      44.085  18.204  -2.431  1.00  0.00    -0.342 OA
ATOM     11  C   UNL     1      42.770  16.151  -2.367  1.00  0.00     0.096 C 
ATOM     12  C   UNL     1      41.567  16.966  -2.819  1.00  0.00    -0.066 C 
ATOM     13  C   UNL     1      40.362  16.401  -2.980  1.00  0.00     0.008 C 
ENDROOT
BRANCH   8  14
ATOM     14  C   UNL     1      43.948  15.585  -5.150  1.00  0.00    -0.009 C 
ATOM     15  C   UNL     1      45.156  15.070  -5.951  1.00  0.00     0.008 C 
ATOM     16  C   UNL     1      42.789  15.857  -6.125  1.00  0.00     0.008 C 
ENDBRANCH   8  14
BRANCH   9  17
ATOM     17  O   UNL     1      45.189  16.184  -2.181  1.00  0.00    -0.365 OA
ATOM     18  H   UNL     1      45.289  15.293  -2.608  1.00  0.00     0.214 HD
ENDBRANCH   9  17
TORSDOF 2
ENDMDL
MODEL 9
REMARK VINA RESULT:    -3.646      1.974      3.002
REMARK INTER + INTRA:          -4.389
REMARK INTER:                  -3.976
REMARK INTRA:                  -0.414
REMARK UNBOUND:                -0.424
REMARK SMILES C=C1C[C@]2(O)O[C@]3(C[C@@H]2C(C)C)[C@H](C)CC[C@@H]13
REMARK SMILES IDX 14 1 13 2 15 3 16 4 17 5 7 6 8 7 9 8 4 9 6 10 3 11 2 12 1 13
REMARK SMILES IDX 10 14 11 15 12 16 5 17
REMARK H PARENT 5 18
REMARK Flexibility Score: inf
ROOT
ATOM      1  C   UNL     1      44.355  21.138  -5.609  1.00  0.00     0.011 C 
ATOM      2  C   UNL     1      43.228  20.117  -5.847  1.00  0.00     0.019 C 
ATOM      3  C   UNL     1      41.871  20.814  -6.125  1.00  0.00     0.007 C 
ATOM      4  C   UNL     1      40.981  20.608  -4.884  1.00  0.00     0.011 C 
ATOM      5  C   UNL     1      41.937  20.078  -3.826  1.00  0.00     0.047 C 
ATOM      6  C   UNL     1      42.944  19.240  -4.614  1.00  0.00     0.081 C 
ATOM      7  C   UNL     1      42.393  17.843  -5.020  1.00  0.00     0.046 C 
ATOM      8  C   UNL     1      43.006  16.905  -3.988  1.00  0.00     0.054 C 
ATOM      9  C   UNL     1      43.573  17.911  -2.960  1.00  0.00     0.173 C 
ATOM     10  O   UNL     1      44.035  18.996  -3.753  1.00  0.00    -0.342 OA
ATOM     11  C   UNL     1      42.496  18.437  -1.945  1.00  0.00     0.096 C 
ATOM     12  C   UNL     1      41.438  19.270  -2.654  1.00  0.00    -0.066 C 
ATOM     13  C   UNL     1      40.215  19.433  -2.133  1.00  0.00     0.008 C 
ENDROOT
BRANCH   8  14
ATOM     14  C   UNL     1      42.031  15.806  -3.466  1.00  0.00    -0.009 C 
ATOM     15  C   UNL     1      42.650  14.403  -3.585  1.00  0.00     0.008 C 
ATOM     16  C   UNL     1      40.710  15.831  -4.255  1.00  0.00     0.008 C 
ENDBRANCH   8  14
BRANCH   9  17
ATOM     17  O   UNL     1      44.645  17.350  -2.243  1.00  0.00    -0.365 OA
ATOM     18  H   UNL     1      45.451  17.899  -2.432  1.00  0.00     0.214 HD
ENDBRANCH   9  17
TORSDOF 2
ENDMDL
