MODEL 1
REMARK VINA RESULT:    -7.090      0.000      0.000
REMARK INTER + INTRA:          -7.712
REMARK INTER:                  -7.712
REMARK INTRA:                   0.000
REMARK UNBOUND:                 0.000
REMARK SMILES Cc1cc(O)c2c(c1)C(=O)c1cc(O)cc(O)c1C2=O
REMARK SMILES IDX 1 1 2 2 8 3 7 4 6 5 4 6 3 7 19 8 20 9 18 10 11 11 9 12 10 13
REMARK SMILES IDX 12 14 13 15 15 16 16 17 5 18 17 20 14 22
REMARK H PARENT 5 19 17 21 14 23
REMARK Flexibility Score: inf
ROOT
ATOM      1  C   UNL     1     -16.996  -6.621  28.575  1.00  0.00     0.044 C 
ATOM      2  C   UNL     1     -16.917  -6.589  27.077  1.00  0.00    -0.047 A 
ATOM      3  C   UNL     1     -17.273  -7.717  26.328  1.00  0.00     0.016 A 
ATOM      4  C   UNL     1     -17.239  -7.685  24.923  1.00  0.00     0.038 A 
ATOM      5  C   UNL     1     -16.848  -6.504  24.257  1.00  0.00     0.076 A 
ATOM      6  C   UNL     1     -16.515  -5.359  25.017  1.00  0.00     0.127 A 
ATOM      7  C   UNL     1     -16.556  -5.410  26.416  1.00  0.00     0.050 A 
ATOM      8  C   UNL     1     -16.778  -6.500  22.773  1.00  0.00     0.201 C 
ATOM      9  O   UNL     1     -16.101  -5.613  22.187  1.00  0.00    -0.288 OA
ATOM     10  C   UNL     1     -17.404  -7.602  21.990  1.00  0.00     0.076 A 
ATOM     11  C   UNL     1     -17.735  -8.802  22.664  1.00  0.00     0.041 A 
ATOM     12  C   UNL     1     -17.611  -8.885  24.139  1.00  0.00     0.194 C 
ATOM     13  O   UNL     1     -17.840  -9.976  24.730  1.00  0.00    -0.289 OA
ATOM     14  C   UNL     1     -18.191  -9.912  21.934  1.00  0.00     0.059 A 
ATOM     15  C   UNL     1     -18.336  -9.841  20.550  1.00  0.00     0.120 A 
ATOM     16  C   UNL     1     -18.057  -8.647  19.883  1.00  0.00     0.093 A 
ATOM     17  C   UNL     1     -17.627  -7.518  20.588  1.00  0.00     0.131 A 
ENDROOT
BRANCH   6  18
ATOM     18  O   UNL     1     -16.155  -4.169  24.386  1.00  0.00    -0.507 OA
ATOM     19  H   UNL     1     -15.614  -3.455  24.861  1.00  0.00     0.293 HD
ENDBRANCH   6  18
BRANCH  17  20
ATOM     20  O   UNL     1     -17.473  -6.334  19.862  1.00  0.00    -0.507 OA
ATOM     21  H   UNL     1     -18.041  -5.510  20.005  1.00  0.00     0.293 HD
ENDBRANCH  17  20
BRANCH  15  22
ATOM     22  O   UNL     1     -18.772 -10.961  19.846  1.00  0.00    -0.508 OA
ATOM     23  H   UNL     1     -18.811 -10.970  18.834  1.00  0.00     0.293 HD
ENDBRANCH  15  22
TORSDOF 3
ENDMDL
MODEL 2
REMARK VINA RESULT:    -7.020      5.249      6.980
REMARK INTER + INTRA:          -7.636
REMARK INTER:                  -7.636
REMARK INTRA:                   0.000
REMARK UNBOUND:                 0.000
REMARK SMILES Cc1cc(O)c2c(c1)C(=O)c1cc(O)cc(O)c1C2=O
REMARK SMILES IDX 1 1 2 2 8 3 7 4 6 5 4 6 3 7 19 8 20 9 18 10 11 11 9 12 10 13
REMARK SMILES IDX 12 14 13 15 15 16 16 17 5 18 17 20 14 22
REMARK H PARENT 5 19 17 21 14 23
REMARK Flexibility Score: inf
ROOT
ATOM      1  C   UNL     1      -9.250  -2.135  22.423  1.00  0.00     0.044 C 
ATOM      2  C   UNL     1      -9.828  -3.461  22.821  1.00  0.00    -0.047 A 
ATOM      3  C   UNL     1     -11.088  -3.528  23.428  1.00  0.00     0.016 A 
ATOM      4  C   UNL     1     -11.654  -4.768  23.770  1.00  0.00     0.038 A 
ATOM      5  C   UNL     1     -10.952  -5.960  23.496  1.00  0.00     0.076 A 
ATOM      6  C   UNL     1      -9.691  -5.890  22.858  1.00  0.00     0.127 A 
ATOM      7  C   UNL     1      -9.144  -4.645  22.524  1.00  0.00     0.050 A 
ATOM      8  C   UNL     1     -11.546  -7.261  23.901  1.00  0.00     0.201 C 
ATOM      9  O   UNL     1     -10.806  -8.275  24.002  1.00  0.00    -0.288 OA
ATOM     10  C   UNL     1     -12.980  -7.337  24.298  1.00  0.00     0.076 A 
ATOM     11  C   UNL     1     -13.652  -6.136  24.627  1.00  0.00     0.041 A 
ATOM     12  C   UNL     1     -12.984  -4.829  24.418  1.00  0.00     0.194 C 
ATOM     13  O   UNL     1     -13.558  -3.764  24.777  1.00  0.00    -0.289 OA
ATOM     14  C   UNL     1     -14.957  -6.182  25.144  1.00  0.00     0.059 A 
ATOM     15  C   UNL     1     -15.607  -7.403  25.323  1.00  0.00     0.120 A 
ATOM     16  C   UNL     1     -14.969  -8.589  24.956  1.00  0.00     0.093 A 
ATOM     17  C   UNL     1     -13.680  -8.570  24.414  1.00  0.00     0.131 A 
ENDROOT
BRANCH   6  18
ATOM     18  O   UNL     1      -8.987  -7.053  22.546  1.00  0.00    -0.507 OA
ATOM     19  H   UNL     1      -8.620  -7.221  21.616  1.00  0.00     0.293 HD
ENDBRANCH   6  18
BRANCH  17  20
ATOM     20  O   UNL     1     -13.155  -9.788  23.974  1.00  0.00    -0.507 OA
ATOM     21  H   UNL     1     -12.790 -10.498  24.593  1.00  0.00     0.293 HD
ENDBRANCH  17  20
BRANCH  15  22
ATOM     22  O   UNL     1     -16.895  -7.424  25.854  1.00  0.00    -0.508 OA
ATOM     23  H   UNL     1     -17.077  -7.154  26.813  1.00  0.00     0.293 HD
ENDBRANCH  15  22
TORSDOF 3
ENDMDL
MODEL 3
REMARK VINA RESULT:    -6.815      2.910      6.139
REMARK INTER + INTRA:          -7.412
REMARK INTER:                  -7.412
REMARK INTRA:                   0.000
REMARK UNBOUND:                 0.000
REMARK SMILES Cc1cc(O)c2c(c1)C(=O)c1cc(O)cc(O)c1C2=O
REMARK SMILES IDX 1 1 2 2 8 3 7 4 6 5 4 6 3 7 19 8 20 9 18 10 11 11 9 12 10 13
REMARK SMILES IDX 12 14 13 15 15 16 16 17 5 18 17 20 14 22
REMARK H PARENT 5 19 17 21 14 23
REMARK Flexibility Score: inf
ROOT
ATOM      1  C   UNL     1     -14.144  -3.280  17.605  1.00  0.00     0.044 C 
ATOM      2  C   UNL     1     -15.075  -4.250  18.272  1.00  0.00    -0.047 A 
ATOM      3  C   UNL     1     -15.132  -4.326  19.669  1.00  0.00     0.016 A 
ATOM      4  C   UNL     1     -16.028  -5.204  20.304  1.00  0.00     0.038 A 
ATOM      5  C   UNL     1     -16.885  -6.013  19.529  1.00  0.00     0.076 A 
ATOM      6  C   UNL     1     -16.844  -5.913  18.119  1.00  0.00     0.127 A 
ATOM      7  C   UNL     1     -15.945  -5.032  17.505  1.00  0.00     0.050 A 
ATOM      8  C   UNL     1     -17.797  -6.965  20.215  1.00  0.00     0.201 C 
ATOM      9  O   UNL     1     -18.287  -7.928  19.567  1.00  0.00    -0.288 OA
ATOM     10  C   UNL     1     -18.035  -6.850  21.681  1.00  0.00     0.076 A 
ATOM     11  C   UNL     1     -17.130  -6.082  22.451  1.00  0.00     0.041 A 
ATOM     12  C   UNL     1     -16.076  -5.283  21.781  1.00  0.00     0.194 C 
ATOM     13  O   UNL     1     -15.228  -4.654  22.473  1.00  0.00    -0.289 OA
ATOM     14  C   UNL     1     -17.238  -6.069  23.852  1.00  0.00     0.059 A 
ATOM     15  C   UNL     1     -18.239  -6.795  24.494  1.00  0.00     0.120 A 
ATOM     16  C   UNL     1     -19.165  -7.518  23.739  1.00  0.00     0.093 A 
ATOM     17  C   UNL     1     -19.098  -7.526  22.342  1.00  0.00     0.131 A 
ENDROOT
BRANCH   6  18
ATOM     18  O   UNL     1     -17.701  -6.678  17.328  1.00  0.00    -0.507 OA
ATOM     19  H   UNL     1     -17.617  -6.700  16.318  1.00  0.00     0.293 HD
ENDBRANCH   6  18
BRANCH  17  20
ATOM     20  O   UNL     1     -20.123  -8.184  21.659  1.00  0.00    -0.507 OA
ATOM     21  H   UNL     1     -19.989  -8.686  20.792  1.00  0.00     0.293 HD
ENDBRANCH  17  20
BRANCH  15  22
ATOM     22  O   UNL     1     -18.314  -6.781  25.885  1.00  0.00    -0.508 OA
ATOM     23  H   UNL     1     -17.518  -6.525  26.456  1.00  0.00     0.293 HD
ENDBRANCH  15  22
TORSDOF 3
ENDMDL
MODEL 4
REMARK VINA RESULT:    -6.804      3.032      4.869
REMARK INTER + INTRA:          -7.400
REMARK INTER:                  -7.400
REMARK INTRA:                   0.000
REMARK UNBOUND:                 0.000
REMARK SMILES Cc1cc(O)c2c(c1)C(=O)c1cc(O)cc(O)c1C2=O
REMARK SMILES IDX 1 1 2 2 8 3 7 4 6 5 4 6 3 7 19 8 20 9 18 10 11 11 9 12 10 13
REMARK SMILES IDX 12 14 13 15 15 16 16 17 5 18 17 20 14 22
REMARK H PARENT 5 19 17 21 14 23
REMARK Flexibility Score: inf
ROOT
ATOM      1  C   UNL     1     -10.985  -6.108  23.099  1.00  0.00     0.044 C 
ATOM      2  C   UNL     1     -12.311  -6.683  23.500  1.00  0.00    -0.047 A 
ATOM      3  C   UNL     1     -13.492  -5.971  23.254  1.00  0.00     0.016 A 
ATOM      4  C   UNL     1     -14.742  -6.518  23.592  1.00  0.00     0.038 A 
ATOM      5  C   UNL     1     -14.813  -7.799  24.179  1.00  0.00     0.076 A 
ATOM      6  C   UNL     1     -13.620  -8.526  24.400  1.00  0.00     0.127 A 
ATOM      7  C   UNL     1     -12.384  -7.965  24.056  1.00  0.00     0.050 A 
ATOM      8  C   UNL     1     -16.139  -8.345  24.567  1.00  0.00     0.201 C 
ATOM      9  O   UNL     1     -16.201  -9.289  25.399  1.00  0.00    -0.288 OA
ATOM     10  C   UNL     1     -17.388  -7.705  24.067  1.00  0.00     0.076 A 
ATOM     11  C   UNL     1     -17.307  -6.396  23.536  1.00  0.00     0.041 A 
ATOM     12  C   UNL     1     -15.985  -5.756  23.334  1.00  0.00     0.194 C 
ATOM     13  O   UNL     1     -15.918  -4.563  22.926  1.00  0.00    -0.289 OA
ATOM     14  C   UNL     1     -18.481  -5.706  23.189  1.00  0.00     0.059 A 
ATOM     15  C   UNL     1     -19.729  -6.305  23.350  1.00  0.00     0.120 A 
ATOM     16  C   UNL     1     -19.815  -7.613  23.829  1.00  0.00     0.093 A 
ATOM     17  C   UNL     1     -18.661  -8.333  24.155  1.00  0.00     0.131 A 
ENDROOT
BRANCH   6  18
ATOM     18  O   UNL     1     -13.661  -9.807  24.950  1.00  0.00    -0.507 OA
ATOM     19  H   UNL     1     -14.315 -10.051  25.685  1.00  0.00     0.293 HD
ENDBRANCH   6  18
BRANCH  17  20
ATOM     20  O   UNL     1     -18.827  -9.670  24.524  1.00  0.00    -0.507 OA
ATOM     21  H   UNL     1     -18.904  -9.983  25.482  1.00  0.00     0.293 HD
ENDBRANCH  17  20
BRANCH  15  22
ATOM     22  O   UNL     1     -20.880  -5.594  23.016  1.00  0.00    -0.508 OA
ATOM     23  H   UNL     1     -21.451  -5.148  23.724  1.00  0.00     0.293 HD
ENDBRANCH  15  22
TORSDOF 3
ENDMDL
MODEL 5
REMARK VINA RESULT:    -6.794      1.360      5.486
REMARK INTER + INTRA:          -7.390
REMARK INTER:                  -7.390
REMARK INTRA:                   0.000
REMARK UNBOUND:                 0.000
REMARK SMILES Cc1cc(O)c2c(c1)C(=O)c1cc(O)cc(O)c1C2=O
REMARK SMILES IDX 1 1 2 2 8 3 7 4 6 5 4 6 3 7 19 8 20 9 18 10 11 11 9 12 10 13
REMARK SMILES IDX 12 14 13 15 15 16 16 17 5 18 17 20 14 22
REMARK H PARENT 5 19 17 21 14 23
REMARK Flexibility Score: inf
ROOT
ATOM      1  C   UNL     1     -19.147 -10.451  19.675  1.00  0.00     0.044 C 
ATOM      2  C   UNL     1     -18.751  -9.294  20.545  1.00  0.00    -0.047 A 
ATOM      3  C   UNL     1     -18.529  -9.486  21.915  1.00  0.00     0.016 A 
ATOM      4  C   UNL     1     -18.120  -8.417  22.731  1.00  0.00     0.038 A 
ATOM      5  C   UNL     1     -17.924  -7.138  22.168  1.00  0.00     0.076 A 
ATOM      6  C   UNL     1     -18.122  -6.956  20.779  1.00  0.00     0.127 A 
ATOM      7  C   UNL     1     -18.529  -8.034  19.982  1.00  0.00     0.050 A 
ATOM      8  C   UNL     1     -17.532  -6.010  23.051  1.00  0.00     0.201 C 
ATOM      9  O   UNL     1     -17.705  -4.826  22.658  1.00  0.00    -0.288 OA
ATOM     10  C   UNL     1     -17.048  -6.276  24.435  1.00  0.00     0.076 A 
ATOM     11  C   UNL     1     -17.306  -7.545  25.005  1.00  0.00     0.041 A 
ATOM     12  C   UNL     1     -17.895  -8.627  24.179  1.00  0.00     0.194 C 
ATOM     13  O   UNL     1     -18.188  -9.734  24.707  1.00  0.00    -0.289 OA
ATOM     14  C   UNL     1     -16.995  -7.783  26.355  1.00  0.00     0.059 A 
ATOM     15  C   UNL     1     -16.419  -6.784  27.138  1.00  0.00     0.120 A 
ATOM     16  C   UNL     1     -16.118  -5.545  26.570  1.00  0.00     0.093 A 
ATOM     17  C   UNL     1     -16.392  -5.290  25.223  1.00  0.00     0.131 A 
ENDROOT
BRANCH   6  18
ATOM     18  O   UNL     1     -17.907  -5.711  20.189  1.00  0.00    -0.507 OA
ATOM     19  H   UNL     1     -17.889  -4.857  20.735  1.00  0.00     0.293 HD
ENDBRANCH   6  18
BRANCH  17  20
ATOM     20  O   UNL     1     -15.962  -4.065  24.705  1.00  0.00    -0.507 OA
ATOM     21  H   UNL     1     -15.492  -3.965  23.816  1.00  0.00     0.293 HD
ENDBRANCH  17  20
BRANCH  15  22
ATOM     22  O   UNL     1     -16.137  -7.038  28.478  1.00  0.00    -0.508 OA
ATOM     23  H   UNL     1     -15.248  -6.781  28.891  1.00  0.00     0.293 HD
ENDBRANCH  15  22
TORSDOF 3
ENDMDL
MODEL 6
REMARK VINA RESULT:    -6.765      1.828      6.136
REMARK INTER + INTRA:          -7.358
REMARK INTER:                  -7.358
REMARK INTRA:                   0.000
REMARK UNBOUND:                 0.000
REMARK SMILES Cc1cc(O)c2c(c1)C(=O)c1cc(O)cc(O)c1C2=O
REMARK SMILES IDX 1 1 2 2 8 3 7 4 6 5 4 6 3 7 19 8 20 9 18 10 11 11 9 12 10 13
REMARK SMILES IDX 12 14 13 15 15 16 16 17 5 18 17 20 14 22
REMARK H PARENT 5 19 17 21 14 23
REMARK Flexibility Score: inf
ROOT
ATOM      1  C   UNL     1     -19.540  -9.253  19.577  1.00  0.00     0.044 C 
ATOM      2  C   UNL     1     -18.746  -8.979  20.821  1.00  0.00    -0.047 A 
ATOM      3  C   UNL     1     -17.891  -7.872  20.883  1.00  0.00     0.016 A 
ATOM      4  C   UNL     1     -17.171  -7.586  22.056  1.00  0.00     0.038 A 
ATOM      5  C   UNL     1     -17.315  -8.417  23.187  1.00  0.00     0.076 A 
ATOM      6  C   UNL     1     -18.200  -9.518  23.130  1.00  0.00     0.127 A 
ATOM      7  C   UNL     1     -18.909  -9.787  21.952  1.00  0.00     0.050 A 
ATOM      8  C   UNL     1     -16.516  -8.125  24.406  1.00  0.00     0.201 C 
ATOM      9  O   UNL     1     -16.349  -9.028  25.268  1.00  0.00    -0.288 OA
ATOM     10  C   UNL     1     -15.823  -6.814  24.550  1.00  0.00     0.076 A 
ATOM     11  C   UNL     1     -15.636  -6.021  23.393  1.00  0.00     0.041 A 
ATOM     12  C   UNL     1     -16.264  -6.418  22.110  1.00  0.00     0.194 C 
ATOM     13  O   UNL     1     -16.039  -5.747  21.065  1.00  0.00    -0.289 OA
ATOM     14  C   UNL     1     -14.862  -4.851  23.463  1.00  0.00     0.059 A 
ATOM     15  C   UNL     1     -14.285  -4.452  24.669  1.00  0.00     0.120 A 
ATOM     16  C   UNL     1     -14.504  -5.204  25.824  1.00  0.00     0.093 A 
ATOM     17  C   UNL     1     -15.293  -6.358  25.789  1.00  0.00     0.131 A 
ENDROOT
BRANCH   6  18
ATOM     18  O   UNL     1     -18.386 -10.339  24.242  1.00  0.00    -0.507 OA
ATOM     19  H   UNL     1     -17.908 -10.165  25.119  1.00  0.00     0.293 HD
ENDBRANCH   6  18
BRANCH  17  20
ATOM     20  O   UNL     1     -15.551  -6.991  27.007  1.00  0.00    -0.507 OA
ATOM     21  H   UNL     1     -15.873  -7.946  27.086  1.00  0.00     0.293 HD
ENDBRANCH  17  20
BRANCH  15  22
ATOM     22  O   UNL     1     -13.507  -3.298  24.709  1.00  0.00    -0.508 OA
ATOM     23  H   UNL     1     -13.727  -2.531  25.334  1.00  0.00     0.293 HD
ENDBRANCH  15  22
TORSDOF 3
ENDMDL
MODEL 7
REMARK VINA RESULT:    -6.728      2.286      5.276
REMARK INTER + INTRA:          -7.318
REMARK INTER:                  -7.318
REMARK INTRA:                   0.000
REMARK UNBOUND:                 0.000
REMARK SMILES Cc1cc(O)c2c(c1)C(=O)c1cc(O)cc(O)c1C2=O
REMARK SMILES IDX 1 1 2 2 8 3 7 4 6 5 4 6 3 7 19 8 20 9 18 10 11 11 9 12 10 13
REMARK SMILES IDX 12 14 13 15 15 16 16 17 5 18 17 20 14 22
REMARK H PARENT 5 19 17 21 14 23
REMARK Flexibility Score: inf
ROOT
ATOM      1  C   UNL     1     -19.960 -12.617  23.208  1.00  0.00     0.044 C 
ATOM      2  C   UNL     1     -19.678 -11.144  23.241  1.00  0.00    -0.047 A 
ATOM      3  C   UNL     1     -18.639 -10.643  24.034  1.00  0.00     0.016 A 
ATOM      4  C   UNL     1     -18.342  -9.269  24.043  1.00  0.00     0.038 A 
ATOM      5  C   UNL     1     -19.092  -8.383  23.241  1.00  0.00     0.076 A 
ATOM      6  C   UNL     1     -20.123  -8.897  22.421  1.00  0.00     0.127 A 
ATOM      7  C   UNL     1     -20.403 -10.270  22.425  1.00  0.00     0.050 A 
ATOM      8  C   UNL     1     -18.793  -6.929  23.293  1.00  0.00     0.201 C 
ATOM      9  O   UNL     1     -19.655  -6.104  22.889  1.00  0.00    -0.288 OA
ATOM     10  C   UNL     1     -17.533  -6.446  23.926  1.00  0.00     0.076 A 
ATOM     11  C   UNL     1     -16.825  -7.330  24.775  1.00  0.00     0.041 A 
ATOM     12  C   UNL     1     -17.246  -8.747  24.890  1.00  0.00     0.194 C 
ATOM     13  O   UNL     1     -16.656  -9.514  25.700  1.00  0.00    -0.289 OA
ATOM     14  C   UNL     1     -15.716  -6.865  25.502  1.00  0.00     0.059 A 
ATOM     15  C   UNL     1     -15.294  -5.541  25.384  1.00  0.00     0.120 A 
ATOM     16  C   UNL     1     -15.959  -4.676  24.513  1.00  0.00     0.093 A 
ATOM     17  C   UNL     1     -17.049  -5.119  23.757  1.00  0.00     0.131 A 
ENDROOT
BRANCH   6  18
ATOM     18  O   UNL     1     -20.862  -8.051  21.594  1.00  0.00    -0.507 OA
ATOM     19  H   UNL     1     -21.861  -8.165  21.470  1.00  0.00     0.293 HD
ENDBRANCH   6  18
BRANCH  17  20
ATOM     20  O   UNL     1     -17.589  -4.223  22.831  1.00  0.00    -0.507 OA
ATOM     21  H   UNL     1     -17.036  -3.706  22.162  1.00  0.00     0.293 HD
ENDBRANCH  17  20
BRANCH  15  22
ATOM     22  O   UNL     1     -14.203  -5.099  26.129  1.00  0.00    -0.508 OA
ATOM     23  H   UNL     1     -14.009  -4.112  26.250  1.00  0.00     0.293 HD
ENDBRANCH  15  22
TORSDOF 3
ENDMDL
MODEL 8
REMARK VINA RESULT:    -6.691      2.039      3.656
REMARK INTER + INTRA:          -7.277
REMARK INTER:                  -7.277
REMARK INTRA:                   0.000
REMARK UNBOUND:                 0.000
REMARK SMILES Cc1cc(O)c2c(c1)C(=O)c1cc(O)cc(O)c1C2=O
REMARK SMILES IDX 1 1 2 2 8 3 7 4 6 5 4 6 3 7 19 8 20 9 18 10 11 11 9 12 10 13
REMARK SMILES IDX 12 14 13 15 15 16 16 17 5 18 17 20 14 22
REMARK H PARENT 5 19 17 21 14 23
REMARK Flexibility Score: inf
ROOT
ATOM      1  C   UNL     1     -12.477  -3.990  24.011  1.00  0.00     0.044 C 
ATOM      2  C   UNL     1     -13.712  -4.836  24.111  1.00  0.00    -0.047 A 
ATOM      3  C   UNL     1     -14.449  -5.145  22.961  1.00  0.00     0.016 A 
ATOM      4  C   UNL     1     -15.586  -5.969  23.038  1.00  0.00     0.038 A 
ATOM      5  C   UNL     1     -15.987  -6.496  24.284  1.00  0.00     0.076 A 
ATOM      6  C   UNL     1     -15.224  -6.204  25.438  1.00  0.00     0.127 A 
ATOM      7  C   UNL     1     -14.094  -5.382  25.340  1.00  0.00     0.050 A 
ATOM      8  C   UNL     1     -17.215  -7.331  24.355  1.00  0.00     0.201 C 
ATOM      9  O   UNL     1     -17.785  -7.502  25.465  1.00  0.00    -0.288 OA
ATOM     10  C   UNL     1     -17.831  -7.864  23.107  1.00  0.00     0.076 A 
ATOM     11  C   UNL     1     -17.460  -7.282  21.872  1.00  0.00     0.041 A 
ATOM     12  C   UNL     1     -16.364  -6.284  21.819  1.00  0.00     0.194 C 
ATOM     13  O   UNL     1     -16.082  -5.716  20.728  1.00  0.00    -0.289 OA
ATOM     14  C   UNL     1     -18.125  -7.657  20.693  1.00  0.00     0.059 A 
ATOM     15  C   UNL     1     -19.140  -8.612  20.723  1.00  0.00     0.120 A 
ATOM     16  C   UNL     1     -19.479  -9.225  21.930  1.00  0.00     0.093 A 
ATOM     17  C   UNL     1     -18.816  -8.890  23.115  1.00  0.00     0.131 A 
ENDROOT
BRANCH   6  18
ATOM     18  O   UNL     1     -15.578  -6.736  26.677  1.00  0.00    -0.507 OA
ATOM     19  H   UNL     1     -16.516  -6.641  27.050  1.00  0.00     0.293 HD
ENDBRANCH   6  18
BRANCH  17  20
ATOM     20  O   UNL     1     -19.140  -9.626  24.258  1.00  0.00    -0.507 OA
ATOM     21  H   UNL     1     -19.189 -10.635  24.280  1.00  0.00     0.293 HD
ENDBRANCH  17  20
BRANCH  15  22
ATOM     22  O   UNL     1     -19.797  -8.955  19.544  1.00  0.00    -0.508 OA
ATOM     23  H   UNL     1     -19.975  -8.271  18.818  1.00  0.00     0.293 HD
ENDBRANCH  15  22
TORSDOF 3
ENDMDL
