MODEL 1
REMARK VINA RESULT:    -5.189      0.000      0.000
REMARK INTER + INTRA:         -10.674
REMARK INTER:                  -9.132
REMARK INTRA:                  -1.543
REMARK UNBOUND:                -1.543
REMARK SMILES CCCCCCCCCCCCCCC(=O)[O-]
REMARK SMILES IDX 9 1 10 2 11 3 12 4 13 5 14 6 15 7 16 8 17 9 8 10 7 11 6 12
REMARK SMILES IDX 5 13 4 14 3 15 2 16 1 17
REMARK H PARENT
REMARK Flexibility Score: inf
ROOT
ATOM      1  C   UNL     1       0.958  44.649  10.471  1.00  0.00     0.000 C 
ENDROOT
BRANCH   1   2
ATOM      2  C   UNL     1       1.511  43.732   9.363  1.00  0.00     0.000 C 
BRANCH   2   3
ATOM      3  C   UNL     1       2.686  42.851   9.827  1.00  0.00     0.000 C 
BRANCH   3   4
ATOM      4  C   UNL     1       2.618  42.534  11.332  1.00  0.00     0.000 C 
BRANCH   4   5
ATOM      5  C   UNL     1       3.527  41.361  11.731  1.00  0.00     0.006 C 
BRANCH   5   6
ATOM      6  C   UNL     1       2.773  40.257  12.485  1.00  0.00     0.053 C 
BRANCH   6   7
ATOM      7  C   UNL     1       3.644  39.053  12.654  1.00  0.00     0.041 C 
ATOM      8  O   UNL     1       4.753  39.150  13.241  1.00  0.00    -0.550 OA
ATOM      9  O   UNL     1       3.251  37.831  12.122  1.00  0.00    -0.550 OA
ENDBRANCH   6   7
ENDBRANCH   5   6
ENDBRANCH   4   5
ENDBRANCH   3   4
ENDBRANCH   2   3
ENDBRANCH   1   2
BRANCH   1  10
ATOM     10  C   UNL     1       0.312  45.943   9.929  1.00  0.00     0.000 C 
BRANCH  10  11
ATOM     11  C   UNL     1       0.093  45.948   8.404  1.00  0.00    -0.000 C 
BRANCH  11  12
ATOM     12  C   UNL     1       0.940  46.994   7.650  1.00  0.00    -0.000 C 
BRANCH  12  13
ATOM     13  C   UNL     1       2.000  47.652   8.551  1.00  0.00    -0.000 C 
BRANCH  13  14
ATOM     14  C   UNL     1       3.330  47.896   7.822  1.00  0.00    -0.000 C 
BRANCH  14  15
ATOM     15  C   UNL     1       4.548  47.449   8.647  1.00  0.00    -0.000 C 
BRANCH  15  16
ATOM     16  C   UNL     1       4.361  46.055   9.265  1.00  0.00    -0.003 C 
ATOM     17  C   UNL     1       4.440  46.067  10.792  1.00  0.00     0.004 C 
ENDBRANCH  15  16
ENDBRANCH  14  15
ENDBRANCH  13  14
ENDBRANCH  12  13
ENDBRANCH  11  12
ENDBRANCH  10  11
ENDBRANCH   1  10
TORSDOF 13
ENDMDL
MODEL 2
REMARK VINA RESULT:    -5.177      1.027      1.747
REMARK INTER + INTRA:         -10.654
REMARK INTER:                  -9.546
REMARK INTRA:                  -1.108
REMARK UNBOUND:                -1.543
REMARK SMILES CCCCCCCCCCCCCCC(=O)[O-]
REMARK SMILES IDX 9 1 10 2 11 3 12 4 13 5 14 6 15 7 16 8 17 9 8 10 7 11 6 12
REMARK SMILES IDX 5 13 4 14 3 15 2 16 1 17
REMARK H PARENT
REMARK Flexibility Score: inf
ROOT
ATOM      1  C   UNL     1       1.765  43.636   8.796  1.00  0.00     0.000 C 
ENDROOT
BRANCH   1   2
ATOM      2  C   UNL     1       3.074  42.964   9.256  1.00  0.00     0.000 C 
BRANCH   2   3
ATOM      3  C   UNL     1       3.733  43.668  10.457  1.00  0.00     0.000 C 
BRANCH   3   4
ATOM      4  C   UNL     1       3.463  42.934  11.783  1.00  0.00     0.000 C 
BRANCH   4   5
ATOM      5  C   UNL     1       4.070  41.522  11.811  1.00  0.00     0.006 C 
BRANCH   5   6
ATOM      6  C   UNL     1       3.071  40.457  12.281  1.00  0.00     0.053 C 
BRANCH   6   7
ATOM      7  C   UNL     1       3.784  39.189  12.628  1.00  0.00     0.041 C 
ATOM      8  O   UNL     1       3.356  38.084  12.203  1.00  0.00    -0.550 OA
ATOM      9  O   UNL     1       4.895  39.222  13.462  1.00  0.00    -0.550 OA
ENDBRANCH   6   7
ENDBRANCH   5   6
ENDBRANCH   4   5
ENDBRANCH   3   4
ENDBRANCH   2   3
ENDBRANCH   1   2
BRANCH   1  10
ATOM     10  C   UNL     1       1.111  44.513   9.885  1.00  0.00     0.000 C 
BRANCH  10  11
ATOM     11  C   UNL     1       0.799  45.953   9.432  1.00  0.00    -0.000 C 
BRANCH  11  12
ATOM     12  C   UNL     1       1.995  46.921   9.544  1.00  0.00    -0.000 C 
BRANCH  12  13
ATOM     13  C   UNL     1       2.440  47.465   8.175  1.00  0.00    -0.000 C 
BRANCH  13  14
ATOM     14  C   UNL     1       3.957  47.697   8.094  1.00  0.00    -0.000 C 
BRANCH  14  15
ATOM     15  C   UNL     1       4.722  47.026   9.246  1.00  0.00    -0.000 C 
BRANCH  15  16
ATOM     16  C   UNL     1       6.216  47.387   9.250  1.00  0.00    -0.003 C 
ATOM     17  C   UNL     1       6.461  48.896   9.275  1.00  0.00     0.004 C 
ENDBRANCH  15  16
ENDBRANCH  14  15
ENDBRANCH  13  14
ENDBRANCH  12  13
ENDBRANCH  11  12
ENDBRANCH  10  11
ENDBRANCH   1  10
TORSDOF 13
ENDMDL
MODEL 3
REMARK VINA RESULT:    -5.116      3.628      6.610
REMARK INTER + INTRA:         -10.546
REMARK INTER:                  -9.026
REMARK INTRA:                  -1.520
REMARK UNBOUND:                -1.543
REMARK SMILES CCCCCCCCCCCCCCC(=O)[O-]
REMARK SMILES IDX 9 1 10 2 11 3 12 4 13 5 14 6 15 7 16 8 17 9 8 10 7 11 6 12
REMARK SMILES IDX 5 13 4 14 3 15 2 16 1 17
REMARK H PARENT
REMARK Flexibility Score: inf
ROOT
ATOM      1  C   UNL     1       0.630  45.677   9.886  1.00  0.00     0.000 C 
ENDROOT
BRANCH   1   2
ATOM      2  C   UNL     1       0.672  46.044   8.390  1.00  0.00     0.000 C 
BRANCH   2   3
ATOM      3  C   UNL     1       1.597  47.236   8.078  1.00  0.00     0.000 C 
BRANCH   3   4
ATOM      4  C   UNL     1       2.742  47.367   9.098  1.00  0.00     0.000 C 
BRANCH   4   5
ATOM      5  C   UNL     1       4.130  47.268   8.446  1.00  0.00     0.006 C 
BRANCH   5   6
ATOM      6  C   UNL     1       5.233  46.910   9.450  1.00  0.00     0.053 C 
BRANCH   6   7
ATOM      7  C   UNL     1       6.407  47.822   9.284  1.00  0.00     0.041 C 
ATOM      8  O   UNL     1       6.246  48.987   8.837  1.00  0.00    -0.550 OA
ATOM      9  O   UNL     1       7.687  47.367   9.577  1.00  0.00    -0.550 OA
ENDBRANCH   6   7
ENDBRANCH   5   6
ENDBRANCH   4   5
ENDBRANCH   3   4
ENDBRANCH   2   3
ENDBRANCH   1   2
BRANCH   1  10
ATOM     10  C   UNL     1       1.114  44.240  10.177  1.00  0.00     0.000 C 
BRANCH  10  11
ATOM     11  C   UNL     1       1.902  43.593   9.021  1.00  0.00    -0.000 C 
BRANCH  11  12
ATOM     12  C   UNL     1       3.362  43.241   9.372  1.00  0.00    -0.000 C 
BRANCH  12  13
ATOM     13  C   UNL     1       3.714  43.586  10.830  1.00  0.00    -0.000 C 
BRANCH  13  14
ATOM     14  C   UNL     1       4.098  42.349  11.657  1.00  0.00    -0.000 C 
BRANCH  14  15
ATOM     15  C   UNL     1       2.918  41.384  11.861  1.00  0.00    -0.000 C 
BRANCH  15  16
ATOM     16  C   UNL     1       3.378  39.953  12.184  1.00  0.00    -0.003 C 
ATOM     17  C   UNL     1       4.694  39.914  12.960  1.00  0.00     0.004 C 
ENDBRANCH  15  16
ENDBRANCH  14  15
ENDBRANCH  13  14
ENDBRANCH  12  13
ENDBRANCH  11  12
ENDBRANCH  10  11
ENDBRANCH   1  10
TORSDOF 13
ENDMDL
MODEL 4
REMARK VINA RESULT:    -5.076      0.876      2.881
REMARK INTER + INTRA:         -10.477
REMARK INTER:                  -8.990
REMARK INTRA:                  -1.487
REMARK UNBOUND:                -1.543
REMARK SMILES CCCCCCCCCCCCCCC(=O)[O-]
REMARK SMILES IDX 9 1 10 2 11 3 12 4 13 5 14 6 15 7 16 8 17 9 8 10 7 11 6 12
REMARK SMILES IDX 5 13 4 14 3 15 2 16 1 17
REMARK H PARENT
REMARK Flexibility Score: inf
ROOT
ATOM      1  C   UNL     1       4.180  44.642  10.908  1.00  0.00     0.000 C 
ENDROOT
BRANCH   1   2
ATOM      2  C   UNL     1       3.886  43.828   9.633  1.00  0.00     0.000 C 
BRANCH   2   3
ATOM      3  C   UNL     1       2.969  42.615   9.879  1.00  0.00     0.000 C 
BRANCH   3   4
ATOM      4  C   UNL     1       2.243  42.698  11.234  1.00  0.00     0.000 C 
BRANCH   4   5
ATOM      5  C   UNL     1       2.539  41.491  12.138  1.00  0.00     0.006 C 
BRANCH   5   6
ATOM      6  C   UNL     1       3.942  40.914  11.915  1.00  0.00     0.053 C 
BRANCH   6   7
ATOM      7  C   UNL     1       4.118  39.651  12.697  1.00  0.00     0.041 C 
ATOM      8  O   UNL     1       3.346  38.675  12.506  1.00  0.00    -0.550 OA
ATOM      9  O   UNL     1       5.105  39.568  13.671  1.00  0.00    -0.550 OA
ENDBRANCH   6   7
ENDBRANCH   5   6
ENDBRANCH   4   5
ENDBRANCH   3   4
ENDBRANCH   2   3
ENDBRANCH   1   2
BRANCH   1  10
ATOM     10  C   UNL     1       4.365  46.152  10.641  1.00  0.00     0.000 C 
BRANCH  10  11
ATOM     11  C   UNL     1       4.834  46.488   9.212  1.00  0.00    -0.000 C 
BRANCH  11  12
ATOM     12  C   UNL     1       3.850  47.369   8.417  1.00  0.00    -0.000 C 
BRANCH  12  13
ATOM     13  C   UNL     1       2.428  47.341   9.006  1.00  0.00    -0.000 C 
BRANCH  13  14
ATOM     14  C   UNL     1       1.337  47.414   7.927  1.00  0.00    -0.000 C 
BRANCH  14  15
ATOM     15  C   UNL     1       0.263  46.326   8.095  1.00  0.00    -0.000 C 
BRANCH  15  16
ATOM     16  C   UNL     1       0.641  45.287   9.162  1.00  0.00    -0.003 C 
ATOM     17  C   UNL     1      -0.033  45.550  10.510  1.00  0.00     0.004 C 
ENDBRANCH  15  16
ENDBRANCH  14  15
ENDBRANCH  13  14
ENDBRANCH  12  13
ENDBRANCH  11  12
ENDBRANCH  10  11
ENDBRANCH   1  10
TORSDOF 13
ENDMDL
MODEL 5
REMARK VINA RESULT:    -4.810      3.757      6.141
REMARK INTER + INTRA:         -10.008
REMARK INTER:                  -8.354
REMARK INTRA:                  -1.654
REMARK UNBOUND:                -1.543
REMARK SMILES CCCCCCCCCCCCCCC(=O)[O-]
REMARK SMILES IDX 9 1 10 2 11 3 12 4 13 5 14 6 15 7 16 8 17 9 8 10 7 11 6 12
REMARK SMILES IDX 5 13 4 14 3 15 2 16 1 17
REMARK H PARENT
REMARK Flexibility Score: inf
ROOT
ATOM      1  C   UNL     1       3.681  42.510  11.221  1.00  0.00     0.000 C 
ENDROOT
BRANCH   1   2
ATOM      2  C   UNL     1       4.499  43.662  10.603  1.00  0.00     0.000 C 
BRANCH   2   3
ATOM      3  C   UNL     1       4.527  44.930  11.477  1.00  0.00     0.000 C 
BRANCH   3   4
ATOM      4  C   UNL     1       4.126  46.190  10.689  1.00  0.00     0.000 C 
BRANCH   4   5
ATOM      5  C   UNL     1       4.810  46.271   9.315  1.00  0.00     0.006 C 
BRANCH   5   6
ATOM      6  C   UNL     1       4.891  47.705   8.777  1.00  0.00     0.053 C 
BRANCH   6   7
ATOM      7  C   UNL     1       6.254  48.274   9.009  1.00  0.00     0.041 C 
ATOM      8  O   UNL     1       6.490  49.482   8.746  1.00  0.00    -0.550 OA
ATOM      9  O   UNL     1       7.279  47.458   9.472  1.00  0.00    -0.550 OA
ENDBRANCH   6   7
ENDBRANCH   5   6
ENDBRANCH   4   5
ENDBRANCH   3   4
ENDBRANCH   2   3
ENDBRANCH   1   2
BRANCH   1  10
ATOM     10  C   UNL     1       2.201  42.506  10.781  1.00  0.00     0.000 C 
BRANCH  10  11
ATOM     11  C   UNL     1       1.320  43.532  11.522  1.00  0.00    -0.000 C 
BRANCH  11  12
ATOM     12  C   UNL     1       0.731  44.629  10.612  1.00  0.00    -0.000 C 
BRANCH  12  13
ATOM     13  C   UNL     1       1.352  44.621   9.204  1.00  0.00    -0.000 C 
BRANCH  13  14
ATOM     14  C   UNL     1       0.296  44.686   8.089  1.00  0.00    -0.000 C 
BRANCH  14  15
ATOM     15  C   UNL     1       0.124  46.103   7.518  1.00  0.00    -0.000 C 
BRANCH  15  16
ATOM     16  C   UNL     1       1.276  47.040   7.912  1.00  0.00    -0.003 C 
ATOM     17  C   UNL     1       0.794  48.307   8.621  1.00  0.00     0.004 C 
ENDBRANCH  15  16
ENDBRANCH  14  15
ENDBRANCH  13  14
ENDBRANCH  12  13
ENDBRANCH  11  12
ENDBRANCH  10  11
ENDBRANCH   1  10
TORSDOF 13
ENDMDL
MODEL 6
REMARK VINA RESULT:    -4.776      2.909      6.563
REMARK INTER + INTRA:          -9.948
REMARK INTER:                  -8.895
REMARK INTRA:                  -1.052
REMARK UNBOUND:                -1.543
REMARK SMILES CCCCCCCCCCCCCCC(=O)[O-]
REMARK SMILES IDX 9 1 10 2 11 3 12 4 13 5 14 6 15 7 16 8 17 9 8 10 7 11 6 12
REMARK SMILES IDX 5 13 4 14 3 15 2 16 1 17
REMARK H PARENT
REMARK Flexibility Score: inf
ROOT
ATOM      1  C   UNL     1       4.419  45.913   9.350  1.00  0.00     0.000 C 
ENDROOT
BRANCH   1   2
ATOM      2  C   UNL     1       4.015  47.304   8.822  1.00  0.00     0.000 C 
BRANCH   2   3
ATOM      3  C   UNL     1       2.574  47.358   8.281  1.00  0.00     0.000 C 
BRANCH   3   4
ATOM      4  C   UNL     1       1.543  47.623   9.393  1.00  0.00     0.000 C 
BRANCH   4   5
ATOM      5  C   UNL     1       0.306  46.718   9.280  1.00  0.00     0.006 C 
BRANCH   5   6
ATOM      6  C   UNL     1       0.598  45.264   9.670  1.00  0.00     0.053 C 
BRANCH   6   7
ATOM      7  C   UNL     1       0.776  44.421   8.447  1.00  0.00     0.041 C 
ATOM      8  O   UNL     1       1.541  43.421   8.472  1.00  0.00    -0.550 OA
ATOM      9  O   UNL     1       0.135  44.768   7.264  1.00  0.00    -0.550 OA
ENDBRANCH   6   7
ENDBRANCH   5   6
ENDBRANCH   4   5
ENDBRANCH   3   4
ENDBRANCH   2   3
ENDBRANCH   1   2
BRANCH   1  10
ATOM     10  C   UNL     1       4.202  45.748  10.870  1.00  0.00     0.000 C 
BRANCH  10  11
ATOM     11  C   UNL     1       4.488  44.329  11.399  1.00  0.00    -0.000 C 
BRANCH  11  12
ATOM     12  C   UNL     1       3.222  43.505  11.709  1.00  0.00    -0.000 C 
BRANCH  12  13
ATOM     13  C   UNL     1       3.202  42.157  10.968  1.00  0.00    -0.000 C 
BRANCH  13  14
ATOM     14  C   UNL     1       3.036  40.960  11.917  1.00  0.00    -0.000 C 
BRANCH  14  15
ATOM     15  C   UNL     1       4.374  40.474  12.498  1.00  0.00    -0.000 C 
BRANCH  15  16
ATOM     16  C   UNL     1       4.399  38.955  12.728  1.00  0.00    -0.003 C 
ATOM     17  C   UNL     1       3.054  38.289  12.437  1.00  0.00     0.004 C 
ENDBRANCH  15  16
ENDBRANCH  14  15
ENDBRANCH  13  14
ENDBRANCH  12  13
ENDBRANCH  11  12
ENDBRANCH  10  11
ENDBRANCH   1  10
TORSDOF 13
ENDMDL
MODEL 7
REMARK VINA RESULT:    -4.751      0.959      3.058
REMARK INTER + INTRA:          -9.903
REMARK INTER:                  -8.407
REMARK INTRA:                  -1.497
REMARK UNBOUND:                -1.543
REMARK SMILES CCCCCCCCCCCCCCC(=O)[O-]
REMARK SMILES IDX 9 1 10 2 11 3 12 4 13 5 14 6 15 7 16 8 17 9 8 10 7 11 6 12
REMARK SMILES IDX 5 13 4 14 3 15 2 16 1 17
REMARK H PARENT
REMARK Flexibility Score: inf
ROOT
ATOM      1  C   UNL     1       5.242  46.604  10.224  1.00  0.00     0.000 C 
ENDROOT
BRANCH   1   2
ATOM      2  C   UNL     1       4.180  45.713  10.898  1.00  0.00     0.000 C 
BRANCH   2   3
ATOM      3  C   UNL     1       4.779  44.507  11.646  1.00  0.00     0.000 C 
BRANCH   3   4
ATOM      4  C   UNL     1       3.707  43.474  12.040  1.00  0.00     0.000 C 
BRANCH   4   5
ATOM      5  C   UNL     1       3.880  42.133  11.310  1.00  0.00     0.006 C 
BRANCH   5   6
ATOM      6  C   UNL     1       2.953  41.039  11.853  1.00  0.00     0.053 C 
BRANCH   6   7
ATOM      7  C   UNL     1       3.753  39.929  12.457  1.00  0.00     0.041 C 
ATOM      8  O   UNL     1       4.895  40.159  12.935  1.00  0.00    -0.550 OA
ATOM      9  O   UNL     1       3.258  38.631  12.450  1.00  0.00    -0.550 OA
ENDBRANCH   6   7
ENDBRANCH   5   6
ENDBRANCH   4   5
ENDBRANCH   3   4
ENDBRANCH   2   3
ENDBRANCH   1   2
BRANCH   1  10
ATOM     10  C   UNL     1       4.720  47.336   8.968  1.00  0.00     0.000 C 
BRANCH  10  11
ATOM     11  C   UNL     1       3.350  46.835   8.470  1.00  0.00    -0.000 C 
BRANCH  11  12
ATOM     12  C   UNL     1       2.456  47.939   7.870  1.00  0.00    -0.000 C 
BRANCH  12  13
ATOM     13  C   UNL     1       0.999  47.843   8.354  1.00  0.00    -0.000 C 
BRANCH  13  14
ATOM     14  C   UNL     1       0.452  46.407   8.309  1.00  0.00    -0.000 C 
BRANCH  14  15
ATOM     15  C   UNL     1      -0.056  45.923   9.677  1.00  0.00    -0.000 C 
BRANCH  15  16
ATOM     16  C   UNL     1       0.748  44.730  10.215  1.00  0.00    -0.003 C 
ATOM     17  C   UNL     1       1.416  43.916   9.106  1.00  0.00     0.004 C 
ENDBRANCH  15  16
ENDBRANCH  14  15
ENDBRANCH  13  14
ENDBRANCH  12  13
ENDBRANCH  11  12
ENDBRANCH  10  11
ENDBRANCH   1  10
TORSDOF 13
ENDMDL
MODEL 8
REMARK VINA RESULT:    -4.741      1.103      2.543
REMARK INTER + INTRA:          -9.887
REMARK INTER:                  -8.212
REMARK INTRA:                  -1.676
REMARK UNBOUND:                -1.543
REMARK SMILES CCCCCCCCCCCCCCC(=O)[O-]
REMARK SMILES IDX 9 1 10 2 11 3 12 4 13 5 14 6 15 7 16 8 17 9 8 10 7 11 6 12
REMARK SMILES IDX 5 13 4 14 3 15 2 16 1 17
REMARK H PARENT
REMARK Flexibility Score: inf
ROOT
ATOM      1  C   UNL     1       4.046  43.810   9.584  1.00  0.00     0.000 C 
ENDROOT
BRANCH   1   2
ATOM      2  C   UNL     1       3.570  44.581  10.831  1.00  0.00     0.000 C 
BRANCH   2   3
ATOM      3  C   UNL     1       3.579  43.732  12.116  1.00  0.00     0.000 C 
BRANCH   3   4
ATOM      4  C   UNL     1       2.291  42.905  12.278  1.00  0.00     0.000 C 
BRANCH   4   5
ATOM      5  C   UNL     1       2.528  41.398  12.083  1.00  0.00     0.006 C 
BRANCH   5   6
ATOM      6  C   UNL     1       4.016  41.028  12.082  1.00  0.00     0.053 C 
BRANCH   6   7
ATOM      7  C   UNL     1       4.223  39.696  12.730  1.00  0.00     0.041 C 
ATOM      8  O   UNL     1       5.147  39.537  13.570  1.00  0.00    -0.550 OA
ATOM      9  O   UNL     1       3.426  38.616  12.370  1.00  0.00    -0.550 OA
ENDBRANCH   6   7
ENDBRANCH   5   6
ENDBRANCH   4   5
ENDBRANCH   3   4
ENDBRANCH   2   3
ENDBRANCH   1   2
BRANCH   1  10
ATOM     10  C   UNL     1       2.891  43.178   8.777  1.00  0.00     0.000 C 
BRANCH  10  11
ATOM     11  C   UNL     1       1.500  43.754   9.109  1.00  0.00    -0.000 C 
BRANCH  11  12
ATOM     12  C   UNL     1       0.695  44.206   7.874  1.00  0.00    -0.000 C 
BRANCH  12  13
ATOM     13  C   UNL     1       0.199  45.658   7.995  1.00  0.00    -0.000 C 
BRANCH  13  14
ATOM     14  C   UNL     1       0.627  46.324   9.312  1.00  0.00    -0.000 C 
BRANCH  14  15
ATOM     15  C   UNL     1       1.267  47.705   9.097  1.00  0.00    -0.000 C 
BRANCH  15  16
ATOM     16  C   UNL     1       2.263  47.717   7.927  1.00  0.00    -0.003 C 
ATOM     17  C   UNL     1       3.693  47.394   8.362  1.00  0.00     0.004 C 
ENDBRANCH  15  16
ENDBRANCH  14  15
ENDBRANCH  13  14
ENDBRANCH  12  13
ENDBRANCH  11  12
ENDBRANCH  10  11
ENDBRANCH   1  10
TORSDOF 13
ENDMDL
MODEL 9
REMARK VINA RESULT:    -4.730      4.223      6.642
REMARK INTER + INTRA:          -9.868
REMARK INTER:                  -8.554
REMARK INTRA:                  -1.314
REMARK UNBOUND:                -1.543
REMARK SMILES CCCCCCCCCCCCCCC(=O)[O-]
REMARK SMILES IDX 9 1 10 2 11 3 12 4 13 5 14 6 15 7 16 8 17 9 8 10 7 11 6 12
REMARK SMILES IDX 5 13 4 14 3 15 2 16 1 17
REMARK H PARENT
REMARK Flexibility Score: inf
ROOT
ATOM      1  C   UNL     1       1.451  47.407   9.316  1.00  0.00     0.000 C 
ENDROOT
BRANCH   1   2
ATOM      2  C   UNL     1       2.134  47.781   7.986  1.00  0.00     0.000 C 
BRANCH   2   3
ATOM      3  C   UNL     1       3.663  47.602   8.012  1.00  0.00     0.000 C 
BRANCH   3   4
ATOM      4  C   UNL     1       4.119  46.635   9.119  1.00  0.00     0.000 C 
BRANCH   4   5
ATOM      5  C   UNL     1       5.396  47.109   9.830  1.00  0.00     0.006 C 
BRANCH   5   6
ATOM      6  C   UNL     1       6.360  47.843   8.890  1.00  0.00     0.053 C 
BRANCH   6   7
ATOM      7  C   UNL     1       6.492  49.278   9.293  1.00  0.00     0.041 C 
ATOM      8  O   UNL     1       6.761  49.579  10.485  1.00  0.00    -0.550 OA
ATOM      9  O   UNL     1       6.270  50.285   8.362  1.00  0.00    -0.550 OA
ENDBRANCH   6   7
ENDBRANCH   5   6
ENDBRANCH   4   5
ENDBRANCH   3   4
ENDBRANCH   2   3
ENDBRANCH   1   2
BRANCH   1  10
ATOM     10  C   UNL     1       0.390  46.295   9.168  1.00  0.00     0.000 C 
BRANCH  10  11
ATOM     11  C   UNL     1       0.137  45.488  10.456  1.00  0.00    -0.000 C 
BRANCH  11  12
ATOM     12  C   UNL     1       1.068  44.271  10.630  1.00  0.00    -0.000 C 
BRANCH  12  13
ATOM     13  C   UNL     1       1.717  43.834   9.305  1.00  0.00    -0.000 C 
BRANCH  13  14
ATOM     14  C   UNL     1       2.902  42.878   9.511  1.00  0.00    -0.000 C 
BRANCH  14  15
ATOM     15  C   UNL     1       2.841  42.141  10.860  1.00  0.00    -0.000 C 
BRANCH  15  16
ATOM     16  C   UNL     1       4.021  42.497  11.778  1.00  0.00    -0.003 C 
ATOM     17  C   UNL     1       4.460  43.955  11.642  1.00  0.00     0.004 C 
ENDBRANCH  15  16
ENDBRANCH  14  15
ENDBRANCH  13  14
ENDBRANCH  12  13
ENDBRANCH  11  12
ENDBRANCH  10  11
ENDBRANCH   1  10
TORSDOF 13
ENDMDL
