MODEL 1
REMARK VINA RESULT:    -4.768      0.000      0.000
REMARK INTER + INTRA:          -5.517
REMARK INTER:                  -5.465
REMARK INTRA:                  -0.052
REMARK UNBOUND:                -0.052
REMARK SMILES O=C([O-])c1cc(O)c(O)c(O)c1
REMARK SMILES IDX 4 1 5 2 12 3 6 4 10 5 8 6 2 7 1 8 3 9 7 10 11 12 9 14
REMARK H PARENT 7 11 11 13 9 15
REMARK Flexibility Score: inf
ROOT
ATOM      1  C   UNL     1      -9.097  12.847  13.635  1.00  0.00     0.005 A 
ATOM      2  C   UNL     1      -8.432  12.504  14.823  1.00  0.00     0.060 A 
ATOM      3  C   UNL     1      -8.571  12.409  12.407  1.00  0.00     0.060 A 
ATOM      4  C   UNL     1      -7.260  11.735  14.788  1.00  0.00     0.162 A 
ATOM      5  C   UNL     1      -7.399  11.640  12.366  1.00  0.00     0.162 A 
ATOM      6  C   UNL     1      -6.742  11.302  13.560  1.00  0.00     0.200 A 
ENDROOT
BRANCH   1   7
ATOM      7  C   UNL     1     -10.335  13.659  13.679  1.00  0.00     0.072 C 
ATOM      8  O   UNL     1     -11.083  13.744  12.668  1.00  0.00    -0.545 OA
ATOM      9  O   UNL     1     -10.688  14.341  14.838  1.00  0.00    -0.545 OA
ENDBRANCH   1   7
BRANCH   4  10
ATOM     10  O   UNL     1      -6.604  11.398  15.970  1.00  0.00    -0.504 OA
ATOM     11  H   UNL     1      -6.572  10.442  16.306  1.00  0.00     0.293 HD
ENDBRANCH   4  10
BRANCH   5  12
ATOM     12  O   UNL     1      -6.887  11.212  11.142  1.00  0.00    -0.504 OA
ATOM     13  H   UNL     1      -6.849  11.826  10.338  1.00  0.00     0.293 HD
ENDBRANCH   5  12
BRANCH   6  14
ATOM     14  O   UNL     1      -5.575  10.538  13.546  1.00  0.00    -0.502 OA
ATOM     15  H   UNL     1      -5.297   9.966  14.334  1.00  0.00     0.293 HD
ENDBRANCH   6  14
TORSDOF 4
ENDMDL
MODEL 2
REMARK VINA RESULT:    -4.766      1.397      2.471
REMARK INTER + INTRA:          -5.515
REMARK INTER:                  -5.464
REMARK INTRA:                  -0.051
REMARK UNBOUND:                -0.052
REMARK SMILES O=C([O-])c1cc(O)c(O)c(O)c1
REMARK SMILES IDX 4 1 5 2 12 3 6 4 10 5 8 6 2 7 1 8 3 9 7 10 11 12 9 14
REMARK H PARENT 7 11 11 13 9 15
REMARK Flexibility Score: inf
ROOT
ATOM      1  C   UNL     1      -9.253  12.478  12.812  1.00  0.00     0.005 A 
ATOM      2  C   UNL     1      -8.096  12.689  12.045  1.00  0.00     0.060 A 
ATOM      3  C   UNL     1      -9.210  11.559  13.874  1.00  0.00     0.060 A 
ATOM      4  C   UNL     1      -6.913  11.994  12.333  1.00  0.00     0.162 A 
ATOM      5  C   UNL     1      -8.029  10.861  14.167  1.00  0.00     0.162 A 
ATOM      6  C   UNL     1      -6.877  11.080  13.393  1.00  0.00     0.200 A 
ENDROOT
BRANCH   1   7
ATOM      7  C   UNL     1     -10.499  13.215  12.502  1.00  0.00     0.072 C 
ATOM      8  O   UNL     1     -10.459  14.309  11.878  1.00  0.00    -0.545 OA
ATOM      9  O   UNL     1     -11.733  12.709  12.897  1.00  0.00    -0.545 OA
ENDBRANCH   1   7
BRANCH   4  10
ATOM     10  O   UNL     1      -5.768  12.208  11.568  1.00  0.00    -0.504 OA
ATOM     11  H   UNL     1      -5.681  11.843  10.627  1.00  0.00     0.293 HD
ENDBRANCH   4  10
BRANCH   5  12
ATOM     12  O   UNL     1      -7.998   9.952  15.223  1.00  0.00    -0.504 OA
ATOM     13  H   UNL     1      -7.456  10.129  16.060  1.00  0.00     0.293 HD
ENDBRANCH   5  12
BRANCH   6  14
ATOM     14  O   UNL     1      -5.690  10.398  13.665  1.00  0.00    -0.502 OA
ATOM     15  H   UNL     1      -4.897  10.853  14.102  1.00  0.00     0.293 HD
ENDBRANCH   6  14
TORSDOF 4
ENDMDL
MODEL 3
REMARK VINA RESULT:    -4.732      7.663      9.162
REMARK INTER + INTRA:          -5.476
REMARK INTER:                  -5.430
REMARK INTRA:                  -0.046
REMARK UNBOUND:                -0.052
REMARK SMILES O=C([O-])c1cc(O)c(O)c(O)c1
REMARK SMILES IDX 4 1 5 2 12 3 6 4 10 5 8 6 2 7 1 8 3 9 7 10 11 12 9 14
REMARK H PARENT 7 11 11 13 9 15
REMARK Flexibility Score: inf
ROOT
ATOM      1  C   UNL     1      -4.745  14.837   6.888  1.00  0.00     0.005 A 
ATOM      2  C   UNL     1      -5.194  13.932   5.913  1.00  0.00     0.060 A 
ATOM      3  C   UNL     1      -5.612  15.851   7.329  1.00  0.00     0.060 A 
ATOM      4  C   UNL     1      -6.489  14.035   5.386  1.00  0.00     0.162 A 
ATOM      5  C   UNL     1      -6.909  15.960   6.806  1.00  0.00     0.162 A 
ATOM      6  C   UNL     1      -7.348  15.048   5.832  1.00  0.00     0.200 A 
ENDROOT
BRANCH   1   7
ATOM      7  C   UNL     1      -3.376  14.722   7.440  1.00  0.00     0.072 C 
ATOM      8  O   UNL     1      -2.519  15.620   7.222  1.00  0.00    -0.545 OA
ATOM      9  O   UNL     1      -3.017  13.620   8.209  1.00  0.00    -0.545 OA
ENDBRANCH   1   7
BRANCH   4  10
ATOM     10  O   UNL     1      -6.929  13.134   4.419  1.00  0.00    -0.504 OA
ATOM     11  H   UNL     1      -6.304  12.764   3.713  1.00  0.00     0.293 HD
ENDBRANCH   4  10
BRANCH   5  12
ATOM     12  O   UNL     1      -7.760  16.969   7.252  1.00  0.00    -0.504 OA
ATOM     13  H   UNL     1      -8.611  16.761   7.761  1.00  0.00     0.293 HD
ENDBRANCH   5  12
BRANCH   6  14
ATOM     14  O   UNL     1      -8.633  15.135   5.295  1.00  0.00    -0.502 OA
ATOM     15  H   UNL     1      -9.454  15.245   5.880  1.00  0.00     0.293 HD
ENDBRANCH   6  14
TORSDOF 4
ENDMDL
MODEL 4
REMARK VINA RESULT:    -4.703      7.664      8.974
REMARK INTER + INTRA:          -5.443
REMARK INTER:                  -5.397
REMARK INTRA:                  -0.046
REMARK UNBOUND:                -0.052
REMARK SMILES O=C([O-])c1cc(O)c(O)c(O)c1
REMARK SMILES IDX 4 1 5 2 12 3 6 4 10 5 8 6 2 7 1 8 3 9 7 10 11 12 9 14
REMARK H PARENT 7 11 11 13 9 15
REMARK Flexibility Score: inf
ROOT
ATOM      1  C   UNL     1      -4.878  14.879   6.787  1.00  0.00     0.005 A 
ATOM      2  C   UNL     1      -5.754  15.861   7.279  1.00  0.00     0.060 A 
ATOM      3  C   UNL     1      -5.344  13.972   5.820  1.00  0.00     0.060 A 
ATOM      4  C   UNL     1      -7.073  15.937   6.813  1.00  0.00     0.162 A 
ATOM      5  C   UNL     1      -6.663  14.044   5.349  1.00  0.00     0.162 A 
ATOM      6  C   UNL     1      -7.530  15.030   5.848  1.00  0.00     0.200 A 
ENDROOT
BRANCH   1   7
ATOM      7  C   UNL     1      -3.485  14.803   7.284  1.00  0.00     0.072 C 
ATOM      8  O   UNL     1      -2.657  15.713   7.012  1.00  0.00    -0.545 OA
ATOM      9  O   UNL     1      -3.072  13.724   8.058  1.00  0.00    -0.545 OA
ENDBRANCH   1   7
BRANCH   4  10
ATOM     10  O   UNL     1      -7.937  16.913   7.305  1.00  0.00    -0.504 OA
ATOM     11  H   UNL     1      -7.865  17.882   7.016  1.00  0.00     0.293 HD
ENDBRANCH   4  10
BRANCH   5  12
ATOM     12  O   UNL     1      -7.114  13.140   4.389  1.00  0.00    -0.504 OA
ATOM     13  H   UNL     1      -6.592  12.964   3.539  1.00  0.00     0.293 HD
ENDBRANCH   5  12
BRANCH   6  14
ATOM     14  O   UNL     1      -8.847  15.123   5.397  1.00  0.00    -0.502 OA
ATOM     15  H   UNL     1      -9.637  15.097   6.032  1.00  0.00     0.293 HD
ENDBRANCH   6  14
TORSDOF 4
ENDMDL
MODEL 5
REMARK VINA RESULT:    -4.522      6.538      7.881
REMARK INTER + INTRA:          -5.235
REMARK INTER:                  -5.184
REMARK INTRA:                  -0.050
REMARK UNBOUND:                -0.052
REMARK SMILES O=C([O-])c1cc(O)c(O)c(O)c1
REMARK SMILES IDX 4 1 5 2 12 3 6 4 10 5 8 6 2 7 1 8 3 9 7 10 11 12 9 14
REMARK H PARENT 7 11 11 13 9 15
REMARK Flexibility Score: inf
ROOT
ATOM      1  C   UNL     1      -8.749  15.789   6.612  1.00  0.00     0.005 A 
ATOM      2  C   UNL     1      -8.343  14.967   5.548  1.00  0.00     0.060 A 
ATOM      3  C   UNL     1      -8.011  15.771   7.808  1.00  0.00     0.060 A 
ATOM      4  C   UNL     1      -7.217  14.141   5.674  1.00  0.00     0.162 A 
ATOM      5  C   UNL     1      -6.884  14.947   7.940  1.00  0.00     0.162 A 
ATOM      6  C   UNL     1      -6.486  14.130   6.869  1.00  0.00     0.200 A 
ENDROOT
BRANCH   1   7
ATOM      7  C   UNL     1      -9.939  16.659   6.472  1.00  0.00     0.072 C 
ATOM      8  O   UNL     1     -10.907  16.309   5.746  1.00  0.00    -0.545 OA
ATOM      9  O   UNL     1     -10.004  17.876   7.142  1.00  0.00    -0.545 OA
ENDBRANCH   1   7
BRANCH   4  10
ATOM     10  O   UNL     1      -6.819  13.329   4.615  1.00  0.00    -0.504 OA
ATOM     11  H   UNL     1      -5.978  13.522   4.083  1.00  0.00     0.293 HD
ENDBRANCH   4  10
BRANCH   5  12
ATOM     12  O   UNL     1      -6.160  14.939   9.131  1.00  0.00    -0.504 OA
ATOM     13  H   UNL     1      -5.362  14.329   9.263  1.00  0.00     0.293 HD
ENDBRANCH   5  12
BRANCH   6  14
ATOM     14  O   UNL     1      -5.369  13.301   6.975  1.00  0.00    -0.502 OA
ATOM     15  H   UNL     1      -5.448  12.320   7.214  1.00  0.00     0.293 HD
ENDBRANCH   6  14
TORSDOF 4
ENDMDL
MODEL 6
REMARK VINA RESULT:    -4.519      6.508      7.539
REMARK INTER + INTRA:          -5.232
REMARK INTER:                  -5.182
REMARK INTRA:                  -0.050
REMARK UNBOUND:                -0.052
REMARK SMILES O=C([O-])c1cc(O)c(O)c(O)c1
REMARK SMILES IDX 4 1 5 2 12 3 6 4 10 5 8 6 2 7 1 8 3 9 7 10 11 12 9 14
REMARK H PARENT 7 11 11 13 9 15
REMARK Flexibility Score: inf
ROOT
ATOM      1  C   UNL     1      -8.773  15.817   6.652  1.00  0.00     0.005 A 
ATOM      2  C   UNL     1      -8.030  15.792   7.843  1.00  0.00     0.060 A 
ATOM      3  C   UNL     1      -8.386  14.986   5.587  1.00  0.00     0.060 A 
ATOM      4  C   UNL     1      -6.916  14.949   7.970  1.00  0.00     0.162 A 
ATOM      5  C   UNL     1      -7.273  14.141   5.709  1.00  0.00     0.162 A 
ATOM      6  C   UNL     1      -6.537  14.123   6.905  1.00  0.00     0.200 A 
ENDROOT
BRANCH   1   7
ATOM      7  C   UNL     1      -9.948  16.710   6.523  1.00  0.00     0.072 C 
ATOM      8  O   UNL     1      -9.973  17.825   7.109  1.00  0.00    -0.545 OA
ATOM      9  O   UNL     1     -11.041  16.328   5.753  1.00  0.00    -0.545 OA
ENDBRANCH   1   7
BRANCH   4  10
ATOM     10  O   UNL     1      -6.182  14.928   9.154  1.00  0.00    -0.504 OA
ATOM     11  H   UNL     1      -5.817  14.064   9.538  1.00  0.00     0.293 HD
ENDBRANCH   4  10
BRANCH   5  12
ATOM     12  O   UNL     1      -6.899  13.320   4.646  1.00  0.00    -0.504 OA
ATOM     13  H   UNL     1      -7.092  13.574   3.685  1.00  0.00     0.293 HD
ENDBRANCH   5  12
BRANCH   6  14
ATOM     14  O   UNL     1      -5.426  13.291   7.051  1.00  0.00    -0.502 OA
ATOM     15  H   UNL     1      -4.544  13.631   7.418  1.00  0.00     0.293 HD
ENDBRANCH   6  14
TORSDOF 4
ENDMDL
MODEL 7
REMARK VINA RESULT:    -4.453     15.043     15.754
REMARK INTER + INTRA:          -5.156
REMARK INTER:                  -5.106
REMARK INTRA:                  -0.051
REMARK UNBOUND:                -0.052
REMARK SMILES O=C([O-])c1cc(O)c(O)c(O)c1
REMARK SMILES IDX 4 1 5 2 12 3 6 4 10 5 8 6 2 7 1 8 3 9 7 10 11 12 9 14
REMARK H PARENT 7 11 11 13 9 15
REMARK Flexibility Score: inf
ROOT
ATOM      1  C   UNL     1      -0.201  25.147  10.407  1.00  0.00     0.005 A 
ATOM      2  C   UNL     1      -1.320  25.930  10.079  1.00  0.00     0.060 A 
ATOM      3  C   UNL     1      -0.128  24.560  11.682  1.00  0.00     0.060 A 
ATOM      4  C   UNL     1      -2.351  26.124  11.009  1.00  0.00     0.162 A 
ATOM      5  C   UNL     1      -1.157  24.751  12.616  1.00  0.00     0.162 A 
ATOM      6  C   UNL     1      -2.271  25.536  12.278  1.00  0.00     0.200 A 
ENDROOT
BRANCH   1   7
ATOM      7  C   UNL     1       0.885  24.945   9.420  1.00  0.00     0.072 C 
ATOM      8  O   UNL     1       2.071  24.761   9.802  1.00  0.00    -0.545 OA
ATOM      9  O   UNL     1       0.608  24.956   8.057  1.00  0.00    -0.545 OA
ENDBRANCH   1   7
BRANCH   4  10
ATOM     10  O   UNL     1      -3.458  26.902  10.678  1.00  0.00    -0.504 OA
ATOM     11  H   UNL     1      -4.119  26.612   9.967  1.00  0.00     0.293 HD
ENDBRANCH   4  10
BRANCH   5  12
ATOM     12  O   UNL     1      -1.073  24.164  13.877  1.00  0.00    -0.504 OA
ATOM     13  H   UNL     1      -1.827  24.239  14.549  1.00  0.00     0.293 HD
ENDBRANCH   5  12
BRANCH   6  14
ATOM     14  O   UNL     1      -3.308  25.741  13.189  1.00  0.00    -0.502 OA
ATOM     15  H   UNL     1      -3.924  24.992  13.481  1.00  0.00     0.293 HD
ENDBRANCH   6  14
TORSDOF 4
ENDMDL
MODEL 8
REMARK VINA RESULT:    -4.396     14.254     14.878
REMARK INTER + INTRA:          -5.090
REMARK INTER:                  -5.043
REMARK INTRA:                  -0.048
REMARK UNBOUND:                -0.052
REMARK SMILES O=C([O-])c1cc(O)c(O)c(O)c1
REMARK SMILES IDX 4 1 5 2 12 3 6 4 10 5 8 6 2 7 1 8 3 9 7 10 11 12 9 14
REMARK H PARENT 7 11 11 13 9 15
REMARK Flexibility Score: inf
ROOT
ATOM      1  C   UNL     1      -0.861  24.191  12.651  1.00  0.00     0.005 A 
ATOM      2  C   UNL     1      -2.105  24.167  13.304  1.00  0.00     0.060 A 
ATOM      3  C   UNL     1      -0.632  25.154  11.655  1.00  0.00     0.060 A 
ATOM      4  C   UNL     1      -3.104  25.091  12.968  1.00  0.00     0.162 A 
ATOM      5  C   UNL     1      -1.628  26.081  11.315  1.00  0.00     0.162 A 
ATOM      6  C   UNL     1      -2.867  26.049  11.974  1.00  0.00     0.200 A 
ENDROOT
BRANCH   1   7
ATOM      7  C   UNL     1       0.190  23.212  13.010  1.00  0.00     0.072 C 
ATOM      8  O   UNL     1       0.780  22.547  12.117  1.00  0.00    -0.545 OA
ATOM      9  O   UNL     1       0.541  23.012  14.341  1.00  0.00    -0.545 OA
ENDBRANCH   1   7
BRANCH   4  10
ATOM     10  O   UNL     1      -4.335  25.063  13.619  1.00  0.00    -0.504 OA
ATOM     11  H   UNL     1      -4.486  24.500  14.448  1.00  0.00     0.293 HD
ENDBRANCH   4  10
BRANCH   5  12
ATOM     12  O   UNL     1      -1.389  27.033  10.325  1.00  0.00    -0.504 OA
ATOM     13  H   UNL     1      -0.846  27.868  10.510  1.00  0.00     0.293 HD
ENDBRANCH   5  12
BRANCH   6  14
ATOM     14  O   UNL     1      -3.875  26.960  11.654  1.00  0.00    -0.502 OA
ATOM     15  H   UNL     1      -3.682  27.825  11.162  1.00  0.00     0.293 HD
ENDBRANCH   6  14
TORSDOF 4
ENDMDL
