MODEL 1
REMARK VINA RESULT:    32.128      0.000      0.000
REMARK INTER + INTRA:          38.195
REMARK INTER:                  38.701
REMARK INTRA:                  -0.507
REMARK UNBOUND:                -0.507
REMARK SMILES O=c1ccn([C@H]2O[C@@H](CO)[C@@H](O)[C@@H]2O)c(=O)[nH]1
REMARK SMILES IDX 6 1 13 2 11 3 8 4 7 5 5 6 3 7 4 8 2 9 17 10 1 11 15 12 16 14
REMARK SMILES IDX 14 15 12 17 9 19 10 20
REMARK H PARENT 17 13 14 16 12 18 10 21
REMARK Flexibility Score: inf
ROOT
ATOM      1  C   UNL     1      24.851  -8.861  12.908  1.00  0.00     0.255 C 
ATOM      2  C   UNL     1      26.136  -8.394  13.616  1.00  0.00     0.196 C 
ATOM      3  C   UNL     1      27.024  -9.622  13.605  1.00  0.00     0.179 C 
ATOM      4  C   UNL     1      26.015 -10.748  13.396  1.00  0.00     0.178 C 
ATOM      5  O   UNL     1      24.951 -10.244  12.626  1.00  0.00    -0.347 OA
ENDROOT
BRANCH   1   6
ATOM      6  N   UNL     1      24.640  -8.098  11.659  1.00  0.00    -0.271 N 
ATOM      7  C   UNL     1      25.167  -7.720   9.349  1.00  0.00     0.090 A 
ATOM      8  C   UNL     1      25.325  -8.446  10.526  1.00  0.00     0.099 A 
ATOM      9  C   UNL     1      24.313  -6.623   9.352  1.00  0.00     0.253 A 
ATOM     10  N   UNL     1      23.660  -6.279  10.491  1.00  0.00    -0.274 N 
ATOM     11  O   UNL     1      24.149  -5.949   8.300  1.00  0.00    -0.269 OA
ATOM     12  C   UNL     1      23.821  -6.994  11.640  1.00  0.00     0.330 A 
ATOM     13  H   UNL     1      23.027  -5.446  10.489  1.00  0.00     0.175 HD
ATOM     14  O   UNL     1      23.214  -6.625  12.683  1.00  0.00    -0.248 OA
ENDBRANCH   1   6
BRANCH   2  15
ATOM     15  O   UNL     1      25.872  -7.960  14.929  1.00  0.00    -0.386 OA
ATOM     16  H   UNL     1      24.897  -7.783  15.007  1.00  0.00     0.211 HD
ENDBRANCH   2  15
BRANCH   3  17
ATOM     17  O   UNL     1      27.930  -9.552  12.532  1.00  0.00    -0.387 OA
ATOM     18  H   UNL     1      28.794  -9.241  12.912  1.00  0.00     0.211 HD
ENDBRANCH   3  17
BRANCH   4  19
ATOM     19  C   UNL     1      26.617 -11.991  12.724  1.00  0.00     0.191 C 
BRANCH  19  20
ATOM     20  O   UNL     1      26.982 -11.702  11.402  1.00  0.00    -0.394 OA
ATOM     21  H   UNL     1      26.203 -11.250  10.982  1.00  0.00     0.210 HD
ENDBRANCH  19  20
ENDBRANCH   4  19
TORSDOF 5
ENDMDL
MODEL 2
REMARK VINA RESULT:    32.588      1.740      4.944
REMARK INTER + INTRA:          38.750
REMARK INTER:                  39.383
REMARK INTRA:                  -0.634
REMARK UNBOUND:                -0.507
REMARK SMILES O=c1ccn([C@H]2O[C@@H](CO)[C@@H](O)[C@@H]2O)c(=O)[nH]1
REMARK SMILES IDX 6 1 13 2 11 3 8 4 7 5 5 6 3 7 4 8 2 9 17 10 1 11 15 12 16 14
REMARK SMILES IDX 14 15 12 17 9 19 10 20
REMARK H PARENT 17 13 14 16 12 18 10 21
REMARK Flexibility Score: inf
ROOT
ATOM      1  C   UNL     1      25.044  -7.406  11.934  1.00  0.00     0.255 C 
ATOM      2  C   UNL     1      23.512  -7.523  11.846  1.00  0.00     0.196 C 
ATOM      3  C   UNL     1      23.199  -7.137  10.414  1.00  0.00     0.179 C 
ATOM      4  C   UNL     1      24.449  -6.359  10.010  1.00  0.00     0.178 C 
ATOM      5  O   UNL     1      25.544  -6.895  10.714  1.00  0.00    -0.347 OA
ENDROOT
BRANCH   1   6
ATOM      6  N   UNL     1      25.649  -8.724  12.223  1.00  0.00    -0.271 N 
ATOM      7  C   UNL     1      26.490 -10.832  11.443  1.00  0.00     0.090 A 
ATOM      8  C   UNL     1      25.951  -9.573  11.192  1.00  0.00     0.099 A 
ATOM      9  C   UNL     1      26.699 -11.217  12.763  1.00  0.00     0.253 A 
ATOM     10  N   UNL     1      26.371 -10.371  13.773  1.00  0.00    -0.274 N 
ATOM     11  O   UNL     1      27.187 -12.350  13.019  1.00  0.00    -0.269 OA
ATOM     12  C   UNL     1      25.843  -9.140  13.519  1.00  0.00     0.330 A 
ATOM     13  H   UNL     1      26.520 -10.671  14.764  1.00  0.00     0.175 HD
ATOM     14  O   UNL     1      25.530  -8.395  14.487  1.00  0.00    -0.248 OA
ENDBRANCH   1   6
BRANCH   2  15
ATOM     15  O   UNL     1      22.876  -6.664  12.763  1.00  0.00    -0.386 OA
ATOM     16  H   UNL     1      21.938  -6.972  12.876  1.00  0.00     0.211 HD
ENDBRANCH   2  15
BRANCH   3  17
ATOM     17  O   UNL     1      23.047  -8.291   9.626  1.00  0.00    -0.387 OA
ATOM     18  H   UNL     1      23.549  -9.015  10.085  1.00  0.00     0.211 HD
ENDBRANCH   3  17
BRANCH   4  19
ATOM     19  C   UNL     1      24.723  -6.385   8.499  1.00  0.00     0.191 C 
BRANCH  19  20
ATOM     20  O   UNL     1      25.685  -7.358   8.194  1.00  0.00    -0.394 OA
ATOM     21  H   UNL     1      25.443  -7.730   7.305  1.00  0.00     0.210 HD
ENDBRANCH  19  20
ENDBRANCH   4  19
TORSDOF 5
ENDMDL
MODEL 3
REMARK VINA RESULT:    32.842     11.401     13.000
REMARK INTER + INTRA:          39.055
REMARK INTER:                  39.668
REMARK INTRA:                  -0.613
REMARK UNBOUND:                -0.507
REMARK SMILES O=c1ccn([C@H]2O[C@@H](CO)[C@@H](O)[C@@H]2O)c(=O)[nH]1
REMARK SMILES IDX 6 1 13 2 11 3 8 4 7 5 5 6 3 7 4 8 2 9 17 10 1 11 15 12 16 14
REMARK SMILES IDX 14 15 12 17 9 19 10 20
REMARK H PARENT 17 13 14 16 12 18 10 21
REMARK Flexibility Score: inf
ROOT
ATOM      1  C   UNL     1      31.402 -10.933   0.631  1.00  0.00     0.255 C 
ATOM      2  C   UNL     1      32.202 -10.193   1.717  1.00  0.00     0.196 C 
ATOM      3  C   UNL     1      31.519  -8.843   1.816  1.00  0.00     0.179 C 
ATOM      4  C   UNL     1      30.790  -8.752   0.479  1.00  0.00     0.178 C 
ATOM      5  O   UNL     1      30.435 -10.056   0.085  1.00  0.00    -0.347 OA
ENDROOT
BRANCH   1   6
ATOM      6  N   UNL     1      30.745 -12.131   1.196  1.00  0.00    -0.271 N 
ATOM      7  C   UNL     1      28.853 -13.140   2.275  1.00  0.00     0.090 A 
ATOM      8  C   UNL     1      29.478 -12.033   1.707  1.00  0.00     0.099 A 
ATOM      9  C   UNL     1      29.549 -14.343   2.329  1.00  0.00     0.253 A 
ATOM     10  N   UNL     1      30.813 -14.415   1.840  1.00  0.00    -0.274 N 
ATOM     11  O   UNL     1      29.008 -15.362   2.837  1.00  0.00    -0.269 OA
ATOM     12  C   UNL     1      31.418 -13.326   1.286  1.00  0.00     0.330 A 
ATOM     13  H   UNL     1      31.335 -15.320   1.894  1.00  0.00     0.175 HD
ATOM     14  O   UNL     1      32.603 -13.430   0.865  1.00  0.00    -0.248 OA
ENDBRANCH   1   6
BRANCH   2  15
ATOM     15  O   UNL     1      33.558 -10.060   1.358  1.00  0.00    -0.386 OA
ATOM     16  H   UNL     1      34.003 -10.936   1.502  1.00  0.00     0.211 HD
ENDBRANCH   2  15
BRANCH   3  17
ATOM     17  O   UNL     1      30.610  -8.841   2.888  1.00  0.00    -0.387 OA
ATOM     18  H   UNL     1      31.133  -8.621   3.702  1.00  0.00     0.211 HD
ENDBRANCH   3  17
BRANCH   4  19
ATOM     19  C   UNL     1      29.546  -7.853   0.521  1.00  0.00     0.191 C 
BRANCH  19  20
ATOM     20  O   UNL     1      28.514  -8.479   1.234  1.00  0.00    -0.394 OA
ATOM     21  H   UNL     1      27.748  -7.847   1.242  1.00  0.00     0.210 HD
ENDBRANCH  19  20
ENDBRANCH   4  19
TORSDOF 5
ENDMDL
MODEL 4
REMARK VINA RESULT:    33.341      3.125      5.970
REMARK INTER + INTRA:          39.656
REMARK INTER:                  39.924
REMARK INTRA:                  -0.268
REMARK UNBOUND:                -0.507
REMARK SMILES O=c1ccn([C@H]2O[C@@H](CO)[C@@H](O)[C@@H]2O)c(=O)[nH]1
REMARK SMILES IDX 6 1 13 2 11 3 8 4 7 5 5 6 3 7 4 8 2 9 17 10 1 11 15 12 16 14
REMARK SMILES IDX 14 15 12 17 9 19 10 20
REMARK H PARENT 17 13 14 16 12 18 10 21
REMARK Flexibility Score: inf
ROOT
ATOM      1  C   UNL     1      25.124 -10.728  13.511  1.00  0.00     0.255 C 
ATOM      2  C   UNL     1      26.540 -10.351  13.044  1.00  0.00     0.196 C 
ATOM      3  C   UNL     1      26.367  -8.974  12.432  1.00  0.00     0.179 C 
ATOM      4  C   UNL     1      24.870  -8.939  12.137  1.00  0.00     0.178 C 
ATOM      5  O   UNL     1      24.215  -9.723  13.105  1.00  0.00    -0.347 OA
ENDROOT
BRANCH   1   6
ATOM      6  N   UNL     1      25.087 -10.887  14.981  1.00  0.00    -0.271 N 
ATOM      7  C   UNL     1      25.929 -10.297  17.149  1.00  0.00     0.090 A 
ATOM      8  C   UNL     1      25.923 -10.139  15.766  1.00  0.00     0.099 A 
ATOM      9  C   UNL     1      25.082 -11.243  17.716  1.00  0.00     0.253 A 
ATOM     10  N   UNL     1      24.278 -11.993  16.919  1.00  0.00    -0.274 N 
ATOM     11  O   UNL     1      25.066 -11.407  18.965  1.00  0.00    -0.269 OA
ATOM     12  C   UNL     1      24.279 -11.833  15.565  1.00  0.00     0.330 A 
ATOM     13  H   UNL     1      23.651 -12.711  17.351  1.00  0.00     0.175 HD
ATOM     14  O   UNL     1      23.533 -12.567  14.860  1.00  0.00    -0.248 OA
ENDBRANCH   1   6
BRANCH   2  15
ATOM     15  O   UNL     1      27.036 -11.275  12.103  1.00  0.00    -0.386 OA
ATOM     16  H   UNL     1      27.869 -11.673  12.471  1.00  0.00     0.211 HD
ENDBRANCH   2  15
BRANCH   3  17
ATOM     17  O   UNL     1      26.720  -7.985  13.366  1.00  0.00    -0.387 OA
ATOM     18  H   UNL     1      26.416  -8.312  14.253  1.00  0.00     0.211 HD
ENDBRANCH   3  17
BRANCH   4  19
ATOM     19  C   UNL     1      24.285  -7.520  12.115  1.00  0.00     0.191 C 
BRANCH  19  20
ATOM     20  O   UNL     1      24.129  -7.076  10.795  1.00  0.00    -0.394 OA
ATOM     21  H   UNL     1      23.592  -6.241  10.836  1.00  0.00     0.210 HD
ENDBRANCH  19  20
ENDBRANCH   4  19
TORSDOF 5
ENDMDL
MODEL 5
REMARK VINA RESULT:    33.759     11.335     12.518
REMARK INTER + INTRA:          40.159
REMARK INTER:                  40.402
REMARK INTRA:                  -0.243
REMARK UNBOUND:                -0.507
REMARK SMILES O=c1ccn([C@H]2O[C@@H](CO)[C@@H](O)[C@@H]2O)c(=O)[nH]1
REMARK SMILES IDX 6 1 13 2 11 3 8 4 7 5 5 6 3 7 4 8 2 9 17 10 1 11 15 12 16 14
REMARK SMILES IDX 14 15 12 17 9 19 10 20
REMARK H PARENT 17 13 14 16 12 18 10 21
REMARK Flexibility Score: inf
ROOT
ATOM      1  C   UNL     1      31.366 -12.894   1.197  1.00  0.00     0.255 C 
ATOM      2  C   UNL     1      29.995 -13.579   1.059  1.00  0.00     0.196 C 
ATOM      3  C   UNL     1      29.808 -14.290   2.385  1.00  0.00     0.179 C 
ATOM      4  C   UNL     1      31.240 -14.387   2.903  1.00  0.00     0.178 C 
ATOM      5  O   UNL     1      31.953 -13.270   2.428  1.00  0.00    -0.347 OA
ENDROOT
BRANCH   1   6
ATOM      6  N   UNL     1      31.222 -11.425   1.126  1.00  0.00    -0.271 N 
ATOM      7  C   UNL     1      29.813  -9.485   1.023  1.00  0.00     0.090 A 
ATOM      8  C   UNL     1      29.973 -10.864   1.123  1.00  0.00     0.099 A 
ATOM      9  C   UNL     1      30.948  -8.689   0.908  1.00  0.00     0.253 A 
ATOM     10  N   UNL     1      32.178  -9.265   0.889  1.00  0.00    -0.274 N 
ATOM     11  O   UNL     1      30.833  -7.437   0.817  1.00  0.00    -0.269 OA
ATOM     12  C   UNL     1      32.325 -10.616   0.986  1.00  0.00     0.330 A 
ATOM     13  H   UNL     1      33.026  -8.661   0.792  1.00  0.00     0.175 HD
ATOM     14  O   UNL     1      33.484 -11.112   0.941  1.00  0.00    -0.248 OA
ENDBRANCH   1   6
BRANCH   2  15
ATOM     15  O   UNL     1      29.977 -14.485  -0.019  1.00  0.00    -0.386 OA
ATOM     16  H   UNL     1      29.360 -15.228   0.211  1.00  0.00     0.211 HD
ENDBRANCH   2  15
BRANCH   3  17
ATOM     17  O   UNL     1      29.013 -13.509   3.241  1.00  0.00    -0.387 OA
ATOM     18  H   UNL     1      29.294 -13.730   4.168  1.00  0.00     0.211 HD
ENDBRANCH   3  17
BRANCH   4  19
ATOM     19  C   UNL     1      31.331 -14.464   4.434  1.00  0.00     0.191 C 
BRANCH  19  20
ATOM     20  O   UNL     1      32.672 -14.520   4.841  1.00  0.00    -0.394 OA
ATOM     21  H   UNL     1      33.081 -15.293   4.369  1.00  0.00     0.210 HD
ENDBRANCH  19  20
ENDBRANCH   4  19
TORSDOF 5
ENDMDL
MODEL 6
REMARK VINA RESULT:    34.037     11.838     12.864
REMARK INTER + INTRA:          40.494
REMARK INTER:                  41.048
REMARK INTRA:                  -0.553
REMARK UNBOUND:                -0.507
REMARK SMILES O=c1ccn([C@H]2O[C@@H](CO)[C@@H](O)[C@@H]2O)c(=O)[nH]1
REMARK SMILES IDX 6 1 13 2 11 3 8 4 7 5 5 6 3 7 4 8 2 9 17 10 1 11 15 12 16 14
REMARK SMILES IDX 14 15 12 17 9 19 10 20
REMARK H PARENT 17 13 14 16 12 18 10 21
REMARK Flexibility Score: inf
ROOT
ATOM      1  C   UNL     1      31.359 -12.816   1.889  1.00  0.00     0.255 C 
ATOM      2  C   UNL     1      31.518 -13.701   0.640  1.00  0.00     0.196 C 
ATOM      3  C   UNL     1      30.323 -14.633   0.700  1.00  0.00     0.179 C 
ATOM      4  C   UNL     1      29.929 -14.556   2.173  1.00  0.00     0.178 C 
ATOM      5  O   UNL     1      30.254 -13.271   2.645  1.00  0.00    -0.347 OA
ENDROOT
BRANCH   1   6
ATOM      6  N   UNL     1      31.167 -11.402   1.502  1.00  0.00    -0.271 N 
ATOM      7  C   UNL     1      29.698  -9.595   0.925  1.00  0.00     0.090 A 
ATOM      8  C   UNL     1      29.901 -10.913   1.323  1.00  0.00     0.099 A 
ATOM      9  C   UNL     1      30.809  -8.789   0.697  1.00  0.00     0.253 A 
ATOM     10  N   UNL     1      32.057  -9.299   0.856  1.00  0.00    -0.274 N 
ATOM     11  O   UNL     1      30.655  -7.591   0.338  1.00  0.00    -0.269 OA
ATOM     12  C   UNL     1      32.247 -10.591   1.244  1.00  0.00     0.330 A 
ATOM     13  H   UNL     1      32.888  -8.690   0.671  1.00  0.00     0.175 HD
ATOM     14  O   UNL     1      33.424 -11.031   1.357  1.00  0.00    -0.248 OA
ENDBRANCH   1   6
BRANCH   2  15
ATOM     15  O   UNL     1      32.731 -14.416   0.665  1.00  0.00    -0.386 OA
ATOM     16  H   UNL     1      33.180 -14.294  -0.213  1.00  0.00     0.211 HD
ENDBRANCH   2  15
BRANCH   3  17
ATOM     17  O   UNL     1      29.293 -14.149  -0.124  1.00  0.00    -0.387 OA
ATOM     18  H   UNL     1      28.682 -13.631   0.463  1.00  0.00     0.211 HD
ENDBRANCH   3  17
BRANCH   4  19
ATOM     19  C   UNL     1      28.444 -14.856   2.424  1.00  0.00     0.191 C 
BRANCH  19  20
ATOM     20  O   UNL     1      28.123 -16.143   1.970  1.00  0.00    -0.394 OA
ATOM     21  H   UNL     1      27.884 -16.677   2.773  1.00  0.00     0.210 HD
ENDBRANCH  19  20
ENDBRANCH   4  19
TORSDOF 5
ENDMDL
MODEL 7
REMARK VINA RESULT:    34.240      2.278      5.366
REMARK INTER + INTRA:          40.739
REMARK INTER:                  40.951
REMARK INTRA:                  -0.212
REMARK UNBOUND:                -0.507
REMARK SMILES O=c1ccn([C@H]2O[C@@H](CO)[C@@H](O)[C@@H]2O)c(=O)[nH]1
REMARK SMILES IDX 6 1 13 2 11 3 8 4 7 5 5 6 3 7 4 8 2 9 17 10 1 11 15 12 16 14
REMARK SMILES IDX 14 15 12 17 9 19 10 20
REMARK H PARENT 17 13 14 16 12 18 10 21
REMARK Flexibility Score: inf
ROOT
ATOM      1  C   UNL     1      25.701  -9.103  12.972  1.00  0.00     0.255 C 
ATOM      2  C   UNL     1      24.840  -8.046  13.687  1.00  0.00     0.196 C 
ATOM      3  C   UNL     1      24.172  -7.293  12.554  1.00  0.00     0.179 C 
ATOM      4  C   UNL     1      25.082  -7.615  11.373  1.00  0.00     0.178 C 
ATOM      5  O   UNL     1      25.623  -8.899  11.574  1.00  0.00    -0.347 OA
ENDROOT
BRANCH   1   6
ATOM      6  N   UNL     1      25.243 -10.465  13.317  1.00  0.00    -0.271 N 
ATOM      7  C   UNL     1      23.697 -11.904  14.457  1.00  0.00     0.090 A 
ATOM      8  C   UNL     1      24.126 -10.631  14.092  1.00  0.00     0.099 A 
ATOM      9  C   UNL     1      24.435 -13.004  14.032  1.00  0.00     0.253 A 
ATOM     10  N   UNL     1      25.553 -12.819  13.284  1.00  0.00    -0.274 N 
ATOM     11  O   UNL     1      24.069 -14.168  14.346  1.00  0.00    -0.269 OA
ATOM     12  C   UNL     1      25.967 -11.569  12.932  1.00  0.00     0.330 A 
ATOM     13  H   UNL     1      26.110 -13.650  12.977  1.00  0.00     0.175 HD
ATOM     14  O   UNL     1      27.025 -11.440  12.256  1.00  0.00    -0.248 OA
ENDBRANCH   1   6
BRANCH   2  15
ATOM     15  O   UNL     1      25.628  -7.191  14.482  1.00  0.00    -0.386 OA
ATOM     16  H   UNL     1      25.277  -6.267  14.385  1.00  0.00     0.211 HD
ENDBRANCH   2  15
BRANCH   3  17
ATOM     17  O   UNL     1      22.875  -7.792  12.343  1.00  0.00    -0.387 OA
ATOM     18  H   UNL     1      22.851  -8.132  11.410  1.00  0.00     0.211 HD
ENDBRANCH   3  17
BRANCH   4  19
ATOM     19  C   UNL     1      24.368  -7.545  10.015  1.00  0.00     0.191 C 
BRANCH  19  20
ATOM     20  O   UNL     1      25.115  -6.779   9.109  1.00  0.00    -0.394 OA
ATOM     21  H   UNL     1      24.631  -5.919   8.996  1.00  0.00     0.210 HD
ENDBRANCH  19  20
ENDBRANCH   4  19
TORSDOF 5
ENDMDL
