MODEL 1
REMARK VINA RESULT:    -6.178      0.000      0.000
REMARK INTER + INTRA:          -6.985
REMARK INTER:                  -7.623
REMARK INTRA:                   0.638
REMARK UNBOUND:                 0.638
REMARK SMILES C=C1[C@@H]2CC[C@H]3[C@@H]2C(C)(C)CCC[C@@]13C
REMARK SMILES IDX 14 1 6 2 7 3 3 4 2 5 1 6 4 7 5 8 15 9 8 10 9 11 10 12 11 13
REMARK SMILES IDX 13 15 12 16
REMARK H PARENT
REMARK Flexibility Score: 80.00
ROOT
ATOM      1  C   UNL     1      -3.175 -16.288  10.038  1.00  0.00    -0.008 C 
ATOM      2  C   UNL     1      -3.058 -14.748   9.706  1.00  0.00     0.003 C 
ATOM      3  C   UNL     1      -3.082 -14.679   8.165  1.00  0.00     0.006 C 
ATOM      4  C   UNL     1      -1.960 -15.704   8.001  1.00  0.00     0.019 C 
ATOM      5  C   UNL     1      -2.457 -16.850   8.836  1.00  0.00    -0.068 C 
ATOM      6  C   UNL     1      -2.216 -18.143   8.590  1.00  0.00     0.009 C 
ATOM      7  C   UNL     1      -0.826 -15.029   8.810  1.00  0.00     0.008 C 
ATOM      8  C   UNL     1      -1.592 -14.281   9.929  1.00  0.00     0.005 C 
ATOM      9  C   UNL     1      -2.452 -16.697  11.350  1.00  0.00     0.016 C 
ENDROOT
BRANCH   3  10
ATOM     10  C   UNL     1      -4.453 -14.875   7.384  1.00  0.00    -0.032 C 
ATOM     11  C   UNL     1      -4.267 -15.752   6.120  1.00  0.00     0.011 C 
ATOM     12  C   UNL     1      -4.916 -13.481   6.878  1.00  0.00     0.011 C 
BRANCH  10  13
ATOM     13  C   UNL     1      -5.630 -15.408   8.250  1.00  0.00     0.007 CG0
ATOM     14  G   UNL     1      -5.435 -16.796   8.855  1.00  0.00     0.000 G0
ENDBRANCH  10  13
ENDBRANCH   3  10
BRANCH   1  15
ATOM     15  C   UNL     1      -4.647 -16.766  10.152  1.00  0.00     0.011 C 
BRANCH  15  16
ATOM     16  C   UNL     1      -5.442 -16.800   8.850  1.00  0.00     0.001 CG0
ATOM     17  G   UNL     1      -5.629 -15.410   8.246  1.00  0.00     0.000 G0
ENDBRANCH  15  16
ENDBRANCH   1  15
TORSDOF 0
ENDMDL
MODEL 2
REMARK VINA RESULT:    -5.347      1.513      3.057
REMARK INTER + INTRA:          -5.959
REMARK INTER:                  -6.609
REMARK INTRA:                   0.650
REMARK UNBOUND:                 0.638
REMARK SMILES C=C1[C@@H]2CC[C@H]3[C@@H]2C(C)(C)CCC[C@@]13C
REMARK SMILES IDX 14 1 6 2 7 3 3 4 2 5 1 6 4 7 5 8 15 9 8 10 9 11 10 12 11 13
REMARK SMILES IDX 13 15 12 16
REMARK H PARENT
REMARK Flexibility Score: 80.00
ROOT
ATOM      1  C   UNL     1      -1.894 -16.133   8.541  1.00  0.00    -0.008 C 
ATOM      2  C   UNL     1      -2.150 -15.601  10.005  1.00  0.00     0.003 C 
ATOM      3  C   UNL     1      -3.674 -15.365  10.073  1.00  0.00     0.006 C 
ATOM      4  C   UNL     1      -3.698 -14.509   8.807  1.00  0.00     0.019 C 
ATOM      5  C   UNL     1      -2.989 -15.391   7.817  1.00  0.00    -0.068 C 
ATOM      6  C   UNL     1      -3.240 -15.429   6.503  1.00  0.00     0.009 C 
ATOM      7  C   UNL     1      -2.702 -13.388   9.191  1.00  0.00     0.008 C 
ATOM      8  C   UNL     1      -1.688 -14.121  10.106  1.00  0.00     0.005 C 
ATOM      9  C   UNL     1      -0.501 -15.744   7.974  1.00  0.00     0.016 C 
ENDROOT
BRANCH   3  10
ATOM     10  C   UNL     1      -4.662 -16.603  10.210  1.00  0.00    -0.032 C 
ATOM     11  C   UNL     1      -5.904 -16.442   9.297  1.00  0.00     0.011 C 
ATOM     12  C   UNL     1      -5.198 -16.624  11.669  1.00  0.00     0.011 C 
BRANCH  10  13
ATOM     13  C   UNL     1      -4.002 -17.995   9.996  1.00  0.00     0.007 CG0
ATOM     14  G   UNL     1      -3.426 -18.251   8.606  1.00  0.00     0.000 G0
ENDBRANCH  10  13
ENDBRANCH   3  10
BRANCH   1  15
ATOM     15  C   UNL     1      -2.023 -17.676   8.431  1.00  0.00     0.011 C 
BRANCH  15  16
ATOM     16  C   UNL     1      -3.431 -18.241   8.598  1.00  0.00     0.001 CG0
ATOM     17  G   UNL     1      -3.997 -17.994   9.993  1.00  0.00     0.000 G0
ENDBRANCH  15  16
ENDBRANCH   1  15
TORSDOF 0
ENDMDL
MODEL 3
REMARK VINA RESULT:    -4.960      1.940      4.181
REMARK INTER + INTRA:          -5.482
REMARK INTER:                  -6.109
REMARK INTRA:                   0.627
REMARK UNBOUND:                 0.638
REMARK SMILES C=C1[C@@H]2CC[C@H]3[C@@H]2C(C)(C)CCC[C@@]13C
REMARK SMILES IDX 14 1 6 2 7 3 3 4 2 5 1 6 4 7 5 8 15 9 8 10 9 11 10 12 11 13
REMARK SMILES IDX 13 15 12 16
REMARK H PARENT
REMARK Flexibility Score: 80.00
ROOT
ATOM      1  C   UNL     1      -3.105 -15.062   8.411  1.00  0.00    -0.008 C 
ATOM      2  C   UNL     1      -4.250 -15.680   9.305  1.00  0.00     0.003 C 
ATOM      3  C   UNL     1      -3.506 -16.408  10.443  1.00  0.00     0.006 C 
ATOM      4  C   UNL     1      -2.611 -17.197   9.488  1.00  0.00     0.019 C 
ATOM      5  C   UNL     1      -2.041 -16.110   8.621  1.00  0.00    -0.068 C 
ATOM      6  C   UNL     1      -0.825 -16.129   8.063  1.00  0.00     0.009 C 
ATOM      7  C   UNL     1      -3.670 -17.933   8.633  1.00  0.00     0.008 C 
ATOM      8  C   UNL     1      -4.847 -16.926   8.593  1.00  0.00     0.005 C 
ATOM      9  C   UNL     1      -3.480 -14.956   6.907  1.00  0.00     0.016 C 
ENDROOT
BRANCH   3  10
ATOM     10  C   UNL     1      -2.856 -15.571  11.627  1.00  0.00    -0.032 C 
ATOM     11  C   UNL     1      -1.464 -16.129  12.021  1.00  0.00     0.011 C 
ATOM     12  C   UNL     1      -3.759 -15.738  12.881  1.00  0.00     0.011 C 
BRANCH  10  13
ATOM     13  C   UNL     1      -2.779 -14.037  11.380  1.00  0.00     0.007 CG0
ATOM     14  G   UNL     1      -1.901 -13.594  10.213  1.00  0.00     0.000 G0
ENDBRANCH  10  13
ENDBRANCH   3  10
BRANCH   1  15
ATOM     15  C   UNL     1      -2.674 -13.647   8.881  1.00  0.00     0.011 C 
BRANCH  15  16
ATOM     16  C   UNL     1      -1.911 -13.586  10.201  1.00  0.00     0.001 CG0
ATOM     17  G   UNL     1      -2.764 -14.026  11.388  1.00  0.00     0.000 G0
ENDBRANCH  15  16
ENDBRANCH   1  15
TORSDOF 0
ENDMDL
MODEL 4
REMARK VINA RESULT:    -4.918      1.585      3.502
REMARK INTER + INTRA:          -5.431
REMARK INTER:                  -6.063
REMARK INTRA:                   0.632
REMARK UNBOUND:                 0.638
REMARK SMILES C=C1[C@@H]2CC[C@H]3[C@@H]2C(C)(C)CCC[C@@]13C
REMARK SMILES IDX 14 1 6 2 7 3 3 4 2 5 1 6 4 7 5 8 15 9 8 10 9 11 10 12 11 13
REMARK SMILES IDX 13 15 12 16
REMARK H PARENT
REMARK Flexibility Score: 80.00
ROOT
ATOM      1  C   UNL     1      -4.395 -16.393   8.409  1.00  0.00    -0.008 C 
ATOM      2  C   UNL     1      -4.503 -15.767   9.854  1.00  0.00     0.003 C 
ATOM      3  C   UNL     1      -3.047 -15.696  10.358  1.00  0.00     0.006 C 
ATOM      4  C   UNL     1      -2.766 -17.168  10.055  1.00  0.00     0.019 C 
ATOM      5  C   UNL     1      -3.193 -17.279   8.618  1.00  0.00    -0.068 C 
ATOM      6  C   UNL     1      -2.646 -18.100   7.714  1.00  0.00     0.009 C 
ATOM      7  C   UNL     1      -3.866 -17.857  10.896  1.00  0.00     0.008 C 
ATOM      8  C   UNL     1      -5.033 -16.840  10.845  1.00  0.00     0.005 C 
ATOM      9  C   UNL     1      -5.635 -17.238   8.004  1.00  0.00     0.016 C 
ENDROOT
BRANCH   3  10
ATOM     10  C   UNL     1      -2.069 -14.573   9.803  1.00  0.00    -0.032 C 
ATOM     11  C   UNL     1      -0.653 -15.138   9.526  1.00  0.00     0.011 C 
ATOM     12  C   UNL     1      -1.897 -13.500  10.914  1.00  0.00     0.011 C 
BRANCH  10  13
ATOM     13  C   UNL     1      -2.599 -13.797   8.563  1.00  0.00     0.007 CG0
ATOM     14  G   UNL     1      -2.823 -14.629   7.304  1.00  0.00     0.000 G0
ENDBRANCH  10  13
ENDBRANCH   3  10
BRANCH   1  15
ATOM     15  C   UNL     1      -4.185 -15.323   7.305  1.00  0.00     0.011 C 
BRANCH  15  16
ATOM     16  C   UNL     1      -2.827 -14.626   7.302  1.00  0.00     0.001 CG0
ATOM     17  G   UNL     1      -2.594 -13.799   8.563  1.00  0.00     0.000 G0
ENDBRANCH  15  16
ENDBRANCH   1  15
TORSDOF 0
ENDMDL
MODEL 5
REMARK VINA RESULT:    -4.731      1.929      4.149
REMARK INTER + INTRA:          -5.199
REMARK INTER:                  -5.838
REMARK INTRA:                   0.639
REMARK UNBOUND:                 0.638
REMARK SMILES C=C1[C@@H]2CC[C@H]3[C@@H]2C(C)(C)CCC[C@@]13C
REMARK SMILES IDX 14 1 6 2 7 3 3 4 2 5 1 6 4 7 5 8 15 9 8 10 9 11 10 12 11 13
REMARK SMILES IDX 13 15 12 16
REMARK H PARENT
REMARK Flexibility Score: 80.00
ROOT
ATOM      1  C   UNL     1      -3.235 -15.937   7.915  1.00  0.00    -0.008 C 
ATOM      2  C   UNL     1      -4.147 -15.235   8.995  1.00  0.00     0.003 C 
ATOM      3  C   UNL     1      -3.765 -15.912  10.328  1.00  0.00     0.006 C 
ATOM      4  C   UNL     1      -3.972 -17.326   9.784  1.00  0.00     0.019 C 
ATOM      5  C   UNL     1      -3.134 -17.308   8.536  1.00  0.00    -0.068 C 
ATOM      6  C   UNL     1      -2.490 -18.364   8.027  1.00  0.00     0.009 C 
ATOM      7  C   UNL     1      -5.448 -17.250   9.325  1.00  0.00     0.008 C 
ATOM      8  C   UNL     1      -5.600 -15.775   8.876  1.00  0.00     0.005 C 
ATOM      9  C   UNL     1      -3.889 -16.019   6.509  1.00  0.00     0.016 C 
ENDROOT
BRANCH   3  10
ATOM     10  C   UNL     1      -2.399 -15.533  11.046  1.00  0.00    -0.032 C 
ATOM     11  C   UNL     1      -1.688 -16.788  11.615  1.00  0.00     0.011 C 
ATOM     12  C   UNL     1      -2.737 -14.637  12.270  1.00  0.00     0.011 C 
BRANCH  10  13
ATOM     13  C   UNL     1      -1.415 -14.693  10.183  1.00  0.00     0.007 CG0
ATOM     14  G   UNL     1      -0.893 -15.371   8.920  1.00  0.00     0.000 G0
ENDBRANCH  10  13
ENDBRANCH   3  10
BRANCH   1  15
ATOM     15  C   UNL     1      -1.859 -15.238   7.745  1.00  0.00     0.011 C 
BRANCH  15  16
ATOM     16  C   UNL     1      -0.896 -15.366   8.922  1.00  0.00     0.001 CG0
ATOM     17  G   UNL     1      -1.423 -14.687  10.183  1.00  0.00     0.000 G0
ENDBRANCH  15  16
ENDBRANCH   1  15
TORSDOF 0
ENDMDL
MODEL 6
REMARK VINA RESULT:    -4.648      2.040      3.648
REMARK INTER + INTRA:          -5.097
REMARK INTER:                  -5.732
REMARK INTRA:                   0.634
REMARK UNBOUND:                 0.638
REMARK SMILES C=C1[C@@H]2CC[C@H]3[C@@H]2C(C)(C)CCC[C@@]13C
REMARK SMILES IDX 14 1 6 2 7 3 3 4 2 5 1 6 4 7 5 8 15 9 8 10 9 11 10 12 11 13
REMARK SMILES IDX 13 15 12 16
REMARK H PARENT
REMARK Flexibility Score: 80.00
ROOT
ATOM      1  C   UNL     1      -3.417 -17.647  10.371  1.00  0.00    -0.008 C 
ATOM      2  C   UNL     1      -2.456 -17.664   9.118  1.00  0.00     0.003 C 
ATOM      3  C   UNL     1      -2.670 -16.292   8.445  1.00  0.00     0.006 C 
ATOM      4  C   UNL     1      -4.190 -16.443   8.392  1.00  0.00     0.019 C 
ATOM      5  C   UNL     1      -4.522 -16.782   9.818  1.00  0.00    -0.068 C 
ATOM      6  C   UNL     1      -5.654 -16.443  10.446  1.00  0.00     0.009 C 
ATOM      7  C   UNL     1      -4.327 -17.756   7.584  1.00  0.00     0.008 C 
ATOM      8  C   UNL     1      -3.071 -18.559   8.007  1.00  0.00     0.005 C 
ATOM      9  C   UNL     1      -3.960 -19.051  10.756  1.00  0.00     0.016 C 
ENDROOT
BRANCH   3  10
ATOM     10  C   UNL     1      -2.026 -14.987   9.084  1.00  0.00    -0.032 C 
ATOM     11  C   UNL     1      -3.007 -13.788   9.037  1.00  0.00     0.011 C 
ATOM     12  C   UNL     1      -0.806 -14.581   8.210  1.00  0.00     0.011 C 
BRANCH  10  13
ATOM     13  C   UNL     1      -1.457 -15.172  10.519  1.00  0.00     0.007 CG0
ATOM     14  G   UNL     1      -2.472 -15.557  11.592  1.00  0.00     0.000 G0
ENDBRANCH  10  13
ENDBRANCH   3  10
BRANCH   1  15
ATOM     15  C   UNL     1      -2.744 -17.049  11.635  1.00  0.00     0.011 C 
BRANCH  15  16
ATOM     16  C   UNL     1      -2.465 -15.549  11.596  1.00  0.00     0.001 CG0
ATOM     17  G   UNL     1      -1.455 -15.172  10.516  1.00  0.00     0.000 G0
ENDBRANCH  15  16
ENDBRANCH   1  15
TORSDOF 0
ENDMDL
MODEL 7
REMARK VINA RESULT:    -4.082      1.185      3.596
REMARK INTER + INTRA:          -4.399
REMARK INTER:                  -5.028
REMARK INTRA:                   0.629
REMARK UNBOUND:                 0.638
REMARK SMILES C=C1[C@@H]2CC[C@H]3[C@@H]2C(C)(C)CCC[C@@]13C
REMARK SMILES IDX 14 1 6 2 7 3 3 4 2 5 1 6 4 7 5 8 15 9 8 10 9 11 10 12 11 13
REMARK SMILES IDX 13 15 12 16
REMARK H PARENT
REMARK Flexibility Score: 80.00
ROOT
ATOM      1  C   UNL     1      -3.647 -16.144   8.046  1.00  0.00    -0.008 C 
ATOM      2  C   UNL     1      -2.385 -16.896   8.625  1.00  0.00     0.003 C 
ATOM      3  C   UNL     1      -2.052 -16.150   9.934  1.00  0.00     0.006 C 
ATOM      4  C   UNL     1      -2.028 -14.777   9.262  1.00  0.00     0.019 C 
ATOM      5  C   UNL     1      -3.351 -14.753   8.549  1.00  0.00    -0.068 C 
ATOM      6  C   UNL     1      -4.085 -13.656   8.327  1.00  0.00     0.009 C 
ATOM      7  C   UNL     1      -0.947 -15.001   8.177  1.00  0.00     0.008 C 
ATOM      8  C   UNL     1      -1.124 -16.496   7.810  1.00  0.00     0.005 C 
ATOM      9  C   UNL     1      -3.722 -16.161   6.495  1.00  0.00     0.016 C 
ENDROOT
BRANCH   3  10
ATOM     10  C   UNL     1      -2.946 -16.382  11.227  1.00  0.00    -0.032 C 
ATOM     11  C   UNL     1      -3.205 -15.055  11.985  1.00  0.00     0.011 C 
ATOM     12  C   UNL     1      -2.144 -17.286  12.204  1.00  0.00     0.011 C 
BRANCH  10  13
ATOM     13  C   UNL     1      -4.282 -17.137  10.975  1.00  0.00     0.007 CG0
ATOM     14  G   UNL     1      -5.273 -16.442  10.045  1.00  0.00     0.000 G0
ENDBRANCH  10  13
ENDBRANCH   3  10
BRANCH   1  15
ATOM     15  C   UNL     1      -4.986 -16.718   8.581  1.00  0.00     0.011 C 
BRANCH  15  16
ATOM     16  C   UNL     1      -5.286 -16.451  10.054  1.00  0.00     0.001 CG0
ATOM     17  G   UNL     1      -4.281 -17.124  10.984  1.00  0.00     0.000 G0
ENDBRANCH  15  16
ENDBRANCH   1  15
TORSDOF 0
ENDMDL
MODEL 8
REMARK VINA RESULT:    -3.937      1.576      3.276
REMARK INTER + INTRA:          -4.220
REMARK INTER:                  -4.854
REMARK INTRA:                   0.634
REMARK UNBOUND:                 0.638
REMARK SMILES C=C1[C@@H]2CC[C@H]3[C@@H]2C(C)(C)CCC[C@@]13C
REMARK SMILES IDX 14 1 6 2 7 3 3 4 2 5 1 6 4 7 5 8 15 9 8 10 9 11 10 12 11 13
REMARK SMILES IDX 13 15 12 16
REMARK H PARENT
REMARK Flexibility Score: 80.00
ROOT
ATOM      1  C   UNL     1      -2.364 -16.412   9.777  1.00  0.00    -0.008 C 
ATOM      2  C   UNL     1      -3.468 -17.277   9.052  1.00  0.00     0.003 C 
ATOM      3  C   UNL     1      -4.542 -16.256   8.620  1.00  0.00     0.006 C 
ATOM      4  C   UNL     1      -4.672 -15.652  10.018  1.00  0.00     0.019 C 
ATOM      5  C   UNL     1      -3.242 -15.333  10.357  1.00  0.00    -0.068 C 
ATOM      6  C   UNL     1      -2.843 -14.311  11.124  1.00  0.00     0.009 C 
ATOM      7  C   UNL     1      -5.052 -16.903  10.845  1.00  0.00     0.008 C 
ATOM      8  C   UNL     1      -4.303 -18.046  10.114  1.00  0.00     0.005 C 
ATOM      9  C   UNL     1      -1.617 -17.177  10.904  1.00  0.00     0.016 C 
ENDROOT
BRANCH   3  10
ATOM     10  C   UNL     1      -4.278 -15.310   7.371  1.00  0.00    -0.032 C 
ATOM     11  C   UNL     1      -4.769 -13.864   7.638  1.00  0.00     0.011 C 
ATOM     12  C   UNL     1      -5.128 -15.841   6.183  1.00  0.00     0.011 C 
BRANCH  10  13
ATOM     13  C   UNL     1      -2.811 -15.301   6.853  1.00  0.00     0.007 CG0
ATOM     14  G   UNL     1      -1.762 -14.786   7.835  1.00  0.00     0.000 G0
ENDBRANCH  10  13
ENDBRANCH   3  10
BRANCH   1  15
ATOM     15  C   UNL     1      -1.290 -15.868   8.797  1.00  0.00     0.011 C 
BRANCH  15  16
ATOM     16  C   UNL     1      -1.756 -14.783   7.831  1.00  0.00     0.001 CG0
ATOM     17  G   UNL     1      -2.804 -15.292   6.845  1.00  0.00     0.000 G0
ENDBRANCH  15  16
ENDBRANCH   1  15
TORSDOF 0
ENDMDL
MODEL 9
REMARK VINA RESULT:    -3.937      1.722      3.765
REMARK INTER + INTRA:          -4.219
REMARK INTER:                  -4.864
REMARK INTRA:                   0.644
REMARK UNBOUND:                 0.638
REMARK SMILES C=C1[C@@H]2CC[C@H]3[C@@H]2C(C)(C)CCC[C@@]13C
REMARK SMILES IDX 14 1 6 2 7 3 3 4 2 5 1 6 4 7 5 8 15 9 8 10 9 11 10 12 11 13
REMARK SMILES IDX 13 15 12 16
REMARK H PARENT
REMARK Flexibility Score: 80.00
ROOT
ATOM      1  C   UNL     1      -2.644 -15.631   8.470  1.00  0.00    -0.008 C 
ATOM      2  C   UNL     1      -4.124 -15.140   8.716  1.00  0.00     0.003 C 
ATOM      3  C   UNL     1      -4.818 -16.327   9.415  1.00  0.00     0.006 C 
ATOM      4  C   UNL     1      -4.390 -17.335   8.349  1.00  0.00     0.019 C 
ATOM      5  C   UNL     1      -2.906 -17.104   8.276  1.00  0.00    -0.068 C 
ATOM      6  C   UNL     1      -1.994 -18.042   7.994  1.00  0.00     0.009 C 
ATOM      7  C   UNL     1      -4.998 -16.695   7.078  1.00  0.00     0.008 C 
ATOM      8  C   UNL     1      -4.910 -15.177   7.376  1.00  0.00     0.005 C 
ATOM      9  C   UNL     1      -1.989 -15.020   7.202  1.00  0.00     0.016 C 
ENDROOT
BRANCH   3  10
ATOM     10  C   UNL     1      -4.525 -16.625  10.949  1.00  0.00    -0.032 C 
ATOM     11  C   UNL     1      -4.353 -18.143  11.210  1.00  0.00     0.011 C 
ATOM     12  C   UNL     1      -5.771 -16.184  11.766  1.00  0.00     0.011 C 
BRANCH  10  13
ATOM     13  C   UNL     1      -3.335 -15.827  11.556  1.00  0.00     0.007 CG0
ATOM     14  G   UNL     1      -1.963 -16.118  10.952  1.00  0.00     0.000 G0
ENDBRANCH  10  13
ENDBRANCH   3  10
BRANCH   1  15
ATOM     15  C   UNL     1      -1.704 -15.328   9.668  1.00  0.00     0.011 C 
BRANCH  15  16
ATOM     16  C   UNL     1      -1.969 -16.125  10.942  1.00  0.00     0.001 CG0
ATOM     17  G   UNL     1      -3.339 -15.823  11.544  1.00  0.00     0.000 G0
ENDBRANCH  15  16
ENDBRANCH   1  15
TORSDOF 0
ENDMDL
