MODEL 1
REMARK VINA RESULT:    -5.599      0.000      0.000
REMARK INTER + INTRA:          -6.705
REMARK INTER:                  -6.581
REMARK INTRA:                  -0.124
REMARK UNBOUND:                -0.124
REMARK SMILES O=C([O-])C=Cc1ccc(O)c(O)c1
REMARK SMILES IDX 6 1 13 2 7 3 11 4 8 5 9 6 5 7 4 8 2 9 1 10 3 11 12 12 10 14
REMARK H PARENT 12 13 10 15
REMARK Flexibility Score: inf
ROOT
ATOM      1  C   UNL     1     -41.424  58.829  29.236  1.00  0.00    -0.022 A 
ATOM      2  C   UNL     1     -40.514  58.470  28.220  1.00  0.00     0.058 A 
ATOM      3  C   UNL     1     -42.556  59.586  28.895  1.00  0.00     0.012 A 
ATOM      4  C   UNL     1     -40.724  58.884  26.897  1.00  0.00     0.157 A 
ATOM      5  C   UNL     1     -42.763  60.001  27.577  1.00  0.00     0.051 A 
ATOM      6  C   UNL     1     -41.848  59.654  26.576  1.00  0.00     0.157 A 
ENDROOT
BRANCH   1   7
ATOM      7  C   UNL     1     -41.253  58.405  30.648  1.00  0.00     0.010 C 
ATOM      8  C   UNL     1     -41.147  57.126  31.034  1.00  0.00     0.025 C 
BRANCH   8   9
ATOM      9  C   UNL     1     -40.967  56.752  32.445  1.00  0.00     0.064 C 
ATOM     10  O   UNL     1     -41.924  56.233  33.077  1.00  0.00    -0.545 OA
ATOM     11  O   UNL     1     -39.755  56.963  33.095  1.00  0.00    -0.545 OA
ENDBRANCH   8   9
ENDBRANCH   1   7
BRANCH   4  12
ATOM     12  O   UNL     1     -39.821  58.530  25.895  1.00  0.00    -0.504 OA
ATOM     13  H   UNL     1     -39.445  57.591  25.827  1.00  0.00     0.293 HD
ENDBRANCH   4  12
BRANCH   6  14
ATOM     14  O   UNL     1     -42.051  60.066  25.260  1.00  0.00    -0.504 OA
ATOM     15  H   UNL     1     -42.973  60.064  24.840  1.00  0.00     0.293 HD
ENDBRANCH   6  14
TORSDOF 4
ENDMDL
MODEL 2
REMARK VINA RESULT:    -5.571      1.910      2.761
REMARK INTER + INTRA:          -6.672
REMARK INTER:                  -6.534
REMARK INTRA:                  -0.138
REMARK UNBOUND:                -0.124
REMARK SMILES O=C([O-])C=Cc1ccc(O)c(O)c1
REMARK SMILES IDX 6 1 13 2 7 3 11 4 8 5 9 6 5 7 4 8 2 9 1 10 3 11 12 12 10 14
REMARK H PARENT 12 13 10 15
REMARK Flexibility Score: inf
ROOT
ATOM      1  C   UNL     1     -40.173  57.247  31.011  1.00  0.00    -0.022 A 
ATOM      2  C   UNL     1     -39.432  57.081  29.824  1.00  0.00     0.058 A 
ATOM      3  C   UNL     1     -41.253  58.144  31.017  1.00  0.00     0.012 A 
ATOM      4  C   UNL     1     -39.753  57.819  28.675  1.00  0.00     0.157 A 
ATOM      5  C   UNL     1     -41.570  58.882  29.874  1.00  0.00     0.051 A 
ATOM      6  C   UNL     1     -40.821  58.723  28.701  1.00  0.00     0.157 A 
ENDROOT
BRANCH   1   7
ATOM      7  C   UNL     1     -39.881  56.480  32.249  1.00  0.00     0.010 C 
ATOM      8  C   UNL     1     -39.743  57.042  33.457  1.00  0.00     0.025 C 
BRANCH   8   9
ATOM      9  C   UNL     1     -39.466  56.241  34.660  1.00  0.00     0.064 C 
ATOM     10  O   UNL     1     -38.287  55.875  34.904  1.00  0.00    -0.545 OA
ATOM     11  O   UNL     1     -40.486  55.881  35.534  1.00  0.00    -0.545 OA
ENDBRANCH   8   9
ENDBRANCH   1   7
BRANCH   4  12
ATOM     12  O   UNL     1     -39.017  57.655  27.502  1.00  0.00    -0.504 OA
ATOM     13  H   UNL     1     -38.007  57.568  27.517  1.00  0.00     0.293 HD
ENDBRANCH   4  12
BRANCH   6  14
ATOM     14  O   UNL     1     -41.134  59.457  27.559  1.00  0.00    -0.504 OA
ATOM     15  H   UNL     1     -40.414  59.889  26.992  1.00  0.00     0.293 HD
ENDBRANCH   6  14
TORSDOF 4
ENDMDL
MODEL 3
REMARK VINA RESULT:    -5.416      0.735      2.077
REMARK INTER + INTRA:          -6.490
REMARK INTER:                  -6.347
REMARK INTRA:                  -0.143
REMARK UNBOUND:                -0.124
REMARK SMILES O=C([O-])C=Cc1ccc(O)c(O)c1
REMARK SMILES IDX 6 1 13 2 7 3 11 4 8 5 9 6 5 7 4 8 2 9 1 10 3 11 12 12 10 14
REMARK H PARENT 12 13 10 15
REMARK Flexibility Score: inf
ROOT
ATOM      1  C   UNL     1     -41.540  58.817  29.299  1.00  0.00    -0.022 A 
ATOM      2  C   UNL     1     -42.618  59.600  28.838  1.00  0.00     0.058 A 
ATOM      3  C   UNL     1     -40.507  58.493  28.405  1.00  0.00     0.012 A 
ATOM      4  C   UNL     1     -42.669  60.025  27.502  1.00  0.00     0.157 A 
ATOM      5  C   UNL     1     -40.560  58.914  27.074  1.00  0.00     0.051 A 
ATOM      6  C   UNL     1     -41.641  59.679  26.618  1.00  0.00     0.157 A 
ENDROOT
BRANCH   1   7
ATOM      7  C   UNL     1     -41.433  58.353  30.705  1.00  0.00     0.010 C 
ATOM      8  C   UNL     1     -40.902  57.176  31.062  1.00  0.00     0.025 C 
BRANCH   8   9
ATOM      9  C   UNL     1     -40.806  56.761  32.471  1.00  0.00     0.064 C 
ATOM     10  O   UNL     1     -39.732  56.944  33.100  1.00  0.00    -0.545 OA
ATOM     11  O   UNL     1     -41.884  56.170  33.120  1.00  0.00    -0.545 OA
ENDBRANCH   8   9
ENDBRANCH   1   7
BRANCH   4  12
ATOM     12  O   UNL     1     -43.738  60.797  27.048  1.00  0.00    -0.504 OA
ATOM     13  H   UNL     1     -44.684  60.435  27.030  1.00  0.00     0.293 HD
ENDBRANCH   4  12
BRANCH   6  14
ATOM     14  O   UNL     1     -41.697  60.101  25.292  1.00  0.00    -0.504 OA
ATOM     15  H   UNL     1     -41.797  61.079  25.050  1.00  0.00     0.293 HD
ENDBRANCH   6  14
TORSDOF 4
ENDMDL
MODEL 4
REMARK VINA RESULT:    -5.410      2.261      3.559
REMARK INTER + INTRA:          -6.483
REMARK INTER:                  -6.335
REMARK INTRA:                  -0.148
REMARK UNBOUND:                -0.124
REMARK SMILES O=C([O-])C=Cc1ccc(O)c(O)c1
REMARK SMILES IDX 6 1 13 2 7 3 11 4 8 5 9 6 5 7 4 8 2 9 1 10 3 11 12 12 10 14
REMARK H PARENT 12 13 10 15
REMARK Flexibility Score: inf
ROOT
ATOM      1  C   UNL     1     -40.350  57.075  31.529  1.00  0.00    -0.022 A 
ATOM      2  C   UNL     1     -41.288  58.030  31.087  1.00  0.00     0.058 A 
ATOM      3  C   UNL     1     -39.476  56.500  30.593  1.00  0.00     0.012 A 
ATOM      4  C   UNL     1     -41.364  58.380  29.730  1.00  0.00     0.157 A 
ATOM      5  C   UNL     1     -39.553  56.846  29.241  1.00  0.00     0.051 A 
ATOM      6  C   UNL     1     -40.498  57.784  28.806  1.00  0.00     0.157 A 
ENDROOT
BRANCH   1   7
ATOM      7  C   UNL     1     -40.223  56.681  32.954  1.00  0.00     0.010 C 
ATOM      8  C   UNL     1     -39.052  56.425  33.554  1.00  0.00     0.025 C 
BRANCH   8   9
ATOM      9  C   UNL     1     -38.972  56.048  34.974  1.00  0.00     0.064 C 
ATOM     10  O   UNL     1     -40.031  55.875  35.631  1.00  0.00    -0.545 OA
ATOM     11  O   UNL     1     -37.744  55.881  35.604  1.00  0.00    -0.545 OA
ENDBRANCH   8   9
ENDBRANCH   1   7
BRANCH   4  12
ATOM     12  O   UNL     1     -42.294  59.323  29.295  1.00  0.00    -0.504 OA
ATOM     13  H   UNL     1     -42.249  59.722  28.365  1.00  0.00     0.293 HD
ENDBRANCH   4  12
BRANCH   6  14
ATOM     14  O   UNL     1     -40.578  58.132  27.459  1.00  0.00    -0.504 OA
ATOM     15  H   UNL     1     -41.368  57.860  26.887  1.00  0.00     0.293 HD
ENDBRANCH   6  14
TORSDOF 4
ENDMDL
MODEL 5
REMARK VINA RESULT:    -5.203     16.027     16.555
REMARK INTER + INTRA:          -6.240
REMARK INTER:                  -6.115
REMARK INTRA:                  -0.125
REMARK UNBOUND:                -0.124
REMARK SMILES O=C([O-])C=Cc1ccc(O)c(O)c1
REMARK SMILES IDX 6 1 13 2 7 3 11 4 8 5 9 6 5 7 4 8 2 9 1 10 3 11 12 12 10 14
REMARK H PARENT 12 13 10 15
REMARK Flexibility Score: inf
ROOT
ATOM      1  C   UNL     1     -30.802  69.576  33.549  1.00  0.00    -0.022 A 
ATOM      2  C   UNL     1     -31.173  70.401  32.467  1.00  0.00     0.058 A 
ATOM      3  C   UNL     1     -31.208  69.934  34.844  1.00  0.00     0.012 A 
ATOM      4  C   UNL     1     -31.913  71.572  32.686  1.00  0.00     0.157 A 
ATOM      5  C   UNL     1     -31.943  71.102  35.062  1.00  0.00     0.051 A 
ATOM      6  C   UNL     1     -32.295  71.925  33.986  1.00  0.00     0.157 A 
ENDROOT
BRANCH   1   7
ATOM      7  C   UNL     1     -30.030  68.321  33.368  1.00  0.00     0.010 C 
ATOM      8  C   UNL     1     -28.837  68.262  32.760  1.00  0.00     0.025 C 
BRANCH   8   9
ATOM      9  C   UNL     1     -28.101  66.996  32.614  1.00  0.00     0.064 C 
ATOM     10  O   UNL     1     -28.700  65.976  32.184  1.00  0.00    -0.545 OA
ATOM     11  O   UNL     1     -26.753  66.907  32.943  1.00  0.00    -0.545 OA
ENDBRANCH   8   9
ENDBRANCH   1   7
BRANCH   4  12
ATOM     12  O   UNL     1     -32.276  72.388  31.615  1.00  0.00    -0.504 OA
ATOM     13  H   UNL     1     -31.613  73.017  31.179  1.00  0.00     0.293 HD
ENDBRANCH   4  12
BRANCH   6  14
ATOM     14  O   UNL     1     -33.027  73.091  34.199  1.00  0.00    -0.504 OA
ATOM     15  H   UNL     1     -32.733  73.981  33.814  1.00  0.00     0.293 HD
ENDBRANCH   6  14
TORSDOF 4
ENDMDL
MODEL 6
REMARK VINA RESULT:    -5.165     15.987     16.740
REMARK INTER + INTRA:          -6.195
REMARK INTER:                  -6.049
REMARK INTRA:                  -0.146
REMARK UNBOUND:                -0.124
REMARK SMILES O=C([O-])C=Cc1ccc(O)c(O)c1
REMARK SMILES IDX 6 1 13 2 7 3 11 4 8 5 9 6 5 7 4 8 2 9 1 10 3 11 12 12 10 14
REMARK H PARENT 12 13 10 15
REMARK Flexibility Score: inf
ROOT
ATOM      1  C   UNL     1     -29.594  68.484  33.685  1.00  0.00    -0.022 A 
ATOM      2  C   UNL     1     -29.633  67.292  32.933  1.00  0.00     0.058 A 
ATOM      3  C   UNL     1     -28.351  68.974  34.114  1.00  0.00     0.012 A 
ATOM      4  C   UNL     1     -28.452  66.594  32.643  1.00  0.00     0.157 A 
ATOM      5  C   UNL     1     -27.174  68.277  33.827  1.00  0.00     0.051 A 
ATOM      6  C   UNL     1     -27.221  67.086  33.093  1.00  0.00     0.157 A 
ENDROOT
BRANCH   1   7
ATOM      7  C   UNL     1     -30.814  69.265  34.008  1.00  0.00     0.010 C 
ATOM      8  C   UNL     1     -30.925  70.064  35.078  1.00  0.00     0.025 C 
BRANCH   8   9
ATOM      9  C   UNL     1     -32.151  70.830  35.353  1.00  0.00     0.064 C 
ATOM     10  O   UNL     1     -33.067  70.309  36.041  1.00  0.00    -0.545 OA
ATOM     11  O   UNL     1     -32.316  72.121  34.864  1.00  0.00    -0.545 OA
ENDBRANCH   8   9
ENDBRANCH   1   7
BRANCH   4  12
ATOM     12  O   UNL     1     -28.493  65.413  31.902  1.00  0.00    -0.504 OA
ATOM     13  H   UNL     1     -27.686  65.081  31.388  1.00  0.00     0.293 HD
ENDBRANCH   4  12
BRANCH   6  14
ATOM     14  O   UNL     1     -26.050  66.388  32.805  1.00  0.00    -0.504 OA
ATOM     15  H   UNL     1     -25.822  65.518  33.271  1.00  0.00     0.293 HD
ENDBRANCH   6  14
TORSDOF 4
ENDMDL
MODEL 7
REMARK VINA RESULT:    -5.140      1.440      6.043
REMARK INTER + INTRA:          -6.165
REMARK INTER:                  -6.022
REMARK INTRA:                  -0.143
REMARK UNBOUND:                -0.124
REMARK SMILES O=C([O-])C=Cc1ccc(O)c(O)c1
REMARK SMILES IDX 6 1 13 2 7 3 11 4 8 5 9 6 5 7 4 8 2 9 1 10 3 11 12 12 10 14
REMARK H PARENT 12 13 10 15
REMARK Flexibility Score: inf
ROOT
ATOM      1  C   UNL     1     -40.461  58.330  28.840  1.00  0.00    -0.022 A 
ATOM      2  C   UNL     1     -41.124  58.564  30.062  1.00  0.00     0.058 A 
ATOM      3  C   UNL     1     -39.463  57.343  28.788  1.00  0.00     0.012 A 
ATOM      4  C   UNL     1     -40.774  57.841  31.212  1.00  0.00     0.157 A 
ATOM      5  C   UNL     1     -39.113  56.625  29.935  1.00  0.00     0.051 A 
ATOM      6  C   UNL     1     -39.765  56.873  31.149  1.00  0.00     0.157 A 
ENDROOT
BRANCH   1   7
ATOM      7  C   UNL     1     -40.803  59.059  27.593  1.00  0.00     0.010 C 
ATOM      8  C   UNL     1     -40.884  58.477  26.388  1.00  0.00     0.025 C 
BRANCH   8   9
ATOM      9  C   UNL     1     -41.238  59.238  25.179  1.00  0.00     0.064 C 
ATOM     10  O   UNL     1     -42.419  59.642  25.024  1.00  0.00    -0.545 OA
ATOM     11  O   UNL     1     -40.287  59.517  24.204  1.00  0.00    -0.545 OA
ENDBRANCH   8   9
ENDBRANCH   1   7
BRANCH   4  12
ATOM     12  O   UNL     1     -41.430  58.076  32.420  1.00  0.00    -0.504 OA
ATOM     13  H   UNL     1     -41.423  58.990  32.857  1.00  0.00     0.293 HD
ENDBRANCH   4  12
BRANCH   6  14
ATOM     14  O   UNL     1     -39.418  56.159  32.294  1.00  0.00    -0.504 OA
ATOM     15  H   UNL     1     -39.984  55.389  32.631  1.00  0.00     0.293 HD
ENDBRANCH   6  14
TORSDOF 4
ENDMDL
MODEL 8
REMARK VINA RESULT:    -4.912      1.484      5.834
REMARK INTER + INTRA:          -5.897
REMARK INTER:                  -5.775
REMARK INTRA:                  -0.121
REMARK UNBOUND:                -0.124
REMARK SMILES O=C([O-])C=Cc1ccc(O)c(O)c1
REMARK SMILES IDX 6 1 13 2 7 3 11 4 8 5 9 6 5 7 4 8 2 9 1 10 3 11 12 12 10 14
REMARK H PARENT 12 13 10 15
REMARK Flexibility Score: inf
ROOT
ATOM      1  C   UNL     1     -40.941  58.799  28.423  1.00  0.00    -0.022 A 
ATOM      2  C   UNL     1     -39.969  57.810  28.678  1.00  0.00     0.058 A 
ATOM      3  C   UNL     1     -41.734  59.260  29.486  1.00  0.00     0.012 A 
ATOM      4  C   UNL     1     -39.816  57.278  29.967  1.00  0.00     0.157 A 
ATOM      5  C   UNL     1     -41.583  58.728  30.769  1.00  0.00     0.051 A 
ATOM      6  C   UNL     1     -40.626  57.734  31.012  1.00  0.00     0.157 A 
ENDROOT
BRANCH   1   7
ATOM      7  C   UNL     1     -41.133  59.403  27.081  1.00  0.00     0.010 C 
ATOM      8  C   UNL     1     -40.844  58.774  25.934  1.00  0.00     0.025 C 
BRANCH   8   9
ATOM      9  C   UNL     1     -41.063  59.407  24.623  1.00  0.00     0.064 C 
ATOM     10  O   UNL     1     -40.091  59.563  23.839  1.00  0.00    -0.545 OA
ATOM     11  O   UNL     1     -42.327  59.837  24.236  1.00  0.00    -0.545 OA
ENDBRANCH   8   9
ENDBRANCH   1   7
BRANCH   4  12
ATOM     12  O   UNL     1     -38.856  56.297  30.215  1.00  0.00    -0.504 OA
ATOM     13  H   UNL     1     -38.778  55.471  29.633  1.00  0.00     0.293 HD
ENDBRANCH   4  12
BRANCH   6  14
ATOM     14  O   UNL     1     -40.473  57.200  32.291  1.00  0.00    -0.504 OA
ATOM     15  H   UNL     1     -40.904  56.323  32.554  1.00  0.00     0.293 HD
ENDBRANCH   6  14
TORSDOF 4
ENDMDL
MODEL 9
REMARK VINA RESULT:    -4.759      2.691      6.564
REMARK INTER + INTRA:          -5.718
REMARK INTER:                  -5.590
REMARK INTRA:                  -0.128
REMARK UNBOUND:                -0.124
REMARK SMILES O=C([O-])C=Cc1ccc(O)c(O)c1
REMARK SMILES IDX 6 1 13 2 7 3 11 4 8 5 9 6 5 7 4 8 2 9 1 10 3 11 12 12 10 14
REMARK H PARENT 12 13 10 15
REMARK Flexibility Score: inf
ROOT
ATOM      1  C   UNL     1     -41.750  59.210  26.064  1.00  0.00    -0.022 A 
ATOM      2  C   UNL     1     -41.446  57.848  26.264  1.00  0.00     0.058 A 
ATOM      3  C   UNL     1     -42.251  59.958  27.141  1.00  0.00     0.012 A 
ATOM      4  C   UNL     1     -41.665  57.245  27.511  1.00  0.00     0.157 A 
ATOM      5  C   UNL     1     -42.472  59.356  28.383  1.00  0.00     0.051 A 
ATOM      6  C   UNL     1     -42.182  57.999  28.571  1.00  0.00     0.157 A 
ENDROOT
BRANCH   1   7
ATOM      7  C   UNL     1     -41.525  59.896  24.767  1.00  0.00     0.010 C 
ATOM      8  C   UNL     1     -40.700  59.438  23.816  1.00  0.00     0.025 C 
BRANCH   8   9
ATOM      9  C   UNL     1     -40.516  60.147  22.539  1.00  0.00     0.064 C 
ATOM     10  O   UNL     1     -40.518  61.405  22.521  1.00  0.00    -0.545 OA
ATOM     11  O   UNL     1     -40.340  59.448  21.350  1.00  0.00    -0.545 OA
ENDBRANCH   8   9
ENDBRANCH   1   7
BRANCH   4  12
ATOM     12  O   UNL     1     -41.367  55.897  27.706  1.00  0.00    -0.504 OA
ATOM     13  H   UNL     1     -41.299  55.497  28.634  1.00  0.00     0.293 HD
ENDBRANCH   4  12
BRANCH   6  14
ATOM     14  O   UNL     1     -42.401  57.396  29.808  1.00  0.00    -0.504 OA
ATOM     15  H   UNL     1     -42.431  56.388  29.908  1.00  0.00     0.293 HD
ENDBRANCH   6  14
TORSDOF 4
ENDMDL
