MODEL 1
REMARK VINA RESULT:    -4.126      0.000      0.000
REMARK INTER + INTRA:          -4.686
REMARK INTER:                  -4.367
REMARK INTRA:                  -0.319
REMARK UNBOUND:                -0.319
REMARK SMILES CC1=C[C@H]2C(=C(C)CC[C@@H]2C(C)C)CC1
REMARK SMILES IDX 1 1 2 2 3 3 4 4 10 5 9 6 8 7 6 8 5 9 14 10 15 11 7 12 11 13
REMARK SMILES IDX 12 14 13 15
REMARK H PARENT
REMARK Flexibility Score: inf
ROOT
ATOM      1  C   UNL     1      53.047  32.304  23.910  1.00  0.00     0.039 C 
ATOM      2  C   UNL     1      53.202  31.495  25.167  1.00  0.00    -0.076 C 
ATOM      3  C   UNL     1      54.026  30.431  25.190  1.00  0.00    -0.020 C 
ATOM      4  C   UNL     1      54.140  29.601  26.456  1.00  0.00     0.041 C 
ATOM      5  C   UNL     1      55.055  28.344  26.266  1.00  0.00     0.003 C 
ATOM      6  C   UNL     1      54.643  27.248  27.273  1.00  0.00     0.009 C 
ATOM      7  C   UNL     1      53.171  26.893  27.120  1.00  0.00     0.031 C 
ATOM      8  C   UNL     1      52.284  28.097  27.304  1.00  0.00    -0.073 C 
ATOM      9  C   UNL     1      52.709  29.334  26.938  1.00  0.00    -0.064 C 
ATOM     10  C   UNL     1      51.755  30.529  26.973  1.00  0.00     0.036 C 
ATOM     11  C   UNL     1      52.393  31.812  26.407  1.00  0.00     0.035 C 
ATOM     12  C   UNL     1      50.875  27.862  27.798  1.00  0.00     0.039 C 
ENDROOT
BRANCH   5  13
ATOM     13  C   UNL     1      56.583  28.681  26.439  1.00  0.00    -0.013 C 
ATOM     14  C   UNL     1      56.842  29.585  27.661  1.00  0.00     0.007 C 
ATOM     15  C   UNL     1      57.470  27.429  26.568  1.00  0.00     0.007 C 
ENDBRANCH   5  13
TORSDOF 1
ENDMDL
MODEL 2
REMARK VINA RESULT:    -3.920     21.146     22.997
REMARK INTER + INTRA:          -4.469
REMARK INTER:                  -4.210
REMARK INTRA:                  -0.258
REMARK UNBOUND:                -0.319
REMARK SMILES CC1=C[C@H]2C(=C(C)CC[C@@H]2C(C)C)CC1
REMARK SMILES IDX 1 1 2 2 3 3 4 4 10 5 9 6 8 7 6 8 5 9 14 10 15 11 7 12 11 13
REMARK SMILES IDX 12 14 13 15
REMARK H PARENT
REMARK Flexibility Score: inf
ROOT
ATOM      1  C   UNL     1      59.855  41.868  40.649  1.00  0.00     0.039 C 
ATOM      2  C   UNL     1      59.177  42.669  41.725  1.00  0.00    -0.076 C 
ATOM      3  C   UNL     1      58.056  43.362  41.449  1.00  0.00    -0.020 C 
ATOM      4  C   UNL     1      57.406  44.197  42.538  1.00  0.00     0.041 C 
ATOM      5  C   UNL     1      56.183  45.020  42.010  1.00  0.00     0.003 C 
ATOM      6  C   UNL     1      55.981  46.270  42.893  1.00  0.00     0.009 C 
ATOM      7  C   UNL     1      57.244  47.117  42.935  1.00  0.00     0.031 C 
ATOM      8  C   UNL     1      58.425  46.334  43.444  1.00  0.00    -0.073 C 
ATOM      9  C   UNL     1      58.529  45.002  43.205  1.00  0.00    -0.064 C 
ATOM     10  C   UNL     1      59.801  44.238  43.580  1.00  0.00     0.036 C 
ATOM     11  C   UNL     1      59.766  42.769  43.116  1.00  0.00     0.035 C 
ATOM     12  C   UNL     1      59.536  47.102  44.125  1.00  0.00     0.039 C 
ENDROOT
BRANCH   5  13
ATOM     13  C   UNL     1      54.858  44.170  41.975  1.00  0.00    -0.013 C 
ATOM     14  C   UNL     1      54.929  42.947  42.911  1.00  0.00     0.007 C 
ATOM     15  C   UNL     1      53.604  44.986  42.341  1.00  0.00     0.007 C 
ENDBRANCH   5  13
TORSDOF 1
ENDMDL
MODEL 3
REMARK VINA RESULT:    -3.482      5.751      7.436
REMARK INTER + INTRA:          -4.005
REMARK INTER:                  -3.746
REMARK INTRA:                  -0.259
REMARK UNBOUND:                -0.319
REMARK SMILES CC1=C[C@H]2C(=C(C)CC[C@@H]2C(C)C)CC1
REMARK SMILES IDX 1 1 2 2 3 3 4 4 10 5 9 6 8 7 6 8 5 9 14 10 15 11 7 12 11 13
REMARK SMILES IDX 12 14 13 15
REMARK H PARENT
REMARK Flexibility Score: inf
ROOT
ATOM      1  C   UNL     1      48.460  28.564  29.109  1.00  0.00     0.039 C 
ATOM      2  C   UNL     1      48.421  30.066  29.103  1.00  0.00    -0.076 C 
ATOM      3  C   UNL     1      48.802  30.748  28.006  1.00  0.00    -0.020 C 
ATOM      4  C   UNL     1      48.794  32.266  28.029  1.00  0.00     0.041 C 
ATOM      5  C   UNL     1      49.371  32.888  26.713  1.00  0.00     0.003 C 
ATOM      6  C   UNL     1      49.936  34.294  27.009  1.00  0.00     0.009 C 
ATOM      7  C   UNL     1      50.989  34.238  28.106  1.00  0.00     0.031 C 
ATOM      8  C   UNL     1      50.441  33.644  29.377  1.00  0.00    -0.073 C 
ATOM      9  C   UNL     1      49.475  32.691  29.336  1.00  0.00    -0.064 C 
ATOM     10  C   UNL     1      49.033  31.972  30.613  1.00  0.00     0.036 C 
ATOM     11  C   UNL     1      48.020  30.846  30.337  1.00  0.00     0.035 C 
ATOM     12  C   UNL     1      51.083  34.062  30.680  1.00  0.00     0.039 C 
ENDROOT
BRANCH   5  13
ATOM     13  C   UNL     1      48.295  32.975  25.567  1.00  0.00    -0.013 C 
ATOM     14  C   UNL     1      48.203  34.391  24.964  1.00  0.00     0.007 C 
ATOM     15  C   UNL     1      48.544  31.976  24.422  1.00  0.00     0.007 C 
ENDBRANCH   5  13
TORSDOF 1
ENDMDL
MODEL 4
REMARK VINA RESULT:    -3.425      3.059      6.551
REMARK INTER + INTRA:          -3.945
REMARK INTER:                  -3.687
REMARK INTRA:                  -0.258
REMARK UNBOUND:                -0.319
REMARK SMILES CC1=C[C@H]2C(=C(C)CC[C@@H]2C(C)C)CC1
REMARK SMILES IDX 1 1 2 2 3 3 4 4 10 5 9 6 8 7 6 8 5 9 14 10 15 11 7 12 11 13
REMARK SMILES IDX 12 14 13 15
REMARK H PARENT
REMARK Flexibility Score: inf
ROOT
ATOM      1  C   UNL     1      48.185  27.861  28.786  1.00  0.00     0.039 C 
ATOM      2  C   UNL     1      49.352  28.807  28.731  1.00  0.00    -0.076 C 
ATOM      3  C   UNL     1      49.148  30.137  28.783  1.00  0.00    -0.020 C 
ATOM      4  C   UNL     1      50.334  31.080  28.686  1.00  0.00     0.041 C 
ATOM      5  C   UNL     1      49.901  32.584  28.652  1.00  0.00     0.003 C 
ATOM      6  C   UNL     1      50.982  33.417  27.930  1.00  0.00     0.009 C 
ATOM      7  C   UNL     1      51.236  32.880  26.528  1.00  0.00     0.031 C 
ATOM      8  C   UNL     1      51.656  31.434  26.552  1.00  0.00    -0.073 C 
ATOM      9  C   UNL     1      51.189  30.592  27.510  1.00  0.00    -0.064 C 
ATOM     10  C   UNL     1      51.484  29.092  27.442  1.00  0.00     0.036 C 
ATOM     11  C   UNL     1      50.766  28.298  28.549  1.00  0.00     0.035 C 
ATOM     12  C   UNL     1      52.517  30.934  25.414  1.00  0.00     0.039 C 
ENDROOT
BRANCH   5  13
ATOM     13  C   UNL     1      49.650  33.169  30.092  1.00  0.00    -0.013 C 
ATOM     14  C   UNL     1      50.839  34.015  30.590  1.00  0.00     0.007 C 
ATOM     15  C   UNL     1      48.374  34.027  30.185  1.00  0.00     0.007 C 
ENDBRANCH   5  13
TORSDOF 1
ENDMDL
MODEL 5
REMARK VINA RESULT:    -3.407      2.613      5.468
REMARK INTER + INTRA:          -3.925
REMARK INTER:                  -3.607
REMARK INTRA:                  -0.318
REMARK UNBOUND:                -0.319
REMARK SMILES CC1=C[C@H]2C(=C(C)CC[C@@H]2C(C)C)CC1
REMARK SMILES IDX 1 1 2 2 3 3 4 4 10 5 9 6 8 7 6 8 5 9 14 10 15 11 7 12 11 13
REMARK SMILES IDX 12 14 13 15
REMARK H PARENT
REMARK Flexibility Score: inf
ROOT
ATOM      1  C   UNL     1      50.674  34.002  30.663  1.00  0.00     0.039 C 
ATOM      2  C   UNL     1      50.586  33.208  29.391  1.00  0.00    -0.076 C 
ATOM      3  C   UNL     1      50.546  31.863  29.434  1.00  0.00    -0.020 C 
ATOM      4  C   UNL     1      50.497  31.074  28.137  1.00  0.00     0.041 C 
ATOM      5  C   UNL     1      50.568  29.528  28.375  1.00  0.00     0.003 C 
ATOM      6  C   UNL     1      51.153  28.840  27.123  1.00  0.00     0.009 C 
ATOM      7  C   UNL     1      52.519  29.413  26.774  1.00  0.00     0.031 C 
ATOM      8  C   UNL     1      52.458  30.899  26.541  1.00  0.00    -0.073 C 
ATOM      9  C   UNL     1      51.569  31.671  27.217  1.00  0.00    -0.064 C 
ATOM     10  C   UNL     1      51.614  33.196  27.103  1.00  0.00     0.036 C 
ATOM     11  C   UNL     1      50.605  33.889  28.039  1.00  0.00     0.035 C 
ATOM     12  C   UNL     1      53.492  31.509  25.622  1.00  0.00     0.039 C 
ENDROOT
BRANCH   5  13
ATOM     13  C   UNL     1      49.163  28.907  28.718  1.00  0.00    -0.013 C 
ATOM     14  C   UNL     1      48.053  29.434  27.787  1.00  0.00     0.007 C 
ATOM     15  C   UNL     1      49.149  27.368  28.664  1.00  0.00     0.007 C 
ENDBRANCH   5  13
TORSDOF 1
ENDMDL
MODEL 6
REMARK VINA RESULT:    -3.355     21.330     23.581
REMARK INTER + INTRA:          -3.870
REMARK INTER:                  -3.611
REMARK INTRA:                  -0.259
REMARK UNBOUND:                -0.319
REMARK SMILES CC1=C[C@H]2C(=C(C)CC[C@@H]2C(C)C)CC1
REMARK SMILES IDX 1 1 2 2 3 3 4 4 10 5 9 6 8 7 6 8 5 9 14 10 15 11 7 12 11 13
REMARK SMILES IDX 12 14 13 15
REMARK H PARENT
REMARK Flexibility Score: inf
ROOT
ATOM      1  C   UNL     1      65.833  38.234  43.852  1.00  0.00     0.039 C 
ATOM      2  C   UNL     1      65.050  39.340  43.203  1.00  0.00    -0.076 C 
ATOM      3  C   UNL     1      65.462  40.617  43.316  1.00  0.00    -0.020 C 
ATOM      4  C   UNL     1      64.638  41.727  42.688  1.00  0.00     0.041 C 
ATOM      5  C   UNL     1      65.205  43.150  43.013  1.00  0.00     0.003 C 
ATOM      6  C   UNL     1      64.066  44.189  42.942  1.00  0.00     0.009 C 
ATOM      7  C   UNL     1      62.928  43.816  43.883  1.00  0.00     0.031 C 
ATOM      8  C   UNL     1      62.375  42.450  43.575  1.00  0.00    -0.073 C 
ATOM      9  C   UNL     1      63.178  41.471  43.084  1.00  0.00    -0.064 C 
ATOM     10  C   UNL     1      62.658  40.041  42.924  1.00  0.00     0.036 C 
ATOM     11  C   UNL     1      63.755  39.059  42.470  1.00  0.00     0.035 C 
ATOM     12  C   UNL     1      60.933  42.178  43.937  1.00  0.00     0.039 C 
ENDROOT
BRANCH   5  13
ATOM     13  C   UNL     1      66.371  43.568  42.041  1.00  0.00    -0.013 C 
ATOM     14  C   UNL     1      65.872  44.464  40.890  1.00  0.00     0.007 C 
ATOM     15  C   UNL     1      67.525  44.296  42.755  1.00  0.00     0.007 C 
ENDBRANCH   5  13
TORSDOF 1
ENDMDL
MODEL 7
REMARK VINA RESULT:    -3.337      3.158      6.140
REMARK INTER + INTRA:          -3.852
REMARK INTER:                  -3.594
REMARK INTRA:                  -0.257
REMARK UNBOUND:                -0.319
REMARK SMILES CC1=C[C@H]2C(=C(C)CC[C@@H]2C(C)C)CC1
REMARK SMILES IDX 1 1 2 2 3 3 4 4 10 5 9 6 8 7 6 8 5 9 14 10 15 11 7 12 11 13
REMARK SMILES IDX 12 14 13 15
REMARK H PARENT
REMARK Flexibility Score: inf
ROOT
ATOM      1  C   UNL     1      52.646  28.810  26.391  1.00  0.00     0.039 C 
ATOM      2  C   UNL     1      52.261  30.259  26.500  1.00  0.00    -0.076 C 
ATOM      3  C   UNL     1      51.471  30.675  27.507  1.00  0.00    -0.020 C 
ATOM      4  C   UNL     1      51.059  32.135  27.580  1.00  0.00     0.041 C 
ATOM      5  C   UNL     1      50.053  32.415  28.748  1.00  0.00     0.003 C 
ATOM      6  C   UNL     1      49.199  33.655  28.408  1.00  0.00     0.009 C 
ATOM      7  C   UNL     1      48.475  33.470  27.082  1.00  0.00     0.031 C 
ATOM      8  C   UNL     1      49.435  33.204  25.953  1.00  0.00    -0.073 C 
ATOM      9  C   UNL     1      50.595  32.533  26.174  1.00  0.00    -0.064 C 
ATOM     10  C   UNL     1      51.493  32.120  25.005  1.00  0.00     0.036 C 
ATOM     11  C   UNL     1      52.693  31.265  25.455  1.00  0.00     0.035 C 
ATOM     12  C   UNL     1      49.009  33.605  24.560  1.00  0.00     0.039 C 
ENDROOT
BRANCH   5  13
ATOM     13  C   UNL     1      50.780  32.629  30.128  1.00  0.00    -0.013 C 
ATOM     14  C   UNL     1      50.741  34.102  30.582  1.00  0.00     0.007 C 
ATOM     15  C   UNL     1      50.203  31.759  31.260  1.00  0.00     0.007 C 
ENDBRANCH   5  13
TORSDOF 1
ENDMDL
MODEL 8
REMARK VINA RESULT:    -3.234      3.276      5.845
REMARK INTER + INTRA:          -3.742
REMARK INTER:                  -3.483
REMARK INTRA:                  -0.259
REMARK UNBOUND:                -0.319
REMARK SMILES CC1=C[C@H]2C(=C(C)CC[C@@H]2C(C)C)CC1
REMARK SMILES IDX 1 1 2 2 3 3 4 4 10 5 9 6 8 7 6 8 5 9 14 10 15 11 7 12 11 13
REMARK SMILES IDX 12 14 13 15
REMARK H PARENT
REMARK Flexibility Score: inf
ROOT
ATOM      1  C   UNL     1      53.503  31.526  25.948  1.00  0.00     0.039 C 
ATOM      2  C   UNL     1      52.037  31.503  26.276  1.00  0.00    -0.076 C 
ATOM      3  C   UNL     1      51.616  31.816  27.516  1.00  0.00    -0.020 C 
ATOM      4  C   UNL     1      50.134  31.750  27.841  1.00  0.00     0.041 C 
ATOM      5  C   UNL     1      49.841  32.037  29.353  1.00  0.00     0.003 C 
ATOM      6  C   UNL     1      48.519  31.353  29.761  1.00  0.00     0.009 C 
ATOM      7  C   UNL     1      48.569  29.858  29.479  1.00  0.00     0.031 C 
ATOM      8  C   UNL     1      48.848  29.573  28.027  1.00  0.00    -0.073 C 
ATOM      9  C   UNL     1      49.621  30.413  27.292  1.00  0.00    -0.064 C 
ATOM     10  C   UNL     1      50.038  30.044  25.866  1.00  0.00     0.036 C 
ATOM     11  C   UNL     1      51.011  31.068  25.251  1.00  0.00     0.035 C 
ATOM     12  C   UNL     1      48.336  28.271  27.456  1.00  0.00     0.039 C 
ENDROOT
BRANCH   5  13
ATOM     13  C   UNL     1      49.764  33.578  29.667  1.00  0.00    -0.013 C 
ATOM     14  C   UNL     1      48.393  33.985  30.243  1.00  0.00     0.007 C 
ATOM     15  C   UNL     1      50.858  34.054  30.641  1.00  0.00     0.007 C 
ENDBRANCH   5  13
TORSDOF 1
ENDMDL
MODEL 9
REMARK VINA RESULT:    -3.227      1.182      3.917
REMARK INTER + INTRA:          -3.735
REMARK INTER:                  -3.461
REMARK INTRA:                  -0.274
REMARK UNBOUND:                -0.319
REMARK SMILES CC1=C[C@H]2C(=C(C)CC[C@@H]2C(C)C)CC1
REMARK SMILES IDX 1 1 2 2 3 3 4 4 10 5 9 6 8 7 6 8 5 9 14 10 15 11 7 12 11 13
REMARK SMILES IDX 12 14 13 15
REMARK H PARENT
REMARK Flexibility Score: inf
ROOT
ATOM      1  C   UNL     1      51.523  32.872  27.107  1.00  0.00     0.039 C 
ATOM      2  C   UNL     1      52.278  31.694  26.557  1.00  0.00    -0.076 C 
ATOM      3  C   UNL     1      51.916  30.442  26.893  1.00  0.00    -0.020 C 
ATOM      4  C   UNL     1      52.713  29.264  26.360  1.00  0.00     0.041 C 
ATOM      5  C   UNL     1      52.220  27.896  26.941  1.00  0.00     0.003 C 
ATOM      6  C   UNL     1      53.379  26.877  26.916  1.00  0.00     0.009 C 
ATOM      7  C   UNL     1      54.584  27.404  27.682  1.00  0.00     0.031 C 
ATOM      8  C   UNL     1      55.067  28.718  27.127  1.00  0.00    -0.073 C 
ATOM      9  C   UNL     1      54.194  29.601  26.576  1.00  0.00    -0.064 C 
ATOM     10  C   UNL     1      54.655  30.999  26.161  1.00  0.00     0.036 C 
ATOM     11  C   UNL     1      53.492  31.885  25.673  1.00  0.00     0.035 C 
ATOM     12  C   UNL     1      56.527  29.064  27.310  1.00  0.00     0.039 C 
ENDROOT
BRANCH   5  13
ATOM     13  C   UNL     1      50.985  27.320  26.153  1.00  0.00    -0.013 C 
ATOM     14  C   UNL     1      49.653  27.599  26.877  1.00  0.00     0.007 C 
ATOM     15  C   UNL     1      50.876  27.860  24.715  1.00  0.00     0.007 C 
ENDBRANCH   5  13
TORSDOF 1
ENDMDL
