MODEL 1
REMARK VINA RESULT:    -4.091      0.000      0.000
REMARK INTER + INTRA:          -5.335
REMARK INTER:                  -4.928
REMARK INTRA:                  -0.407
REMARK UNBOUND:                -0.407
REMARK SMILES NC(=O)C[C@H]([NH3+])C(=O)[O-]
REMARK SMILES IDX 4 1 5 2 6 3 7 7 8 8 9 9 2 10 3 11 1 12
REMARK H PARENT 6 4 6 5 6 6 1 13 1 14
REMARK Flexibility Score: inf
ROOT
ATOM      1  C   UNL     1     -14.359 -25.673 -13.417  1.00  0.00     0.171 C 
ENDROOT
BRANCH   1   2
ATOM      2  C   UNL     1     -14.357 -26.219 -11.975  1.00  0.00     0.237 C 
BRANCH   2   3
ATOM      3  N   UNL     1     -12.994 -26.287 -11.427  1.00  0.00    -0.350 N 
ATOM      4  H   UNL     1     -12.760 -25.393 -10.937  1.00  0.00     0.345 HD
ATOM      5  H   UNL     1     -12.295 -26.456 -12.187  1.00  0.00     0.345 HD
ATOM      6  H   UNL     1     -12.932 -27.061 -10.726  1.00  0.00     0.345 HD
ENDBRANCH   2   3
BRANCH   2   7
ATOM      7  C   UNL     1     -14.998 -27.581 -11.943  1.00  0.00     0.100 C 
ATOM      8  O   UNL     1     -15.879 -27.892 -12.787  1.00  0.00    -0.544 OA
ATOM      9  O   UNL     1     -14.632 -28.498 -10.966  1.00  0.00    -0.544 OA
ENDBRANCH   2   7
ENDBRANCH   1   2
BRANCH   1  10
ATOM     10  C   UNL     1     -13.317 -26.342 -14.265  1.00  0.00     0.223 C 
ATOM     11  O   UNL     1     -12.124 -25.939 -14.223  1.00  0.00    -0.275 OA
ATOM     12  N   UNL     1     -13.659 -27.453 -15.095  1.00  0.00    -0.369 N 
ATOM     13  H   UNL     1     -14.638 -27.814 -15.125  1.00  0.00     0.159 HD
ATOM     14  H   UNL     1     -12.929 -27.921 -15.675  1.00  0.00     0.159 HD
ENDBRANCH   1  10
TORSDOF 4
ENDMDL
MODEL 2
REMARK VINA RESULT:    -4.045      1.154      1.561
REMARK INTER + INTRA:          -5.279
REMARK INTER:                  -4.949
REMARK INTRA:                  -0.330
REMARK UNBOUND:                -0.407
REMARK SMILES NC(=O)C[C@H]([NH3+])C(=O)[O-]
REMARK SMILES IDX 4 1 5 2 6 3 7 7 8 8 9 9 2 10 3 11 1 12
REMARK H PARENT 6 4 6 5 6 6 1 13 1 14
REMARK Flexibility Score: inf
ROOT
ATOM      1  C   UNL     1     -14.756 -25.952 -13.108  1.00  0.00     0.171 C 
ENDROOT
BRANCH   1   2
ATOM      2  C   UNL     1     -14.271 -26.421 -11.722  1.00  0.00     0.237 C 
BRANCH   2   3
ATOM      3  N   UNL     1     -12.810 -26.321 -11.600  1.00  0.00    -0.350 N 
ATOM      4  H   UNL     1     -12.363 -26.436 -12.539  1.00  0.00     0.345 HD
ATOM      5  H   UNL     1     -12.439 -27.053 -10.951  1.00  0.00     0.345 HD
ATOM      6  H   UNL     1     -12.547 -25.376 -11.236  1.00  0.00     0.345 HD
ENDBRANCH   2   3
BRANCH   2   7
ATOM      7  C   UNL     1     -14.718 -27.837 -11.476  1.00  0.00     0.100 C 
ATOM      8  O   UNL     1     -14.400 -28.432 -10.412  1.00  0.00    -0.544 OA
ATOM      9  O   UNL     1     -15.472 -28.504 -12.434  1.00  0.00    -0.544 OA
ENDBRANCH   2   7
ENDBRANCH   1   2
BRANCH   1  10
ATOM     10  C   UNL     1     -13.663 -26.031 -14.134  1.00  0.00     0.223 C 
ATOM     11  O   UNL     1     -13.203 -27.155 -14.472  1.00  0.00    -0.275 OA
ATOM     12  N   UNL     1     -13.164 -24.847 -14.755  1.00  0.00    -0.369 N 
ATOM     13  H   UNL     1     -13.550 -23.910 -14.505  1.00  0.00     0.159 HD
ATOM     14  H   UNL     1     -12.412 -24.908 -15.476  1.00  0.00     0.159 HD
ENDBRANCH   1  10
TORSDOF 4
ENDMDL
MODEL 3
REMARK VINA RESULT:    -3.923      1.646      2.027
REMARK INTER + INTRA:          -5.132
REMARK INTER:                  -4.797
REMARK INTRA:                  -0.335
REMARK UNBOUND:                -0.407
REMARK SMILES NC(=O)C[C@H]([NH3+])C(=O)[O-]
REMARK SMILES IDX 4 1 5 2 6 3 7 7 8 8 9 9 2 10 3 11 1 12
REMARK H PARENT 6 4 6 5 6 6 1 13 1 14
REMARK Flexibility Score: inf
ROOT
ATOM      1  C   UNL     1     -14.775 -26.812 -12.645  1.00  0.00     0.171 C 
ENDROOT
BRANCH   1   2
ATOM      2  C   UNL     1     -13.994 -26.278 -11.427  1.00  0.00     0.237 C 
BRANCH   2   3
ATOM      3  N   UNL     1     -12.543 -26.417 -11.614  1.00  0.00    -0.350 N 
ATOM      4  H   UNL     1     -12.313 -27.387 -11.931  1.00  0.00     0.345 HD
ATOM      5  H   UNL     1     -12.031 -26.215 -10.724  1.00  0.00     0.345 HD
ATOM      6  H   UNL     1     -12.215 -25.754 -12.356  1.00  0.00     0.345 HD
ENDBRANCH   2   3
BRANCH   2   7
ATOM      7  C   UNL     1     -14.430 -27.004 -10.183  1.00  0.00     0.100 C 
ATOM      8  O   UNL     1     -14.485 -28.262 -10.163  1.00  0.00    -0.544 OA
ATOM      9  O   UNL     1     -14.793 -26.285  -9.050  1.00  0.00    -0.544 OA
ENDBRANCH   2   7
ENDBRANCH   1   2
BRANCH   1  10
ATOM     10  C   UNL     1     -13.890 -27.595 -13.571  1.00  0.00     0.223 C 
ATOM     11  O   UNL     1     -13.418 -28.702 -13.197  1.00  0.00    -0.275 OA
ATOM     12  N   UNL     1     -13.606 -27.112 -14.884  1.00  0.00    -0.369 N 
ATOM     13  H   UNL     1     -14.007 -26.208 -15.219  1.00  0.00     0.159 HD
ATOM     14  H   UNL     1     -12.999 -27.665 -15.529  1.00  0.00     0.159 HD
ENDBRANCH   1  10
TORSDOF 4
ENDMDL
MODEL 4
REMARK VINA RESULT:    -3.886      2.011      2.151
REMARK INTER + INTRA:          -5.088
REMARK INTER:                  -4.826
REMARK INTRA:                  -0.262
REMARK UNBOUND:                -0.407
REMARK SMILES NC(=O)C[C@H]([NH3+])C(=O)[O-]
REMARK SMILES IDX 4 1 5 2 6 3 7 7 8 8 9 9 2 10 3 11 1 12
REMARK H PARENT 6 4 6 5 6 6 1 13 1 14
REMARK Flexibility Score: inf
ROOT
ATOM      1  C   UNL     1     -14.460 -26.305 -12.805  1.00  0.00     0.171 C 
ENDROOT
BRANCH   1   2
ATOM      2  C   UNL     1     -14.419 -27.757 -12.290  1.00  0.00     0.237 C 
BRANCH   2   3
ATOM      3  N   UNL     1     -15.551 -28.543 -12.802  1.00  0.00    -0.350 N 
ATOM      4  H   UNL     1     -16.445 -28.202 -12.379  1.00  0.00     0.345 HD
ATOM      5  H   UNL     1     -15.430 -29.558 -12.581  1.00  0.00     0.345 HD
ATOM      6  H   UNL     1     -15.624 -28.425 -13.840  1.00  0.00     0.345 HD
ENDBRANCH   2   3
BRANCH   2   7
ATOM      7  C   UNL     1     -14.420 -27.765 -10.785  1.00  0.00     0.100 C 
ATOM      8  O   UNL     1     -14.305 -26.689 -10.140  1.00  0.00    -0.544 OA
ATOM      9  O   UNL     1     -14.529 -28.967 -10.096  1.00  0.00    -0.544 OA
ENDBRANCH   2   7
ENDBRANCH   1   2
BRANCH   1  10
ATOM     10  C   UNL     1     -13.767 -26.167 -14.130  1.00  0.00     0.223 C 
ATOM     11  O   UNL     1     -13.579 -27.187 -14.846  1.00  0.00    -0.275 OA
ATOM     12  N   UNL     1     -13.350 -24.885 -14.602  1.00  0.00    -0.369 N 
ATOM     13  H   UNL     1     -13.520 -24.027 -14.032  1.00  0.00     0.159 HD
ATOM     14  H   UNL     1     -12.879 -24.793 -15.528  1.00  0.00     0.159 HD
ENDBRANCH   1  10
TORSDOF 4
ENDMDL
MODEL 5
REMARK VINA RESULT:    -3.851      2.034      2.406
REMARK INTER + INTRA:          -5.046
REMARK INTER:                  -4.720
REMARK INTRA:                  -0.326
REMARK UNBOUND:                -0.407
REMARK SMILES NC(=O)C[C@H]([NH3+])C(=O)[O-]
REMARK SMILES IDX 4 1 5 2 6 3 7 7 8 8 9 9 2 10 3 11 1 12
REMARK H PARENT 6 4 6 5 6 6 1 13 1 14
REMARK Flexibility Score: inf
ROOT
ATOM      1  C   UNL     1     -13.240 -27.680 -12.651  1.00  0.00     0.171 C 
ENDROOT
BRANCH   1   2
ATOM      2  C   UNL     1     -14.243 -28.705 -12.085  1.00  0.00     0.237 C 
BRANCH   2   3
ATOM      3  N   UNL     1     -15.526 -28.656 -12.801  1.00  0.00    -0.350 N 
ATOM      4  H   UNL     1     -15.468 -29.221 -13.679  1.00  0.00     0.345 HD
ATOM      5  H   UNL     1     -15.780 -27.670 -13.042  1.00  0.00     0.345 HD
ATOM      6  H   UNL     1     -16.281 -29.068 -12.205  1.00  0.00     0.345 HD
ENDBRANCH   2   3
BRANCH   2   7
ATOM      7  C   UNL     1     -14.457 -28.453 -10.617  1.00  0.00     0.100 C 
ATOM      8  O   UNL     1     -14.508 -29.413  -9.804  1.00  0.00    -0.544 OA
ATOM      9  O   UNL     1     -14.618 -27.153 -10.152  1.00  0.00    -0.544 OA
ENDBRANCH   2   7
ENDBRANCH   1   2
BRANCH   1  10
ATOM     10  C   UNL     1     -13.863 -26.824 -13.715  1.00  0.00     0.223 C 
ATOM     11  O   UNL     1     -14.585 -25.845 -13.386  1.00  0.00    -0.275 OA
ATOM     12  N   UNL     1     -13.617 -27.089 -15.097  1.00  0.00    -0.369 N 
ATOM     13  H   UNL     1     -13.003 -27.881 -15.387  1.00  0.00     0.159 HD
ATOM     14  H   UNL     1     -14.044 -26.483 -15.833  1.00  0.00     0.159 HD
ENDBRANCH   1  10
TORSDOF 4
ENDMDL
MODEL 6
REMARK VINA RESULT:    -3.762      2.139      3.450
REMARK INTER + INTRA:          -4.939
REMARK INTER:                  -4.822
REMARK INTRA:                  -0.117
REMARK UNBOUND:                -0.407
REMARK SMILES NC(=O)C[C@H]([NH3+])C(=O)[O-]
REMARK SMILES IDX 4 1 5 2 6 3 7 7 8 8 9 9 2 10 3 11 1 12
REMARK H PARENT 6 4 6 5 6 6 1 13 1 14
REMARK Flexibility Score: inf
ROOT
ATOM      1  C   UNL     1     -13.742 -28.304 -12.642  1.00  0.00     0.171 C 
ENDROOT
BRANCH   1   2
ATOM      2  C   UNL     1     -14.386 -27.263 -13.580  1.00  0.00     0.237 C 
BRANCH   2   3
ATOM      3  N   UNL     1     -13.615 -27.106 -14.821  1.00  0.00    -0.350 N 
ATOM      4  H   UNL     1     -12.765 -26.524 -14.644  1.00  0.00     0.345 HD
ATOM      5  H   UNL     1     -14.195 -26.653 -15.565  1.00  0.00     0.345 HD
ATOM      6  H   UNL     1     -13.295 -28.043 -15.161  1.00  0.00     0.345 HD
ENDBRANCH   2   3
BRANCH   2   7
ATOM      7  C   UNL     1     -14.504 -25.940 -12.870  1.00  0.00     0.100 C 
ATOM      8  O   UNL     1     -14.881 -24.913 -13.492  1.00  0.00    -0.544 OA
ATOM      9  O   UNL     1     -14.177 -25.843 -11.523  1.00  0.00    -0.544 OA
ENDBRANCH   2   7
ENDBRANCH   1   2
BRANCH   1  10
ATOM     10  C   UNL     1     -14.764 -29.244 -12.072  1.00  0.00     0.223 C 
ATOM     11  O   UNL     1     -14.722 -29.546 -10.849  1.00  0.00    -0.275 OA
ATOM     12  N   UNL     1     -15.803 -29.773 -12.896  1.00  0.00    -0.369 N 
ATOM     13  H   UNL     1     -15.867 -29.515 -13.905  1.00  0.00     0.159 HD
ATOM     14  H   UNL     1     -16.518 -30.417 -12.492  1.00  0.00     0.159 HD
ENDBRANCH   1  10
TORSDOF 4
ENDMDL
MODEL 7
REMARK VINA RESULT:    -3.670      1.959      2.173
REMARK INTER + INTRA:          -4.827
REMARK INTER:                  -4.495
REMARK INTRA:                  -0.332
REMARK UNBOUND:                -0.407
REMARK SMILES NC(=O)C[C@H]([NH3+])C(=O)[O-]
REMARK SMILES IDX 4 1 5 2 6 3 7 7 8 8 9 9 2 10 3 11 1 12
REMARK H PARENT 6 4 6 5 6 6 1 13 1 14
REMARK Flexibility Score: inf
ROOT
ATOM      1  C   UNL     1     -15.010 -27.469 -12.874  1.00  0.00     0.171 C 
ENDROOT
BRANCH   1   2
ATOM      2  C   UNL     1     -14.751 -28.672 -11.945  1.00  0.00     0.237 C 
BRANCH   2   3
ATOM      3  N   UNL     1     -13.328 -28.790 -11.599  1.00  0.00    -0.350 N 
ATOM      4  H   UNL     1     -12.851 -29.443 -12.262  1.00  0.00     0.345 HD
ATOM      5  H   UNL     1     -13.210 -29.144 -10.622  1.00  0.00     0.345 HD
ATOM      6  H   UNL     1     -12.863 -27.855 -11.683  1.00  0.00     0.345 HD
ENDBRANCH   2   3
BRANCH   2   7
ATOM      7  C   UNL     1     -15.234 -29.938 -12.601  1.00  0.00     0.100 C 
ATOM      8  O   UNL     1     -16.442 -30.281 -12.516  1.00  0.00    -0.544 OA
ATOM      9  O   UNL     1     -14.339 -30.746 -13.293  1.00  0.00    -0.544 OA
ENDBRANCH   2   7
ENDBRANCH   1   2
BRANCH   1  10
ATOM     10  C   UNL     1     -13.778 -27.089 -13.644  1.00  0.00     0.223 C 
ATOM     11  O   UNL     1     -12.852 -26.456 -13.069  1.00  0.00    -0.275 OA
ATOM     12  N   UNL     1     -13.632 -27.467 -15.013  1.00  0.00    -0.369 N 
ATOM     13  H   UNL     1     -14.379 -28.012 -15.499  1.00  0.00     0.159 HD
ATOM     14  H   UNL     1     -12.769 -27.210 -15.541  1.00  0.00     0.159 HD
ENDBRANCH   1  10
TORSDOF 4
ENDMDL
MODEL 8
REMARK VINA RESULT:    -3.630      1.866      3.528
REMARK INTER + INTRA:          -4.779
REMARK INTER:                  -4.271
REMARK INTRA:                  -0.509
REMARK UNBOUND:                -0.407
REMARK SMILES NC(=O)C[C@H]([NH3+])C(=O)[O-]
REMARK SMILES IDX 4 1 5 2 6 3 7 7 8 8 9 9 2 10 3 11 1 12
REMARK H PARENT 6 4 6 5 6 6 1 13 1 14
REMARK Flexibility Score: inf
ROOT
ATOM      1  C   UNL     1     -14.531 -27.133 -11.025  1.00  0.00     0.171 C 
ENDROOT
BRANCH   1   2
ATOM      2  C   UNL     1     -15.291 -26.958 -12.355  1.00  0.00     0.237 C 
BRANCH   2   3
ATOM      3  N   UNL     1     -15.520 -28.249 -13.019  1.00  0.00    -0.350 N 
ATOM      4  H   UNL     1     -16.311 -28.168 -13.697  1.00  0.00     0.345 HD
ATOM      5  H   UNL     1     -15.740 -28.994 -12.319  1.00  0.00     0.345 HD
ATOM      6  H   UNL     1     -14.666 -28.527 -13.557  1.00  0.00     0.345 HD
ENDBRANCH   2   3
BRANCH   2   7
ATOM      7  C   UNL     1     -14.525 -26.034 -13.263  1.00  0.00     0.100 C 
ATOM      8  O   UNL     1     -14.900 -24.843 -13.428  1.00  0.00    -0.544 OA
ATOM      9  O   UNL     1     -13.405 -26.498 -13.942  1.00  0.00    -0.544 OA
ENDBRANCH   2   7
ENDBRANCH   1   2
BRANCH   1  10
ATOM     10  C   UNL     1     -13.718 -28.395 -11.013  1.00  0.00     0.223 C 
ATOM     11  O   UNL     1     -14.230 -29.464 -10.587  1.00  0.00    -0.275 OA
ATOM     12  N   UNL     1     -12.380 -28.401 -11.511  1.00  0.00    -0.369 N 
ATOM     13  H   UNL     1     -11.948 -27.529 -11.889  1.00  0.00     0.159 HD
ATOM     14  H   UNL     1     -11.822 -29.283 -11.511  1.00  0.00     0.159 HD
ENDBRANCH   1  10
TORSDOF 4
ENDMDL
MODEL 9
REMARK VINA RESULT:    -3.512      2.418      3.882
REMARK INTER + INTRA:          -4.637
REMARK INTER:                  -4.157
REMARK INTRA:                  -0.480
REMARK UNBOUND:                -0.407
REMARK SMILES NC(=O)C[C@H]([NH3+])C(=O)[O-]
REMARK SMILES IDX 4 1 5 2 6 3 7 7 8 8 9 9 2 10 3 11 1 12
REMARK H PARENT 6 4 6 5 6 6 1 13 1 14
REMARK Flexibility Score: inf
ROOT
ATOM      1  C   UNL     1     -14.691 -29.213 -11.507  1.00  0.00     0.171 C 
ENDROOT
BRANCH   1   2
ATOM      2  C   UNL     1     -14.788 -27.755 -11.998  1.00  0.00     0.237 C 
BRANCH   2   3
ATOM      3  N   UNL     1     -15.865 -27.589 -12.985  1.00  0.00    -0.350 N 
ATOM      4  H   UNL     1     -15.655 -26.780 -13.613  1.00  0.00     0.345 HD
ATOM      5  H   UNL     1     -16.783 -27.428 -12.511  1.00  0.00     0.345 HD
ATOM      6  H   UNL     1     -15.934 -28.447 -13.582  1.00  0.00     0.345 HD
ENDBRANCH   2   3
BRANCH   2   7
ATOM      7  C   UNL     1     -13.472 -27.326 -12.588  1.00  0.00     0.100 C 
ATOM      8  O   UNL     1     -12.628 -26.708 -11.887  1.00  0.00    -0.544 OA
ATOM      9  O   UNL     1     -13.187 -27.595 -13.922  1.00  0.00    -0.544 OA
ENDBRANCH   2   7
ENDBRANCH   1   2
BRANCH   1  10
ATOM     10  C   UNL     1     -15.220 -30.179 -12.528  1.00  0.00     0.223 C 
ATOM     11  O   UNL     1     -16.419 -30.561 -12.464  1.00  0.00    -0.275 OA
ATOM     12  N   UNL     1     -14.386 -30.641 -13.590  1.00  0.00    -0.369 N 
ATOM     13  H   UNL     1     -13.397 -30.316 -13.672  1.00  0.00     0.159 HD
ATOM     14  H   UNL     1     -14.761 -31.304 -14.304  1.00  0.00     0.159 HD
ENDBRANCH   1  10
TORSDOF 4
ENDMDL
