MODEL 1
REMARK VINA RESULT:    -4.092      0.000      0.000
REMARK INTER + INTRA:          -4.932
REMARK INTER:                  -4.810
REMARK INTRA:                  -0.123
REMARK UNBOUND:                -0.123
REMARK SMILES O=C([O-])C=Cc1ccc(O)c(O)c1
REMARK SMILES IDX 6 1 13 2 7 3 11 4 8 5 9 6 5 7 4 8 2 9 1 10 3 11 12 12 10 14
REMARK H PARENT 12 13 10 15
REMARK Flexibility Score: inf
ROOT
ATOM      1  C   UNL     1      -3.785  16.384  22.070  1.00  0.00    -0.022 A 
ATOM      2  C   UNL     1      -3.014  15.629  21.161  1.00  0.00     0.058 A 
ATOM      3  C   UNL     1      -3.127  17.155  23.041  1.00  0.00     0.012 A 
ATOM      4  C   UNL     1      -1.614  15.630  21.245  1.00  0.00     0.157 A 
ATOM      5  C   UNL     1      -1.732  17.152  23.125  1.00  0.00     0.051 A 
ATOM      6  C   UNL     1      -0.972  16.390  22.230  1.00  0.00     0.157 A 
ENDROOT
BRANCH   1   7
ATOM      7  C   UNL     1      -5.268  16.425  22.015  1.00  0.00     0.010 C 
ATOM      8  C   UNL     1      -6.009  15.603  21.261  1.00  0.00     0.025 C 
BRANCH   8   9
ATOM      9  C   UNL     1      -7.479  15.673  21.247  1.00  0.00     0.064 C 
ATOM     10  O   UNL     1      -8.151  14.678  21.627  1.00  0.00    -0.545 OA
ATOM     11  O   UNL     1      -8.139  16.819  20.821  1.00  0.00    -0.545 OA
ENDBRANCH   8   9
ENDBRANCH   1   7
BRANCH   4  12
ATOM     12  O   UNL     1      -0.854  14.880  20.348  1.00  0.00    -0.504 OA
ATOM     13  H   UNL     1      -1.156  13.967  20.030  1.00  0.00     0.293 HD
ENDBRANCH   4  12
BRANCH   6  14
ATOM     14  O   UNL     1       0.420  16.384  22.311  1.00  0.00    -0.504 OA
ATOM     15  H   UNL     1       0.914  16.976  22.968  1.00  0.00     0.293 HD
ENDBRANCH   6  14
TORSDOF 4
ENDMDL
MODEL 2
REMARK VINA RESULT:    -3.786      1.150      5.854
REMARK INTER + INTRA:          -4.573
REMARK INTER:                  -4.441
REMARK INTRA:                  -0.132
REMARK UNBOUND:                -0.123
REMARK SMILES O=C([O-])C=Cc1ccc(O)c(O)c1
REMARK SMILES IDX 6 1 13 2 7 3 11 4 8 5 9 6 5 7 4 8 2 9 1 10 3 11 12 12 10 14
REMARK H PARENT 12 13 10 15
REMARK Flexibility Score: inf
ROOT
ATOM      1  C   UNL     1      -4.960  16.500  22.116  1.00  0.00    -0.022 A 
ATOM      2  C   UNL     1      -5.962  15.565  21.783  1.00  0.00     0.058 A 
ATOM      3  C   UNL     1      -5.307  17.856  22.227  1.00  0.00     0.012 A 
ATOM      4  C   UNL     1      -7.278  15.989  21.543  1.00  0.00     0.157 A 
ATOM      5  C   UNL     1      -6.617  18.277  21.985  1.00  0.00     0.051 A 
ATOM      6  C   UNL     1      -7.605  17.347  21.640  1.00  0.00     0.157 A 
ENDROOT
BRANCH   1   7
ATOM      7  C   UNL     1      -3.557  16.101  22.391  1.00  0.00     0.010 C 
ATOM      8  C   UNL     1      -2.512  16.496  21.652  1.00  0.00     0.025 C 
BRANCH   8   9
ATOM      9  C   UNL     1      -1.135  16.084  21.970  1.00  0.00     0.064 C 
ATOM     10  O   UNL     1      -0.548  15.254  21.228  1.00  0.00    -0.545 OA
ATOM     11  O   UNL     1      -0.470  16.596  23.079  1.00  0.00    -0.545 OA
ENDBRANCH   8   9
ENDBRANCH   1   7
BRANCH   4  12
ATOM     12  O   UNL     1      -8.267  15.064  21.211  1.00  0.00    -0.504 OA
ATOM     13  H   UNL     1      -8.375  14.196  21.721  1.00  0.00     0.293 HD
ENDBRANCH   4  12
BRANCH   6  14
ATOM     14  O   UNL     1      -8.913  17.764  21.397  1.00  0.00    -0.504 OA
ATOM     15  H   UNL     1      -9.423  17.456  20.578  1.00  0.00     0.293 HD
ENDBRANCH   6  14
TORSDOF 4
ENDMDL
MODEL 3
REMARK VINA RESULT:    -3.740     13.602     15.267
REMARK INTER + INTRA:          -4.518
REMARK INTER:                  -4.390
REMARK INTRA:                  -0.128
REMARK UNBOUND:                -0.123
REMARK SMILES O=C([O-])C=Cc1ccc(O)c(O)c1
REMARK SMILES IDX 6 1 13 2 7 3 11 4 8 5 9 6 5 7 4 8 2 9 1 10 3 11 12 12 10 14
REMARK H PARENT 12 13 10 15
REMARK Flexibility Score: inf
ROOT
ATOM      1  C   UNL     1      10.638  12.994  19.507  1.00  0.00    -0.022 A 
ATOM      2  C   UNL     1      10.875  12.101  20.573  1.00  0.00     0.058 A 
ATOM      3  C   UNL     1      10.391  12.471  18.227  1.00  0.00     0.012 A 
ATOM      4  C   UNL     1      10.887  10.716  20.351  1.00  0.00     0.157 A 
ATOM      5  C   UNL     1      10.407  11.091  18.007  1.00  0.00     0.051 A 
ATOM      6  C   UNL     1      10.657  10.211  19.067  1.00  0.00     0.157 A 
ENDROOT
BRANCH   1   7
ATOM      7  C   UNL     1      10.603  14.466  19.692  1.00  0.00     0.010 C 
ATOM      8  C   UNL     1       9.703  15.099  20.455  1.00  0.00     0.025 C 
BRANCH   8   9
ATOM      9  C   UNL     1       9.713  16.562  20.619  1.00  0.00     0.064 C 
ATOM     10  O   UNL     1      10.737  17.216  20.289  1.00  0.00    -0.545 OA
ATOM     11  O   UNL     1       8.611  17.234  21.134  1.00  0.00    -0.545 OA
ENDBRANCH   8   9
ENDBRANCH   1   7
BRANCH   4  12
ATOM     12  O   UNL     1      11.125   9.836  21.406  1.00  0.00    -0.504 OA
ATOM     13  H   UNL     1      12.056   9.497  21.616  1.00  0.00     0.293 HD
ENDBRANCH   4  12
BRANCH   6  14
ATOM     14  O   UNL     1      10.674   8.833  18.851  1.00  0.00    -0.504 OA
ATOM     15  H   UNL     1       9.902   8.243  19.134  1.00  0.00     0.293 HD
ENDBRANCH   6  14
TORSDOF 4
ENDMDL
MODEL 4
REMARK VINA RESULT:    -3.609      8.374     11.068
REMARK INTER + INTRA:          -4.365
REMARK INTER:                  -4.216
REMARK INTRA:                  -0.149
REMARK UNBOUND:                -0.123
REMARK SMILES O=C([O-])C=Cc1ccc(O)c(O)c1
REMARK SMILES IDX 6 1 13 2 7 3 11 4 8 5 9 6 5 7 4 8 2 9 1 10 3 11 12 12 10 14
REMARK H PARENT 12 13 10 15
REMARK Flexibility Score: inf
ROOT
ATOM      1  C   UNL     1       7.286  15.825  21.638  1.00  0.00    -0.022 A 
ATOM      2  C   UNL     1       8.245  14.795  21.540  1.00  0.00     0.058 A 
ATOM      3  C   UNL     1       7.625  17.112  21.190  1.00  0.00     0.012 A 
ATOM      4  C   UNL     1       9.523  15.060  21.026  1.00  0.00     0.157 A 
ATOM      5  C   UNL     1       8.900  17.375  20.681  1.00  0.00     0.051 A 
ATOM      6  C   UNL     1       9.852  16.352  20.599  1.00  0.00     0.157 A 
ENDROOT
BRANCH   1   7
ATOM      7  C   UNL     1       5.917  15.593  22.163  1.00  0.00     0.010 C 
ATOM      8  C   UNL     1       4.825  16.206  21.689  1.00  0.00     0.025 C 
BRANCH   8   9
ATOM      9  C   UNL     1       3.484  15.935  22.233  1.00  0.00     0.064 C 
ATOM     10  O   UNL     1       3.336  15.035  23.100  1.00  0.00    -0.545 OA
ATOM     11  O   UNL     1       2.376  16.657  21.804  1.00  0.00    -0.545 OA
ENDBRANCH   8   9
ENDBRANCH   1   7
BRANCH   4  12
ATOM     12  O   UNL     1      10.471  14.041  20.932  1.00  0.00    -0.504 OA
ATOM     13  H   UNL     1      11.235  13.965  21.593  1.00  0.00     0.293 HD
ENDBRANCH   4  12
BRANCH   6  14
ATOM     14  O   UNL     1      11.125  16.611  20.093  1.00  0.00    -0.504 OA
ATOM     15  H   UNL     1      11.845  15.900  20.081  1.00  0.00     0.293 HD
ENDBRANCH   6  14
TORSDOF 4
ENDMDL
MODEL 5
REMARK VINA RESULT:    -3.605      1.320      2.043
REMARK INTER + INTRA:          -4.360
REMARK INTER:                  -4.233
REMARK INTRA:                  -0.127
REMARK UNBOUND:                -0.123
REMARK SMILES O=C([O-])C=Cc1ccc(O)c(O)c1
REMARK SMILES IDX 6 1 13 2 7 3 11 4 8 5 9 6 5 7 4 8 2 9 1 10 3 11 12 12 10 14
REMARK H PARENT 12 13 10 15
REMARK Flexibility Score: inf
ROOT
ATOM      1  C   UNL     1      -4.328  16.217  21.916  1.00  0.00    -0.022 A 
ATOM      2  C   UNL     1      -3.801  17.460  22.324  1.00  0.00     0.058 A 
ATOM      3  C   UNL     1      -3.468  15.278  21.323  1.00  0.00     0.012 A 
ATOM      4  C   UNL     1      -2.446  17.761  22.118  1.00  0.00     0.157 A 
ATOM      5  C   UNL     1      -2.119  15.580  21.116  1.00  0.00     0.051 A 
ATOM      6  C   UNL     1      -1.605  16.821  21.510  1.00  0.00     0.157 A 
ENDROOT
BRANCH   1   7
ATOM      7  C   UNL     1      -5.750  15.847  22.122  1.00  0.00     0.010 C 
ATOM      8  C   UNL     1      -6.719  16.089  21.230  1.00  0.00     0.025 C 
BRANCH   8   9
ATOM      9  C   UNL     1      -8.116  15.693  21.473  1.00  0.00     0.064 C 
ATOM     10  O   UNL     1      -8.404  14.473  21.591  1.00  0.00    -0.545 OA
ATOM     11  O   UNL     1      -9.125  16.643  21.573  1.00  0.00    -0.545 OA
ENDBRANCH   8   9
ENDBRANCH   1   7
BRANCH   4  12
ATOM     12  O   UNL     1      -1.928  18.992  22.520  1.00  0.00    -0.504 OA
ATOM     13  H   UNL     1      -2.524  19.725  22.883  1.00  0.00     0.293 HD
ENDBRANCH   4  12
BRANCH   6  14
ATOM     14  O   UNL     1      -0.261  17.126  21.304  1.00  0.00    -0.504 OA
ATOM     15  H   UNL     1       0.058  18.083  21.215  1.00  0.00     0.293 HD
ENDBRANCH   6  14
TORSDOF 4
ENDMDL
MODEL 6
REMARK VINA RESULT:    -3.510      8.285     12.151
REMARK INTER + INTRA:          -4.249
REMARK INTER:                  -4.126
REMARK INTRA:                  -0.123
REMARK UNBOUND:                -0.123
REMARK SMILES O=C([O-])C=Cc1ccc(O)c(O)c1
REMARK SMILES IDX 6 1 13 2 7 3 11 4 8 5 9 6 5 7 4 8 2 9 1 10 3 11 12 12 10 14
REMARK H PARENT 12 13 10 15
REMARK Flexibility Score: inf
ROOT
ATOM      1  C   UNL     1       6.869  15.464  21.795  1.00  0.00    -0.022 A 
ATOM      2  C   UNL     1       5.944  16.409  21.304  1.00  0.00     0.058 A 
ATOM      3  C   UNL     1       6.424  14.484  22.696  1.00  0.00     0.012 A 
ATOM      4  C   UNL     1       4.608  16.384  21.731  1.00  0.00     0.157 A 
ATOM      5  C   UNL     1       5.094  14.462  23.124  1.00  0.00     0.051 A 
ATOM      6  C   UNL     1       4.183  15.412  22.645  1.00  0.00     0.157 A 
ENDROOT
BRANCH   1   7
ATOM      7  C   UNL     1       8.290  15.440  21.364  1.00  0.00     0.010 C 
ATOM      8  C   UNL     1       8.910  16.478  20.787  1.00  0.00     0.025 C 
BRANCH   8   9
ATOM      9  C   UNL     1      10.325  16.413  20.387  1.00  0.00     0.064 C 
ATOM     10  O   UNL     1      11.044  17.443  20.479  1.00  0.00    -0.545 OA
ATOM     11  O   UNL     1      10.882  15.233  19.908  1.00  0.00    -0.545 OA
ENDBRANCH   8   9
ENDBRANCH   1   7
BRANCH   4  12
ATOM     12  O   UNL     1       3.696  17.322  21.248  1.00  0.00    -0.504 OA
ATOM     13  H   UNL     1       2.892  17.045  20.698  1.00  0.00     0.293 HD
ENDBRANCH   4  12
BRANCH   6  14
ATOM     14  O   UNL     1       2.856  15.394  23.070  1.00  0.00    -0.504 OA
ATOM     15  H   UNL     1       2.608  15.164  24.024  1.00  0.00     0.293 HD
ENDBRANCH   6  14
TORSDOF 4
ENDMDL
MODEL 7
REMARK VINA RESULT:    -3.316     12.323     14.566
REMARK INTER + INTRA:          -4.020
REMARK INTER:                  -3.879
REMARK INTRA:                  -0.141
REMARK UNBOUND:                -0.123
REMARK SMILES O=C([O-])C=Cc1ccc(O)c(O)c1
REMARK SMILES IDX 6 1 13 2 7 3 11 4 8 5 9 6 5 7 4 8 2 9 1 10 3 11 12 12 10 14
REMARK H PARENT 12 13 10 15
REMARK Flexibility Score: inf
ROOT
ATOM      1  C   UNL     1       9.836  14.066  20.835  1.00  0.00    -0.022 A 
ATOM      2  C   UNL     1       8.744  14.546  21.586  1.00  0.00     0.058 A 
ATOM      3  C   UNL     1      10.623  14.984  20.121  1.00  0.00     0.012 A 
ATOM      4  C   UNL     1       8.434  15.914  21.598  1.00  0.00     0.157 A 
ATOM      5  C   UNL     1      10.313  16.347  20.131  1.00  0.00     0.051 A 
ATOM      6  C   UNL     1       9.217  16.815  20.867  1.00  0.00     0.157 A 
ENDROOT
BRANCH   1   7
ATOM      7  C   UNL     1      10.212  12.631  20.799  1.00  0.00     0.010 C 
ATOM      8  C   UNL     1      10.406  11.940  19.668  1.00  0.00     0.025 C 
BRANCH   8   9
ATOM      9  C   UNL     1      10.789  10.519  19.682  1.00  0.00     0.064 C 
ATOM     10  O   UNL     1      11.118   9.974  20.768  1.00  0.00    -0.545 OA
ATOM     11  O   UNL     1      10.797   9.766  18.513  1.00  0.00    -0.545 OA
ENDBRANCH   8   9
ENDBRANCH   1   7
BRANCH   4  12
ATOM     12  O   UNL     1       7.351  16.386  22.339  1.00  0.00    -0.504 OA
ATOM     13  H   UNL     1       6.795  17.171  22.024  1.00  0.00     0.293 HD
ENDBRANCH   4  12
BRANCH   6  14
ATOM     14  O   UNL     1       8.904  18.173  20.879  1.00  0.00    -0.504 OA
ATOM     15  H   UNL     1       9.502  18.851  21.335  1.00  0.00     0.293 HD
ENDBRANCH   6  14
TORSDOF 4
ENDMDL
MODEL 8
REMARK VINA RESULT:    -3.251      4.197      7.110
REMARK INTER + INTRA:          -3.944
REMARK INTER:                  -3.813
REMARK INTRA:                  -0.131
REMARK UNBOUND:                -0.123
REMARK SMILES O=C([O-])C=Cc1ccc(O)c(O)c1
REMARK SMILES IDX 6 1 13 2 7 3 11 4 8 5 9 6 5 7 4 8 2 9 1 10 3 11 12 12 10 14
REMARK H PARENT 12 13 10 15
REMARK Flexibility Score: inf
ROOT
ATOM      1  C   UNL     1      -8.582  18.684  20.977  1.00  0.00    -0.022 A 
ATOM      2  C   UNL     1      -8.715  19.619  22.024  1.00  0.00     0.058 A 
ATOM      3  C   UNL     1      -8.609  19.143  19.650  1.00  0.00     0.012 A 
ATOM      4  C   UNL     1      -8.897  20.981  21.742  1.00  0.00     0.157 A 
ATOM      5  C   UNL     1      -8.793  20.499  19.370  1.00  0.00     0.051 A 
ATOM      6  C   UNL     1      -8.940  21.421  20.414  1.00  0.00     0.157 A 
ENDROOT
BRANCH   1   7
ATOM      7  C   UNL     1      -8.376  17.234  21.223  1.00  0.00     0.010 C 
ATOM      8  C   UNL     1      -7.172  16.647  21.247  1.00  0.00     0.025 C 
BRANCH   8   9
ATOM      9  C   UNL     1      -7.014  15.207  21.508  1.00  0.00     0.064 C 
ATOM     10  O   UNL     1      -8.037  14.482  21.625  1.00  0.00    -0.545 OA
ATOM     11  O   UNL     1      -5.754  14.633  21.628  1.00  0.00    -0.545 OA
ENDBRANCH   8   9
ENDBRANCH   1   7
BRANCH   4  12
ATOM     12  O   UNL     1      -9.032  21.904  22.779  1.00  0.00    -0.504 OA
ATOM     13  H   UNL     1      -9.930  22.304  23.020  1.00  0.00     0.293 HD
ENDBRANCH   4  12
BRANCH   6  14
ATOM     14  O   UNL     1      -9.125  22.775  20.138  1.00  0.00    -0.504 OA
ATOM     15  H   UNL     1      -8.864  23.492  20.805  1.00  0.00     0.293 HD
ENDBRANCH   6  14
TORSDOF 4
ENDMDL
