MODEL 1
REMARK VINA RESULT:     0.768      0.000      0.000
REMARK INTER + INTRA:           1.191
REMARK INTER:                   1.060
REMARK INTRA:                   0.131
REMARK UNBOUND:                 0.131
REMARK SMILES O=C([O-])[C@@H]1O[C@@H](Oc2cc3oc(-c4ccccc4)cc(=O)c3c(O)c2O)[C@H](O)[C@H](O)[C@@H]1O
REMARK SMILES IDX 7 1 6 2 4 3 31 4 5 5 29 6 27 7 2 8 1 9 3 10 32 11 30 13
REMARK SMILES IDX 28 15 8 17 25 18 9 19 23 20 10 21 22 22 11 23 20 24 12 25
REMARK SMILES IDX 19 26 21 27 26 28 24 30 13 32 14 33 18 34 15 35 17 36 16 37
REMARK H PARENT 32 12 30 14 28 16 26 29 24 31
REMARK Flexibility Score: inf
ROOT
ATOM      1  O   UNL     1      -9.710   6.055  -6.762  1.00  0.00    -0.458 OA
ENDROOT
BRANCH   1   2
ATOM      2  C   UNL     1      -9.592   6.720  -8.026  1.00  0.00     0.339 C 
ATOM      3  C   UNL     1      -7.499   5.747  -8.474  1.00  0.00     0.199 C 
ATOM      4  C   UNL     1      -6.736   7.088  -8.342  1.00  0.00     0.180 C 
ATOM      5  O   UNL     1      -8.822   5.961  -8.947  1.00  0.00    -0.328 OA
ATOM      6  C   UNL     1      -7.517   8.051  -7.429  1.00  0.00     0.181 C 
ATOM      7  C   UNL     1      -9.006   8.131  -7.828  1.00  0.00     0.214 C 
BRANCH   3   8
ATOM      8  C   UNL     1      -6.773   4.815  -9.403  1.00  0.00     0.073 C 
ATOM      9  O   UNL     1      -7.322   3.753  -9.808  1.00  0.00    -0.547 OA
ATOM     10  O   UNL     1      -5.471   5.103  -9.796  1.00  0.00    -0.547 OA
ENDBRANCH   3   8
BRANCH   4  11
ATOM     11  O   UNL     1      -6.463   7.675  -9.595  1.00  0.00    -0.387 OA
ATOM     12  H   UNL     1      -6.146   8.602  -9.445  1.00  0.00     0.211 HD
ENDBRANCH   4  11
BRANCH   6  13
ATOM     13  O   UNL     1      -6.922   9.323  -7.457  1.00  0.00    -0.387 OA
ATOM     14  H   UNL     1      -7.614   9.967  -7.157  1.00  0.00     0.211 HD
ENDBRANCH   6  13
BRANCH   7  15
ATOM     15  O   UNL     1      -9.165   8.868  -9.014  1.00  0.00    -0.384 OA
ATOM     16  H   UNL     1      -8.290   8.865  -9.478  1.00  0.00     0.211 HD
ENDBRANCH   7  15
ENDBRANCH   1   2
BRANCH   1  17
ATOM     17  C   UNL     1      -9.289   4.750  -6.444  1.00  0.00     0.172 A 
ATOM     18  C   UNL     1      -9.472   3.622  -7.278  1.00  0.00     0.201 A 
ATOM     19  C   UNL     1      -8.665   4.585  -5.208  1.00  0.00     0.098 A 
ATOM     20  C   UNL     1      -9.018   2.350  -6.867  1.00  0.00     0.176 A 
ATOM     21  C   UNL     1      -8.180   3.345  -4.800  1.00  0.00     0.146 A 
ATOM     22  C   UNL     1      -8.314   2.211  -5.636  1.00  0.00     0.111 A 
ATOM     23  O   UNL     1      -7.583   3.253  -3.616  1.00  0.00    -0.456 OA
ATOM     24  C   UNL     1      -7.699   1.015  -5.194  1.00  0.00     0.197 A 
ATOM     25  C   UNL     1      -7.062   2.125  -3.144  1.00  0.00     0.138 A 
ATOM     26  C   UNL     1      -7.093   0.971  -3.938  1.00  0.00     0.100 A 
ATOM     27  O   UNL     1      -7.640  -0.011  -5.920  1.00  0.00    -0.289 OA
BRANCH  18  28
ATOM     28  O   UNL     1     -10.125   3.751  -8.505  1.00  0.00    -0.502 OA
ATOM     29  H   UNL     1     -11.093   4.033  -8.589  1.00  0.00     0.293 HD
ENDBRANCH  18  28
BRANCH  20  30
ATOM     30  O   UNL     1      -9.320   1.262  -7.693  1.00  0.00    -0.504 OA
ATOM     31  H   UNL     1      -9.020   0.314  -7.520  1.00  0.00     0.293 HD
ENDBRANCH  20  30
BRANCH  25  32
ATOM     32  C   UNL     1      -6.445   2.132  -1.794  1.00  0.00     0.017 A 
ATOM     33  C   UNL     1      -6.900   2.995  -0.775  1.00  0.00     0.012 A 
ATOM     34  C   UNL     1      -5.350   1.288  -1.528  1.00  0.00     0.012 A 
ATOM     35  C   UNL     1      -6.284   2.995   0.479  1.00  0.00     0.001 A 
ATOM     36  C   UNL     1      -4.740   1.293  -0.270  1.00  0.00     0.001 A 
ATOM     37  C   UNL     1      -5.207   2.144   0.734  1.00  0.00     0.000 A 
ENDBRANCH  25  32
ENDBRANCH   1  17
TORSDOF 9
ENDMDL
MODEL 2
REMARK VINA RESULT:     0.811      1.392      2.140
REMARK INTER + INTRA:           1.251
REMARK INTER:                   1.573
REMARK INTRA:                  -0.322
REMARK UNBOUND:                 0.131
REMARK SMILES O=C([O-])[C@@H]1O[C@@H](Oc2cc3oc(-c4ccccc4)cc(=O)c3c(O)c2O)[C@H](O)[C@H](O)[C@@H]1O
REMARK SMILES IDX 7 1 6 2 4 3 31 4 5 5 29 6 27 7 2 8 1 9 3 10 32 11 30 13
REMARK SMILES IDX 28 15 8 17 25 18 9 19 23 20 10 21 22 22 11 23 20 24 12 25
REMARK SMILES IDX 19 26 21 27 26 28 24 30 13 32 14 33 18 34 15 35 17 36 16 37
REMARK H PARENT 32 12 30 14 28 16 26 29 24 31
REMARK Flexibility Score: inf
ROOT
ATOM      1  O   UNL     1      -8.713   5.402  -8.014  1.00  0.00    -0.458 OA
ENDROOT
BRANCH   1   2
ATOM      2  C   UNL     1      -9.411   6.597  -7.648  1.00  0.00     0.339 C 
ATOM      3  C   UNL     1      -7.628   7.981  -8.308  1.00  0.00     0.199 C 
ATOM      4  C   UNL     1      -7.297   8.413  -6.859  1.00  0.00     0.180 C 
ATOM      5  O   UNL     1      -9.014   7.702  -8.449  1.00  0.00    -0.328 OA
ATOM      6  C   UNL     1      -7.762   7.331  -5.866  1.00  0.00     0.181 C 
ATOM      7  C   UNL     1      -9.214   6.888  -6.149  1.00  0.00     0.214 C 
BRANCH   3   8
ATOM      8  C   UNL     1      -7.224   9.050  -9.284  1.00  0.00     0.073 C 
ATOM      9  O   UNL     1      -8.093   9.782  -9.832  1.00  0.00    -0.547 OA
ATOM     10  O   UNL     1      -5.884   9.216  -9.614  1.00  0.00    -0.547 OA
ENDBRANCH   3   8
BRANCH   4  11
ATOM     11  O   UNL     1      -7.841   9.673  -6.537  1.00  0.00    -0.387 OA
ATOM     12  H   UNL     1      -7.694   9.842  -5.572  1.00  0.00     0.211 HD
ENDBRANCH   4  11
BRANCH   6  13
ATOM     13  O   UNL     1      -7.630   7.802  -4.550  1.00  0.00    -0.387 OA
ATOM     14  H   UNL     1      -7.203   8.696  -4.610  1.00  0.00     0.211 HD
ENDBRANCH   6  13
BRANCH   7  15
ATOM     15  O   UNL     1     -10.125   7.880  -5.745  1.00  0.00    -0.384 OA
ATOM     16  H   UNL     1      -9.702   8.378  -5.001  1.00  0.00     0.211 HD
ENDBRANCH   7  15
ENDBRANCH   1   2
BRANCH   1  17
ATOM     17  C   UNL     1      -8.745   4.159  -7.352  1.00  0.00     0.172 A 
ATOM     18  C   UNL     1      -9.397   3.004  -7.845  1.00  0.00     0.201 A 
ATOM     19  C   UNL     1      -8.093   4.097  -6.121  1.00  0.00     0.098 A 
ATOM     20  C   UNL     1      -9.377   1.804  -7.103  1.00  0.00     0.176 A 
ATOM     21  C   UNL     1      -8.034   2.912  -5.391  1.00  0.00     0.146 A 
ATOM     22  C   UNL     1      -8.642   1.734  -5.884  1.00  0.00     0.111 A 
ATOM     23  O   UNL     1      -7.388   2.912  -4.229  1.00  0.00    -0.456 OA
ATOM     24  C   UNL     1      -8.442   0.550  -5.134  1.00  0.00     0.197 A 
ATOM     25  C   UNL     1      -7.248   1.832  -3.468  1.00  0.00     0.138 A 
ATOM     26  C   UNL     1      -7.763   0.607  -3.917  1.00  0.00     0.100 A 
ATOM     27  O   UNL     1      -8.822  -0.575  -5.551  1.00  0.00    -0.289 OA
BRANCH  18  28
ATOM     28  O   UNL     1     -10.086   3.047  -9.057  1.00  0.00    -0.502 OA
ATOM     29  H   UNL     1     -10.458   3.902  -9.451  1.00  0.00     0.293 HD
ENDBRANCH  18  28
BRANCH  20  30
ATOM     30  O   UNL     1     -10.124   0.729  -7.598  1.00  0.00    -0.504 OA
ATOM     31  H   UNL     1     -10.335  -0.108  -7.076  1.00  0.00     0.293 HD
ENDBRANCH  20  30
BRANCH  25  32
ATOM     32  C   UNL     1      -6.531   1.954  -2.175  1.00  0.00     0.017 A 
ATOM     33  C   UNL     1      -6.932   2.881  -1.190  1.00  0.00     0.012 A 
ATOM     34  C   UNL     1      -5.396   1.157  -1.933  1.00  0.00     0.012 A 
ATOM     35  C   UNL     1      -6.223   2.990   0.010  1.00  0.00     0.001 A 
ATOM     36  C   UNL     1      -4.693   1.271  -0.729  1.00  0.00     0.001 A 
ATOM     37  C   UNL     1      -5.107   2.185   0.242  1.00  0.00     0.000 A 
ENDBRANCH  25  32
ENDBRANCH   1  17
TORSDOF 9
ENDMDL
MODEL 3
REMARK VINA RESULT:     1.689      2.365      7.835
REMARK INTER + INTRA:           2.462
REMARK INTER:                   3.600
REMARK INTRA:                  -1.138
REMARK UNBOUND:                 0.131
REMARK SMILES O=C([O-])[C@@H]1O[C@@H](Oc2cc3oc(-c4ccccc4)cc(=O)c3c(O)c2O)[C@H](O)[C@H](O)[C@@H]1O
REMARK SMILES IDX 7 1 6 2 4 3 31 4 5 5 29 6 27 7 2 8 1 9 3 10 32 11 30 13
REMARK SMILES IDX 28 15 8 17 25 18 9 19 23 20 10 21 22 22 11 23 20 24 12 25
REMARK SMILES IDX 19 26 21 27 26 28 24 30 13 32 14 33 18 34 15 35 17 36 16 37
REMARK H PARENT 32 12 30 14 28 16 26 29 24 31
REMARK Flexibility Score: inf
ROOT
ATOM      1  O   UNL     1      -7.556   2.537  -2.493  1.00  0.00    -0.458 OA
ENDROOT
BRANCH   1   2
ATOM      2  C   UNL     1      -6.343   3.110  -1.992  1.00  0.00     0.339 C 
ATOM      3  C   UNL     1      -5.073   1.216  -2.569  1.00  0.00     0.199 C 
ATOM      4  C   UNL     1      -4.820   0.814  -1.095  1.00  0.00     0.180 C 
ATOM      5  O   UNL     1      -5.206   2.625  -2.694  1.00  0.00    -0.328 OA
ATOM      6  C   UNL     1      -5.947   1.360  -0.199  1.00  0.00     0.181 C 
ATOM      7  C   UNL     1      -6.222   2.853  -0.478  1.00  0.00     0.214 C 
BRANCH   3   8
ATOM      8  C   UNL     1      -3.955   0.732  -3.448  1.00  0.00     0.073 C 
ATOM      9  O   UNL     1      -3.367  -0.357  -3.201  1.00  0.00    -0.547 OA
ATOM     10  O   UNL     1      -3.538   1.503  -4.527  1.00  0.00    -0.547 OA
ENDBRANCH   3   8
BRANCH   4  11
ATOM     11  O   UNL     1      -3.552   1.228  -0.637  1.00  0.00    -0.387 OA
ATOM     12  H   UNL     1      -3.650   1.578   0.285  1.00  0.00     0.211 HD
ENDBRANCH   4  11
BRANCH   6  13
ATOM     13  O   UNL     1      -5.623   1.155   1.152  1.00  0.00    -0.387 OA
ATOM     14  H   UNL     1      -5.484   2.052   1.552  1.00  0.00     0.211 HD
ENDBRANCH   6  13
BRANCH   7  15
ATOM     15  O   UNL     1      -5.194   3.656   0.047  1.00  0.00    -0.384 OA
ATOM     16  H   UNL     1      -5.095   4.434  -0.558  1.00  0.00     0.211 HD
ENDBRANCH   7  15
ENDBRANCH   1   2
BRANCH   1  17
ATOM     17  C   UNL     1      -8.047   2.598  -3.811  1.00  0.00     0.172 A 
ATOM     18  C   UNL     1      -8.266   1.470  -4.638  1.00  0.00     0.201 A 
ATOM     19  C   UNL     1      -8.312   3.870  -4.315  1.00  0.00     0.098 A 
ATOM     20  C   UNL     1      -8.757   1.635  -5.951  1.00  0.00     0.176 A 
ATOM     21  C   UNL     1      -8.829   4.050  -5.596  1.00  0.00     0.146 A 
ATOM     22  C   UNL     1      -9.096   2.935  -6.425  1.00  0.00     0.111 A 
ATOM     23  O   UNL     1      -9.072   5.287  -6.016  1.00  0.00    -0.456 OA
ATOM     24  C   UNL     1      -9.721   3.198  -7.668  1.00  0.00     0.197 A 
ATOM     25  C   UNL     1      -9.590   5.568  -7.208  1.00  0.00     0.138 A 
ATOM     26  C   UNL     1      -9.946   4.517  -8.064  1.00  0.00     0.100 A 
ATOM     27  O   UNL     1     -10.125   2.273  -8.420  1.00  0.00    -0.289 OA
BRANCH  18  28
ATOM     28  O   UNL     1      -7.977   0.187  -4.172  1.00  0.00    -0.502 OA
ATOM     29  H   UNL     1      -7.054  -0.094  -3.864  1.00  0.00     0.293 HD
ENDBRANCH  18  28
BRANCH  20  30
ATOM     30  O   UNL     1      -8.857   0.489  -6.748  1.00  0.00    -0.504 OA
ATOM     31  H   UNL     1      -9.143  -0.418  -6.410  1.00  0.00     0.293 HD
ENDBRANCH  20  30
BRANCH  25  32
ATOM     32  C   UNL     1      -9.792   6.989  -7.584  1.00  0.00     0.017 A 
ATOM     33  C   UNL     1      -9.924   7.388  -8.930  1.00  0.00     0.012 A 
ATOM     34  C   UNL     1      -9.815   7.976  -6.579  1.00  0.00     0.012 A 
ATOM     35  C   UNL     1     -10.092   8.736  -9.256  1.00  0.00     0.001 A 
ATOM     36  C   UNL     1      -9.984   9.323  -6.913  1.00  0.00     0.001 A 
ATOM     37  C   UNL     1     -10.124   9.704  -8.249  1.00  0.00     0.000 A 
ENDBRANCH  25  32
ENDBRANCH   1  17
TORSDOF 9
ENDMDL
MODEL 4
REMARK VINA RESULT:     2.820      2.896      7.677
REMARK INTER + INTRA:           4.023
REMARK INTER:                   3.942
REMARK INTRA:                   0.081
REMARK UNBOUND:                 0.131
REMARK SMILES O=C([O-])[C@@H]1O[C@@H](Oc2cc3oc(-c4ccccc4)cc(=O)c3c(O)c2O)[C@H](O)[C@H](O)[C@@H]1O
REMARK SMILES IDX 7 1 6 2 4 3 31 4 5 5 29 6 27 7 2 8 1 9 3 10 32 11 30 13
REMARK SMILES IDX 28 15 8 17 25 18 9 19 23 20 10 21 22 22 11 23 20 24 12 25
REMARK SMILES IDX 19 26 21 27 26 28 24 30 13 32 14 33 18 34 15 35 17 36 16 37
REMARK H PARENT 32 12 30 14 28 16 26 29 24 31
REMARK Flexibility Score: inf
ROOT
ATOM      1  O   UNL     1      -9.344   1.975  -4.480  1.00  0.00    -0.458 OA
ENDROOT
BRANCH   1   2
ATOM      2  C   UNL     1      -8.302   1.298  -5.192  1.00  0.00     0.339 C 
ATOM      3  C   UNL     1      -9.123   1.991  -7.284  1.00  0.00     0.199 C 
ATOM      4  C   UNL     1      -9.553   0.562  -7.699  1.00  0.00     0.180 C 
ATOM      5  O   UNL     1      -7.997   1.949  -6.419  1.00  0.00    -0.328 OA
ATOM      6  C   UNL     1      -9.831  -0.290  -6.447  1.00  0.00     0.181 C 
ATOM      7  C   UNL     1      -8.686  -0.176  -5.417  1.00  0.00     0.214 C 
BRANCH   3   8
ATOM      8  C   UNL     1      -8.801   2.818  -8.496  1.00  0.00     0.073 C 
ATOM      9  O   UNL     1      -9.488   2.713  -9.549  1.00  0.00    -0.547 OA
ATOM     10  O   UNL     1      -7.715   3.686  -8.474  1.00  0.00    -0.547 OA
ENDBRANCH   3   8
BRANCH   4  11
ATOM     11  O   UNL     1      -8.609  -0.058  -8.543  1.00  0.00    -0.387 OA
ATOM     12  H   UNL     1      -8.567  -1.021  -8.314  1.00  0.00     0.211 HD
ENDBRANCH   4  11
BRANCH   6  13
ATOM     13  O   UNL     1     -10.040  -1.628  -6.817  1.00  0.00    -0.387 OA
ATOM     14  H   UNL     1      -9.468  -2.181  -6.224  1.00  0.00     0.211 HD
ENDBRANCH   6  13
BRANCH   7  15
ATOM     15  O   UNL     1      -7.554  -0.889  -5.849  1.00  0.00    -0.384 OA
ATOM     16  H   UNL     1      -7.870  -1.776  -6.158  1.00  0.00     0.211 HD
ENDBRANCH   7  15
ENDBRANCH   1   2
BRANCH   1  17
ATOM     17  C   UNL     1      -9.463   3.361  -4.257  1.00  0.00     0.172 A 
ATOM     18  C   UNL     1      -9.690   3.953  -2.992  1.00  0.00     0.201 A 
ATOM     19  C   UNL     1      -9.360   4.179  -5.381  1.00  0.00     0.098 A 
ATOM     20  C   UNL     1      -9.800   5.355  -2.871  1.00  0.00     0.176 A 
ATOM     21  C   UNL     1      -9.432   5.567  -5.276  1.00  0.00     0.146 A 
ATOM     22  C   UNL     1      -9.617   6.183  -4.016  1.00  0.00     0.111 A 
ATOM     23  O   UNL     1      -9.315   6.295  -6.382  1.00  0.00    -0.456 OA
ATOM     24  C   UNL     1      -9.569   7.597  -3.984  1.00  0.00     0.197 A 
ATOM     25  C   UNL     1      -9.342   7.623  -6.390  1.00  0.00     0.138 A 
ATOM     26  C   UNL     1      -9.453   8.314  -5.176  1.00  0.00     0.100 A 
ATOM     27  O   UNL     1      -9.586   8.241  -2.902  1.00  0.00    -0.289 OA
BRANCH  18  28
ATOM     28  O   UNL     1      -9.832   3.156  -1.855  1.00  0.00    -0.502 OA
ATOM     29  H   UNL     1     -10.698   3.081  -1.337  1.00  0.00     0.293 HD
ENDBRANCH  18  28
BRANCH  20  30
ATOM     30  O   UNL     1     -10.124   5.868  -1.610  1.00  0.00    -0.504 OA
ATOM     31  H   UNL     1     -10.845   5.495  -1.011  1.00  0.00     0.293 HD
ENDBRANCH  20  30
BRANCH  25  32
ATOM     32  C   UNL     1      -9.231   8.334  -7.689  1.00  0.00     0.017 A 
ATOM     33  C   UNL     1      -8.246   7.991  -8.639  1.00  0.00     0.012 A 
ATOM     34  C   UNL     1     -10.102   9.403  -7.971  1.00  0.00     0.012 A 
ATOM     35  C   UNL     1      -8.151   8.693  -9.844  1.00  0.00     0.001 A 
ATOM     36  C   UNL     1     -10.002  10.100  -9.180  1.00  0.00     0.001 A 
ATOM     37  C   UNL     1      -9.029   9.744 -10.116  1.00  0.00     0.000 A 
ENDBRANCH  25  32
ENDBRANCH   1  17
TORSDOF 9
ENDMDL
