MODEL 1
REMARK VINA RESULT:    -3.358      0.000      0.000
REMARK INTER + INTRA:          -4.134
REMARK INTER:                  -4.046
REMARK INTRA:                  -0.088
REMARK UNBOUND:                -0.088
REMARK SMILES OCCc1ccc(O)c(O)c1
REMARK SMILES IDX 3 1 4 2 5 3 6 4 7 5 11 6 9 7 8 8 10 10 2 12 1 13
REMARK H PARENT 8 9 10 11 1 14
REMARK Flexibility Score: inf
ROOT
ATOM      1  C   UNL     1      27.015  26.772   3.132  1.00  0.00     0.064 C 
ENDROOT
BRANCH   1   2
ATOM      2  C   UNL     1      27.355  28.176   2.703  1.00  0.00    -0.042 A 
ATOM      3  C   UNL     1      26.377  29.182   2.743  1.00  0.00     0.008 A 
ATOM      4  C   UNL     1      26.697  30.492   2.374  1.00  0.00     0.050 A 
ATOM      5  C   UNL     1      27.999  30.812   1.969  1.00  0.00     0.157 A 
ATOM      6  C   UNL     1      28.662  28.502   2.306  1.00  0.00     0.054 A 
ATOM      7  C   UNL     1      28.985  29.816   1.936  1.00  0.00     0.157 A 
BRANCH   5   8
ATOM      8  O   UNL     1      28.323  32.117   1.599  1.00  0.00    -0.504 OA
ATOM      9  H   UNL     1      27.676  32.695   1.077  1.00  0.00     0.293 HD
ENDBRANCH   5   8
BRANCH   7  10
ATOM     10  O   UNL     1      30.280  30.139   1.537  1.00  0.00    -0.504 OA
ATOM     11  H   UNL     1      30.556  30.116   0.562  1.00  0.00     0.293 HD
ENDBRANCH   7  10
ENDBRANCH   1   2
BRANCH   1  12
ATOM     12  C   UNL     1      27.107  25.790   1.960  1.00  0.00     0.161 C 
BRANCH  12  13
ATOM     13  O   UNL     1      25.879  25.707   1.286  1.00  0.00    -0.396 OA
ATOM     14  H   UNL     1      25.567  24.768   1.374  1.00  0.00     0.210 HD
ENDBRANCH  12  13
ENDBRANCH   1  12
TORSDOF 5
ENDMDL
MODEL 2
REMARK VINA RESULT:    -3.244      1.285      2.115
REMARK INTER + INTRA:          -3.996
REMARK INTER:                  -3.996
REMARK INTRA:                   0.000
REMARK UNBOUND:                -0.088
REMARK SMILES OCCc1ccc(O)c(O)c1
REMARK SMILES IDX 3 1 4 2 5 3 6 4 7 5 11 6 9 7 8 8 10 10 2 12 1 13
REMARK H PARENT 8 9 10 11 1 14
REMARK Flexibility Score: inf
ROOT
ATOM      1  C   UNL     1      27.619  26.000   2.402  1.00  0.00     0.064 C 
ENDROOT
BRANCH   1   2
ATOM      2  C   UNL     1      27.662  27.486   2.155  1.00  0.00    -0.042 A 
ATOM      3  C   UNL     1      28.460  28.007   1.125  1.00  0.00     0.008 A 
ATOM      4  C   UNL     1      28.480  29.382   0.875  1.00  0.00     0.050 A 
ATOM      5  C   UNL     1      27.696  30.251   1.646  1.00  0.00     0.157 A 
ATOM      6  C   UNL     1      26.871  28.358   2.921  1.00  0.00     0.054 A 
ATOM      7  C   UNL     1      26.889  29.738   2.671  1.00  0.00     0.157 A 
BRANCH   5   8
ATOM      8  O   UNL     1      27.713  31.623   1.402  1.00  0.00    -0.504 OA
ATOM      9  H   UNL     1      27.023  32.062   0.804  1.00  0.00     0.293 HD
ENDBRANCH   5   8
BRANCH   7  10
ATOM     10  O   UNL     1      26.107  30.603   3.433  1.00  0.00    -0.504 OA
ATOM     11  H   UNL     1      25.761  30.338   4.348  1.00  0.00     0.293 HD
ENDBRANCH   7  10
ENDBRANCH   1   2
BRANCH   1  12
ATOM     12  C   UNL     1      26.741  25.285   1.372  1.00  0.00     0.161 C 
BRANCH  12  13
ATOM     13  O   UNL     1      25.499  25.928   1.246  1.00  0.00    -0.396 OA
ATOM     14  H   UNL     1      25.560  26.514   0.447  1.00  0.00     0.210 HD
ENDBRANCH  12  13
ENDBRANCH   1  12
TORSDOF 5
ENDMDL
MODEL 3
REMARK VINA RESULT:    -1.442      2.238      4.521
REMARK INTER + INTRA:          -1.826
REMARK INTER:                  -1.756
REMARK INTRA:                  -0.069
REMARK UNBOUND:                -0.088
REMARK SMILES OCCc1ccc(O)c(O)c1
REMARK SMILES IDX 3 1 4 2 5 3 6 4 7 5 11 6 9 7 8 8 10 10 2 12 1 13
REMARK H PARENT 8 9 10 11 1 14
REMARK Flexibility Score: inf
ROOT
ATOM      1  C   UNL     1      29.811  30.519   3.241  1.00  0.00     0.064 C 
ENDROOT
BRANCH   1   2
ATOM      2  C   UNL     1      28.809  29.527   2.709  1.00  0.00    -0.042 A 
ATOM      3  C   UNL     1      28.367  29.615   1.380  1.00  0.00     0.008 A 
ATOM      4  C   UNL     1      27.459  28.680   0.875  1.00  0.00     0.050 A 
ATOM      5  C   UNL     1      26.989  27.641   1.690  1.00  0.00     0.157 A 
ATOM      6  C   UNL     1      28.344  28.480   3.521  1.00  0.00     0.054 A 
ATOM      7  C   UNL     1      27.434  27.540   3.015  1.00  0.00     0.157 A 
BRANCH   5   8
ATOM      8  O   UNL     1      26.084  26.706   1.192  1.00  0.00    -0.504 OA
ATOM      9  H   UNL     1      26.301  25.717   1.175  1.00  0.00     0.293 HD
ENDBRANCH   5   8
BRANCH   7  10
ATOM     10  O   UNL     1      26.970  26.503   3.822  1.00  0.00    -0.504 OA
ATOM     11  H   UNL     1      27.603  25.828   4.235  1.00  0.00     0.293 HD
ENDBRANCH   7  10
ENDBRANCH   1   2
BRANCH   1  12
ATOM     12  C   UNL     1      31.171  29.862   3.494  1.00  0.00     0.161 C 
BRANCH  12  13
ATOM     13  O   UNL     1      31.679  30.238   4.747  1.00  0.00    -0.396 OA
ATOM     14  H   UNL     1      32.544  29.766   4.858  1.00  0.00     0.210 HD
ENDBRANCH  12  13
ENDBRANCH   1  12
TORSDOF 5
ENDMDL
MODEL 4
REMARK VINA RESULT:    -1.183      2.193      4.659
REMARK INTER + INTRA:          -1.514
REMARK INTER:                  -1.463
REMARK INTRA:                  -0.051
REMARK UNBOUND:                -0.088
REMARK SMILES OCCc1ccc(O)c(O)c1
REMARK SMILES IDX 3 1 4 2 5 3 6 4 7 5 11 6 9 7 8 8 10 10 2 12 1 13
REMARK H PARENT 8 9 10 11 1 14
REMARK Flexibility Score: inf
ROOT
ATOM      1  C   UNL     1      30.646  30.248   2.875  1.00  0.00     0.064 C 
ENDROOT
BRANCH   1   2
ATOM      2  C   UNL     1      29.431  29.442   2.491  1.00  0.00    -0.042 A 
ATOM      3  C   UNL     1      29.513  28.487   1.466  1.00  0.00     0.008 A 
ATOM      4  C   UNL     1      28.397  27.719   1.127  1.00  0.00     0.050 A 
ATOM      5  C   UNL     1      27.188  27.890   1.814  1.00  0.00     0.157 A 
ATOM      6  C   UNL     1      28.222  29.605   3.185  1.00  0.00     0.054 A 
ATOM      7  C   UNL     1      27.100  28.834   2.847  1.00  0.00     0.157 A 
BRANCH   5   8
ATOM      8  O   UNL     1      26.071  27.126   1.479  1.00  0.00    -0.504 OA
ATOM      9  H   UNL     1      26.146  26.314   0.879  1.00  0.00     0.293 HD
ENDBRANCH   5   8
BRANCH   7  10
ATOM     10  O   UNL     1      25.898  28.998   3.532  1.00  0.00    -0.504 OA
ATOM     11  H   UNL     1      25.628  29.894   3.921  1.00  0.00     0.293 HD
ENDBRANCH   7  10
ENDBRANCH   1   2
BRANCH   1  12
ATOM     12  C   UNL     1      31.194  29.821   4.240  1.00  0.00     0.161 C 
BRANCH  12  13
ATOM     13  O   UNL     1      32.542  30.188   4.370  1.00  0.00    -0.396 OA
ATOM     14  H   UNL     1      33.023  29.789   3.599  1.00  0.00     0.210 HD
ENDBRANCH  12  13
ENDBRANCH   1  12
TORSDOF 5
ENDMDL
MODEL 5
REMARK VINA RESULT:    -1.115      2.154      2.613
REMARK INTER + INTRA:          -1.432
REMARK INTER:                  -1.361
REMARK INTRA:                  -0.071
REMARK UNBOUND:                -0.088
REMARK SMILES OCCc1ccc(O)c(O)c1
REMARK SMILES IDX 3 1 4 2 5 3 6 4 7 5 11 6 9 7 8 8 10 10 2 12 1 13
REMARK H PARENT 8 9 10 11 1 14
REMARK Flexibility Score: inf
ROOT
ATOM      1  C   UNL     1      27.058  28.438   1.318  1.00  0.00     0.064 C 
ENDROOT
BRANCH   1   2
ATOM      2  C   UNL     1      28.345  28.874   1.970  1.00  0.00    -0.042 A 
ATOM      3  C   UNL     1      28.335  29.889   2.940  1.00  0.00     0.008 A 
ATOM      4  C   UNL     1      29.523  30.276   3.567  1.00  0.00     0.050 A 
ATOM      5  C   UNL     1      30.732  29.648   3.238  1.00  0.00     0.157 A 
ATOM      6  C   UNL     1      29.555  28.240   1.648  1.00  0.00     0.054 A 
ATOM      7  C   UNL     1      30.748  28.627   2.278  1.00  0.00     0.157 A 
BRANCH   5   8
ATOM      8  O   UNL     1      31.919  30.030   3.860  1.00  0.00    -0.504 OA
ATOM      9  H   UNL     1      32.787  30.104   3.343  1.00  0.00     0.293 HD
ENDBRANCH   5   8
BRANCH   7  10
ATOM     10  O   UNL     1      31.950  28.001   1.956  1.00  0.00    -0.504 OA
ATOM     11  H   UNL     1      32.565  27.632   2.673  1.00  0.00     0.293 HD
ENDBRANCH   7  10
ENDBRANCH   1   2
BRANCH   1  12
ATOM     12  C   UNL     1      26.701  26.996   1.688  1.00  0.00     0.161 C 
BRANCH  12  13
ATOM     13  O   UNL     1      26.770  26.809   3.078  1.00  0.00    -0.396 OA
ATOM     14  H   UNL     1      27.730  26.849   3.325  1.00  0.00     0.210 HD
ENDBRANCH  12  13
ENDBRANCH   1  12
TORSDOF 5
ENDMDL
MODEL 6
REMARK VINA RESULT:    -1.006      2.281      4.166
REMARK INTER + INTRA:          -1.301
REMARK INTER:                  -1.215
REMARK INTRA:                  -0.086
REMARK UNBOUND:                -0.088
REMARK SMILES OCCc1ccc(O)c(O)c1
REMARK SMILES IDX 3 1 4 2 5 3 6 4 7 5 11 6 9 7 8 8 10 10 2 12 1 13
REMARK H PARENT 8 9 10 11 1 14
REMARK Flexibility Score: inf
ROOT
ATOM      1  C   UNL     1      31.007  29.062   3.391  1.00  0.00     0.064 C 
ENDROOT
BRANCH   1   2
ATOM      2  C   UNL     1      29.736  29.570   2.761  1.00  0.00    -0.042 A 
ATOM      3  C   UNL     1      29.445  30.943   2.768  1.00  0.00     0.008 A 
ATOM      4  C   UNL     1      28.281  31.420   2.159  1.00  0.00     0.050 A 
ATOM      5  C   UNL     1      27.399  30.532   1.528  1.00  0.00     0.157 A 
ATOM      6  C   UNL     1      28.856  28.683   2.120  1.00  0.00     0.054 A 
ATOM      7  C   UNL     1      27.688  29.160   1.507  1.00  0.00     0.157 A 
BRANCH   5   8
ATOM      8  O   UNL     1      26.237  31.002   0.920  1.00  0.00    -0.504 OA
ATOM      9  H   UNL     1      26.273  31.656   0.146  1.00  0.00     0.293 HD
ENDBRANCH   5   8
BRANCH   7  10
ATOM     10  O   UNL     1      26.813  28.280   0.875  1.00  0.00    -0.504 OA
ATOM     11  H   UNL     1      26.114  27.762   1.396  1.00  0.00     0.293 HD
ENDBRANCH   7  10
ENDBRANCH   1   2
BRANCH   1  12
ATOM     12  C   UNL     1      31.404  29.901   4.609  1.00  0.00     0.161 C 
BRANCH  12  13
ATOM     13  O   UNL     1      32.755  30.274   4.536  1.00  0.00    -0.396 OA
ATOM     14  H   UNL     1      32.908  30.938   5.257  1.00  0.00     0.210 HD
ENDBRANCH  12  13
ENDBRANCH   1  12
TORSDOF 5
ENDMDL
MODEL 7
REMARK VINA RESULT:    -0.932      2.529      3.456
REMARK INTER + INTRA:          -1.211
REMARK INTER:                  -1.277
REMARK INTRA:                   0.067
REMARK UNBOUND:                -0.088
REMARK SMILES OCCc1ccc(O)c(O)c1
REMARK SMILES IDX 3 1 4 2 5 3 6 4 7 5 11 6 9 7 8 8 10 10 2 12 1 13
REMARK H PARENT 8 9 10 11 1 14
REMARK Flexibility Score: inf
ROOT
ATOM      1  C   UNL     1      26.653  30.614   2.212  1.00  0.00     0.064 C 
ENDROOT
BRANCH   1   2
ATOM      2  C   UNL     1      27.959  29.871   2.097  1.00  0.00    -0.042 A 
ATOM      3  C   UNL     1      28.109  28.850   1.145  1.00  0.00     0.008 A 
ATOM      4  C   UNL     1      29.327  28.179   1.016  1.00  0.00     0.050 A 
ATOM      5  C   UNL     1      30.414  28.526   1.831  1.00  0.00     0.157 A 
ATOM      6  C   UNL     1      29.052  30.223   2.906  1.00  0.00     0.054 A 
ATOM      7  C   UNL     1      30.277  29.551   2.776  1.00  0.00     0.157 A 
BRANCH   5   8
ATOM      8  O   UNL     1      31.631  27.859   1.706  1.00  0.00    -0.504 OA
ATOM      9  H   UNL     1      32.342  27.916   2.427  1.00  0.00     0.293 HD
ENDBRANCH   5   8
BRANCH   7  10
ATOM     10  O   UNL     1      31.359  29.897   3.582  1.00  0.00    -0.504 OA
ATOM     11  H   UNL     1      32.144  30.426   3.217  1.00  0.00     0.293 HD
ENDBRANCH   7  10
ENDBRANCH   1   2
BRANCH   1  12
ATOM     12  C   UNL     1      25.900  30.230   3.489  1.00  0.00     0.161 C 
BRANCH  12  13
ATOM     13  O   UNL     1      26.231  28.926   3.887  1.00  0.00    -0.396 OA
ATOM     14  H   UNL     1      25.376  28.448   4.043  1.00  0.00     0.210 HD
ENDBRANCH  12  13
ENDBRANCH   1  12
TORSDOF 5
ENDMDL
