MODEL 1
REMARK VINA RESULT:    -4.951      0.000      0.000
REMARK INTER + INTRA:          -6.325
REMARK INTER:                  -5.964
REMARK INTRA:                  -0.361
REMARK UNBOUND:                -0.361
REMARK SMILES CCCCc1oc(O)c2ccccc12
REMARK SMILES IDX 4 1 5 2 7 3 6 4 9 5 14 6 10 7 13 8 11 9 12 10 8 11 3 13 2 14
REMARK SMILES IDX 1 15
REMARK H PARENT 8 12
REMARK Flexibility Score: inf
ROOT
ATOM      1  C   UNL     1     -50.682  23.770  12.121  1.00  0.00     0.076 C 
ENDROOT
BRANCH   1   2
ATOM      2  C   UNL     1     -50.161  24.283  10.810  1.00  0.00     0.116 A 
ATOM      3  C   UNL     1     -49.085  24.319   8.954  1.00  0.00     0.290 A 
ATOM      4  O   UNL     1     -49.330  23.608  10.036  1.00  0.00    -0.430 OA
ATOM      5  C   UNL     1     -49.780  25.509   9.014  1.00  0.00     0.066 A 
ATOM      6  C   UNL     1     -50.468  25.488  10.199  1.00  0.00     0.027 A 
ATOM      7  C   UNL     1     -49.863  26.584   8.130  1.00  0.00     0.016 A 
ATOM      8  C   UNL     1     -51.292  26.547  10.586  1.00  0.00     0.012 A 
ATOM      9  C   UNL     1     -50.686  27.666   8.494  1.00  0.00     0.001 A 
ATOM     10  C   UNL     1     -51.396  27.648   9.716  1.00  0.00     0.001 A 
BRANCH   3  11
ATOM     11  O   UNL     1     -48.248  23.901   7.925  1.00  0.00    -0.480 OA
ATOM     12  H   UNL     1     -47.826  22.982   7.931  1.00  0.00     0.297 HD
ENDBRANCH   3  11
ENDBRANCH   1   2
BRANCH   1  13
ATOM     13  C   UNL     1     -52.075  23.138  11.966  1.00  0.00     0.008 C 
BRANCH  13  14
ATOM     14  C   UNL     1     -52.053  21.604  11.845  1.00  0.00    -0.003 C 
ATOM     15  C   UNL     1     -52.090  21.128  10.393  1.00  0.00     0.004 C 
ENDBRANCH  13  14
ENDBRANCH   1  13
TORSDOF 4
ENDMDL
MODEL 2
REMARK VINA RESULT:    -4.907      1.134      1.533
REMARK INTER + INTRA:          -6.271
REMARK INTER:                  -6.038
REMARK INTRA:                  -0.234
REMARK UNBOUND:                -0.361
REMARK SMILES CCCCc1oc(O)c2ccccc12
REMARK SMILES IDX 4 1 5 2 7 3 6 4 9 5 14 6 10 7 13 8 11 9 12 10 8 11 3 13 2 14
REMARK SMILES IDX 1 15
REMARK H PARENT 8 12
REMARK Flexibility Score: inf
ROOT
ATOM      1  C   UNL     1     -51.092  23.592   9.860  1.00  0.00     0.076 C 
ENDROOT
BRANCH   1   2
ATOM      2  C   UNL     1     -49.983  24.401   9.251  1.00  0.00     0.116 A 
ATOM      3  C   UNL     1     -48.060  24.863   8.419  1.00  0.00     0.290 A 
ATOM      4  O   UNL     1     -48.792  23.910   8.960  1.00  0.00    -0.430 OA
ATOM      5  C   UNL     1     -48.794  26.028   8.350  1.00  0.00     0.066 A 
ATOM      6  C   UNL     1     -50.023  25.735   8.881  1.00  0.00     0.027 A 
ATOM      7  C   UNL     1     -48.484  27.297   7.863  1.00  0.00     0.016 A 
ATOM      8  C   UNL     1     -51.033  26.696   8.963  1.00  0.00     0.012 A 
ATOM      9  C   UNL     1     -49.482  28.286   7.933  1.00  0.00     0.001 A 
ATOM     10  C   UNL     1     -50.750  27.987   8.481  1.00  0.00     0.001 A 
BRANCH   3  11
ATOM     11  O   UNL     1     -46.748  24.686   7.993  1.00  0.00    -0.480 OA
ATOM     12  H   UNL     1     -46.401  25.142   7.158  1.00  0.00     0.297 HD
ENDBRANCH   3  11
ENDBRANCH   1   2
BRANCH   1  13
ATOM     13  C   UNL     1     -51.286  23.929  11.346  1.00  0.00     0.008 C 
BRANCH  13  14
ATOM     14  C   UNL     1     -52.091  22.872  12.124  1.00  0.00    -0.003 C 
ATOM     15  C   UNL     1     -51.570  21.454  11.900  1.00  0.00     0.004 C 
ENDBRANCH  13  14
ENDBRANCH   1  13
TORSDOF 4
ENDMDL
MODEL 3
REMARK VINA RESULT:    -4.837      8.200     10.334
REMARK INTER + INTRA:          -6.188
REMARK INTER:                  -5.880
REMARK INTRA:                  -0.308
REMARK UNBOUND:                -0.361
REMARK SMILES CCCCc1oc(O)c2ccccc12
REMARK SMILES IDX 4 1 5 2 7 3 6 4 9 5 14 6 10 7 13 8 11 9 12 10 8 11 3 13 2 14
REMARK SMILES IDX 1 15
REMARK H PARENT 8 12
REMARK Flexibility Score: inf
ROOT
ATOM      1  C   UNL     1     -40.920  24.601  12.038  1.00  0.00     0.076 C 
ENDROOT
BRANCH   1   2
ATOM      2  C   UNL     1     -41.615  23.709  11.051  1.00  0.00     0.116 A 
ATOM      3  C   UNL     1     -42.861  23.125   9.405  1.00  0.00     0.290 A 
ATOM      4  O   UNL     1     -42.441  24.150  10.119  1.00  0.00    -0.430 OA
ATOM      5  C   UNL     1     -42.290  21.963   9.880  1.00  0.00     0.066 A 
ATOM      6  C   UNL     1     -41.494  22.334  10.932  1.00  0.00     0.027 A 
ATOM      7  C   UNL     1     -42.404  20.635   9.472  1.00  0.00     0.016 A 
ATOM      8  C   UNL     1     -40.751  21.397  11.654  1.00  0.00     0.012 A 
ATOM      9  C   UNL     1     -41.666  19.669  10.181  1.00  0.00     0.001 A 
ATOM     10  C   UNL     1     -40.845  20.048  11.267  1.00  0.00     0.001 A 
BRANCH   3  11
ATOM     11  O   UNL     1     -43.745  23.235   8.336  1.00  0.00    -0.480 OA
ATOM     12  H   UNL     1     -43.685  24.003   7.681  1.00  0.00     0.297 HD
ENDBRANCH   3  11
ENDBRANCH   1   2
BRANCH   1  13
ATOM     13  C   UNL     1     -39.748  25.355  11.391  1.00  0.00     0.008 C 
BRANCH  13  14
ATOM     14  C   UNL     1     -39.991  26.867  11.234  1.00  0.00    -0.003 C 
ATOM     15  C   UNL     1     -40.411  27.251   9.815  1.00  0.00     0.004 C 
ENDBRANCH  13  14
ENDBRANCH   1  13
TORSDOF 4
ENDMDL
MODEL 4
REMARK VINA RESULT:    -4.753      1.340      4.446
REMARK INTER + INTRA:          -6.087
REMARK INTER:                  -5.581
REMARK INTRA:                  -0.506
REMARK UNBOUND:                -0.361
REMARK SMILES CCCCc1oc(O)c2ccccc12
REMARK SMILES IDX 4 1 5 2 7 3 6 4 9 5 14 6 10 7 13 8 11 9 12 10 8 11 3 13 2 14
REMARK SMILES IDX 1 15
REMARK H PARENT 8 12
REMARK Flexibility Score: inf
ROOT
ATOM      1  C   UNL     1     -49.483  26.287   8.264  1.00  0.00     0.076 C 
ENDROOT
BRANCH   1   2
ATOM      2  C   UNL     1     -49.238  25.143   9.205  1.00  0.00     0.116 A 
ATOM      3  C   UNL     1     -48.183  23.591  10.246  1.00  0.00     0.290 A 
ATOM      4  O   UNL     1     -48.075  24.528   9.325  1.00  0.00    -0.430 OA
ATOM      5  C   UNL     1     -49.465  23.587  10.754  1.00  0.00     0.066 A 
ATOM      6  C   UNL     1     -50.140  24.577  10.090  1.00  0.00     0.027 A 
ATOM      7  C   UNL     1     -50.074  22.806  11.736  1.00  0.00     0.016 A 
ATOM      8  C   UNL     1     -51.481  24.858  10.363  1.00  0.00     0.012 A 
ATOM      9  C   UNL     1     -51.425  23.067  12.032  1.00  0.00     0.001 A 
ATOM     10  C   UNL     1     -52.125  24.087  11.349  1.00  0.00     0.001 A 
BRANCH   3  11
ATOM     11  O   UNL     1     -47.140  22.752  10.625  1.00  0.00    -0.480 OA
ATOM     12  H   UNL     1     -46.832  21.995  10.028  1.00  0.00     0.297 HD
ENDBRANCH   3  11
ENDBRANCH   1   2
BRANCH   1  13
ATOM     13  C   UNL     1     -49.178  27.639   8.928  1.00  0.00     0.008 C 
BRANCH  13  14
ATOM     14  C   UNL     1     -50.433  28.471   9.249  1.00  0.00    -0.003 C 
ATOM     15  C   UNL     1     -51.654  28.029   8.444  1.00  0.00     0.004 C 
ENDBRANCH  13  14
ENDBRANCH   1  13
TORSDOF 4
ENDMDL
MODEL 5
REMARK VINA RESULT:    -4.653      1.296      1.655
REMARK INTER + INTRA:          -5.966
REMARK INTER:                  -5.572
REMARK INTRA:                  -0.393
REMARK UNBOUND:                -0.361
REMARK SMILES CCCCc1oc(O)c2ccccc12
REMARK SMILES IDX 4 1 5 2 7 3 6 4 9 5 14 6 10 7 13 8 11 9 12 10 8 11 3 13 2 14
REMARK SMILES IDX 1 15
REMARK H PARENT 8 12
REMARK Flexibility Score: inf
ROOT
ATOM      1  C   UNL     1     -51.400  23.892  11.963  1.00  0.00     0.076 C 
ENDROOT
BRANCH   1   2
ATOM      2  C   UNL     1     -50.141  24.061  11.164  1.00  0.00     0.116 A 
ATOM      3  C   UNL     1     -48.134  23.721  10.484  1.00  0.00     0.290 A 
ATOM      4  O   UNL     1     -49.046  23.348  11.360  1.00  0.00    -0.430 OA
ATOM      5  C   UNL     1     -48.644  24.717   9.679  1.00  0.00     0.066 A 
ATOM      6  C   UNL     1     -49.926  24.937  10.112  1.00  0.00     0.027 A 
ATOM      7  C   UNL     1     -48.092  25.429   8.615  1.00  0.00     0.016 A 
ATOM      8  C   UNL     1     -50.750  25.889   9.508  1.00  0.00     0.012 A 
ATOM      9  C   UNL     1     -48.898  26.395   7.987  1.00  0.00     0.001 A 
ATOM     10  C   UNL     1     -50.220  26.625   8.431  1.00  0.00     0.001 A 
BRANCH   3  11
ATOM     11  O   UNL     1     -46.859  23.169  10.411  1.00  0.00    -0.480 OA
ATOM     12  H   UNL     1     -46.419  22.752  11.221  1.00  0.00     0.297 HD
ENDBRANCH   3  11
ENDBRANCH   1   2
BRANCH   1  13
ATOM     13  C   UNL     1     -52.116  22.577  11.617  1.00  0.00     0.008 C 
BRANCH  13  14
ATOM     14  C   UNL     1     -52.029  22.193  10.129  1.00  0.00    -0.003 C 
ATOM     15  C   UNL     1     -51.232  20.910   9.899  1.00  0.00     0.004 C 
ENDBRANCH  13  14
ENDBRANCH   1  13
TORSDOF 4
ENDMDL
MODEL 6
REMARK VINA RESULT:    -4.487      2.230      3.653
REMARK INTER + INTRA:          -5.766
REMARK INTER:                  -5.217
REMARK INTRA:                  -0.549
REMARK UNBOUND:                -0.361
REMARK SMILES CCCCc1oc(O)c2ccccc12
REMARK SMILES IDX 4 1 5 2 7 3 6 4 9 5 14 6 10 7 13 8 11 9 12 10 8 11 3 13 2 14
REMARK SMILES IDX 1 15
REMARK H PARENT 8 12
REMARK Flexibility Score: inf
ROOT
ATOM      1  C   UNL     1     -51.462  24.931   9.361  1.00  0.00     0.076 C 
ENDROOT
BRANCH   1   2
ATOM      2  C   UNL     1     -49.997  24.658   9.538  1.00  0.00     0.116 A 
ATOM      3  C   UNL     1     -48.202  23.639  10.125  1.00  0.00     0.290 A 
ATOM      4  O   UNL     1     -49.519  23.597  10.164  1.00  0.00    -0.430 OA
ATOM      5  C   UNL     1     -47.794  24.769   9.448  1.00  0.00     0.066 A 
ATOM      6  C   UNL     1     -48.939  25.421   9.072  1.00  0.00     0.027 A 
ATOM      7  C   UNL     1     -46.527  25.260   9.135  1.00  0.00     0.016 A 
ATOM      8  C   UNL     1     -48.898  26.618   8.353  1.00  0.00     0.012 A 
ATOM      9  C   UNL     1     -46.454  26.464   8.410  1.00  0.00     0.001 A 
ATOM     10  C   UNL     1     -47.633  27.139   8.021  1.00  0.00     0.001 A 
BRANCH   3  11
ATOM     11  O   UNL     1     -47.378  22.672  10.691  1.00  0.00    -0.480 OA
ATOM     12  H   UNL     1     -47.716  21.735  10.873  1.00  0.00     0.297 HD
ENDBRANCH   3  11
ENDBRANCH   1   2
BRANCH   1  13
ATOM     13  C   UNL     1     -52.024  25.768  10.521  1.00  0.00     0.008 C 
BRANCH  13  14
ATOM     14  C   UNL     1     -52.053  27.281  10.241  1.00  0.00    -0.003 C 
ATOM     15  C   UNL     1     -50.995  28.046  11.036  1.00  0.00     0.004 C 
ENDBRANCH  13  14
ENDBRANCH   1  13
TORSDOF 4
ENDMDL
MODEL 7
REMARK VINA RESULT:    -4.487      2.452      4.101
REMARK INTER + INTRA:          -5.766
REMARK INTER:                  -5.332
REMARK INTRA:                  -0.434
REMARK UNBOUND:                -0.361
REMARK SMILES CCCCc1oc(O)c2ccccc12
REMARK SMILES IDX 4 1 5 2 7 3 6 4 9 5 14 6 10 7 13 8 11 9 12 10 8 11 3 13 2 14
REMARK SMILES IDX 1 15
REMARK H PARENT 8 12
REMARK Flexibility Score: inf
ROOT
ATOM      1  C   UNL     1     -47.864  23.490  12.003  1.00  0.00     0.076 C 
ENDROOT
BRANCH   1   2
ATOM      2  C   UNL     1     -49.102  23.059  11.272  1.00  0.00     0.116 A 
ATOM      3  C   UNL     1     -50.636  21.765  10.514  1.00  0.00     0.290 A 
ATOM      4  O   UNL     1     -49.514  21.805  11.203  1.00  0.00    -0.430 OA
ATOM      5  C   UNL     1     -50.981  23.038  10.113  1.00  0.00     0.066 A 
ATOM      6  C   UNL     1     -50.002  23.866  10.596  1.00  0.00     0.027 A 
ATOM      7  C   UNL     1     -52.064  23.523   9.380  1.00  0.00     0.016 A 
ATOM      8  C   UNL     1     -50.036  25.246  10.378  1.00  0.00     0.012 A 
ATOM      9  C   UNL     1     -52.125  24.909   9.145  1.00  0.00     0.001 A 
ATOM     10  C   UNL     1     -51.116  25.766   9.641  1.00  0.00     0.001 A 
BRANCH   3  11
ATOM     11  O   UNL     1     -51.343  20.595  10.251  1.00  0.00    -0.480 OA
ATOM     12  H   UNL     1     -51.323  19.813  10.893  1.00  0.00     0.297 HD
ENDBRANCH   3  11
ENDBRANCH   1   2
BRANCH   1  13
ATOM     13  C   UNL     1     -46.734  23.863  11.030  1.00  0.00     0.008 C 
BRANCH  13  14
ATOM     14  C   UNL     1     -46.030  25.189  11.372  1.00  0.00    -0.003 C 
ATOM     15  C   UNL     1     -46.462  26.336  10.460  1.00  0.00     0.004 C 
ENDBRANCH  13  14
ENDBRANCH   1  13
TORSDOF 4
ENDMDL
MODEL 8
REMARK VINA RESULT:    -4.456      1.676      4.581
REMARK INTER + INTRA:          -5.728
REMARK INTER:                  -5.252
REMARK INTRA:                  -0.477
REMARK UNBOUND:                -0.361
REMARK SMILES CCCCc1oc(O)c2ccccc12
REMARK SMILES IDX 4 1 5 2 7 3 6 4 9 5 14 6 10 7 13 8 11 9 12 10 8 11 3 13 2 14
REMARK SMILES IDX 1 15
REMARK H PARENT 8 12
REMARK Flexibility Score: inf
ROOT
ATOM      1  C   UNL     1     -47.561  26.287   9.308  1.00  0.00     0.076 C 
ENDROOT
BRANCH   1   2
ATOM      2  C   UNL     1     -48.279  25.090   9.861  1.00  0.00     0.116 A 
ATOM      3  C   UNL     1     -48.584  23.104  10.614  1.00  0.00     0.290 A 
ATOM      4  O   UNL     1     -47.690  23.936  10.118  1.00  0.00    -0.430 OA
ATOM      5  C   UNL     1     -49.810  23.732  10.690  1.00  0.00     0.066 A 
ATOM      6  C   UNL     1     -49.617  25.001  10.209  1.00  0.00     0.027 A 
ATOM      7  C   UNL     1     -51.054  23.294  11.142  1.00  0.00     0.016 A 
ATOM      8  C   UNL     1     -50.661  25.926  10.146  1.00  0.00     0.012 A 
ATOM      9  C   UNL     1     -52.125  24.205  11.091  1.00  0.00     0.001 A 
ATOM     10  C   UNL     1     -51.930  25.514  10.594  1.00  0.00     0.001 A 
BRANCH   3  11
ATOM     11  O   UNL     1     -48.299  21.797  10.996  1.00  0.00    -0.480 OA
ATOM     12  H   UNL     1     -49.025  21.093  11.040  1.00  0.00     0.297 HD
ENDBRANCH   3  11
ENDBRANCH   1   2
BRANCH   1  13
ATOM     13  C   UNL     1     -47.968  26.566   7.853  1.00  0.00     0.008 C 
BRANCH  13  14
ATOM     14  C   UNL     1     -48.641  27.935   7.646  1.00  0.00    -0.003 C 
ATOM     15  C   UNL     1     -48.623  28.796   8.909  1.00  0.00     0.004 C 
ENDBRANCH  13  14
ENDBRANCH   1  13
TORSDOF 4
ENDMDL
