MODEL 1
REMARK VINA RESULT:    -3.613      0.000      0.000
REMARK INTER + INTRA:          -4.937
REMARK INTER:                  -5.091
REMARK INTRA:                   0.155
REMARK UNBOUND:                 0.155
REMARK SMILES CC1=CCC(=C(C)C)C(=O)CC(C)=CCC1
REMARK SMILES IDX 12 1 14 2 13 3 15 4 16 5 2 6 1 7 3 8 11 10 9 11 10 12 5 13
REMARK SMILES IDX 6 14 7 15 8 16 4 17
REMARK H PARENT
REMARK Flexibility Score: 60.00
ROOT
ATOM      1  C   UNL     1       3.131  23.789   6.046  1.00  0.00    -0.070 C 
ATOM      2  C   UNL     1       3.575  22.636   6.611  1.00  0.00    -0.027 C 
ATOM      3  C   UNL     1       2.105  24.585   6.816  1.00  0.00     0.039 C 
ENDROOT
BRANCH   2   4
ATOM      4  C   UNL     1       4.664  21.742   6.071  1.00  0.00     0.032 C 
BRANCH   4   5
ATOM      5  C   UNL     1       4.154  20.707   5.059  1.00  0.00     0.034 C 
BRANCH   5   6
ATOM      6  C   UNL     1       5.101  20.618   3.878  1.00  0.00    -0.077 C 
ATOM      7  C   UNL     1       6.496  20.102   4.117  1.00  0.00     0.039 C 
ATOM      8  C   UNL     1       4.784  21.049   2.634  1.00  0.00    -0.023 CG0
ATOM      9  G   UNL     1       3.438  21.581   2.201  1.00  0.00     0.000 G0
ENDBRANCH   5   6
ENDBRANCH   4   5
ENDBRANCH   2   4
BRANCH   1  10
ATOM     10  C   UNL     1       3.537  24.284   4.662  1.00  0.00     0.111 C 
BRANCH  10  11
ATOM     11  C   UNL     1       2.713  23.705   3.538  1.00  0.00     0.163 C 
ATOM     12  O   UNL     1       1.460  23.686   3.683  1.00  0.00    -0.294 OA
BRANCH  11  13
ATOM     13  C   UNL     1       3.328  23.110   2.305  1.00  0.00    -0.002 C 
ATOM     14  C   UNL     1       3.834  23.914   1.318  1.00  0.00    -0.069 C 
ATOM     15  C   UNL     1       4.545  23.341   0.112  1.00  0.00     0.039 C 
ATOM     16  C   UNL     1       3.667  25.417   1.351  1.00  0.00     0.039 C 
BRANCH  13  17
ATOM     17  C   UNL     1       3.431  21.590   2.196  1.00  0.00     0.066 CG0
ATOM     18  G   UNL     1       4.781  21.076   2.637  1.00  0.00     0.000 G0
ENDBRANCH  13  17
ENDBRANCH  11  13
ENDBRANCH  10  11
ENDBRANCH   1  10
TORSDOF 0
ENDMDL
MODEL 2
REMARK VINA RESULT:    -3.570      1.734      3.725
REMARK INTER + INTRA:          -4.876
REMARK INTER:                  -5.126
REMARK INTRA:                   0.250
REMARK UNBOUND:                 0.155
REMARK SMILES CC1=CCC(=C(C)C)C(=O)CC(C)=CCC1
REMARK SMILES IDX 12 1 14 2 13 3 15 4 16 5 2 6 1 7 3 8 11 10 9 11 10 12 5 13
REMARK SMILES IDX 6 14 7 15 8 16 4 17
REMARK H PARENT
REMARK Flexibility Score: 60.00
ROOT
ATOM      1  C   UNL     1       2.988  21.983   7.061  1.00  0.00    -0.070 C 
ATOM      2  C   UNL     1       2.217  23.101   7.075  1.00  0.00    -0.027 C 
ATOM      3  C   UNL     1       2.619  20.876   8.019  1.00  0.00     0.039 C 
ENDROOT
BRANCH   2   4
ATOM      4  C   UNL     1       2.339  24.280   6.141  1.00  0.00     0.032 C 
BRANCH   4   5
ATOM      5  C   UNL     1       1.795  23.998   4.734  1.00  0.00     0.034 C 
BRANCH   5   6
ATOM      6  C   UNL     1       2.853  24.300   3.691  1.00  0.00    -0.077 C 
ATOM      7  C   UNL     1       3.257  25.736   3.479  1.00  0.00     0.039 C 
ATOM      8  C   UNL     1       3.397  23.357   2.886  1.00  0.00    -0.023 CG0
ATOM      9  G   UNL     1       3.128  21.873   2.960  1.00  0.00     0.000 G0
ENDBRANCH   5   6
ENDBRANCH   4   5
ENDBRANCH   2   4
BRANCH   1  10
ATOM     10  C   UNL     1       4.239  21.808   6.205  1.00  0.00     0.111 C 
BRANCH  10  11
ATOM     11  C   UNL     1       4.099  20.767   5.122  1.00  0.00     0.163 C 
ATOM     12  O   UNL     1       3.895  19.575   5.481  1.00  0.00    -0.294 OA
BRANCH  11  13
ATOM     13  C   UNL     1       4.251  21.089   3.664  1.00  0.00    -0.002 C 
ATOM     14  C   UNL     1       5.347  20.659   2.963  1.00  0.00    -0.069 C 
ATOM     15  C   UNL     1       5.478  20.885   1.473  1.00  0.00     0.039 C 
ATOM     16  C   UNL     1       6.513  19.978   3.647  1.00  0.00     0.039 C 
BRANCH  13  17
ATOM     17  C   UNL     1       3.133  21.855   2.960  1.00  0.00     0.066 CG0
ATOM     18  G   UNL     1       3.416  23.337   2.886  1.00  0.00     0.000 G0
ENDBRANCH  13  17
ENDBRANCH  11  13
ENDBRANCH  10  11
ENDBRANCH   1  10
TORSDOF 0
ENDMDL
MODEL 3
REMARK VINA RESULT:    -3.357      1.873      4.859
REMARK INTER + INTRA:          -4.575
REMARK INTER:                  -4.786
REMARK INTRA:                   0.211
REMARK UNBOUND:                 0.155
REMARK SMILES CC1=CCC(=C(C)C)C(=O)CC(C)=CCC1
REMARK SMILES IDX 12 1 14 2 13 3 15 4 16 5 2 6 1 7 3 8 11 10 9 11 10 12 5 13
REMARK SMILES IDX 6 14 7 15 8 16 4 17
REMARK H PARENT
REMARK Flexibility Score: 60.00
ROOT
ATOM      1  C   UNL     1       5.240  20.619   3.664  1.00  0.00    -0.070 C 
ATOM      2  C   UNL     1       5.230  20.779   2.315  1.00  0.00    -0.027 C 
ATOM      3  C   UNL     1       6.528  20.147   4.295  1.00  0.00     0.039 C 
ENDROOT
BRANCH   2   4
ATOM      4  C   UNL     1       4.094  21.333   1.491  1.00  0.00     0.032 C 
BRANCH   4   5
ATOM      5  C   UNL     1       3.942  22.855   1.615  1.00  0.00     0.034 C 
BRANCH   5   6
ATOM      6  C   UNL     1       2.512  23.212   1.975  1.00  0.00    -0.077 C 
ATOM      7  C   UNL     1       1.432  22.948   0.959  1.00  0.00     0.039 C 
ATOM      8  C   UNL     1       2.167  23.828   3.130  1.00  0.00    -0.023 CG0
ATOM      9  G   UNL     1       3.103  24.158   4.268  1.00  0.00     0.000 G0
ENDBRANCH   5   6
ENDBRANCH   4   5
ENDBRANCH   2   4
BRANCH   1  10
ATOM     10  C   UNL     1       4.022  20.805   4.563  1.00  0.00     0.111 C 
BRANCH  10  11
ATOM     11  C   UNL     1       4.083  22.039   5.429  1.00  0.00     0.163 C 
ATOM     12  O   UNL     1       5.038  22.131   6.249  1.00  0.00    -0.294 OA
BRANCH  11  13
ATOM     13  C   UNL     1       3.033  23.110   5.388  1.00  0.00    -0.002 C 
ATOM     14  C   UNL     1       2.063  23.176   6.353  1.00  0.00    -0.069 C 
ATOM     15  C   UNL     1       1.052  24.302   6.390  1.00  0.00     0.039 C 
ATOM     16  C   UNL     1       1.913  22.101   7.407  1.00  0.00     0.039 C 
BRANCH  13  17
ATOM     17  C   UNL     1       3.099  24.162   4.282  1.00  0.00     0.066 CG0
ATOM     18  G   UNL     1       2.176  23.840   3.131  1.00  0.00     0.000 G0
ENDBRANCH  13  17
ENDBRANCH  11  13
ENDBRANCH  10  11
ENDBRANCH   1  10
TORSDOF 0
ENDMDL
MODEL 4
REMARK VINA RESULT:    -3.316      1.557      2.763
REMARK INTER + INTRA:          -4.518
REMARK INTER:                  -4.866
REMARK INTRA:                   0.348
REMARK UNBOUND:                 0.155
REMARK SMILES CC1=CCC(=C(C)C)C(=O)CC(C)=CCC1
REMARK SMILES IDX 12 1 14 2 13 3 15 4 16 5 2 6 1 7 3 8 11 10 9 11 10 12 5 13
REMARK SMILES IDX 6 14 7 15 8 16 4 17
REMARK H PARENT
REMARK Flexibility Score: 60.00
ROOT
ATOM      1  C   UNL     1       3.038  24.237   4.228  1.00  0.00    -0.070 C 
ATOM      2  C   UNL     1       3.746  24.421   5.373  1.00  0.00    -0.027 C 
ATOM      3  C   UNL     1       3.440  25.059   3.028  1.00  0.00     0.039 C 
ENDROOT
BRANCH   2   4
ATOM      4  C   UNL     1       3.586  23.640   6.655  1.00  0.00     0.032 C 
BRANCH   4   5
ATOM      5  C   UNL     1       4.582  22.480   6.786  1.00  0.00     0.034 C 
BRANCH   5   6
ATOM      6  C   UNL     1       3.875  21.155   6.576  1.00  0.00    -0.077 C 
ATOM      7  C   UNL     1       3.175  20.524   7.752  1.00  0.00     0.039 C 
ATOM      8  C   UNL     1       3.906  20.471   5.409  1.00  0.00    -0.023 CG0
ATOM      9  G   UNL     1       4.542  20.947   4.124  1.00  0.00     0.000 G0
ENDBRANCH   5   6
ENDBRANCH   4   5
ENDBRANCH   2   4
BRANCH   1  10
ATOM     10  C   UNL     1       1.823  23.323   4.102  1.00  0.00     0.111 C 
BRANCH  10  11
ATOM     11  C   UNL     1       2.158  21.916   3.671  1.00  0.00     0.163 C 
ATOM     12  O   UNL     1       1.267  21.034   3.813  1.00  0.00    -0.294 OA
BRANCH  11  13
ATOM     13  C   UNL     1       3.509  21.529   3.146  1.00  0.00    -0.002 C 
ATOM     14  C   UNL     1       3.836  21.739   1.832  1.00  0.00    -0.069 C 
ATOM     15  C   UNL     1       5.222  21.447   1.300  1.00  0.00     0.039 C 
ATOM     16  C   UNL     1       2.815  22.224   0.826  1.00  0.00     0.039 C 
BRANCH  13  17
ATOM     17  C   UNL     1       4.536  20.949   4.116  1.00  0.00     0.066 CG0
ATOM     18  G   UNL     1       3.902  20.477   5.404  1.00  0.00     0.000 G0
ENDBRANCH  13  17
ENDBRANCH  11  13
ENDBRANCH  10  11
ENDBRANCH   1  10
TORSDOF 0
ENDMDL
MODEL 5
REMARK VINA RESULT:    -3.306      1.962      4.821
REMARK INTER + INTRA:          -4.503
REMARK INTER:                  -4.828
REMARK INTRA:                   0.325
REMARK UNBOUND:                 0.155
REMARK SMILES CC1=CCC(=C(C)C)C(=O)CC(C)=CCC1
REMARK SMILES IDX 12 1 14 2 13 3 15 4 16 5 2 6 1 7 3 8 11 10 9 11 10 12 5 13
REMARK SMILES IDX 6 14 7 15 8 16 4 17
REMARK H PARENT
REMARK Flexibility Score: 60.00
ROOT
ATOM      1  C   UNL     1       5.787  20.174   3.986  1.00  0.00    -0.070 C 
ATOM      2  C   UNL     1       5.643  20.171   2.636  1.00  0.00    -0.027 C 
ATOM      3  C   UNL     1       6.171  18.870   4.643  1.00  0.00     0.039 C 
ENDROOT
BRANCH   2   4
ATOM      4  C   UNL     1       5.366  21.374   1.767  1.00  0.00     0.032 C 
BRANCH   4   5
ATOM      5  C   UNL     1       4.004  21.313   1.063  1.00  0.00     0.034 C 
BRANCH   5   6
ATOM      6  C   UNL     1       3.033  22.278   1.715  1.00  0.00    -0.077 C 
ATOM      7  C   UNL     1       2.935  23.676   1.162  1.00  0.00     0.039 C 
ATOM      8  C   UNL     1       2.307  21.974   2.816  1.00  0.00    -0.023 CG0
ATOM      9  G   UNL     1       2.263  20.628   3.500  1.00  0.00     0.000 G0
ENDBRANCH   5   6
ENDBRANCH   4   5
ENDBRANCH   2   4
BRANCH   1  10
ATOM     10  C   UNL     1       5.510  21.378   4.881  1.00  0.00     0.111 C 
BRANCH  10  11
ATOM     11  C   UNL     1       4.043  21.648   5.106  1.00  0.00     0.163 C 
ATOM     12  O   UNL     1       3.722  22.776   5.573  1.00  0.00    -0.294 OA
BRANCH  11  13
ATOM     13  C   UNL     1       2.980  20.619   4.854  1.00  0.00    -0.002 C 
ATOM     14  C   UNL     1       2.627  19.724   5.829  1.00  0.00    -0.069 C 
ATOM     15  C   UNL     1       1.494  18.741   5.634  1.00  0.00     0.039 C 
ATOM     16  C   UNL     1       3.382  19.632   7.137  1.00  0.00     0.039 C 
BRANCH  13  17
ATOM     17  C   UNL     1       2.258  20.624   3.508  1.00  0.00     0.066 CG0
ATOM     18  G   UNL     1       2.321  21.972   2.830  1.00  0.00     0.000 G0
ENDBRANCH  13  17
ENDBRANCH  11  13
ENDBRANCH  10  11
ENDBRANCH   1  10
TORSDOF 0
ENDMDL
MODEL 6
REMARK VINA RESULT:    -3.302      1.589      2.974
REMARK INTER + INTRA:          -4.498
REMARK INTER:                  -4.715
REMARK INTRA:                   0.217
REMARK UNBOUND:                 0.155
REMARK SMILES CC1=CCC(=C(C)C)C(=O)CC(C)=CCC1
REMARK SMILES IDX 12 1 14 2 13 3 15 4 16 5 2 6 1 7 3 8 11 10 9 11 10 12 5 13
REMARK SMILES IDX 6 14 7 15 8 16 4 17
REMARK H PARENT
REMARK Flexibility Score: 60.00
ROOT
ATOM      1  C   UNL     1       4.517  21.392   5.642  1.00  0.00    -0.070 C 
ATOM      2  C   UNL     1       5.746  21.141   5.120  1.00  0.00    -0.027 C 
ATOM      3  C   UNL     1       4.421  22.461   6.703  1.00  0.00     0.039 C 
ENDROOT
BRANCH   2   4
ATOM      4  C   UNL     1       6.056  20.195   3.986  1.00  0.00     0.032 C 
BRANCH   4   5
ATOM      5  C   UNL     1       6.195  20.899   2.630  1.00  0.00     0.034 C 
BRANCH   5   6
ATOM      6  C   UNL     1       4.984  20.612   1.763  1.00  0.00    -0.077 C 
ATOM      7  C   UNL     1       4.992  19.369   0.912  1.00  0.00     0.039 C 
ATOM      8  C   UNL     1       3.928  21.453   1.654  1.00  0.00    -0.023 CG0
ATOM      9  G   UNL     1       3.736  22.732   2.435  1.00  0.00     0.000 G0
ENDBRANCH   5   6
ENDBRANCH   4   5
ENDBRANCH   2   4
BRANCH   1  10
ATOM     10  C   UNL     1       3.253  20.614   5.286  1.00  0.00     0.111 C 
BRANCH  10  11
ATOM     11  C   UNL     1       2.474  21.205   4.137  1.00  0.00     0.163 C 
ATOM     12  O   UNL     1       1.596  20.480   3.593  1.00  0.00    -0.294 OA
BRANCH  11  13
ATOM     13  C   UNL     1       2.744  22.578   3.595  1.00  0.00    -0.002 C 
ATOM     14  C   UNL     1       2.156  23.680   4.156  1.00  0.00    -0.069 C 
ATOM     15  C   UNL     1       2.487  25.082   3.691  1.00  0.00     0.039 C 
ATOM     16  C   UNL     1       1.105  23.559   5.237  1.00  0.00     0.039 C 
BRANCH  13  17
ATOM     17  C   UNL     1       3.734  22.730   2.441  1.00  0.00     0.066 CG0
ATOM     18  G   UNL     1       3.902  21.447   1.660  1.00  0.00     0.000 G0
ENDBRANCH  13  17
ENDBRANCH  11  13
ENDBRANCH  10  11
ENDBRANCH   1  10
TORSDOF 0
ENDMDL
MODEL 7
REMARK VINA RESULT:    -3.293      1.603      3.747
REMARK INTER + INTRA:          -4.486
REMARK INTER:                  -4.860
REMARK INTRA:                   0.374
REMARK UNBOUND:                 0.155
REMARK SMILES CC1=CCC(=C(C)C)C(=O)CC(C)=CCC1
REMARK SMILES IDX 12 1 14 2 13 3 15 4 16 5 2 6 1 7 3 8 11 10 9 11 10 12 5 13
REMARK SMILES IDX 6 14 7 15 8 16 4 17
REMARK H PARENT
REMARK Flexibility Score: 60.00
ROOT
ATOM      1  C   UNL     1       4.762  20.860   5.007  1.00  0.00    -0.070 C 
ATOM      2  C   UNL     1       5.028  21.850   5.898  1.00  0.00    -0.027 C 
ATOM      3  C   UNL     1       5.906  20.375   4.150  1.00  0.00     0.039 C 
ENDROOT
BRANCH   2   4
ATOM      4  C   UNL     1       4.068  22.413   6.918  1.00  0.00     0.032 C 
BRANCH   4   5
ATOM      5  C   UNL     1       3.448  23.751   6.493  1.00  0.00     0.034 C 
BRANCH   5   6
ATOM      6  C   UNL     1       2.048  23.532   5.951  1.00  0.00    -0.077 C 
ATOM      7  C   UNL     1       0.914  23.401   6.933  1.00  0.00     0.039 C 
ATOM      8  C   UNL     1       1.776  23.369   4.635  1.00  0.00    -0.023 CG0
ATOM      9  G   UNL     1       2.774  23.479   3.507  1.00  0.00     0.000 G0
ENDBRANCH   5   6
ENDBRANCH   4   5
ENDBRANCH   2   4
BRANCH   1  10
ATOM     10  C   UNL     1       3.376  20.270   4.760  1.00  0.00     0.111 C 
BRANCH  10  11
ATOM     11  C   UNL     1       2.652  20.878   3.584  1.00  0.00     0.163 C 
ATOM     12  O   UNL     1       1.638  20.269   3.145  1.00  0.00    -0.294 OA
BRANCH  11  13
ATOM     13  C   UNL     1       3.126  22.125   2.897  1.00  0.00    -0.002 C 
ATOM     14  C   UNL     1       3.814  22.054   1.715  1.00  0.00    -0.069 C 
ATOM     15  C   UNL     1       4.217  23.297   0.953  1.00  0.00     0.039 C 
ATOM     16  C   UNL     1       4.256  20.731   1.128  1.00  0.00     0.039 C 
BRANCH  13  17
ATOM     17  C   UNL     1       2.776  23.480   3.510  1.00  0.00     0.066 CG0
ATOM     18  G   UNL     1       1.777  23.355   4.637  1.00  0.00     0.000 G0
ENDBRANCH  13  17
ENDBRANCH  11  13
ENDBRANCH  10  11
ENDBRANCH   1  10
TORSDOF 0
ENDMDL
MODEL 8
REMARK VINA RESULT:    -3.040      1.728      3.458
REMARK INTER + INTRA:          -4.128
REMARK INTER:                  -4.316
REMARK INTRA:                   0.187
REMARK UNBOUND:                 0.155
REMARK SMILES CC1=CCC(=C(C)C)C(=O)CC(C)=CCC1
REMARK SMILES IDX 12 1 14 2 13 3 15 4 16 5 2 6 1 7 3 8 11 10 9 11 10 12 5 13
REMARK SMILES IDX 6 14 7 15 8 16 4 17
REMARK H PARENT
REMARK Flexibility Score: 60.00
ROOT
ATOM      1  C   UNL     1       3.715  21.117   6.445  1.00  0.00    -0.070 C 
ATOM      2  C   UNL     1       3.785  20.289   5.371  1.00  0.00    -0.027 C 
ATOM      3  C   UNL     1       3.315  20.503   7.766  1.00  0.00     0.039 C 
ENDROOT
BRANCH   2   4
ATOM      4  C   UNL     1       4.258  20.663   3.987  1.00  0.00     0.032 C 
BRANCH   4   5
ATOM      5  C   UNL     1       3.124  21.128   3.064  1.00  0.00     0.034 C 
BRANCH   5   6
ATOM      6  C   UNL     1       3.529  22.393   2.332  1.00  0.00    -0.077 C 
ATOM      7  C   UNL     1       4.579  22.293   1.257  1.00  0.00     0.039 C 
ATOM      8  C   UNL     1       3.053  23.621   2.648  1.00  0.00    -0.023 CG0
ATOM      9  G   UNL     1       1.992  23.917   3.681  1.00  0.00     0.000 G0
ENDBRANCH   5   6
ENDBRANCH   4   5
ENDBRANCH   2   4
BRANCH   1  10
ATOM     10  C   UNL     1       3.932  22.626   6.388  1.00  0.00     0.111 C 
BRANCH  10  11
ATOM     11  C   UNL     1       2.671  23.416   6.137  1.00  0.00     0.163 C 
ATOM     12  O   UNL     1       1.682  23.192   6.888  1.00  0.00    -0.294 OA
BRANCH  11  13
ATOM     13  C   UNL     1       2.541  24.398   5.010  1.00  0.00    -0.002 C 
ATOM     14  C   UNL     1       2.969  25.691   5.154  1.00  0.00    -0.069 C 
ATOM     15  C   UNL     1       2.938  26.673   4.003  1.00  0.00     0.039 C 
ATOM     16  C   UNL     1       3.450  26.227   6.485  1.00  0.00     0.039 C 
BRANCH  13  17
ATOM     17  C   UNL     1       1.974  23.913   3.676  1.00  0.00     0.066 CG0
ATOM     18  G   UNL     1       3.059  23.625   2.666  1.00  0.00     0.000 G0
ENDBRANCH  13  17
ENDBRANCH  11  13
ENDBRANCH  10  11
ENDBRANCH   1  10
TORSDOF 0
ENDMDL
MODEL 9
REMARK VINA RESULT:    -2.968      1.730      5.022
REMARK INTER + INTRA:          -4.028
REMARK INTER:                  -4.242
REMARK INTRA:                   0.215
REMARK UNBOUND:                 0.155
REMARK SMILES CC1=CCC(=C(C)C)C(=O)CC(C)=CCC1
REMARK SMILES IDX 12 1 14 2 13 3 15 4 16 5 2 6 1 7 3 8 11 10 9 11 10 12 5 13
REMARK SMILES IDX 6 14 7 15 8 16 4 17
REMARK H PARENT
REMARK Flexibility Score: 60.00
ROOT
ATOM      1  C   UNL     1       4.509  21.005   2.334  1.00  0.00    -0.070 C 
ATOM      2  C   UNL     1       4.684  21.997   1.423  1.00  0.00    -0.027 C 
ATOM      3  C   UNL     1       5.750  20.353   2.894  1.00  0.00     0.039 C 
ENDROOT
BRANCH   2   4
ATOM      4  C   UNL     1       3.597  22.850   0.814  1.00  0.00     0.032 C 
BRANCH   4   5
ATOM      5  C   UNL     1       3.547  24.271   1.390  1.00  0.00     0.034 C 
BRANCH   5   6
ATOM      6  C   UNL     1       2.324  24.437   2.271  1.00  0.00    -0.077 C 
ATOM      7  C   UNL     1       1.068  24.994   1.654  1.00  0.00     0.039 C 
ATOM      8  C   UNL     1       2.324  24.184   3.602  1.00  0.00    -0.023 CG0
ATOM      9  G   UNL     1       3.478  23.611   4.390  1.00  0.00     0.000 G0
ENDBRANCH   5   6
ENDBRANCH   4   5
ENDBRANCH   2   4
BRANCH   1  10
ATOM     10  C   UNL     1       3.151  20.458   2.763  1.00  0.00     0.111 C 
BRANCH  10  11
ATOM     11  C   UNL     1       2.484  21.260   3.853  1.00  0.00     0.163 C 
ATOM     12  O   UNL     1       1.226  21.206   3.931  1.00  0.00    -0.294 OA
BRANCH  11  13
ATOM     13  C   UNL     1       3.249  22.148   4.790  1.00  0.00    -0.002 C 
ATOM     14  C   UNL     1       3.778  21.650   5.951  1.00  0.00    -0.069 C 
ATOM     15  C   UNL     1       4.635  22.500   6.864  1.00  0.00     0.039 C 
ATOM     16  C   UNL     1       3.495  20.237   6.414  1.00  0.00     0.039 C 
BRANCH  13  17
ATOM     17  C   UNL     1       3.476  23.607   4.398  1.00  0.00     0.066 CG0
ATOM     18  G   UNL     1       2.319  24.173   3.609  1.00  0.00     0.000 G0
ENDBRANCH  13  17
ENDBRANCH  11  13
ENDBRANCH  10  11
ENDBRANCH   1  10
TORSDOF 0
ENDMDL
