MODEL 1
REMARK VINA RESULT:    -4.976      0.000      0.000
REMARK INTER + INTRA:          -7.600
REMARK INTER:                  -6.722
REMARK INTRA:                  -0.879
REMARK UNBOUND:                -0.879
REMARK SMILES CC(=O)CCC=C(C)CCC=C(C)C
REMARK SMILES IDX 7 1 6 2 8 3 9 4 10 5 11 6 13 7 12 8 14 9 5 10 4 11 2 12 3 13
REMARK SMILES IDX 1 14
REMARK H PARENT
REMARK Flexibility Score: inf
ROOT
ATOM      1  C   UNL     1      17.501 -36.569  19.830  1.00  0.00    -0.077 C 
ATOM      2  C   UNL     1      16.213 -36.239  20.080  1.00  0.00    -0.028 C 
ATOM      3  C   UNL     1      17.776 -37.710  18.886  1.00  0.00     0.039 C 
ENDROOT
BRANCH   1   4
ATOM      4  C   UNL     1      18.676 -35.795  20.395  1.00  0.00     0.034 C 
BRANCH   4   5
ATOM      5  C   UNL     1      19.060 -34.642  19.461  1.00  0.00     0.032 C 
BRANCH   5   6
ATOM      6  C   UNL     1      19.937 -33.644  20.175  1.00  0.00    -0.028 C 
ATOM      7  C   UNL     1      20.468 -31.537  21.361  1.00  0.00     0.039 C 
ATOM      8  C   UNL     1      19.496 -32.475  20.693  1.00  0.00    -0.080 C 
ATOM      9  C   UNL     1      18.039 -32.085  20.666  1.00  0.00     0.039 C 
ENDBRANCH   5   6
ENDBRANCH   4   5
ENDBRANCH   1   4
BRANCH   2  10
ATOM     10  C   UNL     1      15.768 -35.131  21.005  1.00  0.00     0.035 C 
BRANCH  10  11
ATOM     11  C   UNL     1      14.880 -34.103  20.290  1.00  0.00     0.079 C 
BRANCH  11  12
ATOM     12  C   UNL     1      14.337 -33.073  21.245  1.00  0.00     0.130 C 
ATOM     13  O   UNL     1      14.689 -33.081  22.415  1.00  0.00    -0.300 OA
ATOM     14  C   UNL     1      13.393 -32.013  20.762  1.00  0.00     0.087 C 
ENDBRANCH  11  12
ENDBRANCH  10  11
ENDBRANCH   2  10
TORSDOF 6
ENDMDL
MODEL 2
REMARK VINA RESULT:    -4.957      2.468      5.918
REMARK INTER + INTRA:          -7.574
REMARK INTER:                  -5.827
REMARK INTRA:                  -1.747
REMARK UNBOUND:                -0.879
REMARK SMILES CC(=O)CCC=C(C)CCC=C(C)C
REMARK SMILES IDX 7 1 6 2 8 3 9 4 10 5 11 6 13 7 12 8 14 9 5 10 4 11 2 12 3 13
REMARK SMILES IDX 1 14
REMARK H PARENT
REMARK Flexibility Score: inf
ROOT
ATOM      1  C   UNL     1      14.636 -30.525  22.850  1.00  0.00    -0.077 C 
ATOM      2  C   UNL     1      15.799 -30.185  23.452  1.00  0.00    -0.028 C 
ATOM      3  C   UNL     1      13.351 -30.316  23.607  1.00  0.00     0.039 C 
ENDROOT
BRANCH   1   4
ATOM      4  C   UNL     1      14.563 -31.033  21.423  1.00  0.00     0.034 C 
BRANCH   4   5
ATOM      5  C   UNL     1      13.813 -32.369  21.366  1.00  0.00     0.032 C 
BRANCH   5   6
ATOM      6  C   UNL     1      14.759 -33.499  21.045  1.00  0.00    -0.028 C 
ATOM      7  C   UNL     1      16.316 -35.359  21.540  1.00  0.00     0.039 C 
ATOM      8  C   UNL     1      15.365 -34.273  21.974  1.00  0.00    -0.080 C 
ATOM      9  C   UNL     1      15.090 -34.119  23.449  1.00  0.00     0.039 C 
ENDBRANCH   5   6
ENDBRANCH   4   5
ENDBRANCH   1   4
BRANCH   2  10
ATOM     10  C   UNL     1      17.169 -30.339  22.836  1.00  0.00     0.035 C 
BRANCH  10  11
ATOM     11  C   UNL     1      17.845 -31.653  23.253  1.00  0.00     0.079 C 
BRANCH  11  12
ATOM     12  C   UNL     1      18.452 -32.368  22.073  1.00  0.00     0.130 C 
ATOM     13  O   UNL     1      19.183 -33.329  22.255  1.00  0.00    -0.300 OA
ATOM     14  C   UNL     1      18.137 -31.929  20.676  1.00  0.00     0.087 C 
ENDBRANCH  11  12
ENDBRANCH  10  11
ENDBRANCH   2  10
TORSDOF 6
ENDMDL
MODEL 3
REMARK VINA RESULT:    -4.864      2.116      4.356
REMARK INTER + INTRA:          -7.449
REMARK INTER:                  -5.872
REMARK INTRA:                  -1.577
REMARK UNBOUND:                -0.879
REMARK SMILES CC(=O)CCC=C(C)CCC=C(C)C
REMARK SMILES IDX 7 1 6 2 8 3 9 4 10 5 11 6 13 7 12 8 14 9 5 10 4 11 2 12 3 13
REMARK SMILES IDX 1 14
REMARK H PARENT
REMARK Flexibility Score: inf
ROOT
ATOM      1  C   UNL     1      14.690 -33.103  21.462  1.00  0.00    -0.077 C 
ATOM      2  C   UNL     1      14.732 -33.975  20.429  1.00  0.00    -0.028 C 
ATOM      3  C   UNL     1      13.962 -31.798  21.267  1.00  0.00     0.039 C 
ENDROOT
BRANCH   1   4
ATOM      4  C   UNL     1      15.273 -33.410  22.827  1.00  0.00     0.034 C 
BRANCH   4   5
ATOM      5  C   UNL     1      16.521 -32.558  23.082  1.00  0.00     0.032 C 
BRANCH   5   6
ATOM      6  C   UNL     1      17.727 -33.158  22.404  1.00  0.00    -0.028 C 
ATOM      7  C   UNL     1      19.529 -33.318  20.714  1.00  0.00     0.039 C 
ATOM      8  C   UNL     1      18.347 -32.616  21.330  1.00  0.00    -0.080 C 
ATOM      9  C   UNL     1      17.922 -31.293  20.743  1.00  0.00     0.039 C 
ENDBRANCH   5   6
ENDBRANCH   4   5
ENDBRANCH   1   4
BRANCH   2  10
ATOM     10  C   UNL     1      15.425 -35.316  20.458  1.00  0.00     0.035 C 
BRANCH  10  11
ATOM     11  C   UNL     1      16.637 -35.360  19.517  1.00  0.00     0.079 C 
BRANCH  11  12
ATOM     12  C   UNL     1      17.464 -36.602  19.728  1.00  0.00     0.130 C 
ATOM     13  O   UNL     1      17.610 -37.398  18.813  1.00  0.00    -0.300 OA
ATOM     14  C   UNL     1      18.139 -36.850  21.043  1.00  0.00     0.087 C 
ENDBRANCH  11  12
ENDBRANCH  10  11
ENDBRANCH   2  10
TORSDOF 6
ENDMDL
MODEL 4
REMARK VINA RESULT:    -4.864      2.347      5.505
REMARK INTER + INTRA:          -7.449
REMARK INTER:                  -5.947
REMARK INTRA:                  -1.502
REMARK UNBOUND:                -0.879
REMARK SMILES CC(=O)CCC=C(C)CCC=C(C)C
REMARK SMILES IDX 7 1 6 2 8 3 9 4 10 5 11 6 13 7 12 8 14 9 5 10 4 11 2 12 3 13
REMARK SMILES IDX 1 14
REMARK H PARENT
REMARK Flexibility Score: inf
ROOT
ATOM      1  C   UNL     1      18.010 -30.460  21.716  1.00  0.00    -0.077 C 
ATOM      2  C   UNL     1      18.354 -31.565  21.016  1.00  0.00    -0.028 C 
ATOM      3  C   UNL     1      18.470 -29.119  21.206  1.00  0.00     0.039 C 
ENDROOT
BRANCH   1   4
ATOM      4  C   UNL     1      17.122 -30.502  22.944  1.00  0.00     0.034 C 
BRANCH   4   5
ATOM      5  C   UNL     1      15.804 -29.766  22.680  1.00  0.00     0.032 C 
BRANCH   5   6
ATOM      6  C   UNL     1      14.985 -30.491  21.641  1.00  0.00    -0.028 C 
ATOM      7  C   UNL     1      13.228 -32.023  20.807  1.00  0.00     0.039 C 
ATOM      8  C   UNL     1      13.960 -31.327  21.925  1.00  0.00    -0.080 C 
ATOM      9  C   UNL     1      13.485 -31.562  23.338  1.00  0.00     0.039 C 
ENDBRANCH   5   6
ENDBRANCH   4   5
ENDBRANCH   1   4
BRANCH   2  10
ATOM     10  C   UNL     1      17.982 -32.979  21.396  1.00  0.00     0.035 C 
BRANCH  10  11
ATOM     11  C   UNL     1      16.794 -33.503  20.577  1.00  0.00     0.079 C 
BRANCH  11  12
ATOM     12  C   UNL     1      15.965 -34.486  21.362  1.00  0.00     0.130 C 
ATOM     13  O   UNL     1      15.347 -35.363  20.778  1.00  0.00    -0.300 OA
ATOM     14  C   UNL     1      15.920 -34.417  22.858  1.00  0.00     0.087 C 
ENDBRANCH  11  12
ENDBRANCH  10  11
ENDBRANCH   2  10
TORSDOF 6
ENDMDL
MODEL 5
REMARK VINA RESULT:    -4.855      2.628      5.454
REMARK INTER + INTRA:          -7.437
REMARK INTER:                  -6.242
REMARK INTRA:                  -1.195
REMARK UNBOUND:                -0.879
REMARK SMILES CC(=O)CCC=C(C)CCC=C(C)C
REMARK SMILES IDX 7 1 6 2 8 3 9 4 10 5 11 6 13 7 12 8 14 9 5 10 4 11 2 12 3 13
REMARK SMILES IDX 1 14
REMARK H PARENT
REMARK Flexibility Score: inf
ROOT
ATOM      1  C   UNL     1      13.767 -31.677  21.374  1.00  0.00    -0.077 C 
ATOM      2  C   UNL     1      13.981 -32.922  20.889  1.00  0.00    -0.028 C 
ATOM      3  C   UNL     1      12.354 -31.273  21.708  1.00  0.00     0.039 C 
ENDROOT
BRANCH   1   4
ATOM      4  C   UNL     1      14.889 -30.702  21.670  1.00  0.00     0.034 C 
BRANCH   4   5
ATOM      5  C   UNL     1      15.131 -30.603  23.180  1.00  0.00     0.032 C 
BRANCH   5   6
ATOM      6  C   UNL     1      16.022 -31.723  23.654  1.00  0.00    -0.028 C 
ATOM      7  C   UNL     1      16.570 -33.858  24.782  1.00  0.00     0.039 C 
ATOM      8  C   UNL     1      15.585 -32.811  24.330  1.00  0.00    -0.080 C 
ATOM      9  C   UNL     1      14.123 -33.042  24.617  1.00  0.00     0.039 C 
ENDBRANCH   5   6
ENDBRANCH   4   5
ENDBRANCH   1   4
BRANCH   2  10
ATOM     10  C   UNL     1      15.329 -33.478  20.499  1.00  0.00     0.035 C 
BRANCH  10  11
ATOM     11  C   UNL     1      15.410 -34.997  20.705  1.00  0.00     0.079 C 
BRANCH  11  12
ATOM     12  C   UNL     1      16.513 -35.615  19.886  1.00  0.00     0.130 C 
ATOM     13  O   UNL     1      16.543 -36.825  19.720  1.00  0.00    -0.300 OA
ATOM     14  C   UNL     1      17.554 -34.751  19.241  1.00  0.00     0.087 C 
ENDBRANCH  11  12
ENDBRANCH  10  11
ENDBRANCH   2  10
TORSDOF 6
ENDMDL
MODEL 6
REMARK VINA RESULT:    -4.837      1.987      4.711
REMARK INTER + INTRA:          -7.412
REMARK INTER:                  -5.886
REMARK INTRA:                  -1.526
REMARK UNBOUND:                -0.879
REMARK SMILES CC(=O)CCC=C(C)CCC=C(C)C
REMARK SMILES IDX 7 1 6 2 8 3 9 4 10 5 11 6 13 7 12 8 14 9 5 10 4 11 2 12 3 13
REMARK SMILES IDX 1 14
REMARK H PARENT
REMARK Flexibility Score: inf
ROOT
ATOM      1  C   UNL     1      14.444 -31.495  22.543  1.00  0.00    -0.077 C 
ATOM      2  C   UNL     1      14.275 -32.819  22.321  1.00  0.00    -0.028 C 
ATOM      3  C   UNL     1      14.024 -30.935  23.877  1.00  0.00     0.039 C 
ENDROOT
BRANCH   1   4
ATOM      4  C   UNL     1      15.105 -30.567  21.543  1.00  0.00     0.034 C 
BRANCH   4   5
ATOM      5  C   UNL     1      16.566 -30.311  21.932  1.00  0.00     0.032 C 
BRANCH   5   6
ATOM      6  C   UNL     1      17.496 -31.171  21.113  1.00  0.00    -0.028 C 
ATOM      7  C   UNL     1      19.089 -33.019  20.692  1.00  0.00     0.039 C 
ATOM      8  C   UNL     1      18.160 -32.247  21.593  1.00  0.00    -0.080 C 
ATOM      9  C   UNL     1      17.972 -32.741  23.006  1.00  0.00     0.039 C 
ENDBRANCH   5   6
ENDBRANCH   4   5
ENDBRANCH   1   4
BRANCH   2  10
ATOM     10  C   UNL     1      14.635 -33.533  21.040  1.00  0.00     0.035 C 
BRANCH  10  11
ATOM     11  C   UNL     1      15.405 -34.835  21.301  1.00  0.00     0.079 C 
BRANCH  11  12
ATOM     12  C   UNL     1      16.197 -35.267  20.095  1.00  0.00     0.130 C 
ATOM     13  O   UNL     1      16.294 -34.522  19.131  1.00  0.00    -0.300 OA
ATOM     14  C   UNL     1      16.897 -36.592  20.082  1.00  0.00     0.087 C 
ENDBRANCH  11  12
ENDBRANCH  10  11
ENDBRANCH   2  10
TORSDOF 6
ENDMDL
MODEL 7
REMARK VINA RESULT:    -4.836      1.861      4.029
REMARK INTER + INTRA:          -7.411
REMARK INTER:                  -5.731
REMARK INTRA:                  -1.680
REMARK UNBOUND:                -0.879
REMARK SMILES CC(=O)CCC=C(C)CCC=C(C)C
REMARK SMILES IDX 7 1 6 2 8 3 9 4 10 5 11 6 13 7 12 8 14 9 5 10 4 11 2 12 3 13
REMARK SMILES IDX 1 14
REMARK H PARENT
REMARK Flexibility Score: inf
ROOT
ATOM      1  C   UNL     1      17.605 -35.685  19.560  1.00  0.00    -0.077 C 
ATOM      2  C   UNL     1      18.875 -35.299  19.819  1.00  0.00    -0.028 C 
ATOM      3  C   UNL     1      17.322 -37.157  19.406  1.00  0.00     0.039 C 
ENDROOT
BRANCH   1   4
ATOM      4  C   UNL     1      16.443 -34.713  19.494  1.00  0.00     0.034 C 
BRANCH   4   5
ATOM      5  C   UNL     1      15.370 -35.086  20.523  1.00  0.00     0.032 C 
BRANCH   5   6
ATOM      6  C   UNL     1      15.165 -33.966  21.512  1.00  0.00    -0.028 C 
ATOM      7  C   UNL     1      15.394 -32.786  23.676  1.00  0.00     0.039 C 
ATOM      8  C   UNL     1      15.689 -33.945  22.759  1.00  0.00    -0.080 C 
ATOM      9  C   UNL     1      16.608 -35.030  23.261  1.00  0.00     0.039 C 
ENDBRANCH   5   6
ENDBRANCH   4   5
ENDBRANCH   1   4
BRANCH   2  10
ATOM     10  C   UNL     1      19.326 -33.868  19.991  1.00  0.00     0.035 C 
BRANCH  10  11
ATOM     11  C   UNL     1      19.456 -33.478  21.470  1.00  0.00     0.079 C 
BRANCH  11  12
ATOM     12  C   UNL     1      18.773 -32.167  21.764  1.00  0.00     0.130 C 
ATOM     13  O   UNL     1      18.926 -31.633  22.852  1.00  0.00    -0.300 OA
ATOM     14  C   UNL     1      17.935 -31.496  20.719  1.00  0.00     0.087 C 
ENDBRANCH  11  12
ENDBRANCH  10  11
ENDBRANCH   2  10
TORSDOF 6
ENDMDL
MODEL 8
REMARK VINA RESULT:    -4.826      1.994      3.946
REMARK INTER + INTRA:          -7.398
REMARK INTER:                  -5.669
REMARK INTRA:                  -1.729
REMARK UNBOUND:                -0.879
REMARK SMILES CC(=O)CCC=C(C)CCC=C(C)C
REMARK SMILES IDX 7 1 6 2 8 3 9 4 10 5 11 6 13 7 12 8 14 9 5 10 4 11 2 12 3 13
REMARK SMILES IDX 1 14
REMARK H PARENT
REMARK Flexibility Score: inf
ROOT
ATOM      1  C   UNL     1      18.206 -33.971  19.932  1.00  0.00    -0.077 C 
ATOM      2  C   UNL     1      18.579 -32.836  20.567  1.00  0.00    -0.028 C 
ATOM      3  C   UNL     1      19.224 -35.071  19.777  1.00  0.00     0.039 C 
ENDROOT
BRANCH   1   4
ATOM      4  C   UNL     1      16.794 -34.216  19.439  1.00  0.00     0.034 C 
BRANCH   4   5
ATOM      5  C   UNL     1      16.095 -35.266  20.310  1.00  0.00     0.032 C 
BRANCH   5   6
ATOM      6  C   UNL     1      15.380 -34.612  21.466  1.00  0.00    -0.028 C 
ATOM      7  C   UNL     1      14.981 -34.013  23.835  1.00  0.00     0.039 C 
ATOM      8  C   UNL     1      15.789 -34.682  22.754  1.00  0.00    -0.080 C 
ATOM      9  C   UNL     1      17.068 -35.376  23.152  1.00  0.00     0.039 C 
ENDBRANCH   5   6
ENDBRANCH   4   5
ENDBRANCH   1   4
BRANCH   2  10
ATOM     10  C   UNL     1      17.685 -31.641  20.796  1.00  0.00     0.035 C 
BRANCH  10  11
ATOM     11  C   UNL     1      17.346 -31.450  22.281  1.00  0.00     0.079 C 
BRANCH  11  12
ATOM     12  C   UNL     1      16.060 -30.687  22.467  1.00  0.00     0.130 C 
ATOM     13  O   UNL     1      15.959 -29.879  23.377  1.00  0.00    -0.300 OA
ATOM     14  C   UNL     1      14.916 -30.885  21.520  1.00  0.00     0.087 C 
ENDBRANCH  11  12
ENDBRANCH  10  11
ENDBRANCH   2  10
TORSDOF 6
ENDMDL
MODEL 9
REMARK VINA RESULT:    -4.811      1.996      3.097
REMARK INTER + INTRA:          -7.378
REMARK INTER:                  -5.603
REMARK INTRA:                  -1.775
REMARK UNBOUND:                -0.879
REMARK SMILES CC(=O)CCC=C(C)CCC=C(C)C
REMARK SMILES IDX 7 1 6 2 8 3 9 4 10 5 11 6 13 7 12 8 14 9 5 10 4 11 2 12 3 13
REMARK SMILES IDX 1 14
REMARK H PARENT
REMARK Flexibility Score: inf
ROOT
ATOM      1  C   UNL     1      15.322 -34.576  21.059  1.00  0.00    -0.077 C 
ATOM      2  C   UNL     1      14.546 -33.601  20.531  1.00  0.00    -0.028 C 
ATOM      3  C   UNL     1      15.946 -35.578  20.123  1.00  0.00     0.039 C 
ENDROOT
BRANCH   1   4
ATOM      4  C   UNL     1      15.653 -34.660  22.536  1.00  0.00     0.034 C 
BRANCH   4   5
ATOM      5  C   UNL     1      17.160 -34.495  22.760  1.00  0.00     0.032 C 
BRANCH   5   6
ATOM      6  C   UNL     1      17.524 -33.038  22.899  1.00  0.00    -0.028 C 
ATOM      7  C   UNL     1      18.510 -30.875  22.208  1.00  0.00     0.039 C 
ATOM      8  C   UNL     1      18.170 -32.320  21.951  1.00  0.00    -0.080 C 
ATOM      9  C   UNL     1      18.529 -32.905  20.608  1.00  0.00     0.039 C 
ENDBRANCH   5   6
ENDBRANCH   4   5
ENDBRANCH   1   4
BRANCH   2  10
ATOM     10  C   UNL     1      13.844 -32.529  21.329  1.00  0.00     0.035 C 
BRANCH  10  11
ATOM     11  C   UNL     1      14.643 -31.218  21.364  1.00  0.00     0.079 C 
BRANCH  11  12
ATOM     12  C   UNL     1      14.768 -30.677  22.764  1.00  0.00     0.130 C 
ATOM     13  O   UNL     1      15.270 -29.578  22.949  1.00  0.00    -0.300 OA
ATOM     14  C   UNL     1      14.249 -31.461  23.931  1.00  0.00     0.087 C 
ENDBRANCH  11  12
ENDBRANCH  10  11
ENDBRANCH   2  10
TORSDOF 6
ENDMDL
