MODEL 1
REMARK VINA RESULT:    -5.876      0.000      0.000
REMARK INTER + INTRA:          -6.048
REMARK INTER:                  -6.048
REMARK INTRA:                   0.000
REMARK UNBOUND:                 0.000
REMARK SMILES O=c1ccc2cc(O)ccc2o1
REMARK SMILES IDX 9 1 10 2 11 3 5 4 4 5 3 6 2 7 1 8 12 9 6 10 7 11 8 12
REMARK H PARENT 8 13
REMARK Flexibility Score: inf
ROOT
ATOM      1  C   UNL     1      10.598  27.334  -1.477  1.00  0.00     0.050 A 
ATOM      2  C   UNL     1      10.325  28.003  -0.280  1.00  0.00     0.052 A 
ATOM      3  C   UNL     1       9.050  28.525  -0.042  1.00  0.00     0.138 A 
ATOM      4  C   UNL     1       8.038  28.372  -1.016  1.00  0.00     0.021 A 
ATOM      5  C   UNL     1       6.773  28.904  -0.750  1.00  0.00     0.019 A 
ATOM      6  C   UNL     1       6.547  29.563   0.458  1.00  0.00     0.094 A 
ATOM      7  C   UNL     1       7.598  29.676   1.375  1.00  0.00     0.336 A 
ATOM      8  O   UNL     1       7.414  30.268   2.471  1.00  0.00    -0.246 OA
ATOM      9  O   UNL     1       8.793  29.161   1.098  1.00  0.00    -0.423 OA
ATOM     10  C   UNL     1       8.316  27.700  -2.215  1.00  0.00     0.058 A 
ATOM     11  C   UNL     1       9.598  27.180  -2.445  1.00  0.00     0.116 A 
ENDROOT
BRANCH  11  12
ATOM     12  O   UNL     1       9.889  26.510  -3.632  1.00  0.00    -0.508 OA
ATOM     13  H   UNL     1       9.198  26.413  -4.367  1.00  0.00     0.293 HD
ENDBRANCH  11  12
TORSDOF 1
ENDMDL
MODEL 2
REMARK VINA RESULT:    -5.687      1.854      3.870
REMARK INTER + INTRA:          -5.854
REMARK INTER:                  -5.854
REMARK INTRA:                   0.000
REMARK UNBOUND:                 0.000
REMARK SMILES O=c1ccc2cc(O)ccc2o1
REMARK SMILES IDX 9 1 10 2 11 3 5 4 4 5 3 6 2 7 1 8 12 9 6 10 7 11 8 12
REMARK H PARENT 8 13
REMARK Flexibility Score: inf
ROOT
ATOM      1  C   UNL     1       6.472  29.442   0.426  1.00  0.00     0.050 A 
ATOM      2  C   UNL     1       7.803  29.398   0.853  1.00  0.00     0.052 A 
ATOM      3  C   UNL     1       8.743  28.643   0.145  1.00  0.00     0.138 A 
ATOM      4  C   UNL     1       8.342  27.924  -1.004  1.00  0.00     0.021 A 
ATOM      5  C   UNL     1       9.304  27.178  -1.691  1.00  0.00     0.019 A 
ATOM      6  C   UNL     1      10.619  27.164  -1.229  1.00  0.00     0.094 A 
ATOM      7  C   UNL     1      10.943  27.901  -0.084  1.00  0.00     0.336 A 
ATOM      8  O   UNL     1      12.125  27.901   0.350  1.00  0.00    -0.246 OA
ATOM      9  O   UNL     1      10.008  28.603   0.552  1.00  0.00    -0.423 OA
ATOM     10  C   UNL     1       7.006  27.971  -1.428  1.00  0.00     0.058 A 
ATOM     11  C   UNL     1       6.070  28.731  -0.712  1.00  0.00     0.116 A 
ENDROOT
BRANCH  11  12
ATOM     12  O   UNL     1       4.739  28.787  -1.121  1.00  0.00    -0.508 OA
ATOM     13  H   UNL     1       3.979  28.786  -0.452  1.00  0.00     0.293 HD
ENDBRANCH  11  12
TORSDOF 1
ENDMDL
MODEL 3
REMARK VINA RESULT:    -5.651      9.143     12.123
REMARK INTER + INTRA:          -5.816
REMARK INTER:                  -5.816
REMARK INTRA:                   0.000
REMARK UNBOUND:                 0.000
REMARK SMILES O=c1ccc2cc(O)ccc2o1
REMARK SMILES IDX 9 1 10 2 11 3 5 4 4 5 3 6 2 7 1 8 12 9 6 10 7 11 8 12
REMARK H PARENT 8 13
REMARK Flexibility Score: inf
ROOT
ATOM      1  C   UNL     1       3.477  39.233   5.801  1.00  0.00     0.050 A 
ATOM      2  C   UNL     1       3.894  38.722   4.568  1.00  0.00     0.052 A 
ATOM      3  C   UNL     1       3.810  37.350   4.314  1.00  0.00     0.138 A 
ATOM      4  C   UNL     1       3.303  36.482   5.307  1.00  0.00     0.021 A 
ATOM      5  C   UNL     1       3.232  35.115   5.024  1.00  0.00     0.019 A 
ATOM      6  C   UNL     1       3.658  34.650   3.781  1.00  0.00     0.094 A 
ATOM      7  C   UNL     1       4.149  35.568   2.845  1.00  0.00     0.336 A 
ATOM      8  O   UNL     1       4.540  35.168   1.717  1.00  0.00    -0.246 OA
ATOM      9  O   UNL     1       4.207  36.864   3.140  1.00  0.00    -0.423 OA
ATOM     10  C   UNL     1       2.886  37.000   6.541  1.00  0.00     0.058 A 
ATOM     11  C   UNL     1       2.973  38.378   6.789  1.00  0.00     0.116 A 
ENDROOT
BRANCH  11  12
ATOM     12  O   UNL     1       2.563  38.907   8.011  1.00  0.00    -0.508 OA
ATOM     13  H   UNL     1       3.213  39.382   8.626  1.00  0.00     0.293 HD
ENDBRANCH  11  12
TORSDOF 1
ENDMDL
MODEL 4
REMARK VINA RESULT:    -5.600      1.464      2.219
REMARK INTER + INTRA:          -5.764
REMARK INTER:                  -5.764
REMARK INTRA:                   0.000
REMARK UNBOUND:                 0.000
REMARK SMILES O=c1ccc2cc(O)ccc2o1
REMARK SMILES IDX 9 1 10 2 11 3 5 4 4 5 3 6 2 7 1 8 12 9 6 10 7 11 8 12
REMARK H PARENT 8 13
REMARK Flexibility Score: inf
ROOT
ATOM      1  C   UNL     1       9.176  27.222  -2.259  1.00  0.00     0.050 A 
ATOM      2  C   UNL     1       7.885  27.644  -1.927  1.00  0.00     0.052 A 
ATOM      3  C   UNL     1       7.668  28.392  -0.766  1.00  0.00     0.138 A 
ATOM      4  C   UNL     1       8.759  28.720   0.070  1.00  0.00     0.021 A 
ATOM      5  C   UNL     1       8.511  29.468   1.224  1.00  0.00     0.019 A 
ATOM      6  C   UNL     1       7.207  29.867   1.515  1.00  0.00     0.094 A 
ATOM      7  C   UNL     1       6.176  29.506   0.640  1.00  0.00     0.336 A 
ATOM      8  O   UNL     1       4.992  29.856   0.885  1.00  0.00    -0.246 OA
ATOM      9  O   UNL     1       6.439  28.792  -0.452  1.00  0.00    -0.423 OA
ATOM     10  C   UNL     1      10.051  28.295  -0.267  1.00  0.00     0.058 A 
ATOM     11  C   UNL     1      10.260  27.545  -1.434  1.00  0.00     0.116 A 
ENDROOT
BRANCH  11  12
ATOM     12  O   UNL     1      11.540  27.115  -1.782  1.00  0.00    -0.508 OA
ATOM     13  H   UNL     1      11.683  26.364  -2.446  1.00  0.00     0.293 HD
ENDBRANCH  11  12
TORSDOF 1
ENDMDL
MODEL 5
REMARK VINA RESULT:    -5.525      1.747      4.292
REMARK INTER + INTRA:          -5.686
REMARK INTER:                  -5.686
REMARK INTRA:                   0.000
REMARK UNBOUND:                 0.000
REMARK SMILES O=c1ccc2cc(O)ccc2o1
REMARK SMILES IDX 9 1 10 2 11 3 5 4 4 5 3 6 2 7 1 8 12 9 6 10 7 11 8 12
REMARK H PARENT 8 13
REMARK Flexibility Score: inf
ROOT
ATOM      1  C   UNL     1       6.615  28.126  -1.369  1.00  0.00     0.050 A 
ATOM      2  C   UNL     1       7.834  27.574  -1.775  1.00  0.00     0.052 A 
ATOM      3  C   UNL     1       9.006  27.869  -1.073  1.00  0.00     0.138 A 
ATOM      4  C   UNL     1       8.953  28.726   0.050  1.00  0.00     0.021 A 
ATOM      5  C   UNL     1      10.141  29.003   0.733  1.00  0.00     0.019 A 
ATOM      6  C   UNL     1      11.334  28.430   0.292  1.00  0.00     0.094 A 
ATOM      7  C   UNL     1      11.309  27.590  -0.828  1.00  0.00     0.336 A 
ATOM      8  O   UNL     1      12.376  27.064  -1.242  1.00  0.00    -0.246 OA
ATOM      9  O   UNL     1      10.165  27.344  -1.460  1.00  0.00    -0.423 OA
ATOM     10  C   UNL     1       7.728  29.276   0.453  1.00  0.00     0.058 A 
ATOM     11  C   UNL     1       6.557  28.975  -0.258  1.00  0.00     0.116 A 
ENDROOT
BRANCH  11  12
ATOM     12  O   UNL     1       5.333  29.515   0.132  1.00  0.00    -0.508 OA
ATOM     13  H   UNL     1       4.686  29.902  -0.546  1.00  0.00     0.293 HD
ENDBRANCH  11  12
TORSDOF 1
ENDMDL
MODEL 6
REMARK VINA RESULT:    -5.467      8.254     10.555
REMARK INTER + INTRA:          -5.627
REMARK INTER:                  -5.627
REMARK INTRA:                   0.000
REMARK UNBOUND:                 0.000
REMARK SMILES O=c1ccc2cc(O)ccc2o1
REMARK SMILES IDX 9 1 10 2 11 3 5 4 4 5 3 6 2 7 1 8 12 9 6 10 7 11 8 12
REMARK H PARENT 8 13
REMARK Flexibility Score: inf
ROOT
ATOM      1  C   UNL     1       4.450  34.450   2.513  1.00  0.00     0.050 A 
ATOM      2  C   UNL     1       4.591  35.841   2.506  1.00  0.00     0.052 A 
ATOM      3  C   UNL     1       3.971  36.614   3.493  1.00  0.00     0.138 A 
ATOM      4  C   UNL     1       3.203  35.982   4.498  1.00  0.00     0.021 A 
ATOM      5  C   UNL     1       2.596  36.781   5.471  1.00  0.00     0.019 A 
ATOM      6  C   UNL     1       2.764  38.164   5.425  1.00  0.00     0.094 A 
ATOM      7  C   UNL     1       3.539  38.719   4.401  1.00  0.00     0.336 A 
ATOM      8  O   UNL     1       3.702  39.966   4.342  1.00  0.00    -0.246 OA
ATOM      9  O   UNL     1       4.106  37.937   3.486  1.00  0.00    -0.423 OA
ATOM     10  C   UNL     1       3.066  34.587   4.500  1.00  0.00     0.058 A 
ATOM     11  C   UNL     1       3.690  33.820   3.506  1.00  0.00     0.116 A 
ENDROOT
BRANCH  11  12
ATOM     12  O   UNL     1       3.562  32.432   3.495  1.00  0.00    -0.508 OA
ATOM     13  H   UNL     1       4.205  31.838   4.004  1.00  0.00     0.293 HD
ENDBRANCH  11  12
TORSDOF 1
ENDMDL
MODEL 7
REMARK VINA RESULT:    -5.391      0.977      4.782
REMARK INTER + INTRA:          -5.549
REMARK INTER:                  -5.549
REMARK INTRA:                   0.000
REMARK UNBOUND:                 0.000
REMARK SMILES O=c1ccc2cc(O)ccc2o1
REMARK SMILES IDX 9 1 10 2 11 3 5 4 4 5 3 6 2 7 1 8 12 9 6 10 7 11 8 12
REMARK H PARENT 8 13
REMARK Flexibility Score: inf
ROOT
ATOM      1  C   UNL     1       6.220  29.675   0.513  1.00  0.00     0.050 A 
ATOM      2  C   UNL     1       6.506  28.894  -0.611  1.00  0.00     0.052 A 
ATOM      3  C   UNL     1       7.795  28.388  -0.805  1.00  0.00     0.138 A 
ATOM      4  C   UNL     1       8.807  28.670   0.139  1.00  0.00     0.021 A 
ATOM      5  C   UNL     1      10.087  28.151  -0.082  1.00  0.00     0.019 A 
ATOM      6  C   UNL     1      10.325  27.377  -1.216  1.00  0.00     0.094 A 
ATOM      7  C   UNL     1       9.273  27.139  -2.108  1.00  0.00     0.336 A 
ATOM      8  O   UNL     1       9.468  26.442  -3.139  1.00  0.00    -0.246 OA
ATOM      9  O   UNL     1       8.065  27.645  -1.875  1.00  0.00    -0.423 OA
ATOM     10  C   UNL     1       8.516  29.454   1.264  1.00  0.00     0.058 A 
ATOM     11  C   UNL     1       7.220  29.957   1.451  1.00  0.00     0.116 A 
ENDROOT
BRANCH  11  12
ATOM     12  O   UNL     1       6.916  30.738   2.565  1.00  0.00    -0.508 OA
ATOM     13  H   UNL     1       6.597  31.695   2.469  1.00  0.00     0.293 HD
ENDBRANCH  11  12
TORSDOF 1
ENDMDL
MODEL 8
REMARK VINA RESULT:    -5.380      9.259     11.219
REMARK INTER + INTRA:          -5.538
REMARK INTER:                  -5.538
REMARK INTRA:                   0.000
REMARK UNBOUND:                 0.000
REMARK SMILES O=c1ccc2cc(O)ccc2o1
REMARK SMILES IDX 9 1 10 2 11 3 5 4 4 5 3 6 2 7 1 8 12 9 6 10 7 11 8 12
REMARK H PARENT 8 13
REMARK Flexibility Score: inf
ROOT
ATOM      1  C   UNL     1       2.328  34.686   5.358  1.00  0.00     0.050 A 
ATOM      2  C   UNL     1       2.353  36.045   5.687  1.00  0.00     0.052 A 
ATOM      3  C   UNL     1       3.133  36.933   4.940  1.00  0.00     0.138 A 
ATOM      4  C   UNL     1       3.894  36.452   3.851  1.00  0.00     0.021 A 
ATOM      5  C   UNL     1       4.664  37.364   3.123  1.00  0.00     0.019 A 
ATOM      6  C   UNL     1       4.659  38.710   3.488  1.00  0.00     0.094 A 
ATOM      7  C   UNL     1       3.880  39.114   4.578  1.00  0.00     0.336 A 
ATOM      8  O   UNL     1       3.862  40.324   4.923  1.00  0.00    -0.246 OA
ATOM      9  O   UNL     1       3.156  38.226   5.254  1.00  0.00    -0.423 OA
ATOM     10  C   UNL     1       3.865  35.089   3.525  1.00  0.00     0.058 A 
ATOM     11  C   UNL     1       3.081  34.205   4.280  1.00  0.00     0.116 A 
ENDROOT
BRANCH  11  12
ATOM     12  O   UNL     1       3.042  32.847   3.967  1.00  0.00    -0.508 OA
ATOM     13  H   UNL     1       2.794  32.525   3.040  1.00  0.00     0.293 HD
ENDBRANCH  11  12
TORSDOF 1
ENDMDL
MODEL 9
REMARK VINA RESULT:    -5.355      9.046     11.917
REMARK INTER + INTRA:          -5.511
REMARK INTER:                  -5.511
REMARK INTRA:                   0.000
REMARK UNBOUND:                 0.000
REMARK SMILES O=c1ccc2cc(O)ccc2o1
REMARK SMILES IDX 9 1 10 2 11 3 5 4 4 5 3 6 2 7 1 8 12 9 6 10 7 11 8 12
REMARK H PARENT 8 13
REMARK Flexibility Score: inf
ROOT
ATOM      1  C   UNL     1       2.994  38.226   6.757  1.00  0.00     0.050 A 
ATOM      2  C   UNL     1       2.778  36.874   6.471  1.00  0.00     0.052 A 
ATOM      3  C   UNL     1       3.224  36.334   5.261  1.00  0.00     0.138 A 
ATOM      4  C   UNL     1       3.894  37.158   4.330  1.00  0.00     0.021 A 
ATOM      5  C   UNL     1       4.328  36.590   3.129  1.00  0.00     0.019 A 
ATOM      6  C   UNL     1       4.091  35.238   2.886  1.00  0.00     0.094 A 
ATOM      7  C   UNL     1       3.421  34.482   3.855  1.00  0.00     0.336 A 
ATOM      8  O   UNL     1       3.197  33.260   3.654  1.00  0.00    -0.246 OA
ATOM      9  O   UNL     1       3.018  35.048   4.990  1.00  0.00    -0.423 OA
ATOM     10  C   UNL     1       4.108  38.513   4.622  1.00  0.00     0.058 A 
ATOM     11  C   UNL     1       3.657  39.047   5.838  1.00  0.00     0.116 A 
ENDROOT
BRANCH  11  12
ATOM     12  O   UNL     1       3.863  40.392   6.142  1.00  0.00    -0.508 OA
ATOM     13  H   UNL     1       4.312  40.676   7.004  1.00  0.00     0.293 HD
ENDBRANCH  11  12
TORSDOF 1
ENDMDL
