MODEL 1
REMARK VINA RESULT:    -4.518      0.000      0.000
REMARK INTER + INTRA:          -6.964
REMARK INTER:                  -6.631
REMARK INTRA:                  -0.333
REMARK UNBOUND:                -0.333
REMARK SMILES O=C([O-])CCCCCCCC(=O)[O-]
REMARK SMILES IDX 7 1 6 2 5 3 4 4 2 5 1 6 3 7 8 8 9 9 10 10 11 11 12 12 13 13
REMARK H PARENT
REMARK Flexibility Score: inf
ROOT
ATOM      1  C   UNL     1      29.893  -5.634  30.730  1.00  0.00     0.000 C 
ENDROOT
BRANCH   1   2
ATOM      2  C   UNL     1      28.567  -6.390  30.911  1.00  0.00     0.000 C 
BRANCH   2   3
ATOM      3  C   UNL     1      28.758  -7.784  31.537  1.00  0.00     0.006 C 
BRANCH   3   4
ATOM      4  C   UNL     1      29.553  -8.724  30.621  1.00  0.00     0.053 C 
BRANCH   4   5
ATOM      5  C   UNL     1      28.796  -9.049  29.370  1.00  0.00     0.041 C 
ATOM      6  O   UNL     1      27.757  -9.759  29.422  1.00  0.00    -0.550 OA
ATOM      7  O   UNL     1      29.220  -8.538  28.149  1.00  0.00    -0.550 OA
ENDBRANCH   4   5
ENDBRANCH   3   4
ENDBRANCH   2   3
ENDBRANCH   1   2
BRANCH   1   8
ATOM      8  C   UNL     1      29.771  -4.457  29.746  1.00  0.00     0.000 C 
BRANCH   8   9
ATOM      9  C   UNL     1      28.827  -3.357  30.256  1.00  0.00     0.006 C 
BRANCH   9  10
ATOM     10  C   UNL     1      29.495  -1.977  30.298  1.00  0.00     0.053 C 
BRANCH  10  11
ATOM     11  C   UNL     1      28.947  -1.166  31.430  1.00  0.00     0.041 C 
ATOM     12  O   UNL     1      27.747  -1.306  31.787  1.00  0.00    -0.550 OA
ATOM     13  O   UNL     1      29.774  -0.292  32.123  1.00  0.00    -0.550 OA
ENDBRANCH  10  11
ENDBRANCH   9  10
ENDBRANCH   8   9
ENDBRANCH   1   8
TORSDOF 8
ENDMDL
MODEL 2
REMARK VINA RESULT:    -4.495      1.433      6.810
REMARK INTER + INTRA:          -6.931
REMARK INTER:                  -6.623
REMARK INTRA:                  -0.308
REMARK UNBOUND:                -0.333
REMARK SMILES O=C([O-])CCCCCCCC(=O)[O-]
REMARK SMILES IDX 7 1 6 2 5 3 4 4 2 5 1 6 3 7 8 8 9 9 10 10 11 11 12 12 13 13
REMARK H PARENT
REMARK Flexibility Score: inf
ROOT
ATOM      1  C   UNL     1      29.894  -5.390  30.453  1.00  0.00     0.000 C 
ENDROOT
BRANCH   1   2
ATOM      2  C   UNL     1      30.246  -3.980  29.954  1.00  0.00     0.000 C 
BRANCH   2   3
ATOM      3  C   UNL     1      29.077  -2.988  30.099  1.00  0.00     0.006 C 
BRANCH   3   4
ATOM      4  C   UNL     1      29.560  -1.536  30.203  1.00  0.00     0.053 C 
BRANCH   4   5
ATOM      5  C   UNL     1      29.065  -0.875  31.453  1.00  0.00     0.041 C 
ATOM      6  O   UNL     1      27.903  -1.111  31.878  1.00  0.00    -0.550 OA
ATOM      7  O   UNL     1      29.901  -0.025  32.168  1.00  0.00    -0.550 OA
ENDBRANCH   4   5
ENDBRANCH   3   4
ENDBRANCH   2   3
ENDBRANCH   1   2
BRANCH   1   8
ATOM      8  C   UNL     1      29.070  -6.190  29.429  1.00  0.00     0.000 C 
BRANCH   8   9
ATOM      9  C   UNL     1      28.308  -7.361  30.069  1.00  0.00     0.006 C 
BRANCH   9  10
ATOM     10  C   UNL     1      28.683  -7.576  31.541  1.00  0.00     0.053 C 
BRANCH  10  11
ATOM     11  C   UNL     1      28.984  -9.019  31.797  1.00  0.00     0.041 C 
ATOM     12  O   UNL     1      28.295  -9.673  32.625  1.00  0.00    -0.550 OA
ATOM     13  O   UNL     1      29.992  -9.656  31.085  1.00  0.00    -0.550 OA
ENDBRANCH  10  11
ENDBRANCH   9  10
ENDBRANCH   8   9
ENDBRANCH   1   8
TORSDOF 8
ENDMDL
MODEL 3
REMARK VINA RESULT:    -4.487      1.968      6.863
REMARK INTER + INTRA:          -6.918
REMARK INTER:                  -6.364
REMARK INTRA:                  -0.554
REMARK UNBOUND:                -0.333
REMARK SMILES O=C([O-])CCCCCCCC(=O)[O-]
REMARK SMILES IDX 7 1 6 2 5 3 4 4 2 5 1 6 3 7 8 8 9 9 10 10 11 11 12 12 13 13
REMARK H PARENT
REMARK Flexibility Score: inf
ROOT
ATOM      1  C   UNL     1      28.082  -3.087  30.506  1.00  0.00     0.000 C 
ENDROOT
BRANCH   1   2
ATOM      2  C   UNL     1      27.610  -1.700  30.040  1.00  0.00     0.000 C 
BRANCH   2   3
ATOM      3  C   UNL     1      28.469  -1.133  28.895  1.00  0.00     0.006 C 
BRANCH   3   4
ATOM      4  C   UNL     1      28.927   0.304  29.172  1.00  0.00     0.053 C 
BRANCH   4   5
ATOM      5  C   UNL     1      29.842   0.376  30.356  1.00  0.00     0.041 C 
ATOM      6  O   UNL     1      30.950  -0.222  30.340  1.00  0.00    -0.550 OA
ATOM      7  O   UNL     1      29.486   1.135  31.464  1.00  0.00    -0.550 OA
ENDBRANCH   4   5
ENDBRANCH   3   4
ENDBRANCH   2   3
ENDBRANCH   1   2
BRANCH   1   8
ATOM      8  C   UNL     1      29.487  -3.437  29.986  1.00  0.00     0.000 C 
BRANCH   8   9
ATOM      9  C   UNL     1      29.616  -4.916  29.586  1.00  0.00     0.006 C 
BRANCH   9  10
ATOM     10  C   UNL     1      29.805  -5.842  30.794  1.00  0.00     0.053 C 
BRANCH  10  11
ATOM     11  C   UNL     1      28.697  -6.844  30.861  1.00  0.00     0.041 C 
ATOM     12  O   UNL     1      28.719  -7.757  31.729  1.00  0.00    -0.550 OA
ATOM     13  O   UNL     1      27.614  -6.742  29.997  1.00  0.00    -0.550 OA
ENDBRANCH  10  11
ENDBRANCH   9  10
ENDBRANCH   8   9
ENDBRANCH   1   8
TORSDOF 8
ENDMDL
MODEL 4
REMARK VINA RESULT:    -4.480      2.196      2.669
REMARK INTER + INTRA:          -6.908
REMARK INTER:                  -6.541
REMARK INTRA:                  -0.366
REMARK UNBOUND:                -0.333
REMARK SMILES O=C([O-])CCCCCCCC(=O)[O-]
REMARK SMILES IDX 7 1 6 2 5 3 4 4 2 5 1 6 3 7 8 8 9 9 10 10 11 11 12 12 13 13
REMARK H PARENT
REMARK Flexibility Score: inf
ROOT
ATOM      1  C   UNL     1      27.228  -5.726  29.982  1.00  0.00     0.000 C 
ENDROOT
BRANCH   1   2
ATOM      2  C   UNL     1      28.692  -6.195  29.952  1.00  0.00     0.000 C 
BRANCH   2   3
ATOM      3  C   UNL     1      28.870  -7.541  29.225  1.00  0.00     0.006 C 
BRANCH   3   4
ATOM      4  C   UNL     1      28.255  -8.707  30.010  1.00  0.00     0.053 C 
BRANCH   4   5
ATOM      5  C   UNL     1      29.022  -8.999  31.262  1.00  0.00     0.041 C 
ATOM      6  O   UNL     1      30.133  -9.589  31.204  1.00  0.00    -0.550 OA
ATOM      7  O   UNL     1      28.526  -8.585  32.493  1.00  0.00    -0.550 OA
ENDBRANCH   4   5
ENDBRANCH   3   4
ENDBRANCH   2   3
ENDBRANCH   1   2
BRANCH   1   8
ATOM      8  C   UNL     1      27.047  -4.408  30.754  1.00  0.00     0.000 C 
BRANCH   8   9
ATOM      9  C   UNL     1      28.098  -3.353  30.374  1.00  0.00     0.006 C 
BRANCH   9  10
ATOM     10  C   UNL     1      27.761  -1.959  30.920  1.00  0.00     0.053 C 
BRANCH  10  11
ATOM     11  C   UNL     1      26.806  -1.259  30.005  1.00  0.00     0.041 C 
ATOM     12  O   UNL     1      25.727  -0.790  30.453  1.00  0.00    -0.550 OA
ATOM     13  O   UNL     1      27.131  -1.079  28.666  1.00  0.00    -0.550 OA
ENDBRANCH  10  11
ENDBRANCH   9  10
ENDBRANCH   8   9
ENDBRANCH   1   8
TORSDOF 8
ENDMDL
MODEL 5
REMARK VINA RESULT:    -4.448      1.433      1.896
REMARK INTER + INTRA:          -6.862
REMARK INTER:                  -6.617
REMARK INTRA:                  -0.245
REMARK UNBOUND:                -0.333
REMARK SMILES O=C([O-])CCCCCCCC(=O)[O-]
REMARK SMILES IDX 7 1 6 2 5 3 4 4 2 5 1 6 3 7 8 8 9 9 10 10 11 11 12 12 13 13
REMARK H PARENT
REMARK Flexibility Score: inf
ROOT
ATOM      1  C   UNL     1      29.420  -5.414  30.494  1.00  0.00     0.000 C 
ENDROOT
BRANCH   1   2
ATOM      2  C   UNL     1      28.808  -6.294  29.392  1.00  0.00     0.000 C 
BRANCH   2   3
ATOM      3  C   UNL     1      28.493  -7.721  29.876  1.00  0.00     0.006 C 
BRANCH   3   4
ATOM      4  C   UNL     1      28.716  -7.882  31.385  1.00  0.00     0.053 C 
BRANCH   4   5
ATOM      5  C   UNL     1      29.011  -9.303  31.754  1.00  0.00     0.041 C 
ATOM      6  O   UNL     1      28.313  -9.893  32.620  1.00  0.00    -0.550 OA
ATOM      7  O   UNL     1      30.037  -9.988  31.113  1.00  0.00    -0.550 OA
ENDBRANCH   4   5
ENDBRANCH   3   4
ENDBRANCH   2   3
ENDBRANCH   1   2
BRANCH   1   8
ATOM      8  C   UNL     1      29.995  -4.097  29.947  1.00  0.00     0.000 C 
BRANCH   8   9
ATOM      9  C   UNL     1      28.985  -2.940  30.011  1.00  0.00     0.006 C 
BRANCH   9  10
ATOM     10  C   UNL     1      29.656  -1.581  30.250  1.00  0.00     0.053 C 
BRANCH  10  11
ATOM     11  C   UNL     1      29.114  -0.943  31.490  1.00  0.00     0.041 C 
ATOM     12  O   UNL     1      29.849  -0.203  32.196  1.00  0.00    -0.550 OA
ATOM     13  O   UNL     1      27.782  -1.126  31.840  1.00  0.00    -0.550 OA
ENDBRANCH  10  11
ENDBRANCH   9  10
ENDBRANCH   8   9
ENDBRANCH   1   8
TORSDOF 8
ENDMDL
MODEL 6
REMARK VINA RESULT:    -4.448      6.970     12.189
REMARK INTER + INTRA:          -6.861
REMARK INTER:                  -6.627
REMARK INTRA:                  -0.233
REMARK UNBOUND:                -0.333
REMARK SMILES O=C([O-])CCCCCCCC(=O)[O-]
REMARK SMILES IDX 7 1 6 2 5 3 4 4 2 5 1 6 3 7 8 8 9 9 10 10 11 11 12 12 13 13
REMARK H PARENT
REMARK Flexibility Score: inf
ROOT
ATOM      1  C   UNL     1      27.981   4.256  30.575  1.00  0.00     0.000 C 
ENDROOT
BRANCH   1   2
ATOM      2  C   UNL     1      28.382   5.676  30.141  1.00  0.00     0.000 C 
BRANCH   2   3
ATOM      3  C   UNL     1      27.271   6.711  30.397  1.00  0.00     0.006 C 
BRANCH   3   4
ATOM      4  C   UNL     1      27.787   8.152  30.283  1.00  0.00     0.053 C 
BRANCH   4   5
ATOM      5  C   UNL     1      26.711   9.151  30.580  1.00  0.00     0.041 C 
ATOM      6  O   UNL     1      26.259   9.269  31.749  1.00  0.00    -0.550 OA
ATOM      7  O   UNL     1      26.233   9.978  29.571  1.00  0.00    -0.550 OA
ENDBRANCH   4   5
ENDBRANCH   3   4
ENDBRANCH   2   3
ENDBRANCH   1   2
BRANCH   1   8
ATOM      8  C   UNL     1      27.685   3.336  29.378  1.00  0.00     0.000 C 
BRANCH   8   9
ATOM      9  C   UNL     1      27.998   1.861  29.677  1.00  0.00     0.006 C 
BRANCH   9  10
ATOM     10  C   UNL     1      28.469   1.637  31.120  1.00  0.00     0.053 C 
BRANCH  10  11
ATOM     11  C   UNL     1      29.515   0.567  31.166  1.00  0.00     0.041 C 
ATOM     12  O   UNL     1      29.634  -0.159  32.189  1.00  0.00    -0.550 OA
ATOM     13  O   UNL     1      30.324   0.338  30.061  1.00  0.00    -0.550 OA
ENDBRANCH  10  11
ENDBRANCH   9  10
ENDBRANCH   8   9
ENDBRANCH   1   8
TORSDOF 8
ENDMDL
MODEL 7
REMARK VINA RESULT:    -4.444      6.037     11.350
REMARK INTER + INTRA:          -6.856
REMARK INTER:                  -6.591
REMARK INTRA:                  -0.265
REMARK UNBOUND:                -0.333
REMARK SMILES O=C([O-])CCCCCCCC(=O)[O-]
REMARK SMILES IDX 7 1 6 2 5 3 4 4 2 5 1 6 3 7 8 8 9 9 10 10 11 11 12 12 13 13
REMARK H PARENT
REMARK Flexibility Score: inf
ROOT
ATOM      1  C   UNL     1      27.577   3.392  29.231  1.00  0.00     0.000 C 
ENDROOT
BRANCH   1   2
ATOM      2  C   UNL     1      27.950   4.276  30.433  1.00  0.00     0.000 C 
BRANCH   2   3
ATOM      3  C   UNL     1      27.311   5.675  30.364  1.00  0.00     0.006 C 
BRANCH   3   4
ATOM      4  C   UNL     1      28.342   6.767  30.053  1.00  0.00     0.053 C 
BRANCH   4   5
ATOM      5  C   UNL     1      27.810   8.134  30.353  1.00  0.00     0.041 C 
ATOM      6  O   UNL     1      28.598   9.106  30.495  1.00  0.00    -0.550 OA
ATOM      7  O   UNL     1      26.438   8.341  30.440  1.00  0.00    -0.550 OA
ENDBRANCH   4   5
ENDBRANCH   3   4
ENDBRANCH   2   3
ENDBRANCH   1   2
BRANCH   1   8
ATOM      8  C   UNL     1      27.858   1.901  29.485  1.00  0.00     0.000 C 
BRANCH   8   9
ATOM      9  C   UNL     1      28.080   1.588  30.974  1.00  0.00     0.006 C 
BRANCH   9  10
ATOM     10  C   UNL     1      27.374   0.301  31.420  1.00  0.00     0.053 C 
BRANCH  10  11
ATOM     11  C   UNL     1      28.362  -0.814  31.558  1.00  0.00     0.041 C 
ATOM     12  O   UNL     1      29.528  -0.579  31.973  1.00  0.00    -0.550 OA
ATOM     13  O   UNL     1      27.981  -2.120  31.276  1.00  0.00    -0.550 OA
ENDBRANCH  10  11
ENDBRANCH   9  10
ENDBRANCH   8   9
ENDBRANCH   1   8
TORSDOF 8
ENDMDL
MODEL 8
REMARK VINA RESULT:    -4.431      6.737     10.028
REMARK INTER + INTRA:          -6.836
REMARK INTER:                  -6.589
REMARK INTRA:                  -0.247
REMARK UNBOUND:                -0.333
REMARK SMILES O=C([O-])CCCCCCCC(=O)[O-]
REMARK SMILES IDX 7 1 6 2 5 3 4 4 2 5 1 6 3 7 8 8 9 9 10 10 11 11 12 12 13 13
REMARK H PARENT
REMARK Flexibility Score: inf
ROOT
ATOM      1  C   UNL     1      28.001   4.021  30.450  1.00  0.00     0.000 C 
ENDROOT
BRANCH   1   2
ATOM      2  C   UNL     1      27.631   3.125  29.257  1.00  0.00     0.000 C 
BRANCH   2   3
ATOM      3  C   UNL     1      27.791   1.625  29.568  1.00  0.00     0.006 C 
BRANCH   3   4
ATOM      4  C   UNL     1      28.295   1.382  30.997  1.00  0.00     0.053 C 
BRANCH   4   5
ATOM      5  C   UNL     1      29.415   0.387  31.027  1.00  0.00     0.041 C 
ATOM      6  O   UNL     1      30.289   0.387  30.121  1.00  0.00    -0.550 OA
ATOM      7  O   UNL     1      29.513  -0.516  32.078  1.00  0.00    -0.550 OA
ENDBRANCH   4   5
ENDBRANCH   3   4
ENDBRANCH   2   3
ENDBRANCH   1   2
BRANCH   1   8
ATOM      8  C   UNL     1      27.251   5.364  30.434  1.00  0.00     0.000 C 
BRANCH   8   9
ATOM      9  C   UNL     1      28.195   6.565  30.262  1.00  0.00     0.006 C 
BRANCH   9  10
ATOM     10  C   UNL     1      27.463   7.911  30.357  1.00  0.00     0.053 C 
BRANCH  10  11
ATOM     11  C   UNL     1      28.386   9.032  29.997  1.00  0.00     0.041 C 
ATOM     12  O   UNL     1      28.752   9.193  28.803  1.00  0.00    -0.550 OA
ATOM     13  O   UNL     1      28.803   9.930  30.972  1.00  0.00    -0.550 OA
ENDBRANCH  10  11
ENDBRANCH   9  10
ENDBRANCH   8   9
ENDBRANCH   1   8
TORSDOF 8
ENDMDL
MODEL 9
REMARK VINA RESULT:    -4.378      1.632      2.114
REMARK INTER + INTRA:          -6.759
REMARK INTER:                  -6.474
REMARK INTRA:                  -0.285
REMARK UNBOUND:                -0.333
REMARK SMILES O=C([O-])CCCCCCCC(=O)[O-]
REMARK SMILES IDX 7 1 6 2 5 3 4 4 2 5 1 6 3 7 8 8 9 9 10 10 11 11 12 12 13 13
REMARK H PARENT
REMARK Flexibility Score: inf
ROOT
ATOM      1  C   UNL     1      27.241  -4.299  30.744  1.00  0.00     0.000 C 
ENDROOT
BRANCH   1   2
ATOM      2  C   UNL     1      28.459  -5.194  30.461  1.00  0.00     0.000 C 
BRANCH   2   3
ATOM      3  C   UNL     1      28.109  -6.416  29.591  1.00  0.00     0.006 C 
BRANCH   3   4
ATOM      4  C   UNL     1      28.933  -7.652  29.974  1.00  0.00     0.053 C 
BRANCH   4   5
ATOM      5  C   UNL     1      28.744  -8.769  28.993  1.00  0.00     0.041 C 
ATOM      6  O   UNL     1      27.940  -9.704  29.243  1.00  0.00    -0.550 OA
ATOM      7  O   UNL     1      29.432  -8.756  27.786  1.00  0.00    -0.550 OA
ENDBRANCH   4   5
ENDBRANCH   3   4
ENDBRANCH   2   3
ENDBRANCH   1   2
BRANCH   1   8
ATOM      8  C   UNL     1      27.591  -2.801  30.712  1.00  0.00     0.000 C 
BRANCH   8   9
ATOM      9  C   UNL     1      28.899  -2.516  29.956  1.00  0.00     0.006 C 
BRANCH   9  10
ATOM     10  C   UNL     1      28.766  -1.359  28.958  1.00  0.00     0.053 C 
BRANCH  10  11
ATOM     11  C   UNL     1      29.367  -0.111  29.523  1.00  0.00     0.041 C 
ATOM     12  O   UNL     1      30.458  -0.162  30.151  1.00  0.00    -0.550 OA
ATOM     13  O   UNL     1      28.749   1.115  29.315  1.00  0.00    -0.550 OA
ENDBRANCH  10  11
ENDBRANCH   9  10
ENDBRANCH   8   9
ENDBRANCH   1   8
TORSDOF 8
ENDMDL
