MODEL 1
REMARK VINA RESULT:    -8.029      0.000      0.000
REMARK INTER + INTRA:         -12.286
REMARK INTER:                 -11.315
REMARK INTRA:                  -0.971
REMARK UNBOUND:                -0.971
REMARK SMILES COc1c(O[C@@H]2O[C@H](C(=O)[O-])[C@@H](O)[C@@H](O)[C@@H]2O)cc(O)c2c(=O)cc(-c3ccccc3)oc12
REMARK SMILES IDX 5 1 6 2 8 3 12 4 7 5 14 6 16 7 9 8 10 9 11 10 13 11 15 13
REMARK SMILES IDX 17 15 4 17 3 18 18 19 33 20 19 21 21 22 32 23 22 24 25 25
REMARK SMILES IDX 24 26 23 27 2 28 1 29 20 30 26 32 27 33 31 34 28 35 30 36
REMARK SMILES IDX 29 37
REMARK H PARENT 13 12 15 14 17 16 20 31
REMARK Flexibility Score: inf
ROOT
ATOM      1  O   UNL     1      14.413 119.521  22.258  1.00  0.00    -0.458 OA
ENDROOT
BRANCH   1   2
ATOM      2  C   UNL     1      14.589 120.633  23.146  1.00  0.00     0.339 C 
ATOM      3  C   UNL     1      15.943 119.422  24.691  1.00  0.00     0.199 C 
ATOM      4  C   UNL     1      14.827 119.418  25.764  1.00  0.00     0.180 C 
ATOM      5  O   UNL     1      15.847 120.536  23.808  1.00  0.00    -0.328 OA
ATOM      6  C   UNL     1      13.441 119.539  25.106  1.00  0.00     0.181 C 
ATOM      7  C   UNL     1      13.429 120.749  24.160  1.00  0.00     0.214 C 
BRANCH   3   8
ATOM      8  C   UNL     1      16.104 118.118  23.941  1.00  0.00     0.073 C 
ATOM      9  O   UNL     1      15.313 117.153  24.129  1.00  0.00    -0.547 OA
ATOM     10  O   UNL     1      17.179 117.956  23.074  1.00  0.00    -0.547 OA
ENDBRANCH   3   8
BRANCH   4  11
ATOM     11  O   UNL     1      15.039 120.498  26.641  1.00  0.00    -0.387 OA
ATOM     12  H   UNL     1      15.504 121.208  26.123  1.00  0.00     0.211 HD
ENDBRANCH   4  11
BRANCH   6  13
ATOM     13  O   UNL     1      12.449 119.696  26.090  1.00  0.00    -0.387 OA
ATOM     14  H   UNL     1      12.692 119.091  26.838  1.00  0.00     0.211 HD
ENDBRANCH   6  13
BRANCH   7  15
ATOM     15  O   UNL     1      12.199 120.826  23.488  1.00  0.00    -0.384 OA
ATOM     16  H   UNL     1      12.281 120.270  22.672  1.00  0.00     0.211 HD
ENDBRANCH   7  15
ENDBRANCH   1   2
BRANCH   1  17
ATOM     17  C   UNL     1      14.836 119.424  20.920  1.00  0.00     0.172 A 
ATOM     18  C   UNL     1      13.934 118.876  19.996  1.00  0.00     0.205 A 
ATOM     19  C   UNL     1      16.102 119.852  20.491  1.00  0.00     0.097 A 
ATOM     20  C   UNL     1      14.307 118.755  18.637  1.00  0.00     0.188 A 
ATOM     21  C   UNL     1      16.474 119.764  19.145  1.00  0.00     0.134 A 
ATOM     22  C   UNL     1      15.576 119.219  18.203  1.00  0.00     0.111 A 
ATOM     23  O   UNL     1      13.472 118.200  17.762  1.00  0.00    -0.452 OA
ATOM     24  C   UNL     1      15.888 119.099  16.832  1.00  0.00     0.197 A 
ATOM     25  C   UNL     1      13.738 118.073  16.465  1.00  0.00     0.138 A 
ATOM     26  C   UNL     1      14.961 118.530  15.962  1.00  0.00     0.100 A 
ATOM     27  O   UNL     1      16.994 119.493  16.372  1.00  0.00    -0.289 OA
BRANCH  18  28
ATOM     28  O   UNL     1      12.680 118.480  20.494  1.00  0.00    -0.490 OA
ATOM     29  C   UNL     1      11.514 119.296  20.567  1.00  0.00     0.278 C 
ENDBRANCH  18  28
BRANCH  21  30
ATOM     30  O   UNL     1      17.739 120.211  18.757  1.00  0.00    -0.507 OA
ATOM     31  H   UNL     1      17.906 120.620  17.847  1.00  0.00     0.293 HD
ENDBRANCH  21  30
BRANCH  25  32
ATOM     32  C   UNL     1      12.730 117.439  15.586  1.00  0.00     0.017 A 
ATOM     33  C   UNL     1      12.156 118.180  14.541  1.00  0.00     0.012 A 
ATOM     34  C   UNL     1      12.353 116.093  15.756  1.00  0.00     0.012 A 
ATOM     35  C   UNL     1      11.213 117.592  13.691  1.00  0.00     0.001 A 
ATOM     36  C   UNL     1      11.416 115.505  14.899  1.00  0.00     0.001 A 
ATOM     37  C   UNL     1      10.844 116.258  13.869  1.00  0.00     0.000 A 
ENDBRANCH  25  32
ENDBRANCH   1  17
TORSDOF 9
ENDMDL
MODEL 2
REMARK VINA RESULT:    -7.535      2.175      4.782
REMARK INTER + INTRA:         -11.590
REMARK INTER:                 -10.506
REMARK INTRA:                  -1.084
REMARK UNBOUND:                -0.971
REMARK SMILES COc1c(O[C@@H]2O[C@H](C(=O)[O-])[C@@H](O)[C@@H](O)[C@@H]2O)cc(O)c2c(=O)cc(-c3ccccc3)oc12
REMARK SMILES IDX 5 1 6 2 8 3 12 4 7 5 14 6 16 7 9 8 10 9 11 10 13 11 15 13
REMARK SMILES IDX 17 15 4 17 3 18 18 19 33 20 19 21 21 22 32 23 22 24 25 25
REMARK SMILES IDX 24 26 23 27 2 28 1 29 20 30 26 32 27 33 31 34 28 35 30 36
REMARK SMILES IDX 29 37
REMARK H PARENT 13 12 15 14 17 16 20 31
REMARK Flexibility Score: inf
ROOT
ATOM      1  O   UNL     1      15.508 118.959  22.395  1.00  0.00    -0.458 OA
ENDROOT
BRANCH   1   2
ATOM      2  C   UNL     1      15.411 117.841  23.288  1.00  0.00     0.339 C 
ATOM      3  C   UNL     1      14.089 119.006  24.896  1.00  0.00     0.199 C 
ATOM      4  C   UNL     1      15.253 119.048  25.917  1.00  0.00     0.180 C 
ATOM      5  O   UNL     1      14.182 117.896  24.007  1.00  0.00    -0.328 OA
ATOM      6  C   UNL     1      16.610 118.973  25.196  1.00  0.00     0.181 C 
ATOM      7  C   UNL     1      16.619 117.765  24.248  1.00  0.00     0.214 C 
BRANCH   3   8
ATOM      8  C   UNL     1      13.850 120.304  24.157  1.00  0.00     0.073 C 
ATOM      9  O   UNL     1      14.610 121.298  24.318  1.00  0.00    -0.547 OA
ATOM     10  O   UNL     1      12.738 120.426  23.331  1.00  0.00    -0.547 OA
ENDBRANCH   3   8
BRANCH   4  11
ATOM     11  O   UNL     1      15.118 117.960  26.800  1.00  0.00    -0.387 OA
ATOM     12  H   UNL     1      15.848 117.320  26.590  1.00  0.00     0.211 HD
ENDBRANCH   4  11
BRANCH   6  13
ATOM     13  O   UNL     1      17.652 118.849  26.132  1.00  0.00    -0.387 OA
ATOM     14  H   UNL     1      18.434 118.485  25.640  1.00  0.00     0.211 HD
ENDBRANCH   6  13
BRANCH   7  15
ATOM     15  O   UNL     1      17.819 117.728  23.519  1.00  0.00    -0.384 OA
ATOM     16  H   UNL     1      18.384 118.470  23.857  1.00  0.00     0.211 HD
ENDBRANCH   7  15
ENDBRANCH   1   2
BRANCH   1  17
ATOM     17  C   UNL     1      15.059 119.028  21.064  1.00  0.00     0.172 A 
ATOM     18  C   UNL     1      15.926 119.592  20.118  1.00  0.00     0.205 A 
ATOM     19  C   UNL     1      13.798 118.556  20.664  1.00  0.00     0.097 A 
ATOM     20  C   UNL     1      15.525 119.686  18.765  1.00  0.00     0.188 A 
ATOM     21  C   UNL     1      13.400 118.617  19.324  1.00  0.00     0.134 A 
ATOM     22  C   UNL     1      14.264 119.179  18.359  1.00  0.00     0.111 A 
ATOM     23  O   UNL     1      16.327 120.256  17.868  1.00  0.00    -0.452 OA
ATOM     24  C   UNL     1      13.922 119.274  16.993  1.00  0.00     0.197 A 
ATOM     25  C   UNL     1      16.033 120.361  16.575  1.00  0.00     0.138 A 
ATOM     26  C   UNL     1      14.816 119.861  16.100  1.00  0.00     0.100 A 
ATOM     27  O   UNL     1      12.822 118.840  16.558  1.00  0.00    -0.289 OA
BRANCH  18  28
ATOM     28  O   UNL     1      17.177 120.033  20.588  1.00  0.00    -0.490 OA
ATOM     29  C   UNL     1      18.412 119.334  20.458  1.00  0.00     0.278 C 
ENDBRANCH  18  28
BRANCH  21  30
ATOM     30  O   UNL     1      12.143 118.128  18.964  1.00  0.00    -0.507 OA
ATOM     31  H   UNL     1      12.026 117.433  18.237  1.00  0.00     0.293 HD
ENDBRANCH  21  30
BRANCH  25  32
ATOM     32  C   UNL     1      17.005 121.016  15.672  1.00  0.00     0.017 A 
ATOM     33  C   UNL     1      17.382 120.378  14.478  1.00  0.00     0.012 A 
ATOM     34  C   UNL     1      17.541 122.283  15.966  1.00  0.00     0.012 A 
ATOM     35  C   UNL     1      18.287 120.989  13.605  1.00  0.00     0.001 A 
ATOM     36  C   UNL     1      18.440 122.896  15.086  1.00  0.00     0.001 A 
ATOM     37  C   UNL     1      18.815 122.245  13.907  1.00  0.00     0.000 A 
ENDBRANCH  25  32
ENDBRANCH   1  17
TORSDOF 9
ENDMDL
MODEL 3
REMARK VINA RESULT:    -7.515      0.890      2.305
REMARK INTER + INTRA:         -11.561
REMARK INTER:                 -10.817
REMARK INTRA:                  -0.743
REMARK UNBOUND:                -0.971
REMARK SMILES COc1c(O[C@@H]2O[C@H](C(=O)[O-])[C@@H](O)[C@@H](O)[C@@H]2O)cc(O)c2c(=O)cc(-c3ccccc3)oc12
REMARK SMILES IDX 5 1 6 2 8 3 12 4 7 5 14 6 16 7 9 8 10 9 11 10 13 11 15 13
REMARK SMILES IDX 17 15 4 17 3 18 18 19 33 20 19 21 21 22 32 23 22 24 25 25
REMARK SMILES IDX 24 26 23 27 2 28 1 29 20 30 26 32 27 33 31 34 28 35 30 36
REMARK SMILES IDX 29 37
REMARK H PARENT 13 12 15 14 17 16 20 31
REMARK Flexibility Score: inf
ROOT
ATOM      1  O   UNL     1      14.578 119.724  22.172  1.00  0.00    -0.458 OA
ENDROOT
BRANCH   1   2
ATOM      2  C   UNL     1      14.615 118.717  23.193  1.00  0.00     0.339 C 
ATOM      3  C   UNL     1      13.454 120.042  24.799  1.00  0.00     0.199 C 
ATOM      4  C   UNL     1      14.725 120.220  25.666  1.00  0.00     0.180 C 
ATOM      5  O   UNL     1      13.475 118.837  24.039  1.00  0.00    -0.328 OA
ATOM      6  C   UNL     1      15.993 120.080  24.804  1.00  0.00     0.181 C 
ATOM      7  C   UNL     1      15.927 118.770  24.007  1.00  0.00     0.214 C 
BRANCH   3   8
ATOM      8  C   UNL     1      13.096 121.242  23.950  1.00  0.00     0.073 C 
ATOM      9  O   UNL     1      13.770 122.307  24.005  1.00  0.00    -0.547 OA
ATOM     10  O   UNL     1      11.968 121.193  23.138  1.00  0.00    -0.547 OA
ENDBRANCH   3   8
BRANCH   4  11
ATOM     11  O   UNL     1      14.722 119.241  26.678  1.00  0.00    -0.387 OA
ATOM     12  H   UNL     1      13.798 118.880  26.732  1.00  0.00     0.211 HD
ENDBRANCH   4  11
BRANCH   6  13
ATOM     13  O   UNL     1      17.138 120.082  25.621  1.00  0.00    -0.387 OA
ATOM     14  H   UNL     1      17.456 121.022  25.662  1.00  0.00     0.211 HD
ENDBRANCH   6  13
BRANCH   7  15
ATOM     15  O   UNL     1      17.036 118.666  23.152  1.00  0.00    -0.384 OA
ATOM     16  H   UNL     1      17.160 119.555  22.732  1.00  0.00     0.211 HD
ENDBRANCH   7  15
ENDBRANCH   1   2
BRANCH   1  17
ATOM     17  C   UNL     1      14.959 119.586  20.825  1.00  0.00     0.172 A 
ATOM     18  C   UNL     1      14.051 118.961  19.959  1.00  0.00     0.205 A 
ATOM     19  C   UNL     1      16.190 120.048  20.334  1.00  0.00     0.097 A 
ATOM     20  C   UNL     1      14.383 118.796  18.593  1.00  0.00     0.188 A 
ATOM     21  C   UNL     1      16.520 119.916  18.980  1.00  0.00     0.134 A 
ATOM     22  C   UNL     1      15.614 119.293  18.095  1.00  0.00     0.111 A 
ATOM     23  O   UNL     1      13.544 118.168  17.773  1.00  0.00    -0.452 OA
ATOM     24  C   UNL     1      15.886 119.125  16.720  1.00  0.00     0.197 A 
ATOM     25  C   UNL     1      13.771 117.995  16.474  1.00  0.00     0.138 A 
ATOM     26  C   UNL     1      14.956 118.480  15.908  1.00  0.00     0.100 A 
ATOM     27  O   UNL     1      16.957 119.546  16.204  1.00  0.00    -0.289 OA
BRANCH  18  28
ATOM     28  O   UNL     1      12.833 118.534  20.517  1.00  0.00    -0.490 OA
ATOM     29  C   UNL     1      11.626 119.290  20.567  1.00  0.00     0.278 C 
ENDBRANCH  18  28
BRANCH  21  30
ATOM     30  O   UNL     1      17.750 120.399  18.529  1.00  0.00    -0.507 OA
ATOM     31  H   UNL     1      18.600 119.854  18.606  1.00  0.00     0.293 HD
ENDBRANCH  21  30
BRANCH  25  32
ATOM     32  C   UNL     1      12.763 117.280  15.660  1.00  0.00     0.017 A 
ATOM     33  C   UNL     1      12.287 117.865  14.475  1.00  0.00     0.012 A 
ATOM     34  C   UNL     1      12.288 116.008  16.031  1.00  0.00     0.012 A 
ATOM     35  C   UNL     1      11.346 117.197  13.685  1.00  0.00     0.001 A 
ATOM     36  C   UNL     1      11.353 115.339  15.235  1.00  0.00     0.001 A 
ATOM     37  C   UNL     1      10.879 115.937  14.063  1.00  0.00     0.000 A 
ENDBRANCH  25  32
ENDBRANCH   1  17
TORSDOF 9
ENDMDL
MODEL 4
REMARK VINA RESULT:    -7.501      4.810      8.457
REMARK INTER + INTRA:         -11.541
REMARK INTER:                 -10.599
REMARK INTRA:                  -0.942
REMARK UNBOUND:                -0.971
REMARK SMILES COc1c(O[C@@H]2O[C@H](C(=O)[O-])[C@@H](O)[C@@H](O)[C@@H]2O)cc(O)c2c(=O)cc(-c3ccccc3)oc12
REMARK SMILES IDX 5 1 6 2 8 3 12 4 7 5 14 6 16 7 9 8 10 9 11 10 13 11 15 13
REMARK SMILES IDX 17 15 4 17 3 18 18 19 33 20 19 21 21 22 32 23 22 24 25 25
REMARK SMILES IDX 24 26 23 27 2 28 1 29 20 30 26 32 27 33 31 34 28 35 30 36
REMARK SMILES IDX 29 37
REMARK H PARENT 13 12 15 14 17 16 20 31
REMARK Flexibility Score: inf
ROOT
ATOM      1  O   UNL     1      16.642 116.232  25.231  1.00  0.00    -0.458 OA
ENDROOT
BRANCH   1   2
ATOM      2  C   UNL     1      16.739 114.851  24.858  1.00  0.00     0.339 C 
ATOM      3  C   UNL     1      15.323 114.087  26.618  1.00  0.00     0.199 C 
ATOM      4  C   UNL     1      16.505 113.422  27.367  1.00  0.00     0.180 C 
ATOM      5  O   UNL     1      15.541 114.165  25.212  1.00  0.00    -0.328 OA
ATOM      6  C   UNL     1      17.832 114.113  27.007  1.00  0.00     0.181 C 
ATOM      7  C   UNL     1      17.979 114.172  25.479  1.00  0.00     0.214 C 
BRANCH   3   8
ATOM      8  C   UNL     1      14.874 115.411  27.195  1.00  0.00     0.073 C 
ATOM      9  O   UNL     1      15.517 115.971  28.125  1.00  0.00    -0.547 OA
ATOM     10  O   UNL     1      13.697 115.993  26.737  1.00  0.00    -0.547 OA
ENDBRANCH   3   8
BRANCH   4  11
ATOM     11  O   UNL     1      16.559 112.062  27.008  1.00  0.00    -0.387 OA
ATOM     12  H   UNL     1      16.414 111.535  27.839  1.00  0.00     0.211 HD
ENDBRANCH   4  11
BRANCH   6  13
ATOM     13  O   UNL     1      18.913 113.406  27.561  1.00  0.00    -0.387 OA
ATOM     14  H   UNL     1      18.983 113.691  28.510  1.00  0.00     0.211 HD
ENDBRANCH   6  13
BRANCH   7  15
ATOM     15  O   UNL     1      19.145 114.873  25.131  1.00  0.00    -0.384 OA
ATOM     16  H   UNL     1      18.988 115.824  25.361  1.00  0.00     0.211 HD
ENDBRANCH   7  15
ENDBRANCH   1   2
BRANCH   1  17
ATOM     17  C   UNL     1      15.953 117.252  24.551  1.00  0.00     0.172 A 
ATOM     18  C   UNL     1      15.699 118.439  25.253  1.00  0.00     0.205 A 
ATOM     19  C   UNL     1      15.525 117.122  23.220  1.00  0.00     0.097 A 
ATOM     20  C   UNL     1      15.010 119.498  24.617  1.00  0.00     0.188 A 
ATOM     21  C   UNL     1      14.866 118.171  22.570  1.00  0.00     0.134 A 
ATOM     22  C   UNL     1      14.607 119.373  23.263  1.00  0.00     0.111 A 
ATOM     23  O   UNL     1      14.730 120.613  25.289  1.00  0.00    -0.452 OA
ATOM     24  C   UNL     1      13.945 120.468  22.667  1.00  0.00     0.197 A 
ATOM     25  C   UNL     1      14.109 121.661  24.756  1.00  0.00     0.138 A 
ATOM     26  C   UNL     1      13.703 121.617  23.418  1.00  0.00     0.100 A 
ATOM     27  O   UNL     1      13.563 120.433  21.467  1.00  0.00    -0.289 OA
BRANCH  18  28
ATOM     28  O   UNL     1      16.168 118.504  26.578  1.00  0.00    -0.490 OA
ATOM     29  C   UNL     1      17.440 118.995  26.991  1.00  0.00     0.278 C 
ENDBRANCH  18  28
BRANCH  21  30
ATOM     30  O   UNL     1      14.466 118.005  21.243  1.00  0.00    -0.507 OA
ATOM     31  H   UNL     1      14.432 117.094  20.803  1.00  0.00     0.293 HD
ENDBRANCH  21  30
BRANCH  25  32
ATOM     32  C   UNL     1      13.852 122.847  25.603  1.00  0.00     0.017 A 
ATOM     33  C   UNL     1      12.819 123.734  25.259  1.00  0.00     0.012 A 
ATOM     34  C   UNL     1      14.603 123.094  26.767  1.00  0.00     0.012 A 
ATOM     35  C   UNL     1      12.552 124.852  26.056  1.00  0.00     0.001 A 
ATOM     36  C   UNL     1      14.329 124.208  27.567  1.00  0.00     0.001 A 
ATOM     37  C   UNL     1      13.305 125.089  27.207  1.00  0.00     0.000 A 
ENDBRANCH  25  32
ENDBRANCH   1  17
TORSDOF 9
ENDMDL
MODEL 5
REMARK VINA RESULT:    -7.469      2.187      4.342
REMARK INTER + INTRA:         -11.496
REMARK INTER:                 -10.625
REMARK INTRA:                  -0.871
REMARK UNBOUND:                -0.971
REMARK SMILES COc1c(O[C@@H]2O[C@H](C(=O)[O-])[C@@H](O)[C@@H](O)[C@@H]2O)cc(O)c2c(=O)cc(-c3ccccc3)oc12
REMARK SMILES IDX 5 1 6 2 8 3 12 4 7 5 14 6 16 7 9 8 10 9 11 10 13 11 15 13
REMARK SMILES IDX 17 15 4 17 3 18 18 19 33 20 19 21 21 22 32 23 22 24 25 25
REMARK SMILES IDX 24 26 23 27 2 28 1 29 20 30 26 32 27 33 31 34 28 35 30 36
REMARK SMILES IDX 29 37
REMARK H PARENT 13 12 15 14 17 16 20 31
REMARK Flexibility Score: inf
ROOT
ATOM      1  O   UNL     1      15.146 118.547  22.337  1.00  0.00    -0.458 OA
ENDROOT
BRANCH   1   2
ATOM      2  C   UNL     1      15.246 119.549  23.358  1.00  0.00     0.339 C 
ATOM      3  C   UNL     1      16.620 118.221  24.784  1.00  0.00     0.199 C 
ATOM      4  C   UNL     1      15.480 118.035  25.815  1.00  0.00     0.180 C 
ATOM      5  O   UNL     1      16.491 119.429  24.040  1.00  0.00    -0.328 OA
ATOM      6  C   UNL     1      14.106 118.174  25.136  1.00  0.00     0.181 C 
ATOM      7  C   UNL     1      14.059 119.488  24.343  1.00  0.00     0.214 C 
BRANCH   3   8
ATOM      8  C   UNL     1      16.861 117.026  23.887  1.00  0.00     0.073 C 
ATOM      9  O   UNL     1      16.222 115.950  24.045  1.00  0.00    -0.547 OA
ATOM     10  O   UNL     1      17.849 117.094  22.910  1.00  0.00    -0.547 OA
ENDBRANCH   3   8
BRANCH   4  11
ATOM     11  O   UNL     1      15.618 119.009  26.822  1.00  0.00    -0.387 OA
ATOM     12  H   UNL     1      15.285 118.605  27.667  1.00  0.00     0.211 HD
ENDBRANCH   4  11
BRANCH   6  13
ATOM     13  O   UNL     1      13.083 118.165  26.101  1.00  0.00    -0.387 OA
ATOM     14  H   UNL     1      13.364 118.793  26.817  1.00  0.00     0.211 HD
ENDBRANCH   6  13
BRANCH   7  15
ATOM     15  O   UNL     1      12.843 119.592  23.649  1.00  0.00    -0.384 OA
ATOM     16  H   UNL     1      12.522 120.523  23.767  1.00  0.00     0.211 HD
ENDBRANCH   7  15
ENDBRANCH   1   2
BRANCH   1  17
ATOM     17  C   UNL     1      14.777 118.734  20.992  1.00  0.00     0.172 A 
ATOM     18  C   UNL     1      15.676 119.422  20.166  1.00  0.00     0.205 A 
ATOM     19  C   UNL     1      13.564 118.261  20.466  1.00  0.00     0.097 A 
ATOM     20  C   UNL     1      15.354 119.639  18.805  1.00  0.00     0.188 A 
ATOM     21  C   UNL     1      13.246 118.444  19.116  1.00  0.00     0.134 A 
ATOM     22  C   UNL     1      14.143 119.131  18.270  1.00  0.00     0.111 A 
ATOM     23  O   UNL     1      16.185 120.326  18.023  1.00  0.00    -0.452 OA
ATOM     24  C   UNL     1      13.882 119.352  16.901  1.00  0.00     0.197 A 
ATOM     25  C   UNL     1      15.967 120.550  16.731  1.00  0.00     0.138 A 
ATOM     26  C   UNL     1      14.803 120.058  16.130  1.00  0.00     0.100 A 
ATOM     27  O   UNL     1      12.829 118.925  16.354  1.00  0.00    -0.289 OA
BRANCH  18  28
ATOM     28  O   UNL     1      16.875 119.857  20.757  1.00  0.00    -0.490 OA
ATOM     29  C   UNL     1      18.178 119.354  20.472  1.00  0.00     0.278 C 
ENDBRANCH  18  28
BRANCH  21  30
ATOM     30  O   UNL     1      12.035 117.948  18.629  1.00  0.00    -0.507 OA
ATOM     31  H   UNL     1      11.146 118.360  18.884  1.00  0.00     0.293 HD
ENDBRANCH  21  30
BRANCH  25  32
ATOM     32  C   UNL     1      16.964 121.328  15.962  1.00  0.00     0.017 A 
ATOM     33  C   UNL     1      17.258 120.961  14.638  1.00  0.00     0.012 A 
ATOM     34  C   UNL     1      17.605 122.450  16.517  1.00  0.00     0.012 A 
ATOM     35  C   UNL     1      18.186 121.694  13.891  1.00  0.00     0.001 A 
ATOM     36  C   UNL     1      18.526 123.186  15.765  1.00  0.00     0.001 A 
ATOM     37  C   UNL     1      18.819 122.804  14.452  1.00  0.00     0.000 A 
ENDBRANCH  25  32
ENDBRANCH   1  17
TORSDOF 9
ENDMDL
MODEL 6
REMARK VINA RESULT:    -7.285      5.093      7.513
REMARK INTER + INTRA:         -11.237
REMARK INTER:                 -10.454
REMARK INTRA:                  -0.783
REMARK UNBOUND:                -0.971
REMARK SMILES COc1c(O[C@@H]2O[C@H](C(=O)[O-])[C@@H](O)[C@@H](O)[C@@H]2O)cc(O)c2c(=O)cc(-c3ccccc3)oc12
REMARK SMILES IDX 5 1 6 2 8 3 12 4 7 5 14 6 16 7 9 8 10 9 11 10 13 11 15 13
REMARK SMILES IDX 17 15 4 17 3 18 18 19 33 20 19 21 21 22 32 23 22 24 25 25
REMARK SMILES IDX 24 26 23 27 2 28 1 29 20 30 26 32 27 33 31 34 28 35 30 36
REMARK SMILES IDX 29 37
REMARK H PARENT 13 12 15 14 17 16 20 31
REMARK Flexibility Score: inf
ROOT
ATOM      1  O   UNL     1      13.814 122.035  25.210  1.00  0.00    -0.458 OA
ENDROOT
BRANCH   1   2
ATOM      2  C   UNL     1      13.681 123.411  24.829  1.00  0.00     0.339 C 
ATOM      3  C   UNL     1      14.385 124.256  26.945  1.00  0.00     0.199 C 
ATOM      4  C   UNL     1      12.961 124.760  27.289  1.00  0.00     0.180 C 
ATOM      5  O   UNL     1      14.623 124.209  25.541  1.00  0.00    -0.328 OA
ATOM      6  C   UNL     1      11.899 123.945  26.531  1.00  0.00     0.181 C 
ATOM      7  C   UNL     1      12.240 123.929  25.034  1.00  0.00     0.214 C 
BRANCH   3   8
ATOM      8  C   UNL     1      14.781 122.967  27.630  1.00  0.00     0.073 C 
ATOM      9  O   UNL     1      13.913 122.196  28.125  1.00  0.00    -0.547 OA
ATOM     10  O   UNL     1      16.128 122.655  27.773  1.00  0.00    -0.547 OA
ENDBRANCH   3   8
BRANCH   4  11
ATOM     11  O   UNL     1      12.866 126.120  26.935  1.00  0.00    -0.387 OA
ATOM     12  H   UNL     1      13.127 126.649  27.735  1.00  0.00     0.211 HD
ENDBRANCH   4  11
BRANCH   6  13
ATOM     13  O   UNL     1      10.625 124.510  26.722  1.00  0.00    -0.387 OA
ATOM     14  H   UNL     1      10.752 125.494  26.747  1.00  0.00     0.211 HD
ENDBRANCH   6  13
BRANCH   7  15
ATOM     15  O   UNL     1      11.328 123.119  24.337  1.00  0.00    -0.384 OA
ATOM     16  H   UNL     1      11.573 122.178  24.529  1.00  0.00     0.211 HD
ENDBRANCH   7  15
ENDBRANCH   1   2
BRANCH   1  17
ATOM     17  C   UNL     1      14.532 121.030  24.537  1.00  0.00     0.172 A 
ATOM     18  C   UNL     1      14.765 119.832  25.226  1.00  0.00     0.205 A 
ATOM     19  C   UNL     1      15.008 121.188  23.226  1.00  0.00     0.097 A 
ATOM     20  C   UNL     1      15.482 118.787  24.596  1.00  0.00     0.188 A 
ATOM     21  C   UNL     1      15.695 120.153  22.581  1.00  0.00     0.134 A 
ATOM     22  C   UNL     1      15.933 118.939  23.260  1.00  0.00     0.111 A 
ATOM     23  O   UNL     1      15.741 117.661  25.257  1.00  0.00    -0.452 OA
ATOM     24  C   UNL     1      16.621 117.857  22.669  1.00  0.00     0.197 A 
ATOM     25  C   UNL     1      16.386 116.625  24.728  1.00  0.00     0.138 A 
ATOM     26  C   UNL     1      16.840 116.695  23.406  1.00  0.00     0.100 A 
ATOM     27  O   UNL     1      17.047 117.916  21.484  1.00  0.00    -0.289 OA
BRANCH  18  28
ATOM     28  O   UNL     1      14.248 119.740  26.531  1.00  0.00    -0.490 OA
ATOM     29  C   UNL     1      12.994 119.169  26.895  1.00  0.00     0.278 C 
ENDBRANCH  18  28
BRANCH  21  30
ATOM     30  O   UNL     1      16.143 120.345  21.273  1.00  0.00    -0.507 OA
ATOM     31  H   UNL     1      16.646 121.179  20.995  1.00  0.00     0.293 HD
ENDBRANCH  21  30
BRANCH  25  32
ATOM     32  C   UNL     1      16.616 115.424  25.561  1.00  0.00     0.017 A 
ATOM     33  C   UNL     1      17.788 114.671  25.384  1.00  0.00     0.012 A 
ATOM     34  C   UNL     1      15.697 115.032  26.553  1.00  0.00     0.012 A 
ATOM     35  C   UNL     1      18.030 113.542  26.174  1.00  0.00     0.001 A 
ATOM     36  C   UNL     1      15.945 113.908  27.346  1.00  0.00     0.001 A 
ATOM     37  C   UNL     1      17.111 113.161  27.152  1.00  0.00     0.000 A 
ENDBRANCH  25  32
ENDBRANCH   1  17
TORSDOF 9
ENDMDL
MODEL 7
REMARK VINA RESULT:    -6.714      3.285      6.447
REMARK INTER + INTRA:         -10.433
REMARK INTER:                 -10.959
REMARK INTRA:                   0.526
REMARK UNBOUND:                -0.971
REMARK SMILES COc1c(O[C@@H]2O[C@H](C(=O)[O-])[C@@H](O)[C@@H](O)[C@@H]2O)cc(O)c2c(=O)cc(-c3ccccc3)oc12
REMARK SMILES IDX 5 1 6 2 8 3 12 4 7 5 14 6 16 7 9 8 10 9 11 10 13 11 15 13
REMARK SMILES IDX 17 15 4 17 3 18 18 19 33 20 19 21 21 22 32 23 22 24 25 25
REMARK SMILES IDX 24 26 23 27 2 28 1 29 20 30 26 32 27 33 31 34 28 35 30 36
REMARK SMILES IDX 29 37
REMARK H PARENT 13 12 15 14 17 16 20 31
REMARK Flexibility Score: inf
ROOT
ATOM      1  O   UNL     1      16.453 116.013  25.633  1.00  0.00    -0.458 OA
ENDROOT
BRANCH   1   2
ATOM      2  C   UNL     1      16.590 114.626  25.293  1.00  0.00     0.339 C 
ATOM      3  C   UNL     1      15.463 113.847  27.244  1.00  0.00     0.199 C 
ATOM      4  C   UNL     1      16.771 113.284  27.853  1.00  0.00     0.180 C 
ATOM      5  O   UNL     1      15.495 113.883  25.820  1.00  0.00    -0.328 OA
ATOM      6  C   UNL     1      17.994 114.039  27.303  1.00  0.00     0.181 C 
ATOM      7  C   UNL     1      17.941 114.048  25.768  1.00  0.00     0.214 C 
BRANCH   3   8
ATOM      8  C   UNL     1      15.007 115.164  27.834  1.00  0.00     0.073 C 
ATOM      9  O   UNL     1      15.833 116.071  28.125  1.00  0.00    -0.547 OA
ATOM     10  O   UNL     1      13.659 115.354  28.120  1.00  0.00    -0.547 OA
ENDBRANCH   3   8
BRANCH   4  11
ATOM     11  O   UNL     1      16.867 111.917  27.533  1.00  0.00    -0.387 OA
ATOM     12  H   UNL     1      16.227 111.745  26.792  1.00  0.00     0.211 HD
ENDBRANCH   4  11
BRANCH   6  13
ATOM     13  O   UNL     1      19.181 113.421  27.733  1.00  0.00    -0.387 OA
ATOM     14  H   UNL     1      19.761 113.330  26.932  1.00  0.00     0.211 HD
ENDBRANCH   6  13
BRANCH   7  15
ATOM     15  O   UNL     1      19.005 114.804  25.250  1.00  0.00    -0.384 OA
ATOM     16  H   UNL     1      18.768 115.758  25.376  1.00  0.00     0.211 HD
ENDBRANCH   7  15
ENDBRANCH   1   2
BRANCH   1  17
ATOM     17  C   UNL     1      15.653 116.973  24.987  1.00  0.00     0.172 A 
ATOM     18  C   UNL     1      15.839 117.148  23.609  1.00  0.00     0.205 A 
ATOM     19  C   UNL     1      14.694 117.742  25.667  1.00  0.00     0.097 A 
ATOM     20  C   UNL     1      15.061 118.101  22.910  1.00  0.00     0.188 A 
ATOM     21  C   UNL     1      13.899 118.668  24.983  1.00  0.00     0.134 A 
ATOM     22  C   UNL     1      14.072 118.852  23.595  1.00  0.00     0.111 A 
ATOM     23  O   UNL     1      15.260 118.300  21.609  1.00  0.00    -0.452 OA
ATOM     24  C   UNL     1      13.306 119.771  22.846  1.00  0.00     0.197 A 
ATOM     25  C   UNL     1      14.555 119.158  20.877  1.00  0.00     0.138 A 
ATOM     26  C   UNL     1      13.546 119.917  21.482  1.00  0.00     0.100 A 
ATOM     27  O   UNL     1      12.405 120.469  23.384  1.00  0.00    -0.289 OA
BRANCH  18  28
ATOM     28  O   UNL     1      16.808 116.336  22.992  1.00  0.00    -0.490 OA
ATOM     29  C   UNL     1      18.150 116.714  22.696  1.00  0.00     0.278 C 
ENDBRANCH  18  28
BRANCH  21  30
ATOM     30  O   UNL     1      12.949 119.405  25.693  1.00  0.00    -0.507 OA
ATOM     31  H   UNL     1      13.104 119.699  26.649  1.00  0.00     0.293 HD
ENDBRANCH  21  30
BRANCH  25  32
ATOM     32  C   UNL     1      14.866 119.295  19.437  1.00  0.00     0.017 A 
ATOM     33  C   UNL     1      13.862 119.053  18.484  1.00  0.00     0.012 A 
ATOM     34  C   UNL     1      16.142 119.692  18.997  1.00  0.00     0.012 A 
ATOM     35  C   UNL     1      14.134 119.193  17.119  1.00  0.00     0.001 A 
ATOM     36  C   UNL     1      16.409 119.838  17.632  1.00  0.00     0.001 A 
ATOM     37  C   UNL     1      15.404 119.584  16.693  1.00  0.00     0.000 A 
ENDBRANCH  25  32
ENDBRANCH   1  17
TORSDOF 9
ENDMDL
MODEL 8
REMARK VINA RESULT:    -6.073      4.764      9.134
REMARK INTER + INTRA:          -9.529
REMARK INTER:                  -8.409
REMARK INTRA:                  -1.120
REMARK UNBOUND:                -0.971
REMARK SMILES COc1c(O[C@@H]2O[C@H](C(=O)[O-])[C@@H](O)[C@@H](O)[C@@H]2O)cc(O)c2c(=O)cc(-c3ccccc3)oc12
REMARK SMILES IDX 5 1 6 2 8 3 12 4 7 5 14 6 16 7 9 8 10 9 11 10 13 11 15 13
REMARK SMILES IDX 17 15 4 17 3 18 18 19 33 20 19 21 21 22 32 23 22 24 25 25
REMARK SMILES IDX 24 26 23 27 2 28 1 29 20 30 26 32 27 33 31 34 28 35 30 36
REMARK SMILES IDX 29 37
REMARK H PARENT 13 12 15 14 17 16 20 31
REMARK Flexibility Score: inf
ROOT
ATOM      1  O   UNL     1      15.500 119.579  24.987  1.00  0.00    -0.458 OA
ENDROOT
BRANCH   1   2
ATOM      2  C   UNL     1      16.580 118.643  25.120  1.00  0.00     0.339 C 
ATOM      3  C   UNL     1      16.307 117.738  22.931  1.00  0.00     0.199 C 
ATOM      4  C   UNL     1      15.772 116.394  23.484  1.00  0.00     0.180 C 
ATOM      5  O   UNL     1      17.174 118.400  23.848  1.00  0.00    -0.328 OA
ATOM      6  C   UNL     1      15.133 116.594  24.869  1.00  0.00     0.181 C 
ATOM      7  C   UNL     1      16.122 117.328  25.787  1.00  0.00     0.214 C 
BRANCH   3   8
ATOM      8  C   UNL     1      15.243 118.666  22.387  1.00  0.00     0.073 C 
ATOM      9  O   UNL     1      14.033 118.315  22.337  1.00  0.00    -0.547 OA
ATOM     10  O   UNL     1      15.614 119.905  21.875  1.00  0.00    -0.547 OA
ENDBRANCH   3   8
BRANCH   4  11
ATOM     11  O   UNL     1      16.843 115.485  23.575  1.00  0.00    -0.387 OA
ATOM     12  H   UNL     1      17.630 115.916  23.149  1.00  0.00     0.211 HD
ENDBRANCH   4  11
BRANCH   6  13
ATOM     13  O   UNL     1      14.796 115.350  25.433  1.00  0.00    -0.387 OA
ATOM     14  H   UNL     1      15.382 115.230  26.226  1.00  0.00     0.211 HD
ENDBRANCH   6  13
BRANCH   7  15
ATOM     15  O   UNL     1      15.525 117.593  27.030  1.00  0.00    -0.384 OA
ATOM     16  H   UNL     1      14.832 116.898  27.171  1.00  0.00     0.211 HD
ENDBRANCH   7  15
ENDBRANCH   1   2
BRANCH   1  17
ATOM     17  C   UNL     1      15.372 120.827  25.621  1.00  0.00     0.172 A 
ATOM     18  C   UNL     1      14.099 121.414  25.640  1.00  0.00     0.205 A 
ATOM     19  C   UNL     1      16.455 121.486  26.225  1.00  0.00     0.097 A 
ATOM     20  C   UNL     1      13.913 122.670  26.265  1.00  0.00     0.188 A 
ATOM     21  C   UNL     1      16.280 122.715  26.870  1.00  0.00     0.134 A 
ATOM     22  C   UNL     1      15.003 123.317  26.901  1.00  0.00     0.111 A 
ATOM     23  O   UNL     1      12.716 123.252  26.252  1.00  0.00    -0.452 OA
ATOM     24  C   UNL     1      14.759 124.555  27.532  1.00  0.00     0.197 A 
ATOM     25  C   UNL     1      12.454 124.417  26.837  1.00  0.00     0.138 A 
ATOM     26  C   UNL     1      13.477 125.101  27.504  1.00  0.00     0.100 A 
ATOM     27  O   UNL     1      15.677 125.186  28.122  1.00  0.00    -0.289 OA
BRANCH  18  28
ATOM     28  O   UNL     1      13.059 120.692  25.026  1.00  0.00    -0.490 OA
ATOM     29  C   UNL     1      12.552 120.911  23.713  1.00  0.00     0.278 C 
ENDBRANCH  18  28
BRANCH  21  30
ATOM     30  O   UNL     1      17.380 123.333  27.468  1.00  0.00    -0.507 OA
ATOM     31  H   UNL     1      18.080 123.823  26.925  1.00  0.00     0.293 HD
ENDBRANCH  21  30
BRANCH  25  32
ATOM     32  C   UNL     1      11.083 124.966  26.757  1.00  0.00     0.017 A 
ATOM     33  C   UNL     1      10.011 124.114  26.442  1.00  0.00     0.012 A 
ATOM     34  C   UNL     1      10.820 126.324  27.020  1.00  0.00     0.012 A 
ATOM     35  C   UNL     1       8.706 124.613  26.377  1.00  0.00     0.001 A 
ATOM     36  C   UNL     1       9.512 126.818  26.962  1.00  0.00     0.001 A 
ATOM     37  C   UNL     1       8.457 125.961  26.637  1.00  0.00     0.000 A 
ENDBRANCH  25  32
ENDBRANCH   1  17
TORSDOF 9
ENDMDL
