MODEL 1
REMARK VINA RESULT:    -4.413      0.000      0.000
REMARK INTER + INTRA:          -8.673
REMARK INTER:                  -6.993
REMARK INTRA:                  -1.680
REMARK UNBOUND:                -1.680
REMARK SMILES CCCCCCCCCCCC(=O)[O-]
REMARK SMILES IDX 7 1 8 2 9 3 10 4 11 5 12 6 13 7 14 8 6 9 5 10 4 11 3 12 2 13
REMARK SMILES IDX 1 14
REMARK H PARENT
REMARK Flexibility Score: inf
ROOT
ATOM      1  C   UNL     1     182.778 180.199 182.430  1.00  0.00     0.000 C 
ENDROOT
BRANCH   1   2
ATOM      2  C   UNL     1     182.363 179.399 181.185  1.00  0.00     0.000 C 
BRANCH   2   3
ATOM      3  C   UNL     1     180.905 179.687 180.809  1.00  0.00     0.000 C 
BRANCH   3   4
ATOM      4  C   UNL     1     180.340 180.849 181.640  1.00  0.00     0.006 C 
BRANCH   4   5
ATOM      5  C   UNL     1     179.329 181.690 180.849  1.00  0.00     0.053 C 
BRANCH   5   6
ATOM      6  C   UNL     1     178.764 182.803 181.675  1.00  0.00     0.041 C 
ATOM      7  O   UNL     1     177.531 183.061 181.633  1.00  0.00    -0.550 OA
ATOM      8  O   UNL     1     179.591 183.535 182.517  1.00  0.00    -0.550 OA
ENDBRANCH   5   6
ENDBRANCH   4   5
ENDBRANCH   3   4
ENDBRANCH   2   3
ENDBRANCH   1   2
BRANCH   1   9
ATOM      9  C   UNL     1     184.242 180.666 182.375  1.00  0.00     0.000 C 
BRANCH   9  10
ATOM     10  C   UNL     1     184.448 181.854 181.419  1.00  0.00    -0.000 C 
BRANCH  10  11
ATOM     11  C   UNL     1     183.373 182.941 181.590  1.00  0.00    -0.000 C 
BRANCH  11  12
ATOM     12  C   UNL     1     182.801 183.422 180.245  1.00  0.00    -0.000 C 
BRANCH  12  13
ATOM     13  C   UNL     1     183.185 182.497 179.078  1.00  0.00    -0.003 C 
ATOM     14  C   UNL     1     181.991 182.123 178.200  1.00  0.00     0.004 C 
ENDBRANCH  12  13
ENDBRANCH  11  12
ENDBRANCH  10  11
ENDBRANCH   9  10
ENDBRANCH   1   9
TORSDOF 10
ENDMDL
MODEL 2
REMARK VINA RESULT:    -4.403      2.762      4.968
REMARK INTER + INTRA:          -8.658
REMARK INTER:                  -6.976
REMARK INTRA:                  -1.682
REMARK UNBOUND:                -1.680
REMARK SMILES CCCCCCCCCCCC(=O)[O-]
REMARK SMILES IDX 7 1 8 2 9 3 10 4 11 5 12 6 13 7 14 8 6 9 5 10 4 11 3 12 2 13
REMARK SMILES IDX 1 14
REMARK H PARENT
REMARK Flexibility Score: inf
ROOT
ATOM      1  C   UNL     1     181.223 183.729 182.387  1.00  0.00     0.000 C 
ENDROOT
BRANCH   1   2
ATOM      2  C   UNL     1     181.639 184.641 181.224  1.00  0.00     0.000 C 
BRANCH   2   3
ATOM      3  C   UNL     1     183.066 184.323 180.760  1.00  0.00     0.000 C 
BRANCH   3   4
ATOM      4  C   UNL     1     183.714 183.262 181.661  1.00  0.00     0.006 C 
BRANCH   4   5
ATOM      5  C   UNL     1     184.477 182.202 180.853  1.00  0.00     0.053 C 
BRANCH   5   6
ATOM      6  C   UNL     1     185.106 181.172 181.739  1.00  0.00     0.041 C 
ATOM      7  O   UNL     1     184.394 180.501 182.533  1.00  0.00    -0.550 OA
ATOM      8  O   UNL     1     186.471 180.930 181.667  1.00  0.00    -0.550 OA
ENDBRANCH   5   6
ENDBRANCH   4   5
ENDBRANCH   3   4
ENDBRANCH   2   3
ENDBRANCH   1   2
BRANCH   1   9
ATOM      9  C   UNL     1     179.747 183.304 182.310  1.00  0.00     0.000 C 
BRANCH   9  10
ATOM     10  C   UNL     1     179.563 181.917 181.671  1.00  0.00    -0.000 C 
BRANCH  10  11
ATOM     11  C   UNL     1     180.844 181.067 181.728  1.00  0.00    -0.000 C 
BRANCH  11  12
ATOM     12  C   UNL     1     181.209 180.457 180.364  1.00  0.00    -0.000 C 
BRANCH  12  13
ATOM     13  C   UNL     1     180.667 181.283 179.186  1.00  0.00    -0.003 C 
ATOM     14  C   UNL     1     181.776 181.874 178.316  1.00  0.00     0.004 C 
ENDBRANCH  12  13
ENDBRANCH  11  12
ENDBRANCH  10  11
ENDBRANCH   9  10
ENDBRANCH   1   9
TORSDOF 10
ENDMDL
MODEL 3
REMARK VINA RESULT:    -4.210      1.378      3.323
REMARK INTER + INTRA:          -8.351
REMARK INTER:                  -6.911
REMARK INTRA:                  -1.440
REMARK UNBOUND:                -1.680
REMARK SMILES CCCCCCCCCCCC(=O)[O-]
REMARK SMILES IDX 7 1 8 2 9 3 10 4 11 5 12 6 13 7 14 8 6 9 5 10 4 11 3 12 2 13
REMARK SMILES IDX 1 14
REMARK H PARENT
REMARK Flexibility Score: inf
ROOT
ATOM      1  C   UNL     1     180.624 180.811 180.403  1.00  0.00     0.000 C 
ENDROOT
BRANCH   1   2
ATOM      2  C   UNL     1     181.634 181.306 179.357  1.00  0.00     0.000 C 
BRANCH   2   3
ATOM      3  C   UNL     1     182.057 182.751 179.644  1.00  0.00     0.000 C 
BRANCH   3   4
ATOM      4  C   UNL     1     181.031 183.458 180.542  1.00  0.00     0.006 C 
BRANCH   4   5
ATOM      5  C   UNL     1     181.626 183.860 181.898  1.00  0.00     0.053 C 
BRANCH   5   6
ATOM      6  C   UNL     1     180.726 183.484 183.034  1.00  0.00     0.041 C 
ATOM      7  O   UNL     1     181.215 183.108 184.133  1.00  0.00    -0.550 OA
ATOM      8  O   UNL     1     179.348 183.580 182.893  1.00  0.00    -0.550 OA
ENDBRANCH   5   6
ENDBRANCH   4   5
ENDBRANCH   3   4
ENDBRANCH   2   3
ENDBRANCH   1   2
BRANCH   1   9
ATOM      9  C   UNL     1     180.928 179.386 180.896  1.00  0.00     0.000 C 
BRANCH   9  10
ATOM     10  C   UNL     1     182.364 179.239 181.429  1.00  0.00    -0.000 C 
BRANCH  10  11
ATOM     11  C   UNL     1     182.679 180.237 182.557  1.00  0.00    -0.000 C 
BRANCH  11  12
ATOM     12  C   UNL     1     184.188 180.485 182.720  1.00  0.00    -0.000 C 
BRANCH  12  13
ATOM     13  C   UNL     1     184.681 181.682 181.891  1.00  0.00    -0.003 C 
ATOM     14  C   UNL     1     185.374 181.262 180.595  1.00  0.00     0.004 C 
ENDBRANCH  12  13
ENDBRANCH  11  12
ENDBRANCH  10  11
ENDBRANCH   9  10
ENDBRANCH   1   9
TORSDOF 10
ENDMDL
MODEL 4
REMARK VINA RESULT:    -4.187      1.270      3.377
REMARK INTER + INTRA:          -8.315
REMARK INTER:                  -6.881
REMARK INTRA:                  -1.433
REMARK UNBOUND:                -1.680
REMARK SMILES CCCCCCCCCCCC(=O)[O-]
REMARK SMILES IDX 7 1 8 2 9 3 10 4 11 5 12 6 13 7 14 8 6 9 5 10 4 11 3 12 2 13
REMARK SMILES IDX 1 14
REMARK H PARENT
REMARK Flexibility Score: inf
ROOT
ATOM      1  C   UNL     1     185.128 182.670 181.568  1.00  0.00     0.000 C 
ENDROOT
BRANCH   1   2
ATOM      2  C   UNL     1     183.938 183.630 181.423  1.00  0.00     0.000 C 
BRANCH   2   3
ATOM      3  C   UNL     1     183.048 183.228 180.241  1.00  0.00     0.000 C 
BRANCH   3   4
ATOM      4  C   UNL     1     181.568 183.498 180.548  1.00  0.00     0.006 C 
BRANCH   4   5
ATOM      5  C   UNL     1     181.383 184.366 181.801  1.00  0.00     0.053 C 
BRANCH   5   6
ATOM      6  C   UNL     1     180.522 183.690 182.823  1.00  0.00     0.041 C 
ATOM      7  O   UNL     1     181.032 183.246 183.886  1.00  0.00    -0.550 OA
ATOM      8  O   UNL     1     179.154 183.580 182.618  1.00  0.00    -0.550 OA
ENDBRANCH   5   6
ENDBRANCH   4   5
ENDBRANCH   3   4
ENDBRANCH   2   3
ENDBRANCH   1   2
BRANCH   1   9
ATOM      9  C   UNL     1     184.741 181.202 181.321  1.00  0.00     0.000 C 
BRANCH   9  10
ATOM     10  C   UNL     1     184.199 180.513 182.586  1.00  0.00    -0.000 C 
BRANCH  10  11
ATOM     11  C   UNL     1     182.680 180.280 182.526  1.00  0.00    -0.000 C 
BRANCH  11  12
ATOM     12  C   UNL     1     182.267 179.385 181.345  1.00  0.00    -0.000 C 
BRANCH  12  13
ATOM     13  C   UNL     1     180.988 179.880 180.651  1.00  0.00    -0.003 C 
ATOM     14  C   UNL     1     179.911 180.327 181.640  1.00  0.00     0.004 C 
ENDBRANCH  12  13
ENDBRANCH  11  12
ENDBRANCH  10  11
ENDBRANCH   9  10
ENDBRANCH   1   9
TORSDOF 10
ENDMDL
MODEL 5
REMARK VINA RESULT:    -4.177      1.169      3.105
REMARK INTER + INTRA:          -8.299
REMARK INTER:                  -6.628
REMARK INTRA:                  -1.671
REMARK UNBOUND:                -1.680
REMARK SMILES CCCCCCCCCCCC(=O)[O-]
REMARK SMILES IDX 7 1 8 2 9 3 10 4 11 5 12 6 13 7 14 8 6 9 5 10 4 11 3 12 2 13
REMARK SMILES IDX 1 14
REMARK H PARENT
REMARK Flexibility Score: inf
ROOT
ATOM      1  C   UNL     1     182.558 182.252 179.099  1.00  0.00     0.000 C 
ENDROOT
BRANCH   1   2
ATOM      2  C   UNL     1     181.296 182.806 179.779  1.00  0.00     0.000 C 
BRANCH   2   3
ATOM      3  C   UNL     1     181.641 183.980 180.703  1.00  0.00     0.000 C 
BRANCH   3   4
ATOM      4  C   UNL     1     180.996 183.802 182.086  1.00  0.00     0.006 C 
BRANCH   4   5
ATOM      5  C   UNL     1     179.935 182.692 182.093  1.00  0.00     0.053 C 
BRANCH   5   6
ATOM      6  C   UNL     1     178.586 183.214 182.477  1.00  0.00     0.041 C 
ATOM      7  O   UNL     1     178.457 183.951 183.491  1.00  0.00    -0.550 OA
ATOM      8  O   UNL     1     177.475 182.917 181.699  1.00  0.00    -0.550 OA
ENDBRANCH   5   6
ENDBRANCH   4   5
ENDBRANCH   3   4
ENDBRANCH   2   3
ENDBRANCH   1   2
BRANCH   1   9
ATOM      9  C   UNL     1     183.829 182.471 179.937  1.00  0.00     0.000 C 
BRANCH   9  10
ATOM     10  C   UNL     1     184.243 181.213 180.721  1.00  0.00    -0.000 C 
BRANCH  10  11
ATOM     11  C   UNL     1     183.779 181.253 182.187  1.00  0.00    -0.000 C 
BRANCH  11  12
ATOM     12  C   UNL     1     182.704 180.197 182.494  1.00  0.00    -0.000 C 
BRANCH  12  13
ATOM     13  C   UNL     1     182.351 179.342 181.266  1.00  0.00    -0.003 C 
ATOM     14  C   UNL     1     180.845 179.244 181.024  1.00  0.00     0.004 C 
ENDBRANCH  12  13
ENDBRANCH  11  12
ENDBRANCH  10  11
ENDBRANCH   9  10
ENDBRANCH   1   9
TORSDOF 10
ENDMDL
MODEL 6
REMARK VINA RESULT:    -4.175      2.449      4.451
REMARK INTER + INTRA:          -8.296
REMARK INTER:                  -6.708
REMARK INTRA:                  -1.588
REMARK UNBOUND:                -1.680
REMARK SMILES CCCCCCCCCCCC(=O)[O-]
REMARK SMILES IDX 7 1 8 2 9 3 10 4 11 5 12 6 13 7 14 8 6 9 5 10 4 11 3 12 2 13
REMARK SMILES IDX 1 14
REMARK H PARENT
REMARK Flexibility Score: inf
ROOT
ATOM      1  C   UNL     1     182.470 183.147 180.019  1.00  0.00     0.000 C 
ENDROOT
BRANCH   1   2
ATOM      2  C   UNL     1     181.907 182.105 179.041  1.00  0.00     0.000 C 
BRANCH   2   3
ATOM      3  C   UNL     1     181.403 180.865 179.790  1.00  0.00     0.000 C 
BRANCH   3   4
ATOM      4  C   UNL     1     182.558 180.139 180.495  1.00  0.00     0.006 C 
BRANCH   4   5
ATOM      5  C   UNL     1     182.269 179.896 181.983  1.00  0.00     0.053 C 
BRANCH   5   6
ATOM      6  C   UNL     1     183.236 180.625 182.863  1.00  0.00     0.041 C 
ATOM      7  O   UNL     1     184.324 181.051 182.392  1.00  0.00    -0.550 OA
ATOM      8  O   UNL     1     182.924 180.863 184.195  1.00  0.00    -0.550 OA
ENDBRANCH   5   6
ENDBRANCH   4   5
ENDBRANCH   3   4
ENDBRANCH   2   3
ENDBRANCH   1   2
BRANCH   1   9
ATOM      9  C   UNL     1     181.372 184.005 180.670  1.00  0.00     0.000 C 
BRANCH   9  10
ATOM     10  C   UNL     1     181.272 183.785 182.189  1.00  0.00    -0.000 C 
BRANCH  10  11
ATOM     11  C   UNL     1     179.953 183.109 182.601  1.00  0.00    -0.000 C 
BRANCH  11  12
ATOM     12  C   UNL     1     178.952 183.010 181.437  1.00  0.00    -0.000 C 
BRANCH  12  13
ATOM     13  C   UNL     1     177.907 181.903 181.652  1.00  0.00    -0.003 C 
ATOM     14  C   UNL     1     178.530 180.572 182.073  1.00  0.00     0.004 C 
ENDBRANCH  12  13
ENDBRANCH  11  12
ENDBRANCH  10  11
ENDBRANCH   9  10
ENDBRANCH   1   9
TORSDOF 10
ENDMDL
MODEL 7
REMARK VINA RESULT:    -4.171      1.363      3.491
REMARK INTER + INTRA:          -8.290
REMARK INTER:                  -6.781
REMARK INTRA:                  -1.509
REMARK UNBOUND:                -1.680
REMARK SMILES CCCCCCCCCCCC(=O)[O-]
REMARK SMILES IDX 7 1 8 2 9 3 10 4 11 5 12 6 13 7 14 8 6 9 5 10 4 11 3 12 2 13
REMARK SMILES IDX 1 14
REMARK H PARENT
REMARK Flexibility Score: inf
ROOT
ATOM      1  C   UNL     1     183.130 183.654 180.558  1.00  0.00     0.000 C 
ENDROOT
BRANCH   1   2
ATOM      2  C   UNL     1     181.641 184.024 180.624  1.00  0.00     0.000 C 
BRANCH   2   3
ATOM      3  C   UNL     1     181.194 184.247 182.073  1.00  0.00     0.000 C 
BRANCH   3   4
ATOM      4  C   UNL     1     180.145 183.207 182.493  1.00  0.00     0.006 C 
BRANCH   4   5
ATOM      5  C   UNL     1     179.342 182.677 181.297  1.00  0.00     0.053 C 
BRANCH   5   6
ATOM      6  C   UNL     1     177.931 182.347 181.677  1.00  0.00     0.041 C 
ATOM      7  O   UNL     1     177.103 183.270 181.899  1.00  0.00    -0.550 OA
ATOM      8  O   UNL     1     177.521 181.023 181.753  1.00  0.00    -0.550 OA
ENDBRANCH   5   6
ENDBRANCH   4   5
ENDBRANCH   3   4
ENDBRANCH   2   3
ENDBRANCH   1   2
BRANCH   1   9
ATOM      9  C   UNL     1     183.402 182.444 179.648  1.00  0.00     0.000 C 
BRANCH   9  10
ATOM     10  C   UNL     1     182.304 181.371 179.747  1.00  0.00    -0.000 C 
BRANCH  10  11
ATOM     11  C   UNL     1     182.737 180.162 180.594  1.00  0.00    -0.000 C 
BRANCH  11  12
ATOM     12  C   UNL     1     182.114 180.174 182.001  1.00  0.00    -0.000 C 
BRANCH  12  13
ATOM     13  C   UNL     1     183.091 180.686 183.072  1.00  0.00    -0.003 C 
ATOM     14  C   UNL     1     184.555 180.528 182.663  1.00  0.00     0.004 C 
ENDBRANCH  12  13
ENDBRANCH  11  12
ENDBRANCH  10  11
ENDBRANCH   9  10
ENDBRANCH   1   9
TORSDOF 10
ENDMDL
MODEL 8
REMARK VINA RESULT:    -4.164      3.103      4.913
REMARK INTER + INTRA:          -8.279
REMARK INTER:                  -6.745
REMARK INTRA:                  -1.533
REMARK UNBOUND:                -1.680
REMARK SMILES CCCCCCCCCCCC(=O)[O-]
REMARK SMILES IDX 7 1 8 2 9 3 10 4 11 5 12 6 13 7 14 8 6 9 5 10 4 11 3 12 2 13
REMARK SMILES IDX 1 14
REMARK H PARENT
REMARK Flexibility Score: inf
ROOT
ATOM      1  C   UNL     1     180.452 181.337 179.507  1.00  0.00     0.000 C 
ENDROOT
BRANCH   1   2
ATOM      2  C   UNL     1     181.923 181.253 179.941  1.00  0.00     0.000 C 
BRANCH   2   3
ATOM      3  C   UNL     1     182.062 180.497 181.267  1.00  0.00     0.000 C 
BRANCH   3   4
ATOM      4  C   UNL     1     183.442 180.737 181.897  1.00  0.00     0.006 C 
BRANCH   4   5
ATOM      5  C   UNL     1     184.405 181.446 180.933  1.00  0.00     0.053 C 
BRANCH   5   6
ATOM      6  C   UNL     1     185.696 181.807 181.601  1.00  0.00     0.041 C 
ATOM      7  O   UNL     1     186.562 180.920 181.825  1.00  0.00    -0.550 OA
ATOM      8  O   UNL     1     185.956 183.126 181.946  1.00  0.00    -0.550 OA
ENDBRANCH   5   6
ENDBRANCH   4   5
ENDBRANCH   3   4
ENDBRANCH   2   3
ENDBRANCH   1   2
BRANCH   1   9
ATOM      9  C   UNL     1     179.492 181.522 180.694  1.00  0.00     0.000 C 
BRANCH   9  10
ATOM     10  C   UNL     1     179.296 183.001 181.070  1.00  0.00    -0.000 C 
BRANCH  10  11
ATOM     11  C   UNL     1     179.810 183.324 182.483  1.00  0.00    -0.000 C 
BRANCH  11  12
ATOM     12  C   UNL     1     181.232 183.910 182.474  1.00  0.00    -0.000 C 
BRANCH  12  13
ATOM     13  C   UNL     1     181.539 184.689 181.185  1.00  0.00    -0.003 C 
ATOM     14  C   UNL     1     183.037 184.874 180.946  1.00  0.00     0.004 C 
ENDBRANCH  12  13
ENDBRANCH  11  12
ENDBRANCH  10  11
ENDBRANCH   9  10
ENDBRANCH   1   9
TORSDOF 10
ENDMDL
MODEL 9
REMARK VINA RESULT:    -4.137      3.170      5.320
REMARK INTER + INTRA:          -8.236
REMARK INTER:                  -6.837
REMARK INTRA:                  -1.399
REMARK UNBOUND:                -1.680
REMARK SMILES CCCCCCCCCCCC(=O)[O-]
REMARK SMILES IDX 7 1 8 2 9 3 10 4 11 5 12 6 13 7 14 8 6 9 5 10 4 11 3 12 2 13
REMARK SMILES IDX 1 14
REMARK H PARENT
REMARK Flexibility Score: inf
ROOT
ATOM      1  C   UNL     1     181.668 182.023 178.527  1.00  0.00     0.000 C 
ENDROOT
BRANCH   1   2
ATOM      2  C   UNL     1     182.918 182.070 179.418  1.00  0.00     0.000 C 
BRANCH   2   3
ATOM      3  C   UNL     1     183.066 183.442 180.085  1.00  0.00     0.000 C 
BRANCH   3   4
ATOM      4  C   UNL     1     183.648 183.309 181.500  1.00  0.00     0.006 C 
BRANCH   4   5
ATOM      5  C   UNL     1     184.306 181.941 181.730  1.00  0.00     0.053 C 
BRANCH   5   6
ATOM      6  C   UNL     1     185.800 182.033 181.715  1.00  0.00     0.041 C 
ATOM      7  O   UNL     1     186.367 183.153 181.819  1.00  0.00    -0.550 OA
ATOM      8  O   UNL     1     186.569 180.880 181.620  1.00  0.00    -0.550 OA
ENDBRANCH   5   6
ENDBRANCH   4   5
ENDBRANCH   3   4
ENDBRANCH   2   3
ENDBRANCH   1   2
BRANCH   1   9
ATOM      9  C   UNL     1     180.500 181.266 179.181  1.00  0.00     0.000 C 
BRANCH   9  10
ATOM     10  C   UNL     1     180.930 180.486 180.437  1.00  0.00    -0.000 C 
BRANCH  10  11
ATOM     11  C   UNL     1     180.019 180.764 181.644  1.00  0.00    -0.000 C 
BRANCH  11  12
ATOM     12  C   UNL     1     180.450 182.011 182.434  1.00  0.00    -0.000 C 
BRANCH  12  13
ATOM     13  C   UNL     1     179.564 183.232 182.136  1.00  0.00    -0.003 C 
ATOM     14  C   UNL     1     178.134 182.849 181.758  1.00  0.00     0.004 C 
ENDBRANCH  12  13
ENDBRANCH  11  12
ENDBRANCH  10  11
ENDBRANCH   9  10
ENDBRANCH   1   9
TORSDOF 10
ENDMDL
