MODEL 1
REMARK VINA RESULT:    -4.502      0.000      0.000
REMARK INTER + INTRA:          -7.415
REMARK INTER:                  -6.608
REMARK INTRA:                  -0.807
REMARK UNBOUND:                -0.807
REMARK SMILES O=C([O-])CCCCCCCC(=O)[O-]
REMARK SMILES IDX 7 1 6 2 5 3 4 4 2 5 1 6 3 7 8 8 9 9 10 10 11 11 12 12 13 13
REMARK H PARENT
REMARK Flexibility Score: inf
ROOT
ATOM      1  C   UNL     1     -27.642 -33.847 -13.137  1.00  0.00     0.000 C 
ENDROOT
BRANCH   1   2
ATOM      2  C   UNL     1     -27.596 -34.731 -11.881  1.00  0.00     0.000 C 
BRANCH   2   3
ATOM      3  C   UNL     1     -26.208 -34.687 -11.230  1.00  0.00     0.006 C 
BRANCH   3   4
ATOM      4  C   UNL     1     -25.129 -34.328 -12.257  1.00  0.00     0.053 C 
BRANCH   4   5
ATOM      5  C   UNL     1     -24.345 -35.542 -12.640  1.00  0.00     0.041 C 
ATOM      6  O   UNL     1     -23.100 -35.577 -12.453  1.00  0.00    -0.550 OA
ATOM      7  O   UNL     1     -24.980 -36.616 -13.250  1.00  0.00    -0.550 OA
ENDBRANCH   4   5
ENDBRANCH   3   4
ENDBRANCH   2   3
ENDBRANCH   1   2
BRANCH   1   8
ATOM      8  C   UNL     1     -28.599 -32.653 -12.986  1.00  0.00     0.000 C 
BRANCH   8   9
ATOM      9  C   UNL     1     -27.858 -31.317 -12.839  1.00  0.00     0.006 C 
BRANCH   9  10
ATOM     10  C   UNL     1     -27.559 -31.016 -11.366  1.00  0.00     0.053 C 
BRANCH  10  11
ATOM     11  C   UNL     1     -26.083 -30.998 -11.125  1.00  0.00     0.041 C 
ATOM     12  O   UNL     1     -25.620 -31.341 -10.005  1.00  0.00    -0.550 OA
ATOM     13  O   UNL     1     -25.214 -30.651 -12.152  1.00  0.00    -0.550 OA
ENDBRANCH  10  11
ENDBRANCH   9  10
ENDBRANCH   8   9
ENDBRANCH   1   8
TORSDOF 8
ENDMDL
MODEL 2
REMARK VINA RESULT:    -4.434      1.589      2.082
REMARK INTER + INTRA:          -7.314
REMARK INTER:                  -6.770
REMARK INTRA:                  -0.544
REMARK UNBOUND:                -0.807
REMARK SMILES O=C([O-])CCCCCCCC(=O)[O-]
REMARK SMILES IDX 7 1 6 2 5 3 4 4 2 5 1 6 3 7 8 8 9 9 10 10 11 11 12 12 13 13
REMARK H PARENT
REMARK Flexibility Score: inf
ROOT
ATOM      1  C   UNL     1     -26.720 -35.132 -13.389  1.00  0.00     0.000 C 
ENDROOT
BRANCH   1   2
ATOM      2  C   UNL     1     -26.177 -34.763 -12.000  1.00  0.00     0.000 C 
BRANCH   2   3
ATOM      3  C   UNL     1     -24.721 -34.292 -12.088  1.00  0.00     0.006 C 
BRANCH   3   4
ATOM      4  C   UNL     1     -23.816 -35.396 -12.642  1.00  0.00     0.053 C 
BRANCH   4   5
ATOM      5  C   UNL     1     -22.397 -34.929 -12.707  1.00  0.00     0.041 C 
ATOM      6  O   UNL     1     -22.096 -33.909 -13.381  1.00  0.00    -0.550 OA
ATOM      7  O   UNL     1     -21.398 -35.649 -12.065  1.00  0.00    -0.550 OA
ENDBRANCH   4   5
ENDBRANCH   3   4
ENDBRANCH   2   3
ENDBRANCH   1   2
BRANCH   1   8
ATOM      8  C   UNL     1     -27.915 -34.262 -13.809  1.00  0.00     0.000 C 
BRANCH   8   9
ATOM      9  C   UNL     1     -28.490 -33.444 -12.643  1.00  0.00     0.006 C 
BRANCH   9  10
ATOM     10  C   UNL     1     -28.461 -31.945 -12.960  1.00  0.00     0.053 C 
BRANCH  10  11
ATOM     11  C   UNL     1     -27.340 -31.276 -12.229  1.00  0.00     0.041 C 
ATOM     12  O   UNL     1     -27.423 -31.077 -10.988  1.00  0.00    -0.550 OA
ATOM     13  O   UNL     1     -26.182 -30.918 -12.908  1.00  0.00    -0.550 OA
ENDBRANCH  10  11
ENDBRANCH   9  10
ENDBRANCH   8   9
ENDBRANCH   1   8
TORSDOF 8
ENDMDL
MODEL 3
REMARK VINA RESULT:    -4.426      1.948      4.556
REMARK INTER + INTRA:          -7.302
REMARK INTER:                  -6.603
REMARK INTRA:                  -0.700
REMARK UNBOUND:                -0.807
REMARK SMILES O=C([O-])CCCCCCCC(=O)[O-]
REMARK SMILES IDX 7 1 6 2 5 3 4 4 2 5 1 6 3 7 8 8 9 9 10 10 11 11 12 12 13 13
REMARK H PARENT
REMARK Flexibility Score: inf
ROOT
ATOM      1  C   UNL     1     -25.781 -31.748 -10.715  1.00  0.00     0.000 C 
ENDROOT
BRANCH   1   2
ATOM      2  C   UNL     1     -27.024 -30.955 -11.149  1.00  0.00     0.000 C 
BRANCH   2   3
ATOM      3  C   UNL     1     -27.217 -31.028 -12.668  1.00  0.00     0.006 C 
BRANCH   3   4
ATOM      4  C   UNL     1     -28.491 -31.800 -13.025  1.00  0.00     0.053 C 
BRANCH   4   5
ATOM      5  C   UNL     1     -28.226 -33.272 -13.039  1.00  0.00     0.041 C 
ATOM      6  O   UNL     1     -28.438 -33.963 -12.009  1.00  0.00    -0.550 OA
ATOM      7  O   UNL     1     -27.697 -33.872 -14.174  1.00  0.00    -0.550 OA
ENDBRANCH   4   5
ENDBRANCH   3   4
ENDBRANCH   2   3
ENDBRANCH   1   2
BRANCH   1   8
ATOM      8  C   UNL     1     -24.605 -31.587 -11.691  1.00  0.00     0.000 C 
BRANCH   8   9
ATOM      9  C   UNL     1     -23.965 -32.929 -12.073  1.00  0.00     0.006 C 
BRANCH   9  10
ATOM     10  C   UNL     1     -24.948 -34.085 -11.857  1.00  0.00     0.053 C 
BRANCH  10  11
ATOM     11  C   UNL     1     -24.470 -35.317 -12.558  1.00  0.00     0.041 C 
ATOM     12  O   UNL     1     -25.278 -36.029 -13.211  1.00  0.00    -0.550 OA
ATOM     13  O   UNL     1     -23.122 -35.654 -12.533  1.00  0.00    -0.550 OA
ENDBRANCH  10  11
ENDBRANCH   9  10
ENDBRANCH   8   9
ENDBRANCH   1   8
TORSDOF 8
ENDMDL
MODEL 4
REMARK VINA RESULT:    -4.425      2.244      3.313
REMARK INTER + INTRA:          -7.301
REMARK INTER:                  -6.480
REMARK INTRA:                  -0.821
REMARK UNBOUND:                -0.807
REMARK SMILES O=C([O-])CCCCCCCC(=O)[O-]
REMARK SMILES IDX 7 1 6 2 5 3 4 4 2 5 1 6 3 7 8 8 9 9 10 10 11 11 12 12 13 13
REMARK H PARENT
REMARK Flexibility Score: inf
ROOT
ATOM      1  C   UNL     1     -23.572 -33.147 -12.230  1.00  0.00     0.000 C 
ENDROOT
BRANCH   1   2
ATOM      2  C   UNL     1     -23.663 -34.641 -12.572  1.00  0.00     0.000 C 
BRANCH   2   3
ATOM      3  C   UNL     1     -24.998 -35.232 -12.103  1.00  0.00     0.006 C 
BRANCH   3   4
ATOM      4  C   UNL     1     -25.878 -35.619 -13.296  1.00  0.00     0.053 C 
BRANCH   4   5
ATOM      5  C   UNL     1     -27.213 -34.952 -13.202  1.00  0.00     0.041 C 
ATOM      6  O   UNL     1     -27.798 -34.556 -14.244  1.00  0.00    -0.550 OA
ATOM      7  O   UNL     1     -27.790 -34.724 -11.960  1.00  0.00    -0.550 OA
ENDBRANCH   4   5
ENDBRANCH   3   4
ENDBRANCH   2   3
ENDBRANCH   1   2
BRANCH   1   8
ATOM      8  C   UNL     1     -24.788 -32.646 -11.433  1.00  0.00     0.000 C 
BRANCH   8   9
ATOM      9  C   UNL     1     -25.273 -31.266 -11.898  1.00  0.00     0.006 C 
BRANCH   9  10
ATOM     10  C   UNL     1     -26.340 -31.401 -12.991  1.00  0.00     0.053 C 
BRANCH  10  11
ATOM     11  C   UNL     1     -27.709 -31.235 -12.409  1.00  0.00     0.041 C 
ATOM     12  O   UNL     1     -27.850 -30.847 -11.220  1.00  0.00    -0.550 OA
ATOM     13  O   UNL     1     -28.830 -31.462 -13.197  1.00  0.00    -0.550 OA
ENDBRANCH  10  11
ENDBRANCH   9  10
ENDBRANCH   8   9
ENDBRANCH   1   8
TORSDOF 8
ENDMDL
MODEL 5
REMARK VINA RESULT:    -4.383      2.182      5.033
REMARK INTER + INTRA:          -7.239
REMARK INTER:                  -6.453
REMARK INTRA:                  -0.787
REMARK UNBOUND:                -0.807
REMARK SMILES O=C([O-])CCCCCCCC(=O)[O-]
REMARK SMILES IDX 7 1 6 2 5 3 4 4 2 5 1 6 3 7 8 8 9 9 10 10 11 11 12 12 13 13
REMARK H PARENT
REMARK Flexibility Score: inf
ROOT
ATOM      1  C   UNL     1     -23.555 -33.365 -12.370  1.00  0.00     0.000 C 
ENDROOT
BRANCH   1   2
ATOM      2  C   UNL     1     -24.642 -32.841 -11.421  1.00  0.00     0.000 C 
BRANCH   2   3
ATOM      3  C   UNL     1     -25.144 -31.463 -11.869  1.00  0.00     0.006 C 
BRANCH   3   4
ATOM      4  C   UNL     1     -26.242 -31.594 -12.929  1.00  0.00     0.053 C 
BRANCH   4   5
ATOM      5  C   UNL     1     -27.588 -31.357 -12.322  1.00  0.00     0.041 C 
ATOM      6  O   UNL     1     -27.684 -30.959 -11.131  1.00  0.00    -0.550 OA
ATOM      7  O   UNL     1     -28.737 -31.623 -13.054  1.00  0.00    -0.550 OA
ENDBRANCH   4   5
ENDBRANCH   3   4
ENDBRANCH   2   3
ENDBRANCH   1   2
BRANCH   1   8
ATOM      8  C   UNL     1     -23.583 -34.895 -12.515  1.00  0.00     0.000 C 
BRANCH   8   9
ATOM      9  C   UNL     1     -24.952 -35.498 -12.168  1.00  0.00     0.006 C 
BRANCH   9  10
ATOM     10  C   UNL     1     -25.815 -35.653 -13.425  1.00  0.00     0.053 C 
BRANCH  10  11
ATOM     11  C   UNL     1     -27.189 -35.112 -13.186  1.00  0.00     0.041 C 
ATOM     12  O   UNL     1     -28.006 -35.013 -14.140  1.00  0.00    -0.550 OA
ATOM     13  O   UNL     1     -27.586 -34.763 -11.902  1.00  0.00    -0.550 OA
ENDBRANCH  10  11
ENDBRANCH   9  10
ENDBRANCH   8   9
ENDBRANCH   1   8
TORSDOF 8
ENDMDL
MODEL 6
REMARK VINA RESULT:    -4.373      0.720      4.554
REMARK INTER + INTRA:          -7.225
REMARK INTER:                  -6.440
REMARK INTRA:                  -0.786
REMARK UNBOUND:                -0.807
REMARK SMILES O=C([O-])CCCCCCCC(=O)[O-]
REMARK SMILES IDX 7 1 6 2 5 3 4 4 2 5 1 6 3 7 8 8 9 9 10 10 11 11 12 12 13 13
REMARK H PARENT
REMARK Flexibility Score: inf
ROOT
ATOM      1  C   UNL     1     -27.645 -33.156 -13.147  1.00  0.00     0.000 C 
ENDROOT
BRANCH   1   2
ATOM      2  C   UNL     1     -28.616 -31.972 -13.030  1.00  0.00     0.000 C 
BRANCH   2   3
ATOM      3  C   UNL     1     -27.922 -30.752 -12.413  1.00  0.00     0.006 C 
BRANCH   3   4
ATOM      4  C   UNL     1     -26.427 -30.740 -12.749  1.00  0.00     0.053 C 
BRANCH   4   5
ATOM      5  C   UNL     1     -25.610 -30.623 -11.502  1.00  0.00     0.041 C 
ATOM      6  O   UNL     1     -24.497 -30.035 -11.528  1.00  0.00    -0.550 OA
ATOM      7  O   UNL     1     -26.054 -31.206 -10.322  1.00  0.00    -0.550 OA
ENDBRANCH   4   5
ENDBRANCH   3   4
ENDBRANCH   2   3
ENDBRANCH   1   2
BRANCH   1   8
ATOM      8  C   UNL     1     -27.841 -34.195 -12.031  1.00  0.00     0.000 C 
BRANCH   8   9
ATOM      9  C   UNL     1     -26.523 -34.584 -11.347  1.00  0.00     0.006 C 
BRANCH   9  10
ATOM     10  C   UNL     1     -25.323 -34.242 -12.237  1.00  0.00     0.053 C 
BRANCH  10  11
ATOM     11  C   UNL     1     -24.619 -35.489 -12.671  1.00  0.00     0.041 C 
ATOM     12  O   UNL     1     -25.229 -36.358 -13.348  1.00  0.00    -0.550 OA
ATOM     13  O   UNL     1     -23.275 -35.669 -12.370  1.00  0.00    -0.550 OA
ENDBRANCH  10  11
ENDBRANCH   9  10
ENDBRANCH   8   9
ENDBRANCH   1   8
TORSDOF 8
ENDMDL
MODEL 7
REMARK VINA RESULT:    -4.347      1.906      2.859
REMARK INTER + INTRA:          -7.187
REMARK INTER:                  -6.509
REMARK INTRA:                  -0.678
REMARK UNBOUND:                -0.807
REMARK SMILES O=C([O-])CCCCCCCC(=O)[O-]
REMARK SMILES IDX 7 1 6 2 5 3 4 4 2 5 1 6 3 7 8 8 9 9 10 10 11 11 12 12 13 13
REMARK H PARENT
REMARK Flexibility Score: inf
ROOT
ATOM      1  C   UNL     1     -25.562 -31.289 -10.877  1.00  0.00     0.000 C 
ENDROOT
BRANCH   1   2
ATOM      2  C   UNL     1     -24.829 -31.637 -12.181  1.00  0.00     0.000 C 
BRANCH   2   3
ATOM      3  C   UNL     1     -24.007 -32.922 -12.022  1.00  0.00     0.006 C 
BRANCH   3   4
ATOM      4  C   UNL     1     -24.918 -34.146 -11.888  1.00  0.00     0.053 C 
BRANCH   4   5
ATOM      5  C   UNL     1     -24.308 -35.331 -12.566  1.00  0.00     0.041 C 
ATOM      6  O   UNL     1     -23.058 -35.484 -12.570  1.00  0.00    -0.550 OA
ATOM      7  O   UNL     1     -25.115 -36.241 -13.236  1.00  0.00    -0.550 OA
ENDBRANCH   4   5
ENDBRANCH   3   4
ENDBRANCH   2   3
ENDBRANCH   1   2
BRANCH   1   8
ATOM      8  C   UNL     1     -27.052 -30.982 -11.099  1.00  0.00     0.000 C 
BRANCH   8   9
ATOM      9  C   UNL     1     -27.414 -30.850 -12.585  1.00  0.00     0.006 C 
BRANCH   9  10
ATOM     10  C   UNL     1     -28.628 -31.719 -12.931  1.00  0.00     0.053 C 
BRANCH  10  11
ATOM     11  C   UNL     1     -28.245 -33.164 -12.967  1.00  0.00     0.041 C 
ATOM     12  O   UNL     1     -28.543 -33.924 -12.008  1.00  0.00    -0.550 OA
ATOM     13  O   UNL     1     -27.602 -33.686 -14.083  1.00  0.00    -0.550 OA
ENDBRANCH  10  11
ENDBRANCH   9  10
ENDBRANCH   8   9
ENDBRANCH   1   8
TORSDOF 8
ENDMDL
MODEL 8
REMARK VINA RESULT:    -4.316      1.728      3.589
REMARK INTER + INTRA:          -7.142
REMARK INTER:                  -6.246
REMARK INTRA:                  -0.896
REMARK UNBOUND:                -0.807
REMARK SMILES O=C([O-])CCCCCCCC(=O)[O-]
REMARK SMILES IDX 7 1 6 2 5 3 4 4 2 5 1 6 3 7 8 8 9 9 10 10 11 11 12 12 13 13
REMARK H PARENT
REMARK Flexibility Score: inf
ROOT
ATOM      1  C   UNL     1     -27.472 -30.735 -12.440  1.00  0.00     0.000 C 
ENDROOT
BRANCH   1   2
ATOM      2  C   UNL     1     -27.214 -31.128 -10.977  1.00  0.00     0.000 C 
BRANCH   2   3
ATOM      3  C   UNL     1     -25.714 -31.309 -10.714  1.00  0.00     0.006 C 
BRANCH   3   4
ATOM      4  C   UNL     1     -24.961 -31.620 -12.010  1.00  0.00     0.053 C 
BRANCH   4   5
ATOM      5  C   UNL     1     -23.696 -32.362 -11.718  1.00  0.00     0.041 C 
ATOM      6  O   UNL     1     -22.833 -31.863 -10.948  1.00  0.00    -0.550 OA
ATOM      7  O   UNL     1     -23.447 -33.581 -12.333  1.00  0.00    -0.550 OA
ENDBRANCH   4   5
ENDBRANCH   3   4
ENDBRANCH   2   3
ENDBRANCH   1   2
BRANCH   1   8
ATOM      8  C   UNL     1     -28.564 -31.592 -13.099  1.00  0.00     0.000 C 
BRANCH   8   9
ATOM      9  C   UNL     1     -28.496 -33.066 -12.676  1.00  0.00     0.006 C 
BRANCH   9  10
ATOM     10  C   UNL     1     -27.554 -33.855 -13.592  1.00  0.00     0.053 C 
BRANCH  10  11
ATOM     11  C   UNL     1     -26.702 -34.787 -12.789  1.00  0.00     0.041 C 
ATOM     12  O   UNL     1     -25.945 -35.611 -13.367  1.00  0.00    -0.550 OA
ATOM     13  O   UNL     1     -26.706 -34.712 -11.402  1.00  0.00    -0.550 OA
ENDBRANCH  10  11
ENDBRANCH   9  10
ENDBRANCH   8   9
ENDBRANCH   1   8
TORSDOF 8
ENDMDL
MODEL 9
REMARK VINA RESULT:    -4.132      1.643      2.781
REMARK INTER + INTRA:          -6.871
REMARK INTER:                  -6.226
REMARK INTRA:                  -0.645
REMARK UNBOUND:                -0.807
REMARK SMILES O=C([O-])CCCCCCCC(=O)[O-]
REMARK SMILES IDX 7 1 6 2 5 3 4 4 2 5 1 6 3 7 8 8 9 9 10 10 11 11 12 12 13 13
REMARK H PARENT
REMARK Flexibility Score: inf
ROOT
ATOM      1  C   UNL     1     -27.485 -30.831 -12.806  1.00  0.00     0.000 C 
ENDROOT
BRANCH   1   2
ATOM      2  C   UNL     1     -28.691 -31.735 -13.103  1.00  0.00     0.000 C 
BRANCH   2   3
ATOM      3  C   UNL     1     -28.301 -33.216 -13.017  1.00  0.00     0.006 C 
BRANCH   3   4
ATOM      4  C   UNL     1     -26.791 -33.399 -13.198  1.00  0.00     0.053 C 
BRANCH   4   5
ATOM      5  C   UNL     1     -26.309 -34.584 -12.423  1.00  0.00     0.041 C 
ATOM      6  O   UNL     1     -25.635 -35.482 -12.992  1.00  0.00    -0.550 OA
ATOM      7  O   UNL     1     -26.647 -34.722 -11.083  1.00  0.00    -0.550 OA
ENDBRANCH   4   5
ENDBRANCH   3   4
ENDBRANCH   2   3
ENDBRANCH   1   2
BRANCH   1   8
ATOM      8  C   UNL     1     -27.623 -30.078 -11.473  1.00  0.00     0.000 C 
BRANCH   8   9
ATOM      9  C   UNL     1     -26.286 -29.934 -10.733  1.00  0.00     0.006 C 
BRANCH   9  10
ATOM     10  C   UNL     1     -25.725 -31.307 -10.345  1.00  0.00     0.053 C 
BRANCH  10  11
ATOM     11  C   UNL     1     -24.229 -31.283 -10.358  1.00  0.00     0.041 C 
ATOM     12  O   UNL     1     -23.589 -32.048 -11.128  1.00  0.00    -0.550 OA
ATOM     13  O   UNL     1     -23.540 -30.382  -9.555  1.00  0.00    -0.550 OA
ENDBRANCH  10  11
ENDBRANCH   9  10
ENDBRANCH   8   9
ENDBRANCH   1   8
TORSDOF 8
ENDMDL
