MODEL 1
REMARK VINA RESULT:    -4.982      0.000      0.000
REMARK INTER + INTRA:          -5.465
REMARK INTER:                  -5.419
REMARK INTRA:                  -0.046
REMARK UNBOUND:                -0.046
REMARK SMILES COc1cc2ccc(=O)oc2cc1O
REMARK SMILES IDX 3 1 13 2 12 3 11 4 5 5 4 6 6 7 7 8 8 9 9 10 10 11 2 12 1 13
REMARK SMILES IDX 14 14
REMARK H PARENT 14 15
REMARK Flexibility Score: inf
ROOT
ATOM      1  C   UNL     1      10.747 -18.146   7.261  1.00  0.00     0.161 A 
ATOM      2  C   UNL     1      10.552 -19.410   6.681  1.00  0.00     0.161 A 
ATOM      3  C   UNL     1       9.307 -20.047   6.776  1.00  0.00     0.098 A 
ATOM      4  C   UNL     1       8.248 -19.429   7.446  1.00  0.00     0.142 A 
ATOM      5  C   UNL     1       8.435 -18.160   8.032  1.00  0.00     0.022 A 
ATOM      6  C   UNL     1       9.680 -17.522   7.939  1.00  0.00     0.062 A 
ATOM      7  C   UNL     1       7.356 -17.567   8.696  1.00  0.00     0.019 A 
ATOM      8  C   UNL     1       6.138 -18.242   8.761  1.00  0.00     0.094 A 
ATOM      9  C   UNL     1       6.027 -19.499   8.158  1.00  0.00     0.336 A 
ATOM     10  O   UNL     1       4.935 -20.124   8.206  1.00  0.00    -0.246 OA
ATOM     11  O   UNL     1       7.068 -20.039   7.532  1.00  0.00    -0.423 OA
ENDROOT
BRANCH   1  12
ATOM     12  O   UNL     1      12.010 -17.545   7.143  1.00  0.00    -0.493 OA
ATOM     13  C   UNL     1      12.437 -16.411   7.890  1.00  0.00     0.278 C 
ENDBRANCH   1  12
BRANCH   2  14
ATOM     14  O   UNL     1      11.607 -20.028   6.012  1.00  0.00    -0.504 OA
ATOM     15  H   UNL     1      12.247 -20.650   6.491  1.00  0.00     0.293 HD
ENDBRANCH   2  14
TORSDOF 2
ENDMDL
MODEL 2
REMARK VINA RESULT:    -4.528      1.877      2.831
REMARK INTER + INTRA:          -4.970
REMARK INTER:                  -4.907
REMARK INTRA:                  -0.064
REMARK UNBOUND:                -0.046
REMARK SMILES COc1cc2ccc(=O)oc2cc1O
REMARK SMILES IDX 3 1 13 2 12 3 11 4 5 5 4 6 6 7 7 8 8 9 9 10 10 11 2 12 1 13
REMARK SMILES IDX 14 14
REMARK H PARENT 14 15
REMARK Flexibility Score: inf
ROOT
ATOM      1  C   UNL     1      12.322 -16.534   7.979  1.00  0.00     0.161 A 
ATOM      2  C   UNL     1      12.389 -17.499   8.997  1.00  0.00     0.161 A 
ATOM      3  C   UNL     1      11.344 -18.418   9.171  1.00  0.00     0.098 A 
ATOM      4  C   UNL     1      10.228 -18.383   8.331  1.00  0.00     0.142 A 
ATOM      5  C   UNL     1      10.152 -17.417   7.306  1.00  0.00     0.022 A 
ATOM      6  C   UNL     1      11.195 -16.497   7.132  1.00  0.00     0.062 A 
ATOM      7  C   UNL     1       9.022 -17.407   6.483  1.00  0.00     0.019 A 
ATOM      8  C   UNL     1       8.011 -18.344   6.696  1.00  0.00     0.094 A 
ATOM      9  C   UNL     1       8.155 -19.271   7.733  1.00  0.00     0.336 A 
ATOM     10  O   UNL     1       7.253 -20.125   7.942  1.00  0.00    -0.246 OA
ATOM     11  O   UNL     1       9.240 -19.259   8.501  1.00  0.00    -0.423 OA
ENDROOT
BRANCH   1  12
ATOM     12  O   UNL     1      13.390 -15.633   7.842  1.00  0.00    -0.493 OA
ATOM     13  C   UNL     1      14.302 -15.625   6.750  1.00  0.00     0.278 C 
ENDBRANCH   1  12
BRANCH   2  14
ATOM     14  O   UNL     1      13.501 -17.535   9.836  1.00  0.00    -0.504 OA
ATOM     15  H   UNL     1      13.763 -16.738  10.405  1.00  0.00     0.293 HD
ENDBRANCH   2  14
TORSDOF 2
ENDMDL
MODEL 3
REMARK VINA RESULT:    -4.202      1.964      5.505
REMARK INTER + INTRA:          -4.616
REMARK INTER:                  -4.717
REMARK INTRA:                   0.100
REMARK UNBOUND:                -0.046
REMARK SMILES COc1cc2ccc(=O)oc2cc1O
REMARK SMILES IDX 3 1 13 2 12 3 11 4 5 5 4 6 6 7 7 8 8 9 9 10 10 11 2 12 1 13
REMARK SMILES IDX 14 14
REMARK H PARENT 14 15
REMARK Flexibility Score: inf
ROOT
ATOM      1  C   UNL     1       9.217 -18.940   8.162  1.00  0.00     0.161 A 
ATOM      2  C   UNL     1       9.062 -18.032   7.101  1.00  0.00     0.161 A 
ATOM      3  C   UNL     1      10.061 -17.088   6.827  1.00  0.00     0.098 A 
ATOM      4  C   UNL     1      11.221 -17.042   7.605  1.00  0.00     0.142 A 
ATOM      5  C   UNL     1      11.384 -17.949   8.673  1.00  0.00     0.022 A 
ATOM      6  C   UNL     1      10.386 -18.894   8.949  1.00  0.00     0.062 A 
ATOM      7  C   UNL     1      12.555 -17.878   9.433  1.00  0.00     0.019 A 
ATOM      8  C   UNL     1      13.520 -16.921   9.119  1.00  0.00     0.094 A 
ATOM      9  C   UNL     1      13.288 -16.054   8.047  1.00  0.00     0.336 A 
ATOM     10  O   UNL     1      14.146 -15.183   7.747  1.00  0.00    -0.246 OA
ATOM     11  O   UNL     1      12.165 -16.143   7.339  1.00  0.00    -0.423 OA
ENDROOT
BRANCH   1  12
ATOM     12  O   UNL     1       8.191 -19.868   8.401  1.00  0.00    -0.493 OA
ATOM     13  C   UNL     1       6.925 -19.543   8.966  1.00  0.00     0.278 C 
ENDBRANCH   1  12
BRANCH   2  14
ATOM     14  O   UNL     1       7.906 -18.077   6.324  1.00  0.00    -0.504 OA
ATOM     15  H   UNL     1       7.497 -18.957   6.031  1.00  0.00     0.293 HD
ENDBRANCH   2  14
TORSDOF 2
ENDMDL
MODEL 4
REMARK VINA RESULT:    -3.337      1.904      2.926
REMARK INTER + INTRA:          -3.676
REMARK INTER:                  -3.631
REMARK INTRA:                  -0.045
REMARK UNBOUND:                -0.046
REMARK SMILES COc1cc2ccc(=O)oc2cc1O
REMARK SMILES IDX 3 1 13 2 12 3 11 4 5 5 4 6 6 7 7 8 8 9 9 10 10 11 2 12 1 13
REMARK SMILES IDX 14 14
REMARK H PARENT 14 15
REMARK Flexibility Score: inf
ROOT
ATOM      1  C   UNL     1      12.308 -17.192   8.588  1.00  0.00     0.161 A 
ATOM      2  C   UNL     1      11.717 -16.400   7.591  1.00  0.00     0.161 A 
ATOM      3  C   UNL     1      10.469 -16.748   7.058  1.00  0.00     0.098 A 
ATOM      4  C   UNL     1       9.800 -17.887   7.515  1.00  0.00     0.142 A 
ATOM      5  C   UNL     1      10.386 -18.689   8.516  1.00  0.00     0.022 A 
ATOM      6  C   UNL     1      11.635 -18.342   9.050  1.00  0.00     0.062 A 
ATOM      7  C   UNL     1       9.692 -19.822   8.953  1.00  0.00     0.019 A 
ATOM      8  C   UNL     1       8.452 -20.125   8.391  1.00  0.00     0.094 A 
ATOM      9  C   UNL     1       7.934 -19.283   7.402  1.00  0.00     0.336 A 
ATOM     10  O   UNL     1       6.816 -19.539   6.882  1.00  0.00    -0.246 OA
ATOM     11  O   UNL     1       8.614 -18.211   7.005  1.00  0.00    -0.423 OA
ENDROOT
BRANCH   1  12
ATOM     12  O   UNL     1      13.560 -16.806   9.093  1.00  0.00    -0.493 OA
ATOM     13  C   UNL     1      14.262 -17.496  10.122  1.00  0.00     0.278 C 
ENDBRANCH   1  12
BRANCH   2  14
ATOM     14  O   UNL     1      12.383 -15.264   7.134  1.00  0.00    -0.504 OA
ATOM     15  H   UNL     1      11.894 -14.524   6.642  1.00  0.00     0.293 HD
ENDBRANCH   2  14
TORSDOF 2
ENDMDL
MODEL 5
REMARK VINA RESULT:    -3.277      2.355      5.316
REMARK INTER + INTRA:          -3.610
REMARK INTER:                  -3.586
REMARK INTRA:                  -0.024
REMARK UNBOUND:                -0.046
REMARK SMILES COc1cc2ccc(=O)oc2cc1O
REMARK SMILES IDX 3 1 13 2 12 3 11 4 5 5 4 6 6 7 7 8 8 9 9 10 10 11 2 12 1 13
REMARK SMILES IDX 14 14
REMARK H PARENT 14 15
REMARK Flexibility Score: inf
ROOT
ATOM      1  C   UNL     1       9.158 -18.225   7.099  1.00  0.00     0.161 A 
ATOM      2  C   UNL     1       9.343 -19.145   8.143  1.00  0.00     0.161 A 
ATOM      3  C   UNL     1      10.488 -19.080   8.949  1.00  0.00     0.098 A 
ATOM      4  C   UNL     1      11.456 -18.098   8.721  1.00  0.00     0.142 A 
ATOM      5  C   UNL     1      11.279 -17.170   7.674  1.00  0.00     0.022 A 
ATOM      6  C   UNL     1      10.134 -17.234   6.867  1.00  0.00     0.062 A 
ATOM      7  C   UNL     1      12.265 -16.199   7.470  1.00  0.00     0.019 A 
ATOM      8  C   UNL     1      13.385 -16.176   8.300  1.00  0.00     0.094 A 
ATOM      9  C   UNL     1      13.494 -17.130   9.318  1.00  0.00     0.336 A 
ATOM     10  O   UNL     1      14.497 -17.126  10.078  1.00  0.00    -0.246 OA
ATOM     11  O   UNL     1      12.541 -18.042   9.490  1.00  0.00    -0.423 OA
ENDROOT
BRANCH   1  12
ATOM     12  O   UNL     1       7.997 -18.327   6.316  1.00  0.00    -0.493 OA
ATOM     13  C   UNL     1       7.872 -19.151   5.163  1.00  0.00     0.278 C 
ENDBRANCH   1  12
BRANCH   2  14
ATOM     14  O   UNL     1       8.379 -20.125   8.372  1.00  0.00    -0.504 OA
ATOM     15  H   UNL     1       8.464 -20.783   9.139  1.00  0.00     0.293 HD
ENDBRANCH   2  14
TORSDOF 2
ENDMDL
MODEL 6
REMARK VINA RESULT:    -3.218      1.347      2.489
REMARK INTER + INTRA:          -3.546
REMARK INTER:                  -3.500
REMARK INTRA:                  -0.045
REMARK UNBOUND:                -0.046
REMARK SMILES COc1cc2ccc(=O)oc2cc1O
REMARK SMILES IDX 3 1 13 2 12 3 11 4 5 5 4 6 6 7 7 8 8 9 9 10 10 11 2 12 1 13
REMARK SMILES IDX 14 14
REMARK H PARENT 14 15
REMARK Flexibility Score: inf
ROOT
ATOM      1  C   UNL     1      10.308 -18.830   7.189  1.00  0.00     0.161 A 
ATOM      2  C   UNL     1      10.156 -17.765   8.091  1.00  0.00     0.161 A 
ATOM      3  C   UNL     1       8.905 -17.494   8.662  1.00  0.00     0.098 A 
ATOM      4  C   UNL     1       7.797 -18.282   8.339  1.00  0.00     0.142 A 
ATOM      5  C   UNL     1       7.941 -19.354   7.434  1.00  0.00     0.022 A 
ATOM      6  C   UNL     1       9.191 -19.626   6.861  1.00  0.00     0.062 A 
ATOM      7  C   UNL     1       6.814 -20.125   7.131  1.00  0.00     0.019 A 
ATOM      8  C   UNL     1       5.592 -19.815   7.726  1.00  0.00     0.094 A 
ATOM      9  C   UNL     1       5.525 -18.737   8.614  1.00  0.00     0.336 A 
ATOM     10  O   UNL     1       4.431 -18.441   9.163  1.00  0.00    -0.246 OA
ATOM     11  O   UNL     1       6.613 -18.020   8.886  1.00  0.00    -0.423 OA
ENDROOT
BRANCH   1  12
ATOM     12  O   UNL     1      11.579 -19.064   6.640  1.00  0.00    -0.493 OA
ATOM     13  C   UNL     1      11.863 -20.052   5.655  1.00  0.00     0.278 C 
ENDBRANCH   1  12
BRANCH   2  14
ATOM     14  O   UNL     1      11.260 -16.977   8.414  1.00  0.00    -0.504 OA
ATOM     15  H   UNL     1      12.085 -17.373   8.850  1.00  0.00     0.293 HD
ENDBRANCH   2  14
TORSDOF 2
ENDMDL
MODEL 7
REMARK VINA RESULT:    -2.226      1.303      4.750
REMARK INTER + INTRA:          -2.467
REMARK INTER:                  -2.410
REMARK INTRA:                  -0.057
REMARK UNBOUND:                -0.046
REMARK SMILES COc1cc2ccc(=O)oc2cc1O
REMARK SMILES IDX 3 1 13 2 12 3 11 4 5 5 4 6 6 7 7 8 8 9 9 10 10 11 2 12 1 13
REMARK SMILES IDX 14 14
REMARK H PARENT 14 15
REMARK Flexibility Score: inf
ROOT
ATOM      1  C   UNL     1       6.757 -17.931   8.443  1.00  0.00     0.161 A 
ATOM      2  C   UNL     1       6.580 -19.216   7.907  1.00  0.00     0.161 A 
ATOM      3  C   UNL     1       7.662 -19.901   7.338  1.00  0.00     0.098 A 
ATOM      4  C   UNL     1       8.929 -19.312   7.301  1.00  0.00     0.142 A 
ATOM      5  C   UNL     1       9.116 -18.021   7.837  1.00  0.00     0.022 A 
ATOM      6  C   UNL     1       8.035 -17.334   8.406  1.00  0.00     0.062 A 
ATOM      7  C   UNL     1      10.395 -17.458   7.785  1.00  0.00     0.019 A 
ATOM      8  C   UNL     1      11.439 -18.181   7.209  1.00  0.00     0.094 A 
ATOM      9  C   UNL     1      11.178 -19.456   6.697  1.00  0.00     0.336 A 
ATOM     10  O   UNL     1      12.107 -20.125   6.173  1.00  0.00    -0.246 OA
ATOM     11  O   UNL     1       9.952 -19.968   6.760  1.00  0.00    -0.423 OA
ENDROOT
BRANCH   1  12
ATOM     12  O   UNL     1       5.645 -17.281   9.002  1.00  0.00    -0.493 OA
ATOM     13  C   UNL     1       5.203 -15.980   8.634  1.00  0.00     0.278 C 
ENDBRANCH   1  12
BRANCH   2  14
ATOM     14  O   UNL     1       5.317 -19.806   7.943  1.00  0.00    -0.504 OA
ATOM     15  H   UNL     1       4.611 -19.591   7.248  1.00  0.00     0.293 HD
ENDBRANCH   2  14
TORSDOF 2
ENDMDL
