MODEL 1
REMARK VINA RESULT:    -3.905      0.000      0.000
REMARK INTER + INTRA:          -5.847
REMARK INTER:                  -5.503
REMARK INTRA:                  -0.344
REMARK UNBOUND:                -0.344
REMARK SMILES CCCCCCCCC(=O)[O-]
REMARK SMILES IDX 6 1 7 2 8 3 9 4 10 5 11 6 5 7 4 8 3 9 2 10 1 11
REMARK H PARENT
REMARK Flexibility Score: inf
ROOT
ATOM      1  C   UNL     1      11.217 -10.252  14.331  1.00  0.00     0.000 C 
ENDROOT
BRANCH   1   2
ATOM      2  C   UNL     1      10.864 -10.394  12.837  1.00  0.00     0.006 C 
BRANCH   2   3
ATOM      3  C   UNL     1      10.550  -9.066  12.130  1.00  0.00     0.053 C 
BRANCH   3   4
ATOM      4  C   UNL     1       9.424  -9.205  11.152  1.00  0.00     0.041 C 
ATOM      5  O   UNL     1       9.480  -8.631  10.033  1.00  0.00    -0.550 OA
ATOM      6  O   UNL     1       8.328  -9.999  11.464  1.00  0.00    -0.550 OA
ENDBRANCH   3   4
ENDBRANCH   2   3
ENDBRANCH   1   2
BRANCH   1   7
ATOM      7  C   UNL     1      10.745 -11.413  15.226  1.00  0.00     0.000 C 
BRANCH   7   8
ATOM      8  C   UNL     1      11.587 -11.645  16.496  1.00  0.00    -0.000 C 
BRANCH   8   9
ATOM      9  C   UNL     1      12.674 -10.587  16.757  1.00  0.00    -0.000 C 
BRANCH   9  10
ATOM     10  C   UNL     1      12.518  -9.899  18.121  1.00  0.00    -0.003 C 
ATOM     11  C   UNL     1      11.531  -8.737  18.040  1.00  0.00     0.004 C 
ENDBRANCH   9  10
ENDBRANCH   8   9
ENDBRANCH   7   8
ENDBRANCH   1   7
TORSDOF 7
ENDMDL
MODEL 2
REMARK VINA RESULT:    -3.795      0.938      1.665
REMARK INTER + INTRA:          -5.692
REMARK INTER:                  -5.475
REMARK INTRA:                  -0.216
REMARK UNBOUND:                -0.344
REMARK SMILES CCCCCCCCC(=O)[O-]
REMARK SMILES IDX 6 1 7 2 8 3 9 4 10 5 11 6 5 7 4 8 3 9 2 10 1 11
REMARK H PARENT
REMARK Flexibility Score: inf
ROOT
ATOM      1  C   UNL     1      10.672 -10.642  14.031  1.00  0.00     0.000 C 
ENDROOT
BRANCH   1   2
ATOM      2  C   UNL     1      10.985 -10.384  12.543  1.00  0.00     0.006 C 
BRANCH   2   3
ATOM      3  C   UNL     1      10.496  -9.024  12.019  1.00  0.00     0.053 C 
BRANCH   3   4
ATOM      4  C   UNL     1       9.359  -9.173  11.056  1.00  0.00     0.041 C 
ATOM      5  O   UNL     1       8.349  -9.859  11.366  1.00  0.00    -0.550 OA
ATOM      6  O   UNL     1       9.399  -8.526   9.828  1.00  0.00    -0.550 OA
ENDBRANCH   3   4
ENDBRANCH   2   3
ENDBRANCH   1   2
BRANCH   1   7
ATOM      7  C   UNL     1      11.902 -10.688  14.958  1.00  0.00     0.000 C 
BRANCH   7   8
ATOM      8  C   UNL     1      11.587 -10.877  16.455  1.00  0.00    -0.000 C 
BRANCH   8   9
ATOM      9  C   UNL     1      12.278  -9.874  17.396  1.00  0.00    -0.000 C 
BRANCH   9  10
ATOM     10  C   UNL     1      13.770 -10.176  17.595  1.00  0.00    -0.003 C 
ATOM     11  C   UNL     1      13.970 -11.519  18.292  1.00  0.00     0.004 C 
ENDBRANCH   9  10
ENDBRANCH   8   9
ENDBRANCH   7   8
ENDBRANCH   1   7
TORSDOF 7
ENDMDL
MODEL 3
REMARK VINA RESULT:    -3.696      2.392      3.899
REMARK INTER + INTRA:          -5.553
REMARK INTER:                  -5.161
REMARK INTRA:                  -0.392
REMARK UNBOUND:                -0.344
REMARK SMILES CCCCCCCCC(=O)[O-]
REMARK SMILES IDX 6 1 7 2 8 3 9 4 10 5 11 6 5 7 4 8 3 9 2 10 1 11
REMARK H PARENT
REMARK Flexibility Score: inf
ROOT
ATOM      1  C   UNL     1       9.013  -9.286  11.375  1.00  0.00     0.000 C 
ENDROOT
BRANCH   1   2
ATOM      2  C   UNL     1       8.221 -10.575  11.673  1.00  0.00     0.006 C 
BRANCH   2   3
ATOM      3  C   UNL     1       6.969 -10.364  12.539  1.00  0.00     0.053 C 
BRANCH   3   4
ATOM      4  C   UNL     1       6.771 -11.482  13.517  1.00  0.00     0.041 C 
ATOM      5  O   UNL     1       6.030 -12.457  13.225  1.00  0.00    -0.550 OA
ATOM      6  O   UNL     1       7.434 -11.463  14.737  1.00  0.00    -0.550 OA
ENDBRANCH   3   4
ENDBRANCH   2   3
ENDBRANCH   1   2
BRANCH   1   7
ATOM      7  C   UNL     1      10.478  -9.296  11.851  1.00  0.00     0.000 C 
BRANCH   7   8
ATOM      8  C   UNL     1      10.879 -10.509  12.714  1.00  0.00    -0.000 C 
BRANCH   8   9
ATOM      9  C   UNL     1      11.262 -10.173  14.167  1.00  0.00    -0.000 C 
BRANCH   9  10
ATOM     10  C   UNL     1      10.867 -11.278  15.157  1.00  0.00    -0.003 C 
ATOM     11  C   UNL     1      11.348 -10.950  16.567  1.00  0.00     0.004 C 
ENDBRANCH   9  10
ENDBRANCH   8   9
ENDBRANCH   7   8
ENDBRANCH   1   7
TORSDOF 7
ENDMDL
MODEL 4
REMARK VINA RESULT:    -3.562      4.056      6.364
REMARK INTER + INTRA:          -5.363
REMARK INTER:                  -5.152
REMARK INTRA:                  -0.211
REMARK UNBOUND:                -0.344
REMARK SMILES CCCCCCCCC(=O)[O-]
REMARK SMILES IDX 6 1 7 2 8 3 9 4 10 5 11 6 5 7 4 8 3 9 2 10 1 11
REMARK H PARENT
REMARK Flexibility Score: inf
ROOT
ATOM      1  C   UNL     1      11.648 -10.564  15.257  1.00  0.00     0.000 C 
ENDROOT
BRANCH   1   2
ATOM      2  C   UNL     1      11.844 -11.701  16.279  1.00  0.00     0.006 C 
BRANCH   2   3
ATOM      3  C   UNL     1      13.297 -11.897  16.740  1.00  0.00     0.053 C 
BRANCH   3   4
ATOM      4  C   UNL     1      13.637 -11.018  17.905  1.00  0.00     0.041 C 
ATOM      5  O   UNL     1      14.460 -10.075  17.769  1.00  0.00    -0.550 OA
ATOM      6  O   UNL     1      13.018 -11.220  19.131  1.00  0.00    -0.550 OA
ENDBRANCH   3   4
ENDBRANCH   2   3
ENDBRANCH   1   2
BRANCH   1   7
ATOM      7  C   UNL     1      10.626 -10.857  14.142  1.00  0.00     0.000 C 
BRANCH   7   8
ATOM      8  C   UNL     1      11.065 -10.439  12.724  1.00  0.00    -0.000 C 
BRANCH   8   9
ATOM      9  C   UNL     1      10.605  -9.036  12.289  1.00  0.00    -0.000 C 
BRANCH   9  10
ATOM     10  C   UNL     1       9.635  -9.071  11.100  1.00  0.00    -0.003 C 
ATOM     11  C   UNL     1       8.407  -9.920  11.418  1.00  0.00     0.004 C 
ENDBRANCH   9  10
ENDBRANCH   8   9
ENDBRANCH   7   8
ENDBRANCH   1   7
TORSDOF 7
ENDMDL
MODEL 5
REMARK VINA RESULT:    -3.370      3.368      5.664
REMARK INTER + INTRA:          -5.093
REMARK INTER:                  -4.612
REMARK INTRA:                  -0.481
REMARK UNBOUND:                -0.344
REMARK SMILES CCCCCCCCC(=O)[O-]
REMARK SMILES IDX 6 1 7 2 8 3 9 4 10 5 11 6 5 7 4 8 3 9 2 10 1 11
REMARK H PARENT
REMARK Flexibility Score: inf
ROOT
ATOM      1  C   UNL     1      10.500  -9.547  12.584  1.00  0.00     0.000 C 
ENDROOT
BRANCH   1   2
ATOM      2  C   UNL     1      11.494 -10.203  13.564  1.00  0.00     0.006 C 
BRANCH   2   3
ATOM      3  C   UNL     1      10.832 -10.994  14.703  1.00  0.00     0.053 C 
BRANCH   3   4
ATOM      4  C   UNL     1      11.603 -10.883  15.983  1.00  0.00     0.041 C 
ATOM      5  O   UNL     1      12.134 -11.904  16.495  1.00  0.00    -0.550 OA
ATOM      6  O   UNL     1      11.765  -9.646  16.591  1.00  0.00    -0.550 OA
ENDBRANCH   3   4
ENDBRANCH   2   3
ENDBRANCH   1   2
BRANCH   1   7
ATOM      7  C   UNL     1       9.560 -10.526  11.856  1.00  0.00     0.000 C 
BRANCH   7   8
ATOM      8  C   UNL     1       8.225  -9.920  11.379  1.00  0.00    -0.000 C 
BRANCH   8   9
ATOM      9  C   UNL     1       7.085  -9.967  12.412  1.00  0.00    -0.000 C 
BRANCH   9  10
ATOM     10  C   UNL     1       6.756 -11.395  12.870  1.00  0.00    -0.003 C 
ATOM     11  C   UNL     1       7.122 -11.599  14.338  1.00  0.00     0.004 C 
ENDBRANCH   9  10
ENDBRANCH   8   9
ENDBRANCH   7   8
ENDBRANCH   1   7
TORSDOF 7
ENDMDL
MODEL 6
REMARK VINA RESULT:    -3.238      4.398      6.705
REMARK INTER + INTRA:          -4.907
REMARK INTER:                  -4.673
REMARK INTRA:                  -0.234
REMARK UNBOUND:                -0.344
REMARK SMILES CCCCCCCCC(=O)[O-]
REMARK SMILES IDX 6 1 7 2 8 3 9 4 10 5 11 6 5 7 4 8 3 9 2 10 1 11
REMARK H PARENT
REMARK Flexibility Score: inf
ROOT
ATOM      1  C   UNL     1      12.179 -11.150  16.672  1.00  0.00     0.000 C 
ENDROOT
BRANCH   1   2
ATOM      2  C   UNL     1      11.699 -12.611  16.566  1.00  0.00     0.006 C 
BRANCH   2   3
ATOM      3  C   UNL     1      12.767 -13.657  16.923  1.00  0.00     0.053 C 
BRANCH   3   4
ATOM      4  C   UNL     1      12.715 -14.037  18.371  1.00  0.00     0.041 C 
ATOM      5  O   UNL     1      13.656 -14.694  18.889  1.00  0.00    -0.550 OA
ATOM      6  O   UNL     1      11.643 -13.635  19.157  1.00  0.00    -0.550 OA
ENDBRANCH   3   4
ENDBRANCH   2   3
ENDBRANCH   1   2
BRANCH   1   7
ATOM      7  C   UNL     1      11.627 -10.202  15.590  1.00  0.00     0.000 C 
BRANCH   7   8
ATOM      8  C   UNL     1      10.979 -10.899  14.377  1.00  0.00    -0.000 C 
BRANCH   8   9
ATOM      9  C   UNL     1      11.130 -10.149  13.041  1.00  0.00    -0.000 C 
BRANCH   9  10
ATOM     10  C   UNL     1       9.842 -10.161  12.204  1.00  0.00    -0.003 C 
ATOM     11  C   UNL     1       9.846  -9.034  11.175  1.00  0.00     0.004 C 
ENDBRANCH   9  10
ENDBRANCH   8   9
ENDBRANCH   7   8
ENDBRANCH   1   7
TORSDOF 7
ENDMDL
MODEL 7
REMARK VINA RESULT:    -3.115      8.609     10.142
REMARK INTER + INTRA:          -4.733
REMARK INTER:                  -4.241
REMARK INTRA:                  -0.493
REMARK UNBOUND:                -0.344
REMARK SMILES CCCCCCCCC(=O)[O-]
REMARK SMILES IDX 6 1 7 2 8 3 9 4 10 5 11 6 5 7 4 8 3 9 2 10 1 11
REMARK H PARENT
REMARK Flexibility Score: inf
ROOT
ATOM      1  C   UNL     1      14.510 -14.403   7.571  1.00  0.00     0.000 C 
ENDROOT
BRANCH   1   2
ATOM      2  C   UNL     1      13.128 -14.818   8.114  1.00  0.00     0.006 C 
BRANCH   2   3
ATOM      3  C   UNL     1      13.088 -16.221   8.741  1.00  0.00     0.053 C 
BRANCH   3   4
ATOM      4  C   UNL     1      11.687 -16.658   9.042  1.00  0.00     0.041 C 
ATOM      5  O   UNL     1      11.249 -17.745   8.582  1.00  0.00    -0.550 OA
ATOM      6  O   UNL     1      10.877 -15.881   9.859  1.00  0.00    -0.550 OA
ENDBRANCH   3   4
ENDBRANCH   2   3
ENDBRANCH   1   2
BRANCH   1   7
ATOM      7  C   UNL     1      14.821 -12.896   7.662  1.00  0.00     0.000 C 
BRANCH   7   8
ATOM      8  C   UNL     1      14.965 -12.174   6.308  1.00  0.00    -0.000 C 
BRANCH   8   9
ATOM      9  C   UNL     1      14.841 -13.083   5.071  1.00  0.00    -0.000 C 
BRANCH   9  10
ATOM     10  C   UNL     1      13.635 -12.727   4.191  1.00  0.00    -0.003 C 
ATOM     11  C   UNL     1      12.380 -13.459   4.657  1.00  0.00     0.004 C 
ENDBRANCH   9  10
ENDBRANCH   8   9
ENDBRANCH   7   8
ENDBRANCH   1   7
TORSDOF 7
ENDMDL
MODEL 8
REMARK VINA RESULT:    -3.089      7.850      9.453
REMARK INTER + INTRA:          -4.698
REMARK INTER:                  -4.339
REMARK INTRA:                  -0.359
REMARK UNBOUND:                -0.344
REMARK SMILES CCCCCCCCC(=O)[O-]
REMARK SMILES IDX 6 1 7 2 8 3 9 4 10 5 11 6 5 7 4 8 3 9 2 10 1 11
REMARK H PARENT
REMARK Flexibility Score: inf
ROOT
ATOM      1  C   UNL     1      10.526  -3.374  15.846  1.00  0.00     0.000 C 
ENDROOT
BRANCH   1   2
ATOM      2  C   UNL     1      11.419  -3.777  17.036  1.00  0.00     0.006 C 
BRANCH   2   3
ATOM      3  C   UNL     1      12.832  -3.173  17.003  1.00  0.00     0.053 C 
BRANCH   3   4
ATOM      4  C   UNL     1      13.490  -3.217  18.348  1.00  0.00     0.041 C 
ATOM      5  O   UNL     1      13.726  -4.322  18.904  1.00  0.00    -0.550 OA
ATOM      6  O   UNL     1      13.875  -2.038  18.972  1.00  0.00    -0.550 OA
ENDBRANCH   3   4
ENDBRANCH   2   3
ENDBRANCH   1   2
BRANCH   1   7
ATOM      7  C   UNL     1      10.170  -1.876  15.775  1.00  0.00     0.000 C 
BRANCH   7   8
ATOM      8  C   UNL     1       8.791  -1.559  15.165  1.00  0.00    -0.000 C 
BRANCH   8   9
ATOM      9  C   UNL     1       8.151  -2.713  14.373  1.00  0.00    -0.000 C 
BRANCH   9  10
ATOM     10  C   UNL     1       6.687  -2.962  14.763  1.00  0.00    -0.003 C 
ATOM     11  C   UNL     1       6.593  -3.764  16.058  1.00  0.00     0.004 C 
ENDBRANCH   9  10
ENDBRANCH   8   9
ENDBRANCH   7   8
ENDBRANCH   1   7
TORSDOF 7
ENDMDL
MODEL 9
REMARK VINA RESULT:    -3.010      6.046      7.348
REMARK INTER + INTRA:          -4.586
REMARK INTER:                  -3.981
REMARK INTRA:                  -0.605
REMARK UNBOUND:                -0.344
REMARK SMILES CCCCCCCCC(=O)[O-]
REMARK SMILES IDX 6 1 7 2 8 3 9 4 10 5 11 6 5 7 4 8 3 9 2 10 1 11
REMARK H PARENT
REMARK Flexibility Score: inf
ROOT
ATOM      1  C   UNL     1      12.838  -3.519  16.958  1.00  0.00     0.000 C 
ENDROOT
BRANCH   1   2
ATOM      2  C   UNL     1      11.544  -2.709  16.743  1.00  0.00     0.006 C 
BRANCH   2   3
ATOM      3  C   UNL     1      10.493  -3.413  15.870  1.00  0.00     0.053 C 
BRANCH   3   4
ATOM      4  C   UNL     1       9.615  -2.434  15.153  1.00  0.00     0.041 C 
ATOM      5  O   UNL     1       8.562  -2.824  14.583  1.00  0.00    -0.550 OA
ATOM      6  O   UNL     1       9.943  -1.085  15.144  1.00  0.00    -0.550 OA
ENDBRANCH   3   4
ENDBRANCH   2   3
ENDBRANCH   1   2
BRANCH   1   7
ATOM      7  C   UNL     1      13.519  -3.311  18.325  1.00  0.00     0.000 C 
BRANCH   7   8
ATOM      8  C   UNL     1      13.449  -4.517  19.281  1.00  0.00    -0.000 C 
BRANCH   8   9
ATOM      9  C   UNL     1      12.025  -4.986  19.633  1.00  0.00    -0.000 C 
BRANCH   9  10
ATOM     10  C   UNL     1      11.711  -6.389  19.096  1.00  0.00    -0.003 C 
ATOM     11  C   UNL     1      10.520  -6.359  18.142  1.00  0.00     0.004 C 
ENDBRANCH   9  10
ENDBRANCH   8   9
ENDBRANCH   7   8
ENDBRANCH   1   7
TORSDOF 7
ENDMDL
