MODEL 1
REMARK VINA RESULT:    36.438      0.000      0.000
REMARK INTER + INTRA:          43.795
REMARK INTER:                  43.894
REMARK INTRA:                  -0.099
REMARK UNBOUND:                -0.099
REMARK SMILES O=c1c(O)c(-c2ccc(O)c(O)c2)oc2cc(O)cc(O)c12
REMARK SMILES IDX 5 1 3 2 2 3 1 4 22 5 20 6 19 7 17 8 16 9 15 10 14 11 6 12
REMARK SMILES IDX 7 13 8 14 9 15 13 16 11 17 10 18 12 20 4 22 21 24 18 26
REMARK H PARENT 10 19 12 21 4 23 21 25 18 27
REMARK Flexibility Score: inf
ROOT
ATOM      1  C   UNL     1      10.905   1.746  18.750  1.00  0.00     0.180 A 
ATOM      2  C   UNL     1      10.108   0.600  18.923  1.00  0.00     0.208 A 
ATOM      3  C   UNL     1       9.756  -0.161  17.798  1.00  0.00     0.238 A 
ATOM      4  O   UNL     1       9.088  -1.215  17.966  1.00  0.00    -0.285 OA
ATOM      5  C   UNL     1      10.189   0.241  16.511  1.00  0.00     0.111 A 
ATOM      6  C   UNL     1       9.856  -0.432  15.297  1.00  0.00     0.134 A 
ATOM      7  C   UNL     1      10.448  -0.021  14.096  1.00  0.00     0.093 A 
ATOM      8  C   UNL     1      11.306   1.076  14.054  1.00  0.00     0.123 A 
ATOM      9  C   UNL     1      11.591   1.779  15.225  1.00  0.00     0.094 A 
ATOM     10  C   UNL     1      11.045   1.371  16.445  1.00  0.00     0.146 A 
ATOM     11  O   UNL     1      11.349   2.060  17.539  1.00  0.00    -0.452 OA
ENDROOT
BRANCH   1  12
ATOM     12  C   UNL     1      11.297   2.611  19.885  1.00  0.00     0.025 A 
ATOM     13  C   UNL     1      10.870   3.949  19.915  1.00  0.00     0.016 A 
ATOM     14  C   UNL     1      11.210   4.777  20.987  1.00  0.00     0.051 A 
ATOM     15  C   UNL     1      11.969   4.276  22.053  1.00  0.00     0.157 A 
ATOM     16  C   UNL     1      12.041   2.107  20.968  1.00  0.00     0.062 A 
ATOM     17  C   UNL     1      12.382   2.937  22.045  1.00  0.00     0.158 A 
BRANCH  15  18
ATOM     18  O   UNL     1      12.313   5.099  23.124  1.00  0.00    -0.504 OA
ATOM     19  H   UNL     1      12.274   6.109  23.049  1.00  0.00     0.293 HD
ENDBRANCH  15  18
BRANCH  17  20
ATOM     20  O   UNL     1      13.125   2.438  23.113  1.00  0.00    -0.504 OA
ATOM     21  H   UNL     1      12.834   2.580  24.073  1.00  0.00     0.293 HD
ENDBRANCH  17  20
ENDBRANCH   1  12
BRANCH   2  22
ATOM     22  O   UNL     1       9.711   0.208  20.205  1.00  0.00    -0.502 OA
ATOM     23  H   UNL     1       9.564  -0.762  20.456  1.00  0.00     0.293 HD
ENDBRANCH   2  22
BRANCH   6  24
ATOM     24  O   UNL     1       8.937  -1.482  15.213  1.00  0.00    -0.507 OA
ATOM     25  H   UNL     1       8.439  -1.744  14.377  1.00  0.00     0.293 HD
ENDBRANCH   6  24
BRANCH   8  26
ATOM     26  O   UNL     1      11.864   1.467  12.839  1.00  0.00    -0.508 OA
ATOM     27  H   UNL     1      11.698   0.943  11.987  1.00  0.00     0.293 HD
ENDBRANCH   8  26
TORSDOF 6
ENDMDL
MODEL 2
REMARK VINA RESULT:    36.673      0.598      1.443
REMARK INTER + INTRA:          44.077
REMARK INTER:                  44.317
REMARK INTRA:                  -0.240
REMARK UNBOUND:                -0.099
REMARK SMILES O=c1c(O)c(-c2ccc(O)c(O)c2)oc2cc(O)cc(O)c12
REMARK SMILES IDX 5 1 3 2 2 3 1 4 22 5 20 6 19 7 17 8 16 9 15 10 14 11 6 12
REMARK SMILES IDX 7 13 8 14 9 15 13 16 11 17 10 18 12 20 4 22 21 24 18 26
REMARK H PARENT 10 19 12 21 4 23 21 25 18 27
REMARK Flexibility Score: inf
ROOT
ATOM      1  C   UNL     1      10.867   1.705  18.817  1.00  0.00     0.180 A 
ATOM      2  C   UNL     1      10.065   0.565  19.003  1.00  0.00     0.208 A 
ATOM      3  C   UNL     1       9.713  -0.210  17.887  1.00  0.00     0.238 A 
ATOM      4  O   UNL     1       9.039  -1.258  18.068  1.00  0.00    -0.285 OA
ATOM      5  C   UNL     1      10.153   0.172  16.597  1.00  0.00     0.111 A 
ATOM      6  C   UNL     1       9.821  -0.516  15.391  1.00  0.00     0.134 A 
ATOM      7  C   UNL     1      10.419  -0.125  14.186  1.00  0.00     0.093 A 
ATOM      8  C   UNL     1      11.283   0.968  14.133  1.00  0.00     0.123 A 
ATOM      9  C   UNL     1      11.567   1.685  15.295  1.00  0.00     0.094 A 
ATOM     10  C   UNL     1      11.015   1.297  16.519  1.00  0.00     0.146 A 
ATOM     11  O   UNL     1      11.318   1.999  17.604  1.00  0.00    -0.452 OA
ENDROOT
BRANCH   1  12
ATOM     12  C   UNL     1      11.259   2.584  19.942  1.00  0.00     0.025 A 
ATOM     13  C   UNL     1      12.246   2.154  20.844  1.00  0.00     0.016 A 
ATOM     14  C   UNL     1      12.647   2.976  21.900  1.00  0.00     0.051 A 
ATOM     15  C   UNL     1      12.079   4.247  22.059  1.00  0.00     0.157 A 
ATOM     16  C   UNL     1      10.708   3.869  20.094  1.00  0.00     0.062 A 
ATOM     17  C   UNL     1      11.111   4.696  21.152  1.00  0.00     0.158 A 
BRANCH  15  18
ATOM     18  O   UNL     1      12.475   5.070  23.112  1.00  0.00    -0.504 OA
ATOM     19  H   UNL     1      13.454   5.228  23.321  1.00  0.00     0.293 HD
ENDBRANCH  15  18
BRANCH  17  20
ATOM     20  O   UNL     1      10.558   5.966  21.306  1.00  0.00    -0.504 OA
ATOM     21  H   UNL     1      10.199   6.283  22.198  1.00  0.00     0.293 HD
ENDBRANCH  17  20
ENDBRANCH   1  12
BRANCH   2  22
ATOM     22  O   UNL     1       9.661   0.193  20.289  1.00  0.00    -0.502 OA
ATOM     23  H   UNL     1      10.276   0.253  21.091  1.00  0.00     0.293 HD
ENDBRANCH   2  22
BRANCH   6  24
ATOM     24  O   UNL     1       8.898  -1.563  15.318  1.00  0.00    -0.507 OA
ATOM     25  H   UNL     1       8.646  -2.049  14.472  1.00  0.00     0.293 HD
ENDBRANCH   6  24
BRANCH   8  26
ATOM     26  O   UNL     1      11.847   1.339  12.914  1.00  0.00    -0.508 OA
ATOM     27  H   UNL     1      12.523   0.750  12.442  1.00  0.00     0.293 HD
ENDBRANCH   8  26
TORSDOF 6
ENDMDL
