MODEL 1
REMARK VINA RESULT:    -2.858      0.000      0.000
REMARK INTER + INTRA:          -2.858
REMARK INTER:                  -2.858
REMARK INTRA:                   0.000
REMARK UNBOUND:                 0.000
REMARK SMILES CC(=O)[O-]
REMARK SMILES IDX 1 1 2 2 3 3 4 4
REMARK H PARENT
REMARK Flexibility Score: inf
ROOT
ATOM      1  C   UNL     1      -1.899  -0.784   8.221  1.00  0.00     0.063 C 
ATOM      2  C   UNL     1      -1.359  -2.079   7.717  1.00  0.00     0.038 C 
ATOM      3  O   UNL     1      -1.620  -3.151   8.322  1.00  0.00    -0.550 OA
ATOM      4  O   UNL     1      -0.521  -2.100   6.609  1.00  0.00    -0.550 OA
ENDROOT
TORSDOF 0
ENDMDL
MODEL 2
REMARK VINA RESULT:    -2.849      1.340      1.356
REMARK INTER + INTRA:          -2.849
REMARK INTER:                  -2.849
REMARK INTRA:                   0.000
REMARK UNBOUND:                 0.000
REMARK SMILES CC(=O)[O-]
REMARK SMILES IDX 1 1 2 2 3 3 4 4
REMARK H PARENT
REMARK Flexibility Score: inf
ROOT
ATOM      1  C   UNL     1      -0.495  -1.061   8.325  1.00  0.00     0.063 C 
ATOM      2  C   UNL     1      -1.069  -2.252   7.634  1.00  0.00     0.038 C 
ATOM      3  O   UNL     1      -2.245  -2.218   7.187  1.00  0.00    -0.550 OA
ATOM      4  O   UNL     1      -0.325  -3.420   7.528  1.00  0.00    -0.550 OA
ENDROOT
TORSDOF 0
ENDMDL
MODEL 3
REMARK VINA RESULT:    -2.813      1.464      1.514
REMARK INTER + INTRA:          -2.813
REMARK INTER:                  -2.813
REMARK INTRA:                   0.000
REMARK UNBOUND:                 0.000
REMARK SMILES CC(=O)[O-]
REMARK SMILES IDX 1 1 2 2 3 3 4 4
REMARK H PARENT
REMARK Flexibility Score: inf
ROOT
ATOM      1  C   UNL     1      -0.173  -1.170   8.210  1.00  0.00     0.063 C 
ATOM      2  C   UNL     1      -0.884  -2.369   7.679  1.00  0.00     0.038 C 
ATOM      3  O   UNL     1      -0.279  -3.467   7.572  1.00  0.00    -0.550 OA
ATOM      4  O   UNL     1      -2.201  -2.263   7.251  1.00  0.00    -0.550 OA
ENDROOT
TORSDOF 0
ENDMDL
MODEL 4
REMARK VINA RESULT:    -2.706     19.647     19.884
REMARK INTER + INTRA:          -2.706
REMARK INTER:                  -2.706
REMARK INTRA:                   0.000
REMARK UNBOUND:                 0.000
REMARK SMILES CC(=O)[O-]
REMARK SMILES IDX 1 1 2 2 3 3 4 4
REMARK H PARENT
REMARK Flexibility Score: inf
ROOT
ATOM      1  C   UNL     1     -12.695  -3.752  -9.359  1.00  0.00     0.063 C 
ATOM      2  C   UNL     1     -12.434  -2.470  -8.643  1.00  0.00     0.038 C 
ATOM      3  O   UNL     1     -12.630  -2.388  -7.403  1.00  0.00    -0.550 OA
ATOM      4  O   UNL     1     -12.024  -1.348  -9.352  1.00  0.00    -0.550 OA
ENDROOT
TORSDOF 0
ENDMDL
MODEL 5
REMARK VINA RESULT:    -2.690     21.185     21.478
REMARK INTER + INTRA:          -2.690
REMARK INTER:                  -2.690
REMARK INTRA:                   0.000
REMARK UNBOUND:                 0.000
REMARK SMILES CC(=O)[O-]
REMARK SMILES IDX 1 1 2 2 3 3 4 4
REMARK H PARENT
REMARK Flexibility Score: inf
ROOT
ATOM      1  C   UNL     1     -13.023   8.015  -7.147  1.00  0.00     0.063 C 
ATOM      2  C   UNL     1     -13.926   6.827  -7.151  1.00  0.00     0.038 C 
ATOM      3  O   UNL     1     -13.494   5.706  -7.526  1.00  0.00    -0.550 OA
ATOM      4  O   UNL     1     -15.261   6.967  -6.792  1.00  0.00    -0.550 OA
ENDROOT
TORSDOF 0
ENDMDL
MODEL 6
REMARK VINA RESULT:    -2.522     16.020     16.424
REMARK INTER + INTRA:          -2.522
REMARK INTER:                  -2.522
REMARK INTRA:                   0.000
REMARK UNBOUND:                 0.000
REMARK SMILES CC(=O)[O-]
REMARK SMILES IDX 1 1 2 2 3 3 4 4
REMARK H PARENT
REMARK Flexibility Score: inf
ROOT
ATOM      1  C   UNL     1     -15.126   3.953   9.333  1.00  0.00     0.063 C 
ATOM      2  C   UNL     1     -16.347   4.480   8.657  1.00  0.00     0.038 C 
ATOM      3  O   UNL     1     -17.043   5.369   9.213  1.00  0.00    -0.550 OA
ATOM      4  O   UNL     1     -16.748   3.953   7.436  1.00  0.00    -0.550 OA
ENDROOT
TORSDOF 0
ENDMDL
MODEL 7
REMARK VINA RESULT:    -2.491     15.825     16.330
REMARK INTER + INTRA:          -2.491
REMARK INTER:                  -2.491
REMARK INTRA:                   0.000
REMARK UNBOUND:                 0.000
REMARK SMILES CC(=O)[O-]
REMARK SMILES IDX 1 1 2 2 3 3 4 4
REMARK H PARENT
REMARK Flexibility Score: inf
ROOT
ATOM      1  C   UNL     1      -0.336   0.427  -9.749  1.00  0.00     0.063 C 
ATOM      2  C   UNL     1      -0.642   0.340  -8.292  1.00  0.00     0.038 C 
ATOM      3  O   UNL     1      -1.834   0.396  -7.892  1.00  0.00    -0.550 OA
ATOM      4  O   UNL     1       0.391   0.250  -7.368  1.00  0.00    -0.550 OA
ENDROOT
TORSDOF 0
ENDMDL
MODEL 8
REMARK VINA RESULT:    -2.482     16.047     16.552
REMARK INTER + INTRA:          -2.482
REMARK INTER:                  -2.482
REMARK INTRA:                   0.000
REMARK UNBOUND:                 0.000
REMARK SMILES CC(=O)[O-]
REMARK SMILES IDX 1 1 2 2 3 3 4 4
REMARK H PARENT
REMARK Flexibility Score: inf
ROOT
ATOM      1  C   UNL     1      -1.388   1.021  -8.315  1.00  0.00     0.063 C 
ATOM      2  C   UNL     1      -0.938  -0.340  -8.728  1.00  0.00     0.038 C 
ATOM      3  O   UNL     1      -1.065  -1.314  -7.942  1.00  0.00    -0.550 OA
ATOM      4  O   UNL     1      -0.327  -0.525  -9.962  1.00  0.00    -0.550 OA
ENDROOT
TORSDOF 0
ENDMDL
MODEL 9
REMARK VINA RESULT:    -2.423     15.759     16.220
REMARK INTER + INTRA:          -2.423
REMARK INTER:                  -2.423
REMARK INTRA:                   0.000
REMARK UNBOUND:                 0.000
REMARK SMILES CC(=O)[O-]
REMARK SMILES IDX 1 1 2 2 3 3 4 4
REMARK H PARENT
REMARK Flexibility Score: inf
ROOT
ATOM      1  C   UNL     1       0.446   2.926  -7.377  1.00  0.00     0.063 C 
ATOM      2  C   UNL     1      -0.176   1.713  -7.983  1.00  0.00     0.038 C 
ATOM      3  O   UNL     1      -1.063   1.832  -8.867  1.00  0.00    -0.550 OA
ATOM      4  O   UNL     1       0.185   0.448  -7.535  1.00  0.00    -0.550 OA
ENDROOT
TORSDOF 0
ENDMDL
