MODEL 1
REMARK VINA RESULT:    -3.848      0.000      0.000
REMARK INTER + INTRA:          -9.069
REMARK INTER:                  -6.997
REMARK INTRA:                  -2.072
REMARK UNBOUND:                -2.072
REMARK SMILES CCCCCCCCCCCCCC[C@@H](C)C(=O)[O-]
REMARK SMILES IDX 9 1 10 2 11 3 12 4 13 5 14 6 15 7 16 8 17 9 18 10 19 11 8 12
REMARK SMILES IDX 7 13 6 14 5 15 4 16 3 17 2 18 1 19
REMARK H PARENT
REMARK Flexibility Score: inf
ROOT
ATOM      1  C   UNL     1     -36.860   3.626  -3.277  1.00  0.00     0.000 C 
ENDROOT
BRANCH   1   2
ATOM      2  C   UNL     1     -36.785   5.139  -3.024  1.00  0.00     0.000 C 
BRANCH   2   3
ATOM      3  C   UNL     1     -36.083   5.489  -1.699  1.00  0.00     0.000 C 
BRANCH   3   4
ATOM      4  C   UNL     1     -35.869   6.995  -1.448  1.00  0.00     0.000 C 
BRANCH   4   5
ATOM      5  C   UNL     1     -34.485   7.540  -1.845  1.00  0.00     0.001 C 
BRANCH   5   6
ATOM      6  C   UNL     1     -34.407   7.952  -3.326  1.00  0.00     0.009 C 
BRANCH   6   7
ATOM      7  C   UNL     1     -35.557   8.894  -3.743  1.00  0.00     0.032 C 
ATOM      8  C   UNL     1     -35.238  10.368  -3.458  1.00  0.00     0.014 C 
BRANCH   7   9
ATOM      9  C   UNL     1     -35.849   8.721  -5.209  1.00  0.00     0.044 C 
ATOM     10  O   UNL     1     -35.769   9.705  -5.991  1.00  0.00    -0.550 OA
ATOM     11  O   UNL     1     -36.208   7.475  -5.711  1.00  0.00    -0.550 OA
ENDBRANCH   7   9
ENDBRANCH   6   7
ENDBRANCH   5   6
ENDBRANCH   4   5
ENDBRANCH   3   4
ENDBRANCH   2   3
ENDBRANCH   1   2
BRANCH   1  12
ATOM     12  C   UNL     1     -35.545   2.940  -2.887  1.00  0.00     0.000 C 
BRANCH  12  13
ATOM     13  C   UNL     1     -35.589   1.441  -3.212  1.00  0.00    -0.000 C 
BRANCH  13  14
ATOM     14  C   UNL     1     -34.965   1.156  -4.583  1.00  0.00    -0.000 C 
BRANCH  14  15
ATOM     15  C   UNL     1     -36.038   0.736  -5.599  1.00  0.00    -0.000 C 
BRANCH  15  16
ATOM     16  C   UNL     1     -36.399   1.865  -6.578  1.00  0.00    -0.000 C 
BRANCH  16  17
ATOM     17  C   UNL     1     -35.171   2.682  -7.016  1.00  0.00    -0.000 C 
BRANCH  17  18
ATOM     18  C   UNL     1     -35.278   4.162  -6.620  1.00  0.00    -0.003 C 
ATOM     19  C   UNL     1     -34.078   4.644  -5.805  1.00  0.00     0.004 C 
ENDBRANCH  17  18
ENDBRANCH  16  17
ENDBRANCH  15  16
ENDBRANCH  14  15
ENDBRANCH  13  14
ENDBRANCH  12  13
ENDBRANCH   1  12
TORSDOF 14
ENDMDL
MODEL 2
REMARK VINA RESULT:    -3.833      4.653      6.534
REMARK INTER + INTRA:          -9.042
REMARK INTER:                  -6.507
REMARK INTRA:                  -2.534
REMARK UNBOUND:                -2.072
REMARK SMILES CCCCCCCCCCCCCC[C@@H](C)C(=O)[O-]
REMARK SMILES IDX 9 1 10 2 11 3 12 4 13 5 14 6 15 7 16 8 17 9 18 10 19 11 8 12
REMARK SMILES IDX 7 13 6 14 5 15 4 16 3 17 2 18 1 19
REMARK H PARENT
REMARK Flexibility Score: inf
ROOT
ATOM      1  C   UNL     1     -31.856   4.549  -1.096  1.00  0.00     0.000 C 
ENDROOT
BRANCH   1   2
ATOM      2  C   UNL     1     -31.279   5.701  -0.261  1.00  0.00     0.000 C 
BRANCH   2   3
ATOM      3  C   UNL     1     -31.693   7.087  -0.789  1.00  0.00     0.000 C 
BRANCH   3   4
ATOM      4  C   UNL     1     -30.536   7.958  -1.319  1.00  0.00     0.000 C 
BRANCH   4   5
ATOM      5  C   UNL     1     -29.129   7.355  -1.159  1.00  0.00     0.001 C 
BRANCH   5   6
ATOM      6  C   UNL     1     -28.486   6.972  -2.504  1.00  0.00     0.009 C 
BRANCH   6   7
ATOM      7  C   UNL     1     -27.907   5.541  -2.501  1.00  0.00     0.032 C 
ATOM      8  C   UNL     1     -27.750   4.977  -1.081  1.00  0.00     0.014 C 
BRANCH   7   9
ATOM      9  C   UNL     1     -28.796   4.631  -3.303  1.00  0.00     0.044 C 
ATOM     10  O   UNL     1     -29.676   5.115  -4.064  1.00  0.00    -0.550 OA
ATOM     11  O   UNL     1     -28.654   3.251  -3.212  1.00  0.00    -0.550 OA
ENDBRANCH   7   9
ENDBRANCH   6   7
ENDBRANCH   5   6
ENDBRANCH   4   5
ENDBRANCH   3   4
ENDBRANCH   2   3
ENDBRANCH   1   2
BRANCH   1  12
ATOM     12  C   UNL     1     -32.674   5.084  -2.276  1.00  0.00     0.000 C 
BRANCH  12  13
ATOM     13  C   UNL     1     -34.082   4.474  -2.291  1.00  0.00    -0.000 C 
BRANCH  13  14
ATOM     14  C   UNL     1     -34.872   4.881  -1.042  1.00  0.00    -0.000 C 
BRANCH  14  15
ATOM     15  C   UNL     1     -35.999   5.861  -1.400  1.00  0.00    -0.000 C 
BRANCH  15  16
ATOM     16  C   UNL     1     -35.527   7.324  -1.417  1.00  0.00    -0.000 C 
BRANCH  16  17
ATOM     17  C   UNL     1     -35.368   7.877  -2.844  1.00  0.00    -0.000 C 
BRANCH  17  18
ATOM     18  C   UNL     1     -34.096   8.724  -3.008  1.00  0.00    -0.003 C 
ATOM     19  C   UNL     1     -33.205   8.237  -4.150  1.00  0.00     0.004 C 
ENDBRANCH  17  18
ENDBRANCH  16  17
ENDBRANCH  15  16
ENDBRANCH  14  15
ENDBRANCH  13  14
ENDBRANCH  12  13
ENDBRANCH   1  12
TORSDOF 14
ENDMDL
MODEL 3
REMARK VINA RESULT:    -3.802      4.357      6.284
REMARK INTER + INTRA:          -8.986
REMARK INTER:                  -6.525
REMARK INTRA:                  -2.461
REMARK UNBOUND:                -2.072
REMARK SMILES CCCCCCCCCCCCCC[C@@H](C)C(=O)[O-]
REMARK SMILES IDX 9 1 10 2 11 3 12 4 13 5 14 6 15 7 16 8 17 9 18 10 19 11 8 12
REMARK SMILES IDX 7 13 6 14 5 15 4 16 3 17 2 18 1 19
REMARK H PARENT
REMARK Flexibility Score: inf
ROOT
ATOM      1  C   UNL     1     -30.956   5.316  -3.646  1.00  0.00     0.000 C 
ENDROOT
BRANCH   1   2
ATOM      2  C   UNL     1     -31.631   6.627  -4.079  1.00  0.00     0.000 C 
BRANCH   2   3
ATOM      3  C   UNL     1     -32.057   7.501  -2.885  1.00  0.00     0.000 C 
BRANCH   3   4
ATOM      4  C   UNL     1     -32.137   6.767  -1.531  1.00  0.00     0.000 C 
BRANCH   4   5
ATOM      5  C   UNL     1     -33.520   6.777  -0.856  1.00  0.00     0.001 C 
BRANCH   5   6
ATOM      6  C   UNL     1     -34.325   5.493  -1.122  1.00  0.00     0.009 C 
BRANCH   6   7
ATOM      7  C   UNL     1     -35.692   5.773  -1.785  1.00  0.00     0.032 C 
ATOM      8  C   UNL     1     -36.446   6.924  -1.103  1.00  0.00     0.014 C 
BRANCH   7   9
ATOM      9  C   UNL     1     -35.494   6.100  -3.239  1.00  0.00     0.044 C 
ATOM     10  O   UNL     1     -35.758   7.253  -3.672  1.00  0.00    -0.550 OA
ATOM     11  O   UNL     1     -35.017   5.132  -4.117  1.00  0.00    -0.550 OA
ENDBRANCH   7   9
ENDBRANCH   6   7
ENDBRANCH   5   6
ENDBRANCH   4   5
ENDBRANCH   3   4
ENDBRANCH   2   3
ENDBRANCH   1   2
BRANCH   1  12
ATOM     12  C   UNL     1     -29.953   4.842  -4.704  1.00  0.00     0.000 C 
BRANCH  12  13
ATOM     13  C   UNL     1     -28.654   4.354  -4.051  1.00  0.00    -0.000 C 
BRANCH  13  14
ATOM     14  C   UNL     1     -28.947   3.386  -2.898  1.00  0.00    -0.000 C 
BRANCH  14  15
ATOM     15  C   UNL     1     -28.299   3.874  -1.593  1.00  0.00    -0.000 C 
BRANCH  15  16
ATOM     16  C   UNL     1     -27.785   5.319  -1.693  1.00  0.00    -0.000 C 
BRANCH  16  17
ATOM     17  C   UNL     1     -28.603   6.298  -0.832  1.00  0.00    -0.000 C 
BRANCH  17  18
ATOM     18  C   UNL     1     -28.537   7.740  -1.359  1.00  0.00    -0.003 C 
ATOM     19  C   UNL     1     -28.184   7.810  -2.844  1.00  0.00     0.004 C 
ENDBRANCH  17  18
ENDBRANCH  16  17
ENDBRANCH  15  16
ENDBRANCH  14  15
ENDBRANCH  13  14
ENDBRANCH  12  13
ENDBRANCH   1  12
TORSDOF 14
ENDMDL
MODEL 4
REMARK VINA RESULT:    -3.779      3.728      6.525
REMARK INTER + INTRA:          -8.944
REMARK INTER:                  -6.397
REMARK INTRA:                  -2.547
REMARK UNBOUND:                -2.072
REMARK SMILES CCCCCCCCCCCCCC[C@@H](C)C(=O)[O-]
REMARK SMILES IDX 9 1 10 2 11 3 12 4 13 5 14 6 15 7 16 8 17 9 18 10 19 11 8 12
REMARK SMILES IDX 7 13 6 14 5 15 4 16 3 17 2 18 1 19
REMARK H PARENT
REMARK Flexibility Score: inf
ROOT
ATOM      1  C   UNL     1     -33.660   8.535  -2.916  1.00  0.00     0.000 C 
ENDROOT
BRANCH   1   2
ATOM      2  C   UNL     1     -35.137   8.717  -3.296  1.00  0.00     0.000 C 
BRANCH   2   3
ATOM      3  C   UNL     1     -35.985   7.465  -3.009  1.00  0.00     0.000 C 
BRANCH   3   4
ATOM      4  C   UNL     1     -36.145   7.110  -1.517  1.00  0.00     0.000 C 
BRANCH   4   5
ATOM      5  C   UNL     1     -35.748   5.672  -1.135  1.00  0.00     0.001 C 
BRANCH   5   6
ATOM      6  C   UNL     1     -35.566   4.757  -2.358  1.00  0.00     0.009 C 
BRANCH   6   7
ATOM      7  C   UNL     1     -34.448   3.710  -2.157  1.00  0.00     0.032 C 
ATOM      8  C   UNL     1     -34.128   3.475  -0.674  1.00  0.00     0.014 C 
BRANCH   7   9
ATOM      9  C   UNL     1     -34.851   2.409  -2.794  1.00  0.00     0.044 C 
ATOM     10  O   UNL     1     -35.498   1.553  -2.133  1.00  0.00    -0.550 OA
ATOM     11  O   UNL     1     -34.513   2.139  -4.115  1.00  0.00    -0.550 OA
ENDBRANCH   7   9
ENDBRANCH   6   7
ENDBRANCH   5   6
ENDBRANCH   4   5
ENDBRANCH   3   4
ENDBRANCH   2   3
ENDBRANCH   1   2
BRANCH   1  12
ATOM     12  C   UNL     1     -33.061   7.310  -3.616  1.00  0.00     0.000 C 
BRANCH  12  13
ATOM     13  C   UNL     1     -32.162   6.515  -2.661  1.00  0.00    -0.000 C 
BRANCH  13  14
ATOM     14  C   UNL     1     -32.268   7.053  -1.228  1.00  0.00    -0.000 C 
BRANCH  14  15
ATOM     15  C   UNL     1     -31.486   6.166  -0.249  1.00  0.00    -0.000 C 
BRANCH  15  16
ATOM     16  C   UNL     1     -30.530   5.197  -0.962  1.00  0.00    -0.000 C 
BRANCH  16  17
ATOM     17  C   UNL     1     -29.062   5.404  -0.549  1.00  0.00    -0.000 C 
BRANCH  17  18
ATOM     18  C   UNL     1     -28.160   5.757  -1.742  1.00  0.00    -0.003 C 
ATOM     19  C   UNL     1     -28.483   7.125  -2.341  1.00  0.00     0.004 C 
ENDBRANCH  17  18
ENDBRANCH  16  17
ENDBRANCH  15  16
ENDBRANCH  14  15
ENDBRANCH  13  14
ENDBRANCH  12  13
ENDBRANCH   1  12
TORSDOF 14
ENDMDL
MODEL 5
REMARK VINA RESULT:    -3.768      3.665      5.147
REMARK INTER + INTRA:          -8.923
REMARK INTER:                  -6.724
REMARK INTRA:                  -2.199
REMARK UNBOUND:                -2.072
REMARK SMILES CCCCCCCCCCCCCC[C@@H](C)C(=O)[O-]
REMARK SMILES IDX 9 1 10 2 11 3 12 4 13 5 14 6 15 7 16 8 17 9 18 10 19 11 8 12
REMARK SMILES IDX 7 13 6 14 5 15 4 16 3 17 2 18 1 19
REMARK H PARENT
REMARK Flexibility Score: inf
ROOT
ATOM      1  C   UNL     1     -36.263   5.970  -1.551  1.00  0.00     0.000 C 
ENDROOT
BRANCH   1   2
ATOM      2  C   UNL     1     -35.801   7.413  -1.805  1.00  0.00     0.000 C 
BRANCH   2   3
ATOM      3  C   UNL     1     -34.277   7.529  -1.984  1.00  0.00     0.000 C 
BRANCH   3   4
ATOM      4  C   UNL     1     -33.435   6.699  -0.994  1.00  0.00     0.000 C 
BRANCH   4   5
ATOM      5  C   UNL     1     -32.384   5.774  -1.635  1.00  0.00     0.001 C 
BRANCH   5   6
ATOM      6  C   UNL     1     -32.648   4.284  -1.355  1.00  0.00     0.009 C 
BRANCH   6   7
ATOM      7  C   UNL     1     -33.240   4.038   0.051  1.00  0.00     0.032 C 
ATOM      8  C   UNL     1     -34.444   3.087   0.019  1.00  0.00     0.014 C 
BRANCH   7   9
ATOM      9  C   UNL     1     -32.180   3.472   0.955  1.00  0.00     0.044 C 
ATOM     10  O   UNL     1     -31.035   3.205   0.502  1.00  0.00    -0.550 OA
ATOM     11  O   UNL     1     -32.455   3.240   2.299  1.00  0.00    -0.550 OA
ENDBRANCH   7   9
ENDBRANCH   6   7
ENDBRANCH   5   6
ENDBRANCH   4   5
ENDBRANCH   3   4
ENDBRANCH   2   3
ENDBRANCH   1   2
BRANCH   1  12
ATOM     12  C   UNL     1     -36.752   5.315  -2.848  1.00  0.00     0.000 C 
BRANCH  12  13
ATOM     13  C   UNL     1     -35.771   4.236  -3.324  1.00  0.00    -0.000 C 
BRANCH  13  14
ATOM     14  C   UNL     1     -36.401   2.841  -3.234  1.00  0.00    -0.000 C 
BRANCH  14  15
ATOM     15  C   UNL     1     -35.326   1.747  -3.303  1.00  0.00    -0.000 C 
BRANCH  15  16
ATOM     16  C   UNL     1     -34.908   1.418  -4.745  1.00  0.00    -0.000 C 
BRANCH  16  17
ATOM     17  C   UNL     1     -36.066   0.841  -5.578  1.00  0.00    -0.000 C 
BRANCH  17  18
ATOM     18  C   UNL     1     -36.472   1.763  -6.739  1.00  0.00    -0.003 C 
ATOM     19  C   UNL     1     -35.454   2.874  -6.993  1.00  0.00     0.004 C 
ENDBRANCH  17  18
ENDBRANCH  16  17
ENDBRANCH  15  16
ENDBRANCH  14  15
ENDBRANCH  13  14
ENDBRANCH  12  13
ENDBRANCH   1  12
TORSDOF 14
ENDMDL
MODEL 6
REMARK VINA RESULT:    -3.767      5.746      7.721
REMARK INTER + INTRA:          -8.922
REMARK INTER:                  -6.725
REMARK INTRA:                  -2.197
REMARK UNBOUND:                -2.072
REMARK SMILES CCCCCCCCCCCCCC[C@@H](C)C(=O)[O-]
REMARK SMILES IDX 9 1 10 2 11 3 12 4 13 5 14 6 15 7 16 8 17 9 18 10 19 11 8 12
REMARK SMILES IDX 7 13 6 14 5 15 4 16 3 17 2 18 1 19
REMARK H PARENT
REMARK Flexibility Score: inf
ROOT
ATOM      1  C   UNL     1     -32.097   7.517  -1.746  1.00  0.00     0.000 C 
ENDROOT
BRANCH   1   2
ATOM      2  C   UNL     1     -30.868   8.350  -2.142  1.00  0.00     0.000 C 
BRANCH   2   3
ATOM      3  C   UNL     1     -29.545   7.728  -1.661  1.00  0.00     0.000 C 
BRANCH   3   4
ATOM      4  C   UNL     1     -28.655   7.141  -2.775  1.00  0.00     0.000 C 
BRANCH   4   5
ATOM      5  C   UNL     1     -28.130   5.716  -2.517  1.00  0.00     0.001 C 
BRANCH   5   6
ATOM      6  C   UNL     1     -27.959   5.403  -1.020  1.00  0.00     0.009 C 
BRANCH   6   7
ATOM      7  C   UNL     1     -28.825   4.211  -0.559  1.00  0.00     0.032 C 
ATOM      8  C   UNL     1     -29.465   3.464  -1.737  1.00  0.00     0.014 C 
BRANCH   7   9
ATOM      9  C   UNL     1     -27.985   3.254   0.243  1.00  0.00     0.044 C 
ATOM     10  O   UNL     1     -28.473   2.162   0.639  1.00  0.00    -0.550 OA
ATOM     11  O   UNL     1     -26.666   3.567   0.552  1.00  0.00    -0.550 OA
ENDBRANCH   7   9
ENDBRANCH   6   7
ENDBRANCH   5   6
ENDBRANCH   4   5
ENDBRANCH   3   4
ENDBRANCH   2   3
ENDBRANCH   1   2
BRANCH   1  12
ATOM     12  C   UNL     1     -31.791   6.635  -0.530  1.00  0.00     0.000 C 
BRANCH  12  13
ATOM     13  C   UNL     1     -32.606   5.336  -0.574  1.00  0.00    -0.000 C 
BRANCH  13  14
ATOM     14  C   UNL     1     -33.015   4.991  -2.011  1.00  0.00    -0.000 C 
BRANCH  14  15
ATOM     15  C   UNL     1     -34.541   4.871  -2.135  1.00  0.00    -0.000 C 
BRANCH  15  16
ATOM     16  C   UNL     1     -35.283   5.547  -0.970  1.00  0.00    -0.000 C 
BRANCH  16  17
ATOM     17  C   UNL     1     -35.882   6.909  -1.363  1.00  0.00    -0.000 C 
BRANCH  17  18
ATOM     18  C   UNL     1     -35.894   7.129  -2.884  1.00  0.00    -0.003 C 
ATOM     19  C   UNL     1     -35.631   8.583  -3.272  1.00  0.00     0.004 C 
ENDBRANCH  17  18
ENDBRANCH  16  17
ENDBRANCH  15  16
ENDBRANCH  14  15
ENDBRANCH  13  14
ENDBRANCH  12  13
ENDBRANCH   1  12
TORSDOF 14
ENDMDL
MODEL 7
REMARK VINA RESULT:    -3.753      2.661      3.426
REMARK INTER + INTRA:          -8.897
REMARK INTER:                  -6.858
REMARK INTRA:                  -2.039
REMARK UNBOUND:                -2.072
REMARK SMILES CCCCCCCCCCCCCC[C@@H](C)C(=O)[O-]
REMARK SMILES IDX 9 1 10 2 11 3 12 4 13 5 14 6 15 7 16 8 17 9 18 10 19 11 8 12
REMARK SMILES IDX 7 13 6 14 5 15 4 16 3 17 2 18 1 19
REMARK H PARENT
REMARK Flexibility Score: inf
ROOT
ATOM      1  C   UNL     1     -36.864   3.748  -3.376  1.00  0.00     0.000 C 
ENDROOT
BRANCH   1   2
ATOM      2  C   UNL     1     -36.834   5.225  -2.954  1.00  0.00     0.000 C 
BRANCH   2   3
ATOM      3  C   UNL     1     -36.112   5.448  -1.613  1.00  0.00     0.000 C 
BRANCH   3   4
ATOM      4  C   UNL     1     -35.784   6.918  -1.282  1.00  0.00     0.000 C 
BRANCH   4   5
ATOM      5  C   UNL     1     -34.653   7.545  -2.118  1.00  0.00     0.001 C 
BRANCH   5   6
ATOM      6  C   UNL     1     -33.399   6.657  -2.190  1.00  0.00     0.009 C 
BRANCH   6   7
ATOM      7  C   UNL     1     -32.605   6.640  -0.865  1.00  0.00     0.032 C 
ATOM      8  C   UNL     1     -32.490   5.228  -0.272  1.00  0.00     0.014 C 
BRANCH   7   9
ATOM      9  C   UNL     1     -31.229   7.201  -1.090  1.00  0.00     0.044 C 
ATOM     10  O   UNL     1     -30.212   6.555  -0.721  1.00  0.00    -0.550 OA
ATOM     11  O   UNL     1     -31.067   8.436  -1.708  1.00  0.00    -0.550 OA
ENDBRANCH   7   9
ENDBRANCH   6   7
ENDBRANCH   5   6
ENDBRANCH   4   5
ENDBRANCH   3   4
ENDBRANCH   2   3
ENDBRANCH   1   2
BRANCH   1  12
ATOM     12  C   UNL     1     -35.584   3.027  -2.939  1.00  0.00     0.000 C 
BRANCH  12  13
ATOM     13  C   UNL     1     -35.662   1.528  -3.252  1.00  0.00    -0.000 C 
BRANCH  13  14
ATOM     14  C   UNL     1     -34.989   1.209  -4.593  1.00  0.00    -0.000 C 
BRANCH  14  15
ATOM     15  C   UNL     1     -36.025   0.765  -5.636  1.00  0.00    -0.000 C 
BRANCH  15  16
ATOM     16  C   UNL     1     -36.413   1.896  -6.603  1.00  0.00    -0.000 C 
BRANCH  16  17
ATOM     17  C   UNL     1     -35.194   2.695  -7.096  1.00  0.00    -0.000 C 
BRANCH  17  18
ATOM     18  C   UNL     1     -35.304   4.194  -6.776  1.00  0.00    -0.003 C 
ATOM     19  C   UNL     1     -34.127   4.710  -5.950  1.00  0.00     0.004 C 
ENDBRANCH  17  18
ENDBRANCH  16  17
ENDBRANCH  15  16
ENDBRANCH  14  15
ENDBRANCH  13  14
ENDBRANCH  12  13
ENDBRANCH   1  12
TORSDOF 14
ENDMDL
MODEL 8
REMARK VINA RESULT:    -3.750      3.532      5.710
REMARK INTER + INTRA:          -8.891
REMARK INTER:                  -6.520
REMARK INTRA:                  -2.371
REMARK UNBOUND:                -2.072
REMARK SMILES CCCCCCCCCCCCCC[C@@H](C)C(=O)[O-]
REMARK SMILES IDX 9 1 10 2 11 3 12 4 13 5 14 6 15 7 16 8 17 9 18 10 19 11 8 12
REMARK SMILES IDX 7 13 6 14 5 15 4 16 3 17 2 18 1 19
REMARK H PARENT
REMARK Flexibility Score: inf
ROOT
ATOM      1  C   UNL     1     -34.217   7.080  -2.641  1.00  0.00     0.000 C 
ENDROOT
BRANCH   1   2
ATOM      2  C   UNL     1     -32.758   6.783  -2.261  1.00  0.00     0.000 C 
BRANCH   2   3
ATOM      3  C   UNL     1     -32.430   7.166  -0.807  1.00  0.00     0.000 C 
BRANCH   3   4
ATOM      4  C   UNL     1     -31.845   6.028   0.054  1.00  0.00     0.000 C 
BRANCH   4   5
ATOM      5  C   UNL     1     -32.096   4.604  -0.476  1.00  0.00     0.001 C 
BRANCH   5   6
ATOM      6  C   UNL     1     -33.396   3.985   0.065  1.00  0.00     0.009 C 
BRANCH   6   7
ATOM      7  C   UNL     1     -34.088   3.062  -0.962  1.00  0.00     0.032 C 
ATOM      8  C   UNL     1     -33.368   3.053  -2.318  1.00  0.00     0.014 C 
BRANCH   7   9
ATOM      9  C   UNL     1     -34.152   1.660  -0.422  1.00  0.00     0.044 C 
ATOM     10  O   UNL     1     -34.846   0.786  -1.008  1.00  0.00    -0.550 OA
ATOM     11  O   UNL     1     -33.447   1.316   0.726  1.00  0.00    -0.550 OA
ENDBRANCH   7   9
ENDBRANCH   6   7
ENDBRANCH   5   6
ENDBRANCH   4   5
ENDBRANCH   3   4
ENDBRANCH   2   3
ENDBRANCH   1   2
BRANCH   1  12
ATOM     12  C   UNL     1     -35.124   7.036  -1.405  1.00  0.00     0.000 C 
BRANCH  12  13
ATOM     13  C   UNL     1     -36.224   5.980  -1.568  1.00  0.00    -0.000 C 
BRANCH  13  14
ATOM     14  C   UNL     1     -36.437   5.629  -3.046  1.00  0.00    -0.000 C 
BRANCH  14  15
ATOM     15  C   UNL     1     -36.915   4.178  -3.203  1.00  0.00    -0.000 C 
BRANCH  15  16
ATOM     16  C   UNL     1     -36.489   3.557  -4.543  1.00  0.00    -0.000 C 
BRANCH  16  17
ATOM     17  C   UNL     1     -36.053   2.088  -4.400  1.00  0.00    -0.000 C 
BRANCH  17  18
ATOM     18  C   UNL     1     -35.174   1.619  -5.570  1.00  0.00    -0.003 C 
ATOM     19  C   UNL     1     -34.947   0.108  -5.570  1.00  0.00     0.004 C 
ENDBRANCH  17  18
ENDBRANCH  16  17
ENDBRANCH  15  16
ENDBRANCH  14  15
ENDBRANCH  13  14
ENDBRANCH  12  13
ENDBRANCH   1  12
TORSDOF 14
ENDMDL
MODEL 9
REMARK VINA RESULT:    -3.670      3.943      5.351
REMARK INTER + INTRA:          -8.746
REMARK INTER:                  -5.779
REMARK INTRA:                  -2.967
REMARK UNBOUND:                -2.072
REMARK SMILES CCCCCCCCCCCCCC[C@@H](C)C(=O)[O-]
REMARK SMILES IDX 9 1 10 2 11 3 12 4 13 5 14 6 15 7 16 8 17 9 18 10 19 11 8 12
REMARK SMILES IDX 7 13 6 14 5 15 4 16 3 17 2 18 1 19
REMARK H PARENT
REMARK Flexibility Score: inf
ROOT
ATOM      1  C   UNL     1     -35.537   7.378  -1.529  1.00  0.00     0.000 C 
ENDROOT
BRANCH   1   2
ATOM      2  C   UNL     1     -35.926   7.952  -2.900  1.00  0.00     0.000 C 
BRANCH   2   3
ATOM      3  C   UNL     1     -34.709   8.422  -3.717  1.00  0.00     0.000 C 
BRANCH   3   4
ATOM      4  C   UNL     1     -33.518   8.933  -2.881  1.00  0.00     0.000 C 
BRANCH   4   5
ATOM      5  C   UNL     1     -32.126   8.518  -3.394  1.00  0.00     0.001 C 
BRANCH   5   6
ATOM      6  C   UNL     1     -30.993   8.907  -2.429  1.00  0.00     0.009 C 
BRANCH   6   7
ATOM      7  C   UNL     1     -29.904   7.818  -2.319  1.00  0.00     0.032 C 
ATOM      8  C   UNL     1     -29.756   7.007  -3.614  1.00  0.00     0.014 C 
BRANCH   7   9
ATOM      9  C   UNL     1     -28.585   8.452  -1.974  1.00  0.00     0.044 C 
ATOM     10  O   UNL     1     -27.748   8.708  -2.880  1.00  0.00    -0.550 OA
ATOM     11  O   UNL     1     -28.278   8.761  -0.653  1.00  0.00    -0.550 OA
ENDBRANCH   7   9
ENDBRANCH   6   7
ENDBRANCH   5   6
ENDBRANCH   4   5
ENDBRANCH   3   4
ENDBRANCH   2   3
ENDBRANCH   1   2
BRANCH   1  12
ATOM     12  C   UNL     1     -36.015   5.928  -1.387  1.00  0.00     0.000 C 
BRANCH  12  13
ATOM     13  C   UNL     1     -34.851   4.999  -1.022  1.00  0.00    -0.000 C 
BRANCH  13  14
ATOM     14  C   UNL     1     -33.518   5.758  -1.022  1.00  0.00    -0.000 C 
BRANCH  14  15
ATOM     15  C   UNL     1     -32.497   5.077  -1.944  1.00  0.00    -0.000 C 
BRANCH  15  16
ATOM     16  C   UNL     1     -33.156   4.393  -3.153  1.00  0.00    -0.000 C 
BRANCH  16  17
ATOM     17  C   UNL     1     -32.841   5.106  -4.480  1.00  0.00    -0.000 C 
BRANCH  17  18
ATOM     18  C   UNL     1     -34.079   5.253  -5.377  1.00  0.00    -0.003 C 
ATOM     19  C   UNL     1     -35.333   4.635  -4.758  1.00  0.00     0.004 C 
ENDBRANCH  17  18
ENDBRANCH  16  17
ENDBRANCH  15  16
ENDBRANCH  14  15
ENDBRANCH  13  14
ENDBRANCH  12  13
ENDBRANCH   1  12
TORSDOF 14
ENDMDL
