MODEL 1
REMARK VINA RESULT:    -1.424      0.000      0.000
REMARK INTER + INTRA:          -1.603
REMARK INTER:                  -1.507
REMARK INTRA:                  -0.096
REMARK UNBOUND:                -0.096
REMARK SMILES C=C(C)[C@@H]1CC=C(C)C(=O)C1
REMARK SMILES IDX 8 1 7 2 6 3 5 4 4 5 11 6 9 7 10 8 2 9 1 10 3 11
REMARK H PARENT
REMARK Flexibility Score: inf
ROOT
ATOM      1  C   UNL     1      75.183  43.590   9.477  1.00  0.00     0.048 C 
ATOM      2  C   UNL     1      75.285  43.957   8.022  1.00  0.00    -0.012 C 
ATOM      3  C   UNL     1      74.876  45.166   7.599  1.00  0.00    -0.019 C 
ATOM      4  C   UNL     1      75.033  45.608   6.167  1.00  0.00     0.036 C 
ATOM      5  C   UNL     1      74.962  44.408   5.204  1.00  0.00     0.025 C 
ATOM      6  C   UNL     1      75.997  43.339   5.602  1.00  0.00     0.089 C 
ATOM      7  C   UNL     1      75.864  42.987   7.059  1.00  0.00     0.158 C 
ATOM      8  O   UNL     1      76.292  41.874   7.463  1.00  0.00    -0.295 OA
ENDROOT
BRANCH   5   9
ATOM      9  C   UNL     1      75.130  44.841   3.754  1.00  0.00    -0.077 C 
ATOM     10  C   UNL     1      75.366  46.124   3.429  1.00  0.00     0.008 C 
ATOM     11  C   UNL     1      75.034  43.824   2.645  1.00  0.00     0.039 C 
ENDBRANCH   5   9
TORSDOF 1
ENDMDL
MODEL 2
REMARK VINA RESULT:    -1.376     23.361     24.425
REMARK INTER + INTRA:          -1.553
REMARK INTER:                  -1.458
REMARK INTRA:                  -0.095
REMARK UNBOUND:                -0.096
REMARK SMILES C=C(C)[C@@H]1CC=C(C)C(=O)C1
REMARK SMILES IDX 8 1 7 2 6 3 5 4 4 5 11 6 9 7 10 8 2 9 1 10 3 11
REMARK H PARENT
REMARK Flexibility Score: inf
ROOT
ATOM      1  C   UNL     1      90.717  26.795  14.961  1.00  0.00     0.048 C 
ATOM      2  C   UNL     1      91.269  26.991  13.576  1.00  0.00    -0.012 C 
ATOM      3  C   UNL     1      91.731  25.939  12.877  1.00  0.00    -0.019 C 
ATOM      4  C   UNL     1      92.218  26.073  11.458  1.00  0.00     0.036 C 
ATOM      5  C   UNL     1      92.820  27.469  11.206  1.00  0.00     0.025 C 
ATOM      6  C   UNL     1      91.805  28.566  11.581  1.00  0.00     0.089 C 
ATOM      7  C   UNL     1      91.277  28.347  12.973  1.00  0.00     0.158 C 
ATOM      8  O   UNL     1      90.800  29.324  13.609  1.00  0.00    -0.295 OA
ENDROOT
BRANCH   5   9
ATOM      9  C   UNL     1      93.306  27.621   9.771  1.00  0.00    -0.077 C 
ATOM     10  C   UNL     1      93.979  26.636   9.152  1.00  0.00     0.008 C 
ATOM     11  C   UNL     1      93.037  28.896   9.013  1.00  0.00     0.039 C 
ENDBRANCH   5   9
TORSDOF 1
ENDMDL
MODEL 3
REMARK VINA RESULT:    -1.332     23.550     24.572
REMARK INTER + INTRA:          -1.506
REMARK INTER:                  -1.410
REMARK INTRA:                  -0.096
REMARK UNBOUND:                -0.096
REMARK SMILES C=C(C)[C@@H]1CC=C(C)C(=O)C1
REMARK SMILES IDX 8 1 7 2 6 3 5 4 4 5 11 6 9 7 10 8 2 9 1 10 3 11
REMARK H PARENT
REMARK Flexibility Score: inf
ROOT
ATOM      1  C   UNL     1      91.106  26.706  13.937  1.00  0.00     0.048 C 
ATOM      2  C   UNL     1      91.683  26.927  12.565  1.00  0.00    -0.012 C 
ATOM      3  C   UNL     1      92.085  25.880  11.824  1.00  0.00    -0.019 C 
ATOM      4  C   UNL     1      92.592  26.046  10.416  1.00  0.00     0.036 C 
ATOM      5  C   UNL     1      93.282  27.411  10.230  1.00  0.00     0.025 C 
ATOM      6  C   UNL     1      92.335  28.551  10.647  1.00  0.00     0.089 C 
ATOM      7  C   UNL     1      91.781  28.306  12.024  1.00  0.00     0.158 C 
ATOM      8  O   UNL     1      91.360  29.282  12.699  1.00  0.00    -0.295 OA
ENDROOT
BRANCH   5   9
ATOM      9  C   UNL     1      93.790  27.595   8.806  1.00  0.00    -0.077 C 
ATOM     10  C   UNL     1      93.222  28.481   7.970  1.00  0.00     0.008 C 
ATOM     11  C   UNL     1      94.953  26.775   8.306  1.00  0.00     0.039 C 
ENDBRANCH   5   9
TORSDOF 1
ENDMDL
MODEL 4
REMARK VINA RESULT:    -1.312     22.986     24.440
REMARK INTER + INTRA:          -1.485
REMARK INTER:                  -1.392
REMARK INTRA:                  -0.093
REMARK UNBOUND:                -0.096
REMARK SMILES C=C(C)[C@@H]1CC=C(C)C(=O)C1
REMARK SMILES IDX 8 1 7 2 6 3 5 4 4 5 11 6 9 7 10 8 2 9 1 10 3 11
REMARK H PARENT
REMARK Flexibility Score: inf
ROOT
ATOM      1  C   UNL     1      95.043  30.500  18.007  1.00  0.00     0.048 C 
ATOM      2  C   UNL     1      94.420  30.402  16.641  1.00  0.00    -0.012 C 
ATOM      3  C   UNL     1      95.124  30.754  15.551  1.00  0.00    -0.019 C 
ATOM      4  C   UNL     1      94.571  30.597  14.158  1.00  0.00     0.036 C 
ATOM      5  C   UNL     1      93.038  30.746  14.148  1.00  0.00     0.025 C 
ATOM      6  C   UNL     1      92.397  29.762  15.145  1.00  0.00     0.089 C 
ATOM      7  C   UNL     1      93.034  29.890  16.501  1.00  0.00     0.158 C 
ATOM      8  O   UNL     1      92.393  29.514  17.519  1.00  0.00    -0.295 OA
ENDROOT
BRANCH   5   9
ATOM      9  C   UNL     1      92.466  30.578  12.746  1.00  0.00    -0.077 C 
ATOM     10  C   UNL     1      92.718  29.478  12.015  1.00  0.00     0.008 C 
ATOM     11  C   UNL     1      91.598  31.656  12.150  1.00  0.00     0.039 C 
ENDBRANCH   5   9
TORSDOF 1
ENDMDL
MODEL 5
REMARK VINA RESULT:    -1.302     23.667     24.776
REMARK INTER + INTRA:          -1.475
REMARK INTER:                  -1.379
REMARK INTRA:                  -0.096
REMARK UNBOUND:                -0.096
REMARK SMILES C=C(C)[C@@H]1CC=C(C)C(=O)C1
REMARK SMILES IDX 8 1 7 2 6 3 5 4 4 5 11 6 9 7 10 8 2 9 1 10 3 11
REMARK H PARENT
REMARK Flexibility Score: inf
ROOT
ATOM      1  C   UNL     1      93.302  27.466   8.798  1.00  0.00     0.048 C 
ATOM      2  C   UNL     1      92.816  27.358  10.217  1.00  0.00    -0.012 C 
ATOM      3  C   UNL     1      92.530  26.154  10.743  1.00  0.00    -0.019 C 
ATOM      4  C   UNL     1      92.118  25.989  12.183  1.00  0.00     0.036 C 
ATOM      5  C   UNL     1      91.365  27.232  12.692  1.00  0.00     0.025 C 
ATOM      6  C   UNL     1      92.212  28.500  12.470  1.00  0.00     0.089 C 
ATOM      7  C   UNL     1      92.677  28.584  11.041  1.00  0.00     0.158 C 
ATOM      8  O   UNL     1      92.991  29.706  10.563  1.00  0.00    -0.295 OA
ENDROOT
BRANCH   5   9
ATOM      9  C   UNL     1      90.953  27.082  14.150  1.00  0.00    -0.077 C 
ATOM     10  C   UNL     1      91.046  25.900  14.786  1.00  0.00     0.008 C 
ATOM     11  C   UNL     1      90.426  28.270  14.913  1.00  0.00     0.039 C 
ENDBRANCH   5   9
TORSDOF 1
ENDMDL
MODEL 6
REMARK VINA RESULT:    -1.263      1.507      2.436
REMARK INTER + INTRA:          -1.433
REMARK INTER:                  -1.338
REMARK INTRA:                  -0.095
REMARK UNBOUND:                -0.096
REMARK SMILES C=C(C)[C@@H]1CC=C(C)C(=O)C1
REMARK SMILES IDX 8 1 7 2 6 3 5 4 4 5 11 6 9 7 10 8 2 9 1 10 3 11
REMARK H PARENT
REMARK Flexibility Score: inf
ROOT
ATOM      1  C   UNL     1      75.254  45.968   7.500  1.00  0.00     0.048 C 
ATOM      2  C   UNL     1      75.434  45.274   6.178  1.00  0.00    -0.012 C 
ATOM      3  C   UNL     1      74.900  45.799   5.061  1.00  0.00    -0.019 C 
ATOM      4  C   UNL     1      75.122  45.183   3.703  1.00  0.00     0.036 C 
ATOM      5  C   UNL     1      75.305  43.657   3.807  1.00  0.00     0.025 C 
ATOM      6  C   UNL     1      76.439  43.320   4.794  1.00  0.00     0.089 C 
ATOM      7  C   UNL     1      76.226  44.021   6.108  1.00  0.00     0.158 C 
ATOM      8  O   UNL     1      76.767  43.556   7.146  1.00  0.00    -0.295 OA
ENDROOT
BRANCH   5   9
ATOM      9  C   UNL     1      75.541  43.025   2.442  1.00  0.00    -0.077 C 
ATOM     10  C   UNL     1      75.597  41.690   2.290  1.00  0.00     0.008 C 
ATOM     11  C   UNL     1      75.719  43.897   1.226  1.00  0.00     0.039 C 
ENDBRANCH   5   9
TORSDOF 1
ENDMDL
MODEL 7
REMARK VINA RESULT:    -1.223     22.471     23.928
REMARK INTER + INTRA:          -1.390
REMARK INTER:                  -1.292
REMARK INTRA:                  -0.098
REMARK UNBOUND:                -0.096
REMARK SMILES C=C(C)[C@@H]1CC=C(C)C(=O)C1
REMARK SMILES IDX 8 1 7 2 6 3 5 4 4 5 11 6 9 7 10 8 2 9 1 10 3 11
REMARK H PARENT
REMARK Flexibility Score: inf
ROOT
ATOM      1  C   UNL     1      93.477  32.332  11.463  1.00  0.00     0.048 C 
ATOM      2  C   UNL     1      93.061  30.888  11.399  1.00  0.00    -0.012 C 
ATOM      3  C   UNL     1      92.591  30.271  12.497  1.00  0.00    -0.019 C 
ATOM      4  C   UNL     1      92.087  28.851  12.462  1.00  0.00     0.036 C 
ATOM      5  C   UNL     1      92.823  28.026  11.390  1.00  0.00     0.025 C 
ATOM      6  C   UNL     1      92.718  28.716  10.017  1.00  0.00     0.089 C 
ATOM      7  C   UNL     1      93.148  30.155  10.111  1.00  0.00     0.158 C 
ATOM      8  O   UNL     1      93.542  30.747   9.072  1.00  0.00    -0.295 OA
ENDROOT
BRANCH   5   9
ATOM      9  C   UNL     1      92.315  26.591  11.337  1.00  0.00    -0.077 C 
ATOM     10  C   UNL     1      92.356  25.876  10.199  1.00  0.00     0.008 C 
ATOM     11  C   UNL     1      91.750  25.943  12.575  1.00  0.00     0.039 C 
ENDBRANCH   5   9
TORSDOF 1
ENDMDL
