MODEL 1
REMARK VINA RESULT:    73.251      0.000      0.000
REMARK INTER + INTRA:         103.032
REMARK INTER:                 101.086
REMARK INTRA:                   1.946
REMARK UNBOUND:                 1.946
REMARK SMILES CC[C@@H](CC[C@@H](C)[C@H]1CC[C@@H]2[C@H]3CC=C4C[C@@H](O)CC[C@@]4(C)[C@H]3CC[C@@]21C)C(C)C
REMARK SMILES IDX 5 1 4 2 3 3 2 4 1 5 28 6 29 7 30 8 6 9 7 10 8 11 9 12 26 13
REMARK SMILES IDX 10 14 11 15 25 16 27 17 12 18 24 19 23 20 13 21 21 22 14 23
REMARK SMILES IDX 15 24 20 25 22 26 16 27 19 28 17 29 18 30
REMARK H PARENT 18 31
REMARK Flexibility Score: inf
ROOT
ATOM      1  C   UNL     1      80.598  -2.047  67.988  1.00  0.00     0.004 C 
ENDROOT
BRANCH   1   2
ATOM      2  C   UNL     1      80.544  -0.933  66.906  1.00  0.00     0.004 C 
BRANCH   2   3
ATOM      3  C   UNL     1      79.147  -0.640  66.276  1.00  0.00    -0.009 C 
BRANCH   3   4
ATOM      4  C   UNL     1      78.114  -1.779  66.504  1.00  0.00     0.000 C 
ATOM      5  C   UNL     1      78.210  -2.385  67.907  1.00  0.00     0.004 C 
ENDBRANCH   3   4
BRANCH   3   6
ATOM      6  C   UNL     1      79.170  -0.151  64.788  1.00  0.00    -0.014 C 
ATOM      7  C   UNL     1      77.916   0.656  64.415  1.00  0.00     0.007 C 
ATOM      8  C   UNL     1      80.433   0.621  64.383  1.00  0.00     0.007 C 
ENDBRANCH   3   6
ENDBRANCH   2   3
ENDBRANCH   1   2
BRANCH   1   9
ATOM      9  C   UNL     1      81.975  -2.142  68.704  1.00  0.00    -0.011 C 
ATOM     10  C   UNL     1      81.836  -2.591  70.172  1.00  0.00     0.008 C 
BRANCH   9  11
ATOM     11  C   UNL     1      83.049  -2.913  67.854  1.00  0.00    -0.002 C 
ATOM     12  C   UNL     1      83.776  -1.952  66.896  1.00  0.00     0.005 C 
ATOM     13  C   UNL     1      84.175  -3.819  68.524  1.00  0.00    -0.026 C 
ATOM     14  C   UNL     1      85.155  -2.532  66.682  1.00  0.00     0.005 C 
ATOM     15  C   UNL     1      85.506  -3.179  68.016  1.00  0.00    -0.001 C 
ATOM     16  C   UNL     1      84.023  -5.279  67.992  1.00  0.00     0.007 C 
ATOM     17  C   UNL     1      84.146  -3.857  70.076  1.00  0.00     0.012 C 
ATOM     18  C   UNL     1      86.765  -4.097  67.905  1.00  0.00     0.000 C 
ATOM     19  C   UNL     1      85.287  -6.142  68.113  1.00  0.00     0.005 C 
ATOM     20  C   UNL     1      86.460  -5.505  67.333  1.00  0.00     0.003 C 
ATOM     21  C   UNL     1      87.511  -4.185  69.248  1.00  0.00     0.031 C 
ATOM     22  C   UNL     1      87.780  -6.382  67.207  1.00  0.00    -0.008 C 
ATOM     23  C   UNL     1      88.672  -5.131  69.211  1.00  0.00    -0.027 C 
ATOM     24  C   UNL     1      88.739  -6.197  68.390  1.00  0.00    -0.065 C 
ATOM     25  C   UNL     1      87.450  -7.903  67.077  1.00  0.00     0.014 C 
ATOM     26  C   UNL     1      88.525  -5.925  65.919  1.00  0.00     0.016 C 
ATOM     27  C   UNL     1      89.950  -7.110  68.496  1.00  0.00     0.063 C 
ATOM     28  C   UNL     1      88.688  -8.816  67.074  1.00  0.00     0.033 C 
ATOM     29  C   UNL     1      89.576  -8.592  68.309  1.00  0.00     0.118 C 
BRANCH  29  30
ATOM     30  O   UNL     1      88.979  -9.125  69.468  1.00  0.00    -0.393 OA
ATOM     31  H   UNL     1      88.930 -10.111  69.369  1.00  0.00     0.210 HD
ENDBRANCH  29  30
ENDBRANCH   9  11
ENDBRANCH   1   9
TORSDOF 7
ENDMDL
MODEL 2
REMARK VINA RESULT:    73.340      5.524      9.094
REMARK INTER + INTRA:         103.154
REMARK INTER:                 103.804
REMARK INTRA:                  -0.650
REMARK UNBOUND:                 1.946
REMARK SMILES CC[C@@H](CC[C@@H](C)[C@H]1CC[C@@H]2[C@H]3CC=C4C[C@@H](O)CC[C@@]4(C)[C@H]3CC[C@@]21C)C(C)C
REMARK SMILES IDX 5 1 4 2 3 3 2 4 1 5 28 6 29 7 30 8 6 9 7 10 8 11 9 12 26 13
REMARK SMILES IDX 10 14 11 15 25 16 27 17 12 18 24 19 23 20 13 21 21 22 14 23
REMARK SMILES IDX 15 24 20 25 22 26 16 27 19 28 17 29 18 30
REMARK H PARENT 18 31
REMARK Flexibility Score: inf
ROOT
ATOM      1  C   UNL     1      77.128   4.314  63.371  1.00  0.00     0.004 C 
ENDROOT
BRANCH   1   2
ATOM      2  C   UNL     1      78.303   5.326  63.270  1.00  0.00     0.004 C 
BRANCH   2   3
ATOM      3  C   UNL     1      78.581   6.201  64.531  1.00  0.00    -0.009 C 
BRANCH   3   4
ATOM      4  C   UNL     1      77.618   7.414  64.667  1.00  0.00     0.000 C 
ATOM      5  C   UNL     1      77.893   8.244  65.924  1.00  0.00     0.004 C 
ENDBRANCH   3   4
BRANCH   3   6
ATOM      6  C   UNL     1      80.077   6.605  64.753  1.00  0.00    -0.014 C 
ATOM      7  C   UNL     1      81.017   5.389  64.778  1.00  0.00     0.007 C 
ATOM      8  C   UNL     1      80.610   7.663  63.778  1.00  0.00     0.007 C 
ENDBRANCH   3   6
ENDBRANCH   2   3
ENDBRANCH   1   2
BRANCH   1   9
ATOM      9  C   UNL     1      77.431   2.950  62.689  1.00  0.00    -0.011 C 
ATOM     10  C   UNL     1      78.740   2.987  61.875  1.00  0.00     0.008 C 
BRANCH   9  11
ATOM     11  C   UNL     1      77.272   1.731  63.668  1.00  0.00    -0.002 C 
ATOM     12  C   UNL     1      76.877   0.461  62.894  1.00  0.00     0.005 C 
ATOM     13  C   UNL     1      78.417   1.301  64.688  1.00  0.00    -0.026 C 
ATOM     14  C   UNL     1      77.421  -0.704  63.689  1.00  0.00     0.005 C 
ATOM     15  C   UNL     1      78.719  -0.179  64.291  1.00  0.00    -0.001 C 
ATOM     16  C   UNL     1      77.851   1.382  66.140  1.00  0.00     0.007 C 
ATOM     17  C   UNL     1      79.710   2.159  64.617  1.00  0.00     0.012 C 
ATOM     18  C   UNL     1      79.277  -1.134  65.394  1.00  0.00     0.000 C 
ATOM     19  C   UNL     1      78.610   0.538  67.173  1.00  0.00     0.005 C 
ATOM     20  C   UNL     1      78.596  -0.956  66.775  1.00  0.00     0.003 C 
ATOM     21  C   UNL     1      80.809  -1.024  65.504  1.00  0.00     0.031 C 
ATOM     22  C   UNL     1      79.176  -1.976  67.848  1.00  0.00    -0.008 C 
ATOM     23  C   UNL     1      81.377  -1.852  66.615  1.00  0.00    -0.027 C 
ATOM     24  C   UNL     1      80.693  -2.171  67.731  1.00  0.00    -0.065 C 
ATOM     25  C   UNL     1      78.851  -1.523  69.306  1.00  0.00     0.014 C 
ATOM     26  C   UNL     1      78.501  -3.355  67.595  1.00  0.00     0.016 C 
ATOM     27  C   UNL     1      81.409  -2.971  68.807  1.00  0.00     0.063 C 
ATOM     28  C   UNL     1      79.489  -2.403  70.394  1.00  0.00     0.033 C 
ATOM     29  C   UNL     1      81.014  -2.519  70.225  1.00  0.00     0.118 C 
BRANCH  29  30
ATOM     30  O   UNL     1      81.657  -1.319  70.583  1.00  0.00    -0.393 OA
ATOM     31  H   UNL     1      82.301  -1.514  71.311  1.00  0.00     0.210 HD
ENDBRANCH  29  30
ENDBRANCH   9  11
ENDBRANCH   1   9
TORSDOF 7
ENDMDL
MODEL 3
REMARK VINA RESULT:    73.410      0.584      1.711
REMARK INTER + INTRA:         103.251
REMARK INTER:                 103.361
REMARK INTRA:                  -0.110
REMARK UNBOUND:                 1.946
REMARK SMILES CC[C@@H](CC[C@@H](C)[C@H]1CC[C@@H]2[C@H]3CC=C4C[C@@H](O)CC[C@@]4(C)[C@H]3CC[C@@]21C)C(C)C
REMARK SMILES IDX 5 1 4 2 3 3 2 4 1 5 28 6 29 7 30 8 6 9 7 10 8 11 9 12 26 13
REMARK SMILES IDX 10 14 11 15 25 16 27 17 12 18 24 19 23 20 13 21 21 22 14 23
REMARK SMILES IDX 15 24 20 25 22 26 16 27 19 28 17 29 18 30
REMARK H PARENT 18 31
REMARK Flexibility Score: inf
ROOT
ATOM      1  C   UNL     1      81.252  -1.287  68.186  1.00  0.00     0.004 C 
ENDROOT
BRANCH   1   2
ATOM      2  C   UNL     1      80.865  -1.795  66.769  1.00  0.00     0.004 C 
BRANCH   2   3
ATOM      3  C   UNL     1      79.464  -1.369  66.234  1.00  0.00    -0.009 C 
BRANCH   3   4
ATOM      4  C   UNL     1      79.401   0.116  65.776  1.00  0.00     0.000 C 
ATOM      5  C   UNL     1      78.715   0.283  64.418  1.00  0.00     0.004 C 
ENDBRANCH   3   4
BRANCH   3   6
ATOM      6  C   UNL     1      78.250  -1.760  67.143  1.00  0.00    -0.014 C 
ATOM      7  C   UNL     1      78.259  -3.247  67.530  1.00  0.00     0.007 C 
ATOM      8  C   UNL     1      78.077  -0.890  68.396  1.00  0.00     0.007 C 
ENDBRANCH   3   6
ENDBRANCH   2   3
ENDBRANCH   1   2
BRANCH   1   9
ATOM      9  C   UNL     1      82.115  -2.302  68.988  1.00  0.00    -0.011 C 
ATOM     10  C   UNL     1      81.263  -3.159  69.945  1.00  0.00     0.008 C 
BRANCH   9  11
ATOM     11  C   UNL     1      83.124  -3.093  68.080  1.00  0.00    -0.002 C 
ATOM     12  C   UNL     1      83.742  -2.165  67.019  1.00  0.00     0.005 C 
ATOM     13  C   UNL     1      84.324  -3.949  68.684  1.00  0.00    -0.026 C 
ATOM     14  C   UNL     1      85.108  -2.731  66.706  1.00  0.00     0.005 C 
ATOM     15  C   UNL     1      85.591  -3.310  68.030  1.00  0.00    -0.001 C 
ATOM     16  C   UNL     1      84.155  -5.433  68.234  1.00  0.00     0.007 C 
ATOM     17  C   UNL     1      84.435  -3.915  70.233  1.00  0.00     0.012 C 
ATOM     18  C   UNL     1      86.853  -4.212  67.846  1.00  0.00     0.000 C 
ATOM     19  C   UNL     1      85.443  -6.268  68.278  1.00  0.00     0.005 C 
ATOM     20  C   UNL     1      86.528  -5.649  67.367  1.00  0.00     0.003 C 
ATOM     21  C   UNL     1      87.719  -4.225  69.119  1.00  0.00     0.031 C 
ATOM     22  C   UNL     1      87.849  -6.509  67.161  1.00  0.00    -0.008 C 
ATOM     23  C   UNL     1      88.891  -5.153  69.019  1.00  0.00    -0.027 C 
ATOM     24  C   UNL     1      88.906  -6.254  68.243  1.00  0.00    -0.065 C 
ATOM     25  C   UNL     1      87.540  -8.040  67.130  1.00  0.00     0.014 C 
ATOM     26  C   UNL     1      88.466  -6.100  65.792  1.00  0.00     0.016 C 
ATOM     27  C   UNL     1      90.140  -7.141  68.280  1.00  0.00     0.063 C 
ATOM     28  C   UNL     1      88.791  -8.932  67.054  1.00  0.00     0.033 C 
ATOM     29  C   UNL     1      89.781  -8.636  68.193  1.00  0.00     0.118 C 
BRANCH  29  30
ATOM     30  O   UNL     1      89.302  -9.125  69.424  1.00  0.00    -0.393 OA
ATOM     31  H   UNL     1      88.532  -8.565  69.704  1.00  0.00     0.210 HD
ENDBRANCH  29  30
ENDBRANCH   9  11
ENDBRANCH   1   9
TORSDOF 7
ENDMDL
MODEL 4
REMARK VINA RESULT:    74.693      1.520      3.646
REMARK INTER + INTRA:         105.022
REMARK INTER:                 104.812
REMARK INTRA:                   0.210
REMARK UNBOUND:                 1.946
REMARK SMILES CC[C@@H](CC[C@@H](C)[C@H]1CC[C@@H]2[C@H]3CC=C4C[C@@H](O)CC[C@@]4(C)[C@H]3CC[C@@]21C)C(C)C
REMARK SMILES IDX 5 1 4 2 3 3 2 4 1 5 28 6 29 7 30 8 6 9 7 10 8 11 9 12 26 13
REMARK SMILES IDX 10 14 11 15 25 16 27 17 12 18 24 19 23 20 13 21 21 22 14 23
REMARK SMILES IDX 15 24 20 25 22 26 16 27 19 28 17 29 18 30
REMARK H PARENT 18 31
REMARK Flexibility Score: inf
ROOT
ATOM      1  C   UNL     1      80.229  -0.683  66.042  1.00  0.00     0.004 C 
ENDROOT
BRANCH   1   2
ATOM      2  C   UNL     1      78.877  -0.359  65.346  1.00  0.00     0.004 C 
BRANCH   2   3
ATOM      3  C   UNL     1      78.959   0.303  63.936  1.00  0.00    -0.009 C 
BRANCH   3   4
ATOM      4  C   UNL     1      80.158   1.280  63.781  1.00  0.00     0.000 C 
ATOM      5  C   UNL     1      80.476   1.590  62.315  1.00  0.00     0.004 C 
ENDBRANCH   3   4
BRANCH   3   6
ATOM      6  C   UNL     1      77.621   0.917  63.403  1.00  0.00    -0.014 C 
ATOM      7  C   UNL     1      77.280   2.257  64.075  1.00  0.00     0.007 C 
ATOM      8  C   UNL     1      77.540   1.058  61.877  1.00  0.00     0.007 C 
ENDBRANCH   3   6
ENDBRANCH   2   3
ENDBRANCH   1   2
BRANCH   1   9
ATOM      9  C   UNL     1      80.088  -0.942  67.568  1.00  0.00    -0.011 C 
ATOM     10  C   UNL     1      78.888  -1.855  67.893  1.00  0.00     0.008 C 
BRANCH   9  11
ATOM     11  C   UNL     1      81.449  -1.339  68.246  1.00  0.00    -0.002 C 
ATOM     12  C   UNL     1      81.221  -1.787  69.701  1.00  0.00     0.005 C 
ATOM     13  C   UNL     1      82.446  -2.400  67.599  1.00  0.00    -0.026 C 
ATOM     14  C   UNL     1      82.327  -2.766  70.020  1.00  0.00     0.005 C 
ATOM     15  C   UNL     1      82.581  -3.494  68.705  1.00  0.00    -0.001 C 
ATOM     16  C   UNL     1      83.817  -1.702  67.338  1.00  0.00     0.007 C 
ATOM     17  C   UNL     1      81.955  -3.030  66.267  1.00  0.00     0.012 C 
ATOM     18  C   UNL     1      83.897  -4.334  68.748  1.00  0.00     0.000 C 
ATOM     19  C   UNL     1      85.011  -2.659  67.213  1.00  0.00     0.005 C 
ATOM     20  C   UNL     1      85.178  -3.497  68.501  1.00  0.00     0.003 C 
ATOM     21  C   UNL     1      83.820  -5.540  67.796  1.00  0.00     0.031 C 
ATOM     22  C   UNL     1      86.488  -4.393  68.593  1.00  0.00    -0.008 C 
ATOM     23  C   UNL     1      85.097  -6.320  67.735  1.00  0.00    -0.027 C 
ATOM     24  C   UNL     1      86.311  -5.780  67.961  1.00  0.00    -0.065 C 
ATOM     25  C   UNL     1      87.710  -3.698  67.915  1.00  0.00     0.014 C 
ATOM     26  C   UNL     1      86.809  -4.600  70.102  1.00  0.00     0.016 C 
ATOM     27  C   UNL     1      87.532  -6.672  67.810  1.00  0.00     0.063 C 
ATOM     28  C   UNL     1      88.978  -4.566  67.863  1.00  0.00     0.033 C 
ATOM     29  C   UNL     1      88.723  -5.923  67.185  1.00  0.00     0.118 C 
BRANCH  29  30
ATOM     30  O   UNL     1      88.567  -5.774  65.793  1.00  0.00    -0.393 OA
ATOM     31  H   UNL     1      89.037  -6.522  65.343  1.00  0.00     0.210 HD
ENDBRANCH  29  30
ENDBRANCH   9  11
ENDBRANCH   1   9
TORSDOF 7
ENDMDL
MODEL 5
REMARK VINA RESULT:    75.143     11.244     13.628
REMARK INTER + INTRA:         105.642
REMARK INTER:                 105.590
REMARK INTRA:                   0.052
REMARK UNBOUND:                 1.946
REMARK SMILES CC[C@@H](CC[C@@H](C)[C@H]1CC[C@@H]2[C@H]3CC=C4C[C@@H](O)CC[C@@]4(C)[C@H]3CC[C@@]21C)C(C)C
REMARK SMILES IDX 5 1 4 2 3 3 2 4 1 5 28 6 29 7 30 8 6 9 7 10 8 11 9 12 26 13
REMARK SMILES IDX 10 14 11 15 25 16 27 17 12 18 24 19 23 20 13 21 21 22 14 23
REMARK SMILES IDX 15 24 20 25 22 26 16 27 19 28 17 29 18 30
REMARK H PARENT 18 31
REMARK Flexibility Score: inf
ROOT
ATOM      1  C   UNL     1      80.963   1.781  75.495  1.00  0.00     0.004 C 
ENDROOT
BRANCH   1   2
ATOM      2  C   UNL     1      80.665   2.199  76.962  1.00  0.00     0.004 C 
BRANCH   2   3
ATOM      3  C   UNL     1      79.230   1.897  77.496  1.00  0.00    -0.009 C 
BRANCH   3   4
ATOM      4  C   UNL     1      79.064   0.449  78.036  1.00  0.00     0.000 C 
ATOM      5  C   UNL     1      79.071   0.389  79.566  1.00  0.00     0.004 C 
ENDBRANCH   3   4
BRANCH   3   6
ATOM      6  C   UNL     1      78.058   2.313  76.545  1.00  0.00    -0.014 C 
ATOM      7  C   UNL     1      77.480   1.120  75.766  1.00  0.00     0.007 C 
ATOM      8  C   UNL     1      76.926   3.097  77.222  1.00  0.00     0.007 C 
ENDBRANCH   3   6
ENDBRANCH   2   3
ENDBRANCH   1   2
BRANCH   1   9
ATOM      9  C   UNL     1      81.757   2.855  74.700  1.00  0.00    -0.011 C 
ATOM     10  C   UNL     1      80.858   3.629  73.714  1.00  0.00     0.008 C 
BRANCH   9  11
ATOM     11  C   UNL     1      82.677   3.736  75.619  1.00  0.00    -0.002 C 
ATOM     12  C   UNL     1      83.239   2.902  76.784  1.00  0.00     0.005 C 
ATOM     13  C   UNL     1      83.896   4.585  75.043  1.00  0.00    -0.026 C 
ATOM     14  C   UNL     1      84.564   3.529  77.152  1.00  0.00     0.005 C 
ATOM     15  C   UNL     1      85.128   4.031  75.829  1.00  0.00    -0.001 C 
ATOM     16  C   UNL     1      83.658   6.091  75.375  1.00  0.00     0.007 C 
ATOM     17  C   UNL     1      84.120   4.449  73.512  1.00  0.00     0.012 C 
ATOM     18  C   UNL     1      86.350   4.980  76.037  1.00  0.00     0.000 C 
ATOM     19  C   UNL     1      84.924   6.959  75.364  1.00  0.00     0.005 C 
ATOM     20  C   UNL     1      85.955   6.437  76.391  1.00  0.00     0.003 C 
ATOM     21  C   UNL     1      87.305   4.933  74.832  1.00  0.00     0.031 C 
ATOM     22  C   UNL     1      87.235   7.348  76.629  1.00  0.00    -0.008 C 
ATOM     23  C   UNL     1      88.443   5.900  74.949  1.00  0.00    -0.027 C 
ATOM     24  C   UNL     1      88.374   7.051  75.645  1.00  0.00    -0.065 C 
ATOM     25  C   UNL     1      86.887   8.867  76.531  1.00  0.00     0.014 C 
ATOM     26  C   UNL     1      87.761   7.051  78.063  1.00  0.00     0.016 C 
ATOM     27  C   UNL     1      89.585   7.970  75.634  1.00  0.00     0.063 C 
ATOM     28  C   UNL     1      88.106   9.799  76.632  1.00  0.00     0.033 C 
ATOM     29  C   UNL     1      89.184   9.456  75.590  1.00  0.00     0.118 C 
BRANCH  29  30
ATOM     30  O   UNL     1      88.783   9.846  74.297  1.00  0.00    -0.393 OA
ATOM     31  H   UNL     1      87.792   9.816  74.255  1.00  0.00     0.210 HD
ENDBRANCH  29  30
ENDBRANCH   9  11
ENDBRANCH   1   9
TORSDOF 7
ENDMDL
MODEL 6
REMARK VINA RESULT:    75.609      6.668     12.846
REMARK INTER + INTRA:         106.285
REMARK INTER:                 105.984
REMARK INTRA:                   0.301
REMARK UNBOUND:                 1.946
REMARK SMILES CC[C@@H](CC[C@@H](C)[C@H]1CC[C@@H]2[C@H]3CC=C4C[C@@H](O)CC[C@@]4(C)[C@H]3CC[C@@]21C)C(C)C
REMARK SMILES IDX 5 1 4 2 3 3 2 4 1 5 28 6 29 7 30 8 6 9 7 10 8 11 9 12 26 13
REMARK SMILES IDX 10 14 11 15 25 16 27 17 12 18 24 19 23 20 13 21 21 22 14 23
REMARK SMILES IDX 15 24 20 25 22 26 16 27 19 28 17 29 18 30
REMARK H PARENT 18 31
REMARK Flexibility Score: inf
ROOT
ATOM      1  C   UNL     1      79.302   0.333  64.504  1.00  0.00     0.004 C 
ENDROOT
BRANCH   1   2
ATOM      2  C   UNL     1      78.595  -0.743  65.375  1.00  0.00     0.004 C 
BRANCH   2   3
ATOM      3  C   UNL     1      79.211  -1.018  66.781  1.00  0.00    -0.009 C 
BRANCH   3   4
ATOM      4  C   UNL     1      80.764  -0.951  66.799  1.00  0.00     0.000 C 
ATOM      5  C   UNL     1      81.381  -1.902  67.828  1.00  0.00     0.004 C 
ENDBRANCH   3   4
BRANCH   3   6
ATOM      6  C   UNL     1      78.665  -2.287  67.518  1.00  0.00    -0.014 C 
ATOM      7  C   UNL     1      78.899  -2.233  69.036  1.00  0.00     0.007 C 
ATOM      8  C   UNL     1      77.196  -2.621  67.222  1.00  0.00     0.007 C 
ENDBRANCH   3   6
ENDBRANCH   2   3
ENDBRANCH   1   2
BRANCH   1   9
ATOM      9  C   UNL     1      78.341   1.056  63.519  1.00  0.00    -0.011 C 
ATOM     10  C   UNL     1      76.875   1.002  63.994  1.00  0.00     0.008 C 
BRANCH   9  11
ATOM     11  C   UNL     1      78.866   2.473  63.088  1.00  0.00    -0.002 C 
ATOM     12  C   UNL     1      78.077   2.999  61.876  1.00  0.00     0.005 C 
ATOM     13  C   UNL     1      78.982   3.688  64.112  1.00  0.00    -0.026 C 
ATOM     14  C   UNL     1      78.107   4.507  61.973  1.00  0.00     0.005 C 
ATOM     15  C   UNL     1      78.082   4.791  63.470  1.00  0.00    -0.001 C 
ATOM     16  C   UNL     1      80.471   4.151  64.171  1.00  0.00     0.007 C 
ATOM     17  C   UNL     1      78.509   3.371  65.557  1.00  0.00     0.012 C 
ATOM     18  C   UNL     1      78.415   6.284  63.786  1.00  0.00     0.000 C 
ATOM     19  C   UNL     1      80.678   5.585  64.680  1.00  0.00     0.005 C 
ATOM     20  C   UNL     1      79.933   6.598  63.780  1.00  0.00     0.003 C 
ATOM     21  C   UNL     1      77.752   6.738  65.099  1.00  0.00     0.031 C 
ATOM     22  C   UNL     1      80.213   8.135  64.069  1.00  0.00    -0.008 C 
ATOM     23  C   UNL     1      78.124   8.135  65.489  1.00  0.00    -0.027 C 
ATOM     24  C   UNL     1      79.286   8.722  65.142  1.00  0.00    -0.065 C 
ATOM     25  C   UNL     1      81.690   8.378  64.513  1.00  0.00     0.014 C 
ATOM     26  C   UNL     1      79.958   8.915  62.747  1.00  0.00     0.016 C 
ATOM     27  C   UNL     1      79.562  10.127  65.653  1.00  0.00     0.063 C 
ATOM     28  C   UNL     1      81.992   9.829  64.925  1.00  0.00     0.033 C 
ATOM     29  C   UNL     1      81.042  10.327  66.027  1.00  0.00     0.118 C 
BRANCH  29  30
ATOM     30  O   UNL     1      81.347   9.734  67.268  1.00  0.00    -0.393 OA
ATOM     31  H   UNL     1      81.860  10.388  67.809  1.00  0.00     0.210 HD
ENDBRANCH  29  30
ENDBRANCH   9  11
ENDBRANCH   1   9
TORSDOF 7
ENDMDL
