MODEL 1
REMARK VINA RESULT:    -5.030      0.000      0.000
REMARK INTER + INTRA:          -8.554
REMARK INTER:                  -7.089
REMARK INTRA:                  -1.465
REMARK UNBOUND:                -1.465
REMARK SMILES COc1c(O[C@@H]2O[C@@H](C(=O)[O-])[C@H](O)[C@H](O)[C@H]2O)cc(O)c2c(=O)cc(-c3ccccc3)oc12
REMARK SMILES IDX 5 1 6 2 8 3 12 4 7 5 14 6 16 7 9 8 10 9 11 10 13 11 15 13
REMARK SMILES IDX 17 15 4 17 3 18 18 19 33 20 19 21 21 22 32 23 22 24 25 25
REMARK SMILES IDX 24 26 23 27 2 28 1 29 20 30 26 32 27 33 31 34 28 35 30 36
REMARK SMILES IDX 29 37
REMARK H PARENT 13 12 15 14 17 16 20 31
REMARK Flexibility Score: inf
ROOT
ATOM      1  O   UNL     1      22.311  11.795  85.575  1.00  0.00    -0.458 OA
ENDROOT
BRANCH   1   2
ATOM      2  C   UNL     1      23.381  12.749  85.613  1.00  0.00     0.339 C 
ATOM      3  C   UNL     1      25.795  12.561  85.757  1.00  0.00     0.199 C 
ATOM      4  C   UNL     1      25.772  14.103  85.929  1.00  0.00     0.180 C 
ATOM      5  O   UNL     1      24.575  12.076  85.207  1.00  0.00    -0.328 OA
ATOM      6  C   UNL     1      24.592  14.524  86.902  1.00  0.00     0.181 C 
ATOM      7  C   UNL     1      23.584  13.357  87.066  1.00  0.00     0.214 C 
BRANCH   3   8
ATOM      8  C   UNL     1      26.855  12.123  84.810  1.00  0.00     0.073 C 
ATOM      9  O   UNL     1      26.606  11.929  83.570  1.00  0.00    -0.547 OA
ATOM     10  O   UNL     1      28.159  12.002  85.274  1.00  0.00    -0.547 OA
ENDBRANCH   3   8
BRANCH   4  11
ATOM     11  O   UNL     1      27.028  14.524  86.434  1.00  0.00    -0.387 OA
ATOM     12  H   UNL     1      26.924  14.645  87.411  1.00  0.00     0.211 HD
ENDBRANCH   4  11
BRANCH   6  13
ATOM     13  O   UNL     1      25.115  15.045  88.125  1.00  0.00    -0.387 OA
ATOM     14  H   UNL     1      24.987  16.050  88.159  1.00  0.00     0.211 HD
ENDBRANCH   6  13
BRANCH   7  15
ATOM     15  O   UNL     1      22.377  13.796  87.659  1.00  0.00    -0.384 OA
ATOM     16  H   UNL     1      21.854  14.259  86.930  1.00  0.00     0.211 HD
ENDBRANCH   7  15
ENDBRANCH   1   2
BRANCH   1  17
ATOM     17  C   UNL     1      21.000  12.062  85.144  1.00  0.00     0.172 A 
ATOM     18  C   UNL     1      19.853  11.890  85.967  1.00  0.00     0.205 A 
ATOM     19  C   UNL     1      20.830  12.739  83.886  1.00  0.00     0.097 A 
ATOM     20  C   UNL     1      18.544  12.081  85.429  1.00  0.00     0.188 A 
ATOM     21  C   UNL     1      19.546  13.119  83.422  1.00  0.00     0.134 A 
ATOM     22  C   UNL     1      18.396  12.742  84.165  1.00  0.00     0.111 A 
ATOM     23  O   UNL     1      17.493  11.968  86.251  1.00  0.00    -0.452 OA
ATOM     24  C   UNL     1      17.055  12.941  83.722  1.00  0.00     0.197 A 
ATOM     25  C   UNL     1      16.253  12.270  85.898  1.00  0.00     0.138 A 
ATOM     26  C   UNL     1      15.995  12.715  84.596  1.00  0.00     0.100 A 
ATOM     27  O   UNL     1      16.802  13.306  82.543  1.00  0.00    -0.289 OA
BRANCH  18  28
ATOM     28  O   UNL     1      19.968  11.938  87.386  1.00  0.00    -0.490 OA
ATOM     29  C   UNL     1      20.194  10.686  88.053  1.00  0.00     0.278 C 
ENDBRANCH  18  28
BRANCH  21  30
ATOM     30  O   UNL     1      19.489  14.161  82.477  1.00  0.00    -0.507 OA
ATOM     31  H   UNL     1      20.304  14.626  82.084  1.00  0.00     0.293 HD
ENDBRANCH  21  30
BRANCH  25  32
ATOM     32  C   UNL     1      15.116  12.166  86.840  1.00  0.00     0.017 A 
ATOM     33  C   UNL     1      14.424  10.968  87.068  1.00  0.00     0.012 A 
ATOM     34  C   UNL     1      14.575  13.372  87.312  1.00  0.00     0.012 A 
ATOM     35  C   UNL     1      13.180  10.977  87.737  1.00  0.00     0.001 A 
ATOM     36  C   UNL     1      13.308  13.401  87.915  1.00  0.00     0.001 A 
ATOM     37  C   UNL     1      12.591  12.208  88.125  1.00  0.00     0.000 A 
ENDBRANCH  25  32
ENDBRANCH   1  17
TORSDOF 9
ENDMDL
MODEL 2
REMARK VINA RESULT:    -4.868      3.283      9.336
REMARK INTER + INTRA:          -8.325
REMARK INTER:                  -6.733
REMARK INTRA:                  -1.592
REMARK UNBOUND:                -1.465
REMARK SMILES COc1c(O[C@@H]2O[C@@H](C(=O)[O-])[C@H](O)[C@H](O)[C@H]2O)cc(O)c2c(=O)cc(-c3ccccc3)oc12
REMARK SMILES IDX 5 1 6 2 8 3 12 4 7 5 14 6 16 7 9 8 10 9 11 10 13 11 15 13
REMARK SMILES IDX 17 15 4 17 3 18 18 19 33 20 19 21 21 22 32 23 22 24 25 25
REMARK SMILES IDX 24 26 23 27 2 28 1 29 20 30 26 32 27 33 31 34 28 35 30 36
REMARK SMILES IDX 29 37
REMARK H PARENT 13 12 15 14 17 16 20 31
REMARK Flexibility Score: inf
ROOT
ATOM      1  O   UNL     1      16.722  12.100  83.405  1.00  0.00    -0.458 OA
ENDROOT
BRANCH   1   2
ATOM      2  C   UNL     1      15.466  11.578  83.861  1.00  0.00     0.339 C 
ATOM      3  C   UNL     1      14.543  11.096  86.052  1.00  0.00     0.199 C 
ATOM      4  C   UNL     1      13.372  10.447  85.268  1.00  0.00     0.180 C 
ATOM      5  O   UNL     1      15.306  11.971  85.226  1.00  0.00    -0.328 OA
ATOM      6  C   UNL     1      13.935   9.605  84.048  1.00  0.00     0.181 C 
ATOM      7  C   UNL     1      15.405   9.995  83.754  1.00  0.00     0.214 C 
BRANCH   3   8
ATOM      8  C   UNL     1      14.060  11.940  87.177  1.00  0.00     0.073 C 
ATOM      9  O   UNL     1      14.341  13.187  87.247  1.00  0.00    -0.547 OA
ATOM     10  O   UNL     1      13.218  11.373  88.125  1.00  0.00    -0.547 OA
ENDBRANCH   3   8
BRANCH   4  11
ATOM     11  O   UNL     1      12.628   9.629  86.156  1.00  0.00    -0.387 OA
ATOM     12  H   UNL     1      13.253   9.318  86.859  1.00  0.00     0.211 HD
ENDBRANCH   4  11
BRANCH   6  13
ATOM     13  O   UNL     1      13.712   8.209  84.259  1.00  0.00    -0.387 OA
ATOM     14  H   UNL     1      12.841   8.066  84.757  1.00  0.00     0.211 HD
ENDBRANCH   6  13
BRANCH   7  15
ATOM     15  O   UNL     1      15.830   9.506  82.495  1.00  0.00    -0.384 OA
ATOM     16  H   UNL     1      16.633  10.057  82.233  1.00  0.00     0.211 HD
ENDBRANCH   7  15
ENDBRANCH   1   2
BRANCH   1  17
ATOM     17  C   UNL     1      17.933  12.037  84.116  1.00  0.00     0.172 A 
ATOM     18  C   UNL     1      18.821  10.928  84.055  1.00  0.00     0.205 A 
ATOM     19  C   UNL     1      18.393  13.233  84.769  1.00  0.00     0.097 A 
ATOM     20  C   UNL     1      19.982  10.887  84.886  1.00  0.00     0.188 A 
ATOM     21  C   UNL     1      19.644  13.274  85.434  1.00  0.00     0.134 A 
ATOM     22  C   UNL     1      20.416  12.086  85.542  1.00  0.00     0.111 A 
ATOM     23  O   UNL     1      20.824   9.855  84.755  1.00  0.00    -0.452 OA
ATOM     24  C   UNL     1      21.612  11.975  86.310  1.00  0.00     0.197 A 
ATOM     25  C   UNL     1      22.001   9.790  85.361  1.00  0.00     0.138 A 
ATOM     26  C   UNL     1      22.401  10.833  86.204  1.00  0.00     0.100 A 
ATOM     27  O   UNL     1      21.970  12.889  87.101  1.00  0.00    -0.289 OA
BRANCH  18  28
ATOM     28  O   UNL     1      18.822  10.064  82.923  1.00  0.00    -0.490 OA
ATOM     29  C   UNL     1      19.333  10.614  81.697  1.00  0.00     0.278 C 
ENDBRANCH  18  28
BRANCH  21  30
ATOM     30  O   UNL     1      20.233  14.540  85.614  1.00  0.00    -0.507 OA
ATOM     31  H   UNL     1      20.726  14.830  86.454  1.00  0.00     0.293 HD
ENDBRANCH  21  30
BRANCH  25  32
ATOM     32  C   UNL     1      22.925   8.649  85.171  1.00  0.00     0.017 A 
ATOM     33  C   UNL     1      22.589   7.333  85.516  1.00  0.00     0.012 A 
ATOM     34  C   UNL     1      24.260   8.962  84.874  1.00  0.00     0.012 A 
ATOM     35  C   UNL     1      23.588   6.336  85.594  1.00  0.00     0.001 A 
ATOM     36  C   UNL     1      25.270   7.998  85.016  1.00  0.00     0.001 A 
ATOM     37  C   UNL     1      24.949   6.679  85.389  1.00  0.00     0.000 A 
ENDBRANCH  25  32
ENDBRANCH   1  17
TORSDOF 9
ENDMDL
MODEL 3
REMARK VINA RESULT:    -4.768     13.237     15.002
REMARK INTER + INTRA:          -8.183
REMARK INTER:                  -6.614
REMARK INTRA:                  -1.570
REMARK UNBOUND:                -1.465
REMARK SMILES COc1c(O[C@@H]2O[C@@H](C(=O)[O-])[C@H](O)[C@H](O)[C@H]2O)cc(O)c2c(=O)cc(-c3ccccc3)oc12
REMARK SMILES IDX 5 1 6 2 8 3 12 4 7 5 14 6 16 7 9 8 10 9 11 10 13 11 15 13
REMARK SMILES IDX 17 15 4 17 3 18 18 19 33 20 19 21 21 22 32 23 22 24 25 25
REMARK SMILES IDX 24 26 23 27 2 28 1 29 20 30 26 32 27 33 31 34 28 35 30 36
REMARK SMILES IDX 29 37
REMARK H PARENT 13 12 15 14 17 16 20 31
REMARK Flexibility Score: inf
ROOT
ATOM      1  O   UNL     1      25.583  16.466  73.866  1.00  0.00    -0.458 OA
ENDROOT
BRANCH   1   2
ATOM      2  C   UNL     1      26.696  16.881  73.063  1.00  0.00     0.339 C 
ATOM      3  C   UNL     1      27.164  18.854  71.731  1.00  0.00     0.199 C 
ATOM      4  C   UNL     1      28.416  18.072  71.254  1.00  0.00     0.180 C 
ATOM      5  O   UNL     1      26.625  18.303  72.928  1.00  0.00    -0.328 OA
ATOM      6  C   UNL     1      28.037  16.558  70.972  1.00  0.00     0.181 C 
ATOM      7  C   UNL     1      26.674  16.211  71.624  1.00  0.00     0.214 C 
BRANCH   3   8
ATOM      8  C   UNL     1      27.482  20.269  72.058  1.00  0.00     0.073 C 
ATOM      9  O   UNL     1      27.642  21.149  71.142  1.00  0.00    -0.547 OA
ATOM     10  O   UNL     1      27.523  20.655  73.392  1.00  0.00    -0.547 OA
ENDBRANCH   3   8
BRANCH   4  11
ATOM     11  O   UNL     1      28.928  18.699  70.090  1.00  0.00    -0.387 OA
ATOM     12  H   UNL     1      29.473  19.470  70.389  1.00  0.00     0.211 HD
ENDBRANCH   4  11
BRANCH   6  13
ATOM     13  O   UNL     1      28.127  16.273  69.575  1.00  0.00    -0.387 OA
ATOM     14  H   UNL     1      29.073  16.432  69.246  1.00  0.00     0.211 HD
ENDBRANCH   6  13
BRANCH   7  15
ATOM     15  O   UNL     1      26.461  14.813  71.664  1.00  0.00    -0.384 OA
ATOM     16  H   UNL     1      27.270  14.416  72.120  1.00  0.00     0.211 HD
ENDBRANCH   7  15
ENDBRANCH   1   2
BRANCH   1  17
ATOM     17  C   UNL     1      24.244  16.837  73.651  1.00  0.00     0.172 A 
ATOM     18  C   UNL     1      23.331  16.067  72.879  1.00  0.00     0.205 A 
ATOM     19  C   UNL     1      23.718  17.935  74.418  1.00  0.00     0.097 A 
ATOM     20  C   UNL     1      22.017  16.558  72.615  1.00  0.00     0.188 A 
ATOM     21  C   UNL     1      22.356  18.316  74.321  1.00  0.00     0.134 A 
ATOM     22  C   UNL     1      21.516  17.664  73.378  1.00  0.00     0.111 A 
ATOM     23  O   UNL     1      21.168  15.777  71.935  1.00  0.00    -0.452 OA
ATOM     24  C   UNL     1      20.177  18.061  73.092  1.00  0.00     0.197 A 
ATOM     25  C   UNL     1      19.885  16.065  71.766  1.00  0.00     0.138 A 
ATOM     26  C   UNL     1      19.368  17.252  72.297  1.00  0.00     0.100 A 
ATOM     27  O   UNL     1      19.705  19.144  73.532  1.00  0.00    -0.289 OA
BRANCH  18  28
ATOM     28  O   UNL     1      23.530  14.668  72.708  1.00  0.00    -0.490 OA
ATOM     29  C   UNL     1      23.324  13.845  73.868  1.00  0.00     0.278 C 
ENDBRANCH  18  28
BRANCH  21  30
ATOM     30  O   UNL     1      21.813  19.032  75.403  1.00  0.00    -0.507 OA
ATOM     31  H   UNL     1      22.241  19.854  75.822  1.00  0.00     0.293 HD
ENDBRANCH  21  30
BRANCH  25  32
ATOM     32  C   UNL     1      18.964  15.165  71.037  1.00  0.00     0.017 A 
ATOM     33  C   UNL     1      18.098  15.615  70.030  1.00  0.00     0.012 A 
ATOM     34  C   UNL     1      18.791  13.876  71.565  1.00  0.00     0.012 A 
ATOM     35  C   UNL     1      17.043  14.794  69.574  1.00  0.00     0.001 A 
ATOM     36  C   UNL     1      17.705  13.080  71.170  1.00  0.00     0.001 A 
ATOM     37  C   UNL     1      16.812  13.532  70.180  1.00  0.00     0.000 A 
ENDBRANCH  25  32
ENDBRANCH   1  17
TORSDOF 9
ENDMDL
MODEL 4
REMARK VINA RESULT:    -4.647      2.617      4.163
REMARK INTER + INTRA:          -8.014
REMARK INTER:                  -6.942
REMARK INTRA:                  -1.072
REMARK UNBOUND:                -1.465
REMARK SMILES COc1c(O[C@@H]2O[C@@H](C(=O)[O-])[C@H](O)[C@H](O)[C@H]2O)cc(O)c2c(=O)cc(-c3ccccc3)oc12
REMARK SMILES IDX 5 1 6 2 8 3 12 4 7 5 14 6 16 7 9 8 10 9 11 10 13 11 15 13
REMARK SMILES IDX 17 15 4 17 3 18 18 19 33 20 19 21 21 22 32 23 22 24 25 25
REMARK SMILES IDX 24 26 23 27 2 28 1 29 20 30 26 32 27 33 31 34 28 35 30 36
REMARK SMILES IDX 29 37
REMARK H PARENT 13 12 15 14 17 16 20 31
REMARK Flexibility Score: inf
ROOT
ATOM      1  O   UNL     1      22.408  15.647  83.855  1.00  0.00    -0.458 OA
ENDROOT
BRANCH   1   2
ATOM      2  C   UNL     1      23.229  16.730  84.315  1.00  0.00     0.339 C 
ATOM      3  C   UNL     1      25.219  16.860  85.696  1.00  0.00     0.199 C 
ATOM      4  C   UNL     1      24.999  18.394  85.635  1.00  0.00     0.180 C 
ATOM      5  O   UNL     1      24.503  16.185  84.665  1.00  0.00    -0.328 OA
ATOM      6  C   UNL     1      23.457  18.729  85.806  1.00  0.00     0.181 C 
ATOM      7  C   UNL     1      22.599  17.459  85.577  1.00  0.00     0.214 C 
BRANCH   3   8
ATOM      8  C   UNL     1      26.645  16.493  85.489  1.00  0.00     0.073 C 
ATOM      9  O   UNL     1      27.477  16.465  86.461  1.00  0.00    -0.547 OA
ATOM     10  O   UNL     1      27.056  16.093  84.223  1.00  0.00    -0.547 OA
ENDBRANCH   3   8
BRANCH   4  11
ATOM     11  O   UNL     1      25.772  19.006  86.654  1.00  0.00    -0.387 OA
ATOM     12  H   UNL     1      25.258  19.786  86.982  1.00  0.00     0.211 HD
ENDBRANCH   4  11
BRANCH   6  13
ATOM     13  O   UNL     1      23.226  19.398  87.047  1.00  0.00    -0.387 OA
ATOM     14  H   UNL     1      24.104  19.717  87.441  1.00  0.00     0.211 HD
ENDBRANCH   6  13
BRANCH   7  15
ATOM     15  O   UNL     1      21.232  17.783  85.408  1.00  0.00    -0.384 OA
ATOM     16  H   UNL     1      21.008  17.575  84.446  1.00  0.00     0.211 HD
ENDBRANCH   7  15
ENDBRANCH   1   2
BRANCH   1  17
ATOM     17  C   UNL     1      21.812  14.674  84.678  1.00  0.00     0.172 A 
ATOM     18  C   UNL     1      20.423  14.373  84.657  1.00  0.00     0.205 A 
ATOM     19  C   UNL     1      22.680  13.800  85.422  1.00  0.00     0.097 A 
ATOM     20  C   UNL     1      19.872  13.447  85.594  1.00  0.00     0.188 A 
ATOM     21  C   UNL     1      22.160  12.741  86.207  1.00  0.00     0.134 A 
ATOM     22  C   UNL     1      20.753  12.597  86.339  1.00  0.00     0.111 A 
ATOM     23  O   UNL     1      18.570  13.145  85.503  1.00  0.00    -0.452 OA
ATOM     24  C   UNL     1      20.123  11.664  87.215  1.00  0.00     0.197 A 
ATOM     25  C   UNL     1      17.989  12.193  86.218  1.00  0.00     0.138 A 
ATOM     26  C   UNL     1      18.747  11.461  87.139  1.00  0.00     0.100 A 
ATOM     27  O   UNL     1      20.785  11.023  88.075  1.00  0.00    -0.289 OA
BRANCH  18  28
ATOM     28  O   UNL     1      19.644  14.637  83.495  1.00  0.00    -0.490 OA
ATOM     29  C   UNL     1      18.939  15.889  83.467  1.00  0.00     0.278 C 
ENDBRANCH  18  28
BRANCH  21  30
ATOM     30  O   UNL     1      23.030  11.672  86.496  1.00  0.00    -0.507 OA
ATOM     31  H   UNL     1      24.017  11.652  86.253  1.00  0.00     0.293 HD
ENDBRANCH  21  30
BRANCH  25  32
ATOM     32  C   UNL     1      16.554  11.860  86.071  1.00  0.00     0.017 A 
ATOM     33  C   UNL     1      15.701  11.673  87.167  1.00  0.00     0.012 A 
ATOM     34  C   UNL     1      16.124  11.476  84.792  1.00  0.00     0.012 A 
ATOM     35  C   UNL     1      14.433  11.075  86.993  1.00  0.00     0.001 A 
ATOM     36  C   UNL     1      14.896  10.818  84.617  1.00  0.00     0.001 A 
ATOM     37  C   UNL     1      14.042  10.599  85.715  1.00  0.00     0.000 A 
ENDBRANCH  25  32
ENDBRANCH   1  17
TORSDOF 9
ENDMDL
MODEL 5
REMARK VINA RESULT:    -4.626     12.789     14.888
REMARK INTER + INTRA:          -7.984
REMARK INTER:                  -6.565
REMARK INTRA:                  -1.420
REMARK UNBOUND:                -1.465
REMARK SMILES COc1c(O[C@@H]2O[C@@H](C(=O)[O-])[C@H](O)[C@H](O)[C@H]2O)cc(O)c2c(=O)cc(-c3ccccc3)oc12
REMARK SMILES IDX 5 1 6 2 8 3 12 4 7 5 14 6 16 7 9 8 10 9 11 10 13 11 15 13
REMARK SMILES IDX 17 15 4 17 3 18 18 19 33 20 19 21 21 22 32 23 22 24 25 25
REMARK SMILES IDX 24 26 23 27 2 28 1 29 20 30 26 32 27 33 31 34 28 35 30 36
REMARK SMILES IDX 29 37
REMARK H PARENT 13 12 15 14 17 16 20 31
REMARK Flexibility Score: inf
ROOT
ATOM      1  O   UNL     1      24.240  16.920  74.072  1.00  0.00    -0.458 OA
ENDROOT
BRANCH   1   2
ATOM      2  C   UNL     1      25.385  17.399  73.352  1.00  0.00     0.339 C 
ATOM      3  C   UNL     1      25.786  19.312  71.915  1.00  0.00     0.199 C 
ATOM      4  C   UNL     1      27.156  18.643  71.631  1.00  0.00     0.180 C 
ATOM      5  O   UNL     1      25.181  18.790  73.095  1.00  0.00    -0.328 OA
ATOM      6  C   UNL     1      26.969  17.080  71.438  1.00  0.00     0.181 C 
ATOM      7  C   UNL     1      25.587  16.630  71.978  1.00  0.00     0.214 C 
BRANCH   3   8
ATOM      8  C   UNL     1      25.918  20.774  72.156  1.00  0.00     0.073 C 
ATOM      9  O   UNL     1      27.051  21.309  72.417  1.00  0.00    -0.547 OA
ATOM     10  O   UNL     1      24.797  21.580  72.010  1.00  0.00    -0.547 OA
ENDBRANCH   3   8
BRANCH   4  11
ATOM     11  O   UNL     1      27.723  19.239  70.476  1.00  0.00    -0.387 OA
ATOM     12  H   UNL     1      28.677  18.975  70.450  1.00  0.00     0.211 HD
ENDBRANCH   4  11
BRANCH   6  13
ATOM     13  O   UNL     1      27.238  16.708  70.085  1.00  0.00    -0.387 OA
ATOM     14  H   UNL     1      27.067  15.718  69.954  1.00  0.00     0.211 HD
ENDBRANCH   6  13
BRANCH   7  15
ATOM     15  O   UNL     1      25.517  15.223  72.112  1.00  0.00    -0.384 OA
ATOM     16  H   UNL     1      26.441  14.917  72.382  1.00  0.00     0.211 HD
ENDBRANCH   7  15
ENDBRANCH   1   2
BRANCH   1  17
ATOM     17  C   UNL     1      22.907  17.014  73.633  1.00  0.00     0.172 A 
ATOM     18  C   UNL     1      22.209  15.943  73.011  1.00  0.00     0.205 A 
ATOM     19  C   UNL     1      22.153  18.176  74.020  1.00  0.00     0.097 A 
ATOM     20  C   UNL     1      20.893  16.144  72.496  1.00  0.00     0.188 A 
ATOM     21  C   UNL     1      20.780  18.306  73.690  1.00  0.00     0.134 A 
ATOM     22  C   UNL     1      20.162  17.317  72.880  1.00  0.00     0.111 A 
ATOM     23  O   UNL     1      20.246  15.096  71.971  1.00  0.00    -0.452 OA
ATOM     24  C   UNL     1      18.836  17.417  72.366  1.00  0.00     0.197 A 
ATOM     25  C   UNL     1      18.973  15.130  71.604  1.00  0.00     0.138 A 
ATOM     26  C   UNL     1      18.248  16.319  71.743  1.00  0.00     0.100 A 
ATOM     27  O   UNL     1      18.180  18.490  72.449  1.00  0.00    -0.289 OA
BRANCH  18  28
ATOM     28  O   UNL     1      22.599  14.594  73.244  1.00  0.00    -0.490 OA
ATOM     29  C   UNL     1      22.364  14.078  74.564  1.00  0.00     0.278 C 
ENDBRANCH  18  28
BRANCH  21  30
ATOM     30  O   UNL     1      20.011  19.181  74.480  1.00  0.00    -0.507 OA
ATOM     31  H   UNL     1      20.273  20.139  74.698  1.00  0.00     0.293 HD
ENDBRANCH  21  30
BRANCH  25  32
ATOM     32  C   UNL     1      18.277  13.945  71.057  1.00  0.00     0.017 A 
ATOM     33  C   UNL     1      18.378  12.670  71.633  1.00  0.00     0.012 A 
ATOM     34  C   UNL     1      17.713  14.078  69.779  1.00  0.00     0.012 A 
ATOM     35  C   UNL     1      17.946  11.528  70.923  1.00  0.00     0.001 A 
ATOM     36  C   UNL     1      17.345  12.945  69.037  1.00  0.00     0.001 A 
ATOM     37  C   UNL     1      17.468  11.658  69.594  1.00  0.00     0.000 A 
ENDBRANCH  25  32
ENDBRANCH   1  17
TORSDOF 9
ENDMDL
MODEL 6
REMARK VINA RESULT:    -4.599      4.896      8.050
REMARK INTER + INTRA:          -7.946
REMARK INTER:                  -6.460
REMARK INTRA:                  -1.486
REMARK UNBOUND:                -1.465
REMARK SMILES COc1c(O[C@@H]2O[C@@H](C(=O)[O-])[C@H](O)[C@H](O)[C@H]2O)cc(O)c2c(=O)cc(-c3ccccc3)oc12
REMARK SMILES IDX 5 1 6 2 8 3 12 4 7 5 14 6 16 7 9 8 10 9 11 10 13 11 15 13
REMARK SMILES IDX 17 15 4 17 3 18 18 19 33 20 19 21 21 22 32 23 22 24 25 25
REMARK SMILES IDX 24 26 23 27 2 28 1 29 20 30 26 32 27 33 31 34 28 35 30 36
REMARK SMILES IDX 29 37
REMARK H PARENT 13 12 15 14 17 16 20 31
REMARK Flexibility Score: inf
ROOT
ATOM      1  O   UNL     1      23.335  18.932  83.999  1.00  0.00    -0.458 OA
ENDROOT
BRANCH   1   2
ATOM      2  C   UNL     1      22.780  20.147  84.524  1.00  0.00     0.339 C 
ATOM      3  C   UNL     1      23.064  21.363  86.603  1.00  0.00     0.199 C 
ATOM      4  C   UNL     1      21.896  22.247  86.091  1.00  0.00     0.180 C 
ATOM      5  O   UNL     1      23.660  20.617  85.547  1.00  0.00    -0.328 OA
ATOM      6  C   UNL     1      20.774  21.338  85.435  1.00  0.00     0.181 C 
ATOM      7  C   UNL     1      21.331  19.924  85.133  1.00  0.00     0.214 C 
BRANCH   3   8
ATOM      8  C   UNL     1      24.166  22.176  87.182  1.00  0.00     0.073 C 
ATOM      9  O   UNL     1      25.182  21.629  87.735  1.00  0.00    -0.547 OA
ATOM     10  O   UNL     1      24.124  23.557  87.039  1.00  0.00    -0.547 OA
ENDBRANCH   3   8
BRANCH   4  11
ATOM     11  O   UNL     1      21.380  22.995  87.179  1.00  0.00    -0.387 OA
ATOM     12  H   UNL     1      21.348  22.388  87.961  1.00  0.00     0.211 HD
ENDBRANCH   4  11
BRANCH   6  13
ATOM     13  O   UNL     1      19.585  21.363  86.227  1.00  0.00    -0.387 OA
ATOM     14  H   UNL     1      19.078  22.226  86.070  1.00  0.00     0.211 HD
ENDBRANCH   6  13
BRANCH   7  15
ATOM     15  O   UNL     1      20.470  19.202  84.272  1.00  0.00    -0.384 OA
ATOM     16  H   UNL     1      19.688  19.809  84.078  1.00  0.00     0.211 HD
ENDBRANCH   7  15
ENDBRANCH   1   2
BRANCH   1  17
ATOM     17  C   UNL     1      23.650  17.791  84.757  1.00  0.00     0.172 A 
ATOM     18  C   UNL     1      22.759  16.696  84.934  1.00  0.00     0.205 A 
ATOM     19  C   UNL     1      25.010  17.630  85.198  1.00  0.00     0.097 A 
ATOM     20  C   UNL     1      23.107  15.618  85.803  1.00  0.00     0.188 A 
ATOM     21  C   UNL     1      25.427  16.467  85.893  1.00  0.00     0.134 A 
ATOM     22  C   UNL     1      24.464  15.484  86.246  1.00  0.00     0.111 A 
ATOM     23  O   UNL     1      22.268  14.579  85.897  1.00  0.00    -0.452 OA
ATOM     24  C   UNL     1      24.740  14.352  87.068  1.00  0.00     0.197 A 
ATOM     25  C   UNL     1      22.556  13.463  86.551  1.00  0.00     0.138 A 
ATOM     26  C   UNL     1      23.788  13.345  87.204  1.00  0.00     0.100 A 
ATOM     27  O   UNL     1      25.830  14.246  87.692  1.00  0.00    -0.289 OA
BRANCH  18  28
ATOM     28  O   UNL     1      21.735  16.436  83.980  1.00  0.00    -0.490 OA
ATOM     29  C   UNL     1      22.154  15.867  82.729  1.00  0.00     0.278 C 
ENDBRANCH  18  28
BRANCH  21  30
ATOM     30  O   UNL     1      26.800  16.159  85.861  1.00  0.00    -0.507 OA
ATOM     31  H   UNL     1      27.234  15.538  85.184  1.00  0.00     0.293 HD
ENDBRANCH  21  30
BRANCH  25  32
ATOM     32  C   UNL     1      21.621  12.317  86.609  1.00  0.00     0.017 A 
ATOM     33  C   UNL     1      20.624  12.198  87.587  1.00  0.00     0.012 A 
ATOM     34  C   UNL     1      21.928  11.210  85.803  1.00  0.00     0.012 A 
ATOM     35  C   UNL     1      19.957  10.968  87.784  1.00  0.00     0.001 A 
ATOM     36  C   UNL     1      21.323   9.965  86.036  1.00  0.00     0.001 A 
ATOM     37  C   UNL     1      20.340   9.826  87.034  1.00  0.00     0.000 A 
ENDBRANCH  25  32
ENDBRANCH   1  17
TORSDOF 9
ENDMDL
MODEL 7
REMARK VINA RESULT:    -4.514      4.244      7.143
REMARK INTER + INTRA:          -7.826
REMARK INTER:                  -6.624
REMARK INTRA:                  -1.202
REMARK UNBOUND:                -1.465
REMARK SMILES COc1c(O[C@@H]2O[C@@H](C(=O)[O-])[C@H](O)[C@H](O)[C@H]2O)cc(O)c2c(=O)cc(-c3ccccc3)oc12
REMARK SMILES IDX 5 1 6 2 8 3 12 4 7 5 14 6 16 7 9 8 10 9 11 10 13 11 15 13
REMARK SMILES IDX 17 15 4 17 3 18 18 19 33 20 19 21 21 22 32 23 22 24 25 25
REMARK SMILES IDX 24 26 23 27 2 28 1 29 20 30 26 32 27 33 31 34 28 35 30 36
REMARK SMILES IDX 29 37
REMARK H PARENT 13 12 15 14 17 16 20 31
REMARK Flexibility Score: inf
ROOT
ATOM      1  O   UNL     1      22.297  15.743  85.379  1.00  0.00    -0.458 OA
ENDROOT
BRANCH   1   2
ATOM      2  C   UNL     1      21.629  16.977  85.082  1.00  0.00     0.339 C 
ATOM      3  C   UNL     1      22.003  18.742  83.460  1.00  0.00     0.199 C 
ATOM      4  C   UNL     1      20.890  19.502  84.230  1.00  0.00     0.180 C 
ATOM      5  O   UNL     1      21.979  17.347  83.746  1.00  0.00    -0.328 OA
ATOM      6  C   UNL     1      21.087  19.317  85.793  1.00  0.00     0.181 C 
ATOM      7  C   UNL     1      22.050  18.137  86.081  1.00  0.00     0.214 C 
BRANCH   3   8
ATOM      8  C   UNL     1      21.829  18.844  81.987  1.00  0.00     0.073 C 
ATOM      9  O   UNL     1      20.706  19.169  81.466  1.00  0.00    -0.547 OA
ATOM     10  O   UNL     1      22.937  18.662  81.169  1.00  0.00    -0.547 OA
ENDBRANCH   3   8
BRANCH   4  11
ATOM     11  O   UNL     1      20.939  20.871  83.866  1.00  0.00    -0.387 OA
ATOM     12  H   UNL     1      20.721  20.924  82.901  1.00  0.00     0.211 HD
ENDBRANCH   4  11
BRANCH   6  13
ATOM     13  O   UNL     1      21.454  20.557  86.401  1.00  0.00    -0.387 OA
ATOM     14  H   UNL     1      20.703  21.230  86.302  1.00  0.00     0.211 HD
ENDBRANCH   6  13
BRANCH   7  15
ATOM     15  O   UNL     1      21.998  17.746  87.440  1.00  0.00    -0.384 OA
ATOM     16  H   UNL     1      21.948  16.738  87.444  1.00  0.00     0.211 HD
ENDBRANCH   7  15
ENDBRANCH   1   2
BRANCH   1  17
ATOM     17  C   UNL     1      21.767  14.459  85.158  1.00  0.00     0.172 A 
ATOM     18  C   UNL     1      22.551  13.273  85.178  1.00  0.00     0.205 A 
ATOM     19  C   UNL     1      20.336  14.320  85.119  1.00  0.00     0.097 A 
ATOM     20  C   UNL     1      21.964  12.016  84.842  1.00  0.00     0.188 A 
ATOM     21  C   UNL     1      19.723  13.049  84.986  1.00  0.00     0.134 A 
ATOM     22  C   UNL     1      20.536  11.901  84.791  1.00  0.00     0.111 A 
ATOM     23  O   UNL     1      22.720  10.914  84.930  1.00  0.00    -0.452 OA
ATOM     24  C   UNL     1      20.027  10.600  84.501  1.00  0.00     0.197 A 
ATOM     25  C   UNL     1      22.243   9.686  84.790  1.00  0.00     0.138 A 
ATOM     26  C   UNL     1      20.883   9.502  84.514  1.00  0.00     0.100 A 
ATOM     27  O   UNL     1      18.813  10.420  84.215  1.00  0.00    -0.289 OA
BRANCH  18  28
ATOM     28  O   UNL     1      23.773  13.227  85.907  1.00  0.00    -0.490 OA
ATOM     29  C   UNL     1      23.669  13.286  87.338  1.00  0.00     0.278 C 
ENDBRANCH  18  28
BRANCH  21  30
ATOM     30  O   UNL     1      18.393  12.930  85.432  1.00  0.00    -0.507 OA
ATOM     31  H   UNL     1      18.114  12.461  86.290  1.00  0.00     0.293 HD
ENDBRANCH  21  30
BRANCH  25  32
ATOM     32  C   UNL     1      23.098   8.486  84.926  1.00  0.00     0.017 A 
ATOM     33  C   UNL     1      22.627   7.270  85.442  1.00  0.00     0.012 A 
ATOM     34  C   UNL     1      24.479   8.675  84.766  1.00  0.00     0.012 A 
ATOM     35  C   UNL     1      23.533   6.257  85.826  1.00  0.00     0.001 A 
ATOM     36  C   UNL     1      25.391   7.703  85.208  1.00  0.00     0.001 A 
ATOM     37  C   UNL     1      24.931   6.490  85.753  1.00  0.00     0.000 A 
ENDBRANCH  25  32
ENDBRANCH   1  17
TORSDOF 9
ENDMDL
MODEL 8
REMARK VINA RESULT:    -4.509     12.512     14.918
REMARK INTER + INTRA:          -7.819
REMARK INTER:                  -6.250
REMARK INTRA:                  -1.569
REMARK UNBOUND:                -1.465
REMARK SMILES COc1c(O[C@@H]2O[C@@H](C(=O)[O-])[C@H](O)[C@H](O)[C@H]2O)cc(O)c2c(=O)cc(-c3ccccc3)oc12
REMARK SMILES IDX 5 1 6 2 8 3 12 4 7 5 14 6 16 7 9 8 10 9 11 10 13 11 15 13
REMARK SMILES IDX 17 15 4 17 3 18 18 19 33 20 19 21 21 22 32 23 22 24 25 25
REMARK SMILES IDX 24 26 23 27 2 28 1 29 20 30 26 32 27 33 31 34 28 35 30 36
REMARK SMILES IDX 29 37
REMARK H PARENT 13 12 15 14 17 16 20 31
REMARK Flexibility Score: inf
ROOT
ATOM      1  O   UNL     1      21.317  15.304  74.179  1.00  0.00    -0.458 OA
ENDROOT
BRANCH   1   2
ATOM      2  C   UNL     1      22.730  15.259  73.937  1.00  0.00     0.339 C 
ATOM      3  C   UNL     1      24.194  16.327  72.325  1.00  0.00     0.199 C 
ATOM      4  C   UNL     1      25.290  15.393  72.901  1.00  0.00     0.180 C 
ATOM      5  O   UNL     1      23.081  16.436  73.206  1.00  0.00    -0.328 OA
ATOM      6  C   UNL     1      24.700  13.938  73.130  1.00  0.00     0.181 C 
ATOM      7  C   UNL     1      23.151  13.974  73.105  1.00  0.00     0.214 C 
BRANCH   3   8
ATOM      8  C   UNL     1      24.687  17.718  72.141  1.00  0.00     0.073 C 
ATOM      9  O   UNL     1      25.705  17.975  71.409  1.00  0.00    -0.547 OA
ATOM     10  O   UNL     1      23.973  18.762  72.714  1.00  0.00    -0.547 OA
ENDBRANCH   3   8
BRANCH   4  11
ATOM     11  O   UNL     1      26.385  15.366  72.000  1.00  0.00    -0.387 OA
ATOM     12  H   UNL     1      26.036  15.055  71.127  1.00  0.00     0.211 HD
ENDBRANCH   4  11
BRANCH   6  13
ATOM     13  O   UNL     1      25.297  13.008  72.225  1.00  0.00    -0.387 OA
ATOM     14  H   UNL     1      25.291  12.077  72.625  1.00  0.00     0.211 HD
ENDBRANCH   6  13
BRANCH   7  15
ATOM     15  O   UNL     1      22.597  12.775  73.615  1.00  0.00    -0.384 OA
ATOM     16  H   UNL     1      22.728  12.805  74.615  1.00  0.00     0.211 HD
ENDBRANCH   7  15
ENDBRANCH   1   2
BRANCH   1  17
ATOM     17  C   UNL     1      20.334  15.546  73.202  1.00  0.00     0.172 A 
ATOM     18  C   UNL     1      19.773  14.526  72.385  1.00  0.00     0.205 A 
ATOM     19  C   UNL     1      19.719  16.846  73.175  1.00  0.00     0.097 A 
ATOM     20  C   UNL     1      18.857  14.861  71.343  1.00  0.00     0.188 A 
ATOM     21  C   UNL     1      18.663  17.141  72.277  1.00  0.00     0.134 A 
ATOM     22  C   UNL     1      18.267  16.168  71.322  1.00  0.00     0.111 A 
ATOM     23  O   UNL     1      18.305  13.867  70.634  1.00  0.00    -0.452 OA
ATOM     24  C   UNL     1      17.322  16.406  70.281  1.00  0.00     0.197 A 
ATOM     25  C   UNL     1      17.334  14.051  69.751  1.00  0.00     0.138 A 
ATOM     26  C   UNL     1      16.855  15.343  69.511  1.00  0.00     0.100 A 
ATOM     27  O   UNL     1      16.906  17.568  70.026  1.00  0.00    -0.289 OA
BRANCH  18  28
ATOM     28  O   UNL     1      19.769  13.171  72.821  1.00  0.00    -0.490 OA
ATOM     29  C   UNL     1      18.951  12.867  73.963  1.00  0.00     0.278 C 
ENDBRANCH  18  28
BRANCH  21  30
ATOM     30  O   UNL     1      17.812  18.210  72.619  1.00  0.00    -0.507 OA
ATOM     31  H   UNL     1      17.539  18.446  73.569  1.00  0.00     0.293 HD
ENDBRANCH  21  30
BRANCH  25  32
ATOM     32  C   UNL     1      16.722  12.927  69.007  1.00  0.00     0.017 A 
ATOM     33  C   UNL     1      15.345  12.665  69.025  1.00  0.00     0.012 A 
ATOM     34  C   UNL     1      17.598  11.964  68.485  1.00  0.00     0.012 A 
ATOM     35  C   UNL     1      14.846  11.430  68.552  1.00  0.00     0.001 A 
ATOM     36  C   UNL     1      17.122  10.708  68.078  1.00  0.00     0.001 A 
ATOM     37  C   UNL     1      15.744  10.422  68.117  1.00  0.00     0.000 A 
ENDBRANCH  25  32
ENDBRANCH   1  17
TORSDOF 9
ENDMDL
MODEL 9
REMARK VINA RESULT:    -4.468     13.100     15.123
REMARK INTER + INTRA:          -7.762
REMARK INTER:                  -6.211
REMARK INTRA:                  -1.550
REMARK UNBOUND:                -1.465
REMARK SMILES COc1c(O[C@@H]2O[C@@H](C(=O)[O-])[C@H](O)[C@H](O)[C@H]2O)cc(O)c2c(=O)cc(-c3ccccc3)oc12
REMARK SMILES IDX 5 1 6 2 8 3 12 4 7 5 14 6 16 7 9 8 10 9 11 10 13 11 15 13
REMARK SMILES IDX 17 15 4 17 3 18 18 19 33 20 19 21 21 22 32 23 22 24 25 25
REMARK SMILES IDX 24 26 23 27 2 28 1 29 20 30 26 32 27 33 31 34 28 35 30 36
REMARK SMILES IDX 29 37
REMARK H PARENT 13 12 15 14 17 16 20 31
REMARK Flexibility Score: inf
ROOT
ATOM      1  O   UNL     1      26.896  14.735  73.573  1.00  0.00    -0.458 OA
ENDROOT
BRANCH   1   2
ATOM      2  C   UNL     1      27.877  14.596  72.536  1.00  0.00     0.339 C 
ATOM      3  C   UNL     1      28.503  15.950  70.623  1.00  0.00     0.199 C 
ATOM      4  C   UNL     1      29.402  14.746  70.234  1.00  0.00     0.180 C 
ATOM      5  O   UNL     1      28.119  15.896  71.994  1.00  0.00    -0.328 OA
ATOM      6  C   UNL     1      28.621  13.386  70.473  1.00  0.00     0.181 C 
ATOM      7  C   UNL     1      27.388  13.623  71.381  1.00  0.00     0.214 C 
BRANCH   3   8
ATOM      8  C   UNL     1      29.212  17.248  70.465  1.00  0.00     0.073 C 
ATOM      9  O   UNL     1      30.355  17.321  69.893  1.00  0.00    -0.547 OA
ATOM     10  O   UNL     1      28.575  18.412  70.875  1.00  0.00    -0.547 OA
ENDBRANCH   3   8
BRANCH   4  11
ATOM     11  O   UNL     1      29.786  14.886  68.877  1.00  0.00    -0.387 OA
ATOM     12  H   UNL     1      30.389  15.669  68.823  1.00  0.00     0.211 HD
ENDBRANCH   4  11
BRANCH   6  13
ATOM     13  O   UNL     1      28.340  12.746  69.227  1.00  0.00    -0.387 OA
ATOM     14  H   UNL     1      29.038  13.001  68.538  1.00  0.00     0.211 HD
ENDBRANCH   6  13
BRANCH   7  15
ATOM     15  O   UNL     1      26.862  12.402  71.868  1.00  0.00    -0.384 OA
ATOM     16  H   UNL     1      27.164  12.326  72.828  1.00  0.00     0.211 HD
ENDBRANCH   7  15
ENDBRANCH   1   2
BRANCH   1  17
ATOM     17  C   UNL     1      25.699  15.467  73.466  1.00  0.00     0.172 A 
ATOM     18  C   UNL     1      24.490  14.921  72.955  1.00  0.00     0.205 A 
ATOM     19  C   UNL     1      25.643  16.759  74.094  1.00  0.00     0.097 A 
ATOM     20  C   UNL     1      23.343  15.753  72.777  1.00  0.00     0.188 A 
ATOM     21  C   UNL     1      24.448  17.522  74.103  1.00  0.00     0.134 A 
ATOM     22  C   UNL     1      23.312  17.045  73.397  1.00  0.00     0.111 A 
ATOM     23  O   UNL     1      22.206  15.189  72.350  1.00  0.00    -0.452 OA
ATOM     24  C   UNL     1      22.111  17.792  73.216  1.00  0.00     0.197 A 
ATOM     25  C   UNL     1      21.048  15.830  72.294  1.00  0.00     0.138 A 
ATOM     26  C   UNL     1      20.984  17.175  72.676  1.00  0.00     0.100 A 
ATOM     27  O   UNL     1      22.046  19.013  73.521  1.00  0.00    -0.289 OA
BRANCH  18  28
ATOM     28  O   UNL     1      24.254  13.518  73.001  1.00  0.00    -0.490 OA
ATOM     29  C   UNL     1      24.030  12.948  74.301  1.00  0.00     0.278 C 
ENDBRANCH  18  28
BRANCH  21  30
ATOM     30  O   UNL     1      24.320  18.500  75.108  1.00  0.00    -0.507 OA
ATOM     31  H   UNL     1      24.493  19.492  74.969  1.00  0.00     0.293 HD
ENDBRANCH  21  30
BRANCH  25  32
ATOM     32  C   UNL     1      19.800  15.170  71.848  1.00  0.00     0.017 A 
ATOM     33  C   UNL     1      19.426  13.886  72.271  1.00  0.00     0.012 A 
ATOM     34  C   UNL     1      19.121  15.764  70.774  1.00  0.00     0.012 A 
ATOM     35  C   UNL     1      18.397  13.185  71.604  1.00  0.00     0.001 A 
ATOM     36  C   UNL     1      18.146  15.050  70.060  1.00  0.00     0.001 A 
ATOM     37  C   UNL     1      17.781  13.750  70.458  1.00  0.00     0.000 A 
ENDBRANCH  25  32
ENDBRANCH   1  17
TORSDOF 9
ENDMDL
