MODEL 1
REMARK VINA RESULT:    -7.047      0.000      0.000
REMARK INTER + INTRA:          -8.744
REMARK INTER:                  -8.488
REMARK INTRA:                  -0.256
REMARK UNBOUND:                -0.256
REMARK SMILES O=c1c(O)c(-c2ccc(O)c(O)c2)oc2cc(O)cc(O)c12
REMARK SMILES IDX 5 1 3 2 2 3 1 4 22 5 20 6 19 7 17 8 16 9 15 10 14 11 6 12
REMARK SMILES IDX 7 13 8 14 9 15 13 16 11 17 10 18 12 20 4 22 21 24 18 26
REMARK H PARENT 10 19 12 21 4 23 21 25 18 27
REMARK Flexibility Score: inf
ROOT
ATOM      1  C   UNL     1       7.398  -5.477   5.879  1.00  0.00     0.180 A 
ATOM      2  C   UNL     1       7.897  -4.830   7.023  1.00  0.00     0.208 A 
ATOM      3  C   UNL     1       8.659  -3.662   6.867  1.00  0.00     0.238 A 
ATOM      4  O   UNL     1       9.149  -3.118   7.890  1.00  0.00    -0.285 OA
ATOM      5  C   UNL     1       8.898  -3.144   5.571  1.00  0.00     0.111 A 
ATOM      6  C   UNL     1       9.622  -1.945   5.298  1.00  0.00     0.134 A 
ATOM      7  C   UNL     1       9.910  -1.599   3.971  1.00  0.00     0.093 A 
ATOM      8  C   UNL     1       9.442  -2.374   2.907  1.00  0.00     0.123 A 
ATOM      9  C   UNL     1       8.683  -3.513   3.162  1.00  0.00     0.094 A 
ATOM     10  C   UNL     1       8.411  -3.905   4.475  1.00  0.00     0.146 A 
ATOM     11  O   UNL     1       7.695  -5.004   4.673  1.00  0.00    -0.452 OA
ENDROOT
BRANCH   1  12
ATOM     12  C   UNL     1       6.566  -6.700   5.963  1.00  0.00     0.025 A 
ATOM     13  C   UNL     1       7.130  -7.946   6.287  1.00  0.00     0.016 A 
ATOM     14  C   UNL     1       6.323  -9.082   6.384  1.00  0.00     0.051 A 
ATOM     15  C   UNL     1       4.940  -8.989   6.173  1.00  0.00     0.157 A 
ATOM     16  C   UNL     1       5.178  -6.607   5.773  1.00  0.00     0.062 A 
ATOM     17  C   UNL     1       4.366  -7.743   5.869  1.00  0.00     0.158 A 
BRANCH  15  18
ATOM     18  O   UNL     1       4.139 -10.124   6.270  1.00  0.00    -0.504 OA
ATOM     19  H   UNL     1       3.186 -10.132   5.926  1.00  0.00     0.293 HD
ENDBRANCH  15  18
BRANCH  17  20
ATOM     20  O   UNL     1       2.994  -7.615   5.661  1.00  0.00    -0.504 OA
ATOM     21  H   UNL     1       2.375  -7.231   6.366  1.00  0.00     0.293 HD
ENDBRANCH  17  20
ENDBRANCH   1  12
BRANCH   2  22
ATOM     22  O   UNL     1       7.668  -5.371   8.291  1.00  0.00    -0.502 OA
ATOM     23  H   UNL     1       7.623  -4.799   9.126  1.00  0.00     0.293 HD
ENDBRANCH   2  22
BRANCH   6  24
ATOM     24  O   UNL     1      10.053  -1.052   6.283  1.00  0.00    -0.507 OA
ATOM     25  H   UNL     1       9.585  -0.898   7.163  1.00  0.00     0.293 HD
ENDBRANCH   6  24
BRANCH   8  26
ATOM     26  O   UNL     1       9.719  -2.012   1.590  1.00  0.00    -0.508 OA
ATOM     27  H   UNL     1      10.213  -2.634   0.962  1.00  0.00     0.293 HD
ENDBRANCH   8  26
TORSDOF 6
ENDMDL
MODEL 2
REMARK VINA RESULT:    -6.709      1.488      6.950
REMARK INTER + INTRA:          -8.338
REMARK INTER:                  -8.321
REMARK INTRA:                  -0.017
REMARK UNBOUND:                -0.256
REMARK SMILES O=c1c(O)c(-c2ccc(O)c(O)c2)oc2cc(O)cc(O)c12
REMARK SMILES IDX 5 1 3 2 2 3 1 4 22 5 20 6 19 7 17 8 16 9 15 10 14 11 6 12
REMARK SMILES IDX 7 13 8 14 9 15 13 16 11 17 10 18 12 20 4 22 21 24 18 26
REMARK H PARENT 10 19 12 21 4 23 21 25 18 27
REMARK Flexibility Score: inf
ROOT
ATOM      1  C   UNL     1       7.327  -5.436   5.928  1.00  0.00     0.180 A 
ATOM      2  C   UNL     1       8.126  -6.354   6.632  1.00  0.00     0.208 A 
ATOM      3  C   UNL     1       7.548  -7.546   7.095  1.00  0.00     0.238 A 
ATOM      4  O   UNL     1       8.254  -8.339   7.771  1.00  0.00    -0.285 OA
ATOM      5  C   UNL     1       6.182  -7.813   6.836  1.00  0.00     0.111 A 
ATOM      6  C   UNL     1       5.502  -9.007   7.223  1.00  0.00     0.134 A 
ATOM      7  C   UNL     1       4.118  -9.107   7.030  1.00  0.00     0.093 A 
ATOM      8  C   UNL     1       3.402  -8.084   6.404  1.00  0.00     0.123 A 
ATOM      9  C   UNL     1       4.067  -6.941   5.968  1.00  0.00     0.094 A 
ATOM     10  C   UNL     1       5.441  -6.796   6.180  1.00  0.00     0.146 A 
ATOM     11  O   UNL     1       6.033  -5.685   5.759  1.00  0.00    -0.452 OA
ENDROOT
BRANCH   1  12
ATOM     12  C   UNL     1       7.871  -4.169   5.387  1.00  0.00     0.025 A 
ATOM     13  C   UNL     1       7.699  -3.818   4.037  1.00  0.00     0.016 A 
ATOM     14  C   UNL     1       8.200  -2.607   3.553  1.00  0.00     0.051 A 
ATOM     15  C   UNL     1       8.867  -1.723   4.412  1.00  0.00     0.157 A 
ATOM     16  C   UNL     1       8.521  -3.271   6.248  1.00  0.00     0.062 A 
ATOM     17  C   UNL     1       9.024  -2.057   5.768  1.00  0.00     0.158 A 
BRANCH  15  18
ATOM     18  O   UNL     1       9.366  -0.516   3.926  1.00  0.00    -0.504 OA
ATOM     19  H   UNL     1       9.396   0.316   4.502  1.00  0.00     0.293 HD
ENDBRANCH  15  18
BRANCH  17  20
ATOM     20  O   UNL     1       9.677  -1.197   6.650  1.00  0.00    -0.504 OA
ATOM     21  H   UNL     1      10.466  -0.629   6.365  1.00  0.00     0.293 HD
ENDBRANCH  17  20
ENDBRANCH   1  12
BRANCH   2  22
ATOM     22  O   UNL     1       9.467  -6.060   6.895  1.00  0.00    -0.502 OA
ATOM     23  H   UNL     1       9.819  -5.920   7.835  1.00  0.00     0.293 HD
ENDBRANCH   2  22
BRANCH   6  24
ATOM     24  O   UNL     1       6.137 -10.125   7.772  1.00  0.00    -0.507 OA
ATOM     25  H   UNL     1       5.965 -11.078   7.492  1.00  0.00     0.293 HD
ENDBRANCH   6  24
BRANCH   8  26
ATOM     26  O   UNL     1       2.029  -8.200   6.201  1.00  0.00    -0.508 OA
ATOM     27  H   UNL     1       1.592  -7.895   5.339  1.00  0.00     0.293 HD
ENDBRANCH   8  26
TORSDOF 6
ENDMDL
MODEL 3
REMARK VINA RESULT:    -6.626      1.693      3.473
REMARK INTER + INTRA:          -8.237
REMARK INTER:                  -7.919
REMARK INTRA:                  -0.318
REMARK UNBOUND:                -0.256
REMARK SMILES O=c1c(O)c(-c2ccc(O)c(O)c2)oc2cc(O)cc(O)c12
REMARK SMILES IDX 5 1 3 2 2 3 1 4 22 5 20 6 19 7 17 8 16 9 15 10 14 11 6 12
REMARK SMILES IDX 7 13 8 14 9 15 13 16 11 17 10 18 12 20 4 22 21 24 18 26
REMARK H PARENT 10 19 12 21 4 23 21 25 18 27
REMARK Flexibility Score: inf
ROOT
ATOM      1  C   UNL     1       7.969  -4.477   5.512  1.00  0.00     0.180 A 
ATOM      2  C   UNL     1       8.601  -4.144   4.300  1.00  0.00     0.208 A 
ATOM      3  C   UNL     1       9.537  -3.099   4.286  1.00  0.00     0.238 A 
ATOM      4  O   UNL     1      10.058  -2.769   3.189  1.00  0.00    -0.285 OA
ATOM      5  C   UNL     1       9.844  -2.411   5.485  1.00  0.00     0.111 A 
ATOM      6  C   UNL     1      10.806  -1.363   5.594  1.00  0.00     0.134 A 
ATOM      7  C   UNL     1      10.933  -0.664   6.802  1.00  0.00     0.093 A 
ATOM      8  C   UNL     1      10.178  -1.020   7.923  1.00  0.00     0.123 A 
ATOM      9  C   UNL     1       9.279  -2.081   7.843  1.00  0.00     0.094 A 
ATOM     10  C   UNL     1       9.104  -2.773   6.641  1.00  0.00     0.146 A 
ATOM     11  O   UNL     1       8.228  -3.770   6.605  1.00  0.00    -0.452 OA
ENDROOT
BRANCH   1  12
ATOM     12  C   UNL     1       6.989  -5.583   5.612  1.00  0.00     0.025 A 
ATOM     13  C   UNL     1       5.609  -5.351   5.472  1.00  0.00     0.016 A 
ATOM     14  C   UNL     1       4.704  -6.413   5.547  1.00  0.00     0.051 A 
ATOM     15  C   UNL     1       5.163  -7.721   5.748  1.00  0.00     0.157 A 
ATOM     16  C   UNL     1       7.445  -6.898   5.793  1.00  0.00     0.062 A 
ATOM     17  C   UNL     1       6.541  -7.964   5.869  1.00  0.00     0.158 A 
BRANCH  15  18
ATOM     18  O   UNL     1       4.257  -8.778   5.823  1.00  0.00    -0.504 OA
ATOM     19  H   UNL     1       4.097  -9.397   5.038  1.00  0.00     0.293 HD
ENDBRANCH  15  18
BRANCH  17  20
ATOM     20  O   UNL     1       7.031  -9.255   6.063  1.00  0.00    -0.504 OA
ATOM     21  H   UNL     1       6.774 -10.025   5.457  1.00  0.00     0.293 HD
ENDBRANCH  17  20
ENDBRANCH   1  12
BRANCH   2  22
ATOM     22  O   UNL     1       8.267  -4.822   3.125  1.00  0.00    -0.502 OA
ATOM     23  H   UNL     1       8.554  -4.496   2.209  1.00  0.00     0.293 HD
ENDBRANCH   2  22
BRANCH   6  24
ATOM     24  O   UNL     1      11.675  -0.989   4.565  1.00  0.00    -0.507 OA
ATOM     25  H   UNL     1      12.344  -0.237   4.623  1.00  0.00     0.293 HD
ENDBRANCH   6  24
BRANCH   8  26
ATOM     26  O   UNL     1      10.322  -0.332   9.125  1.00  0.00    -0.508 OA
ATOM     27  H   UNL     1       9.640   0.351   9.430  1.00  0.00     0.293 HD
ENDBRANCH   8  26
TORSDOF 6
ENDMDL
MODEL 4
REMARK VINA RESULT:    -6.591      1.998      3.275
REMARK INTER + INTRA:          -8.195
REMARK INTER:                  -7.908
REMARK INTRA:                  -0.287
REMARK UNBOUND:                -0.256
REMARK SMILES O=c1c(O)c(-c2ccc(O)c(O)c2)oc2cc(O)cc(O)c12
REMARK SMILES IDX 5 1 3 2 2 3 1 4 22 5 20 6 19 7 17 8 16 9 15 10 14 11 6 12
REMARK SMILES IDX 7 13 8 14 9 15 13 16 11 17 10 18 12 20 4 22 21 24 18 26
REMARK H PARENT 10 19 12 21 4 23 21 25 18 27
REMARK Flexibility Score: inf
ROOT
ATOM      1  C   UNL     1       8.102  -4.478   5.309  1.00  0.00     0.180 A 
ATOM      2  C   UNL     1       8.084  -3.366   4.449  1.00  0.00     0.208 A 
ATOM      3  C   UNL     1       9.153  -2.456   4.489  1.00  0.00     0.238 A 
ATOM      4  O   UNL     1       9.105  -1.434   3.757  1.00  0.00    -0.285 OA
ATOM      5  C   UNL     1      10.233  -2.678   5.377  1.00  0.00     0.111 A 
ATOM      6  C   UNL     1      11.386  -1.844   5.474  1.00  0.00     0.134 A 
ATOM      7  C   UNL     1      12.332  -2.085   6.480  1.00  0.00     0.093 A 
ATOM      8  C   UNL     1      12.197  -3.171   7.349  1.00  0.00     0.123 A 
ATOM      9  C   UNL     1      11.105  -4.026   7.224  1.00  0.00     0.094 A 
ATOM     10  C   UNL     1      10.127  -3.790   6.254  1.00  0.00     0.146 A 
ATOM     11  O   UNL     1       9.097  -4.622   6.177  1.00  0.00    -0.452 OA
ENDROOT
BRANCH   1  12
ATOM     12  C   UNL     1       7.024  -5.494   5.307  1.00  0.00     0.025 A 
ATOM     13  C   UNL     1       7.195  -6.740   4.680  1.00  0.00     0.016 A 
ATOM     14  C   UNL     1       6.173  -7.692   4.710  1.00  0.00     0.051 A 
ATOM     15  C   UNL     1       4.972  -7.420   5.379  1.00  0.00     0.157 A 
ATOM     16  C   UNL     1       5.827  -5.234   5.993  1.00  0.00     0.062 A 
ATOM     17  C   UNL     1       4.801  -6.185   6.026  1.00  0.00     0.158 A 
BRANCH  15  18
ATOM     18  O   UNL     1       3.954  -8.372   5.407  1.00  0.00    -0.504 OA
ATOM     19  H   UNL     1       3.167  -8.289   6.038  1.00  0.00     0.293 HD
ENDBRANCH  15  18
BRANCH  17  20
ATOM     20  O   UNL     1       3.621  -5.885   6.705  1.00  0.00    -0.504 OA
ATOM     21  H   UNL     1       2.829  -5.453   6.245  1.00  0.00     0.293 HD
ENDBRANCH  17  20
ENDBRANCH   1  12
BRANCH   2  22
ATOM     22  O   UNL     1       6.997  -3.155   3.596  1.00  0.00    -0.502 OA
ATOM     23  H   UNL     1       6.175  -3.748   3.605  1.00  0.00     0.293 HD
ENDBRANCH   2  22
BRANCH   6  24
ATOM     24  O   UNL     1      11.664  -0.790   4.598  1.00  0.00    -0.507 OA
ATOM     25  H   UNL     1      11.921   0.142   4.884  1.00  0.00     0.293 HD
ENDBRANCH   6  24
BRANCH   8  26
ATOM     26  O   UNL     1      13.150  -3.413   8.335  1.00  0.00    -0.508 OA
ATOM     27  H   UNL     1      13.152  -2.901   9.209  1.00  0.00     0.293 HD
ENDBRANCH   8  26
TORSDOF 6
ENDMDL
MODEL 5
REMARK VINA RESULT:    -6.221      1.827      6.649
REMARK INTER + INTRA:          -7.749
REMARK INTER:                  -7.495
REMARK INTRA:                  -0.254
REMARK UNBOUND:                -0.256
REMARK SMILES O=c1c(O)c(-c2ccc(O)c(O)c2)oc2cc(O)cc(O)c12
REMARK SMILES IDX 5 1 3 2 2 3 1 4 22 5 20 6 19 7 17 8 16 9 15 10 14 11 6 12
REMARK SMILES IDX 7 13 8 14 9 15 13 16 11 17 10 18 12 20 4 22 21 24 18 26
REMARK H PARENT 10 19 12 21 4 23 21 25 18 27
REMARK Flexibility Score: inf
ROOT
ATOM      1  C   UNL     1       8.097  -5.479   6.291  1.00  0.00     0.180 A 
ATOM      2  C   UNL     1       7.764  -5.786   7.622  1.00  0.00     0.208 A 
ATOM      3  C   UNL     1       7.068  -6.974   7.892  1.00  0.00     0.238 A 
ATOM      4  O   UNL     1       6.724  -7.217   9.078  1.00  0.00    -0.285 OA
ATOM      5  C   UNL     1       6.728  -7.849   6.832  1.00  0.00     0.111 A 
ATOM      6  C   UNL     1       6.058  -9.098   6.995  1.00  0.00     0.134 A 
ATOM      7  C   UNL     1       5.656  -9.820   5.864  1.00  0.00     0.093 A 
ATOM      8  C   UNL     1       5.958  -9.368   4.577  1.00  0.00     0.123 A 
ATOM      9  C   UNL     1       6.663  -8.179   4.409  1.00  0.00     0.094 A 
ATOM     10  C   UNL     1       7.046  -7.419   5.517  1.00  0.00     0.146 A 
ATOM     11  O   UNL     1       7.707  -6.286   5.311  1.00  0.00    -0.452 OA
ENDROOT
BRANCH   1  12
ATOM     12  C   UNL     1       8.852  -4.257   5.928  1.00  0.00     0.025 A 
ATOM     13  C   UNL     1      10.219  -4.126   6.228  1.00  0.00     0.016 A 
ATOM     14  C   UNL     1      10.917  -2.974   5.857  1.00  0.00     0.051 A 
ATOM     15  C   UNL     1      10.264  -1.943   5.168  1.00  0.00     0.157 A 
ATOM     16  C   UNL     1       8.208  -3.229   5.221  1.00  0.00     0.062 A 
ATOM     17  C   UNL     1       8.903  -2.074   4.847  1.00  0.00     0.158 A 
BRANCH  15  18
ATOM     18  O   UNL     1      10.963  -0.795   4.800  1.00  0.00    -0.504 OA
ATOM     19  H   UNL     1      11.371  -0.177   5.491  1.00  0.00     0.293 HD
ENDBRANCH  15  18
BRANCH  17  20
ATOM     20  O   UNL     1       8.226  -1.069   4.157  1.00  0.00    -0.504 OA
ATOM     21  H   UNL     1       8.638  -0.586   3.368  1.00  0.00     0.293 HD
ENDBRANCH  17  20
ENDBRANCH   1  12
BRANCH   2  22
ATOM     22  O   UNL     1       8.090  -4.897   8.650  1.00  0.00    -0.502 OA
ATOM     23  H   UNL     1       7.400  -4.302   9.094  1.00  0.00     0.293 HD
ENDBRANCH   2  22
BRANCH   6  24
ATOM     24  O   UNL     1       5.792  -9.685   8.236  1.00  0.00    -0.507 OA
ATOM     25  H   UNL     1       6.482  -9.852   8.953  1.00  0.00     0.293 HD
ENDBRANCH   6  24
BRANCH   8  26
ATOM     26  O   UNL     1       5.568 -10.100   3.458  1.00  0.00    -0.508 OA
ATOM     27  H   UNL     1       6.158 -10.824   3.066  1.00  0.00     0.293 HD
ENDBRANCH   8  26
TORSDOF 6
ENDMDL
MODEL 6
REMARK VINA RESULT:    -6.203      1.994      3.454
REMARK INTER + INTRA:          -7.729
REMARK INTER:                  -7.443
REMARK INTRA:                  -0.286
REMARK UNBOUND:                -0.256
REMARK SMILES O=c1c(O)c(-c2ccc(O)c(O)c2)oc2cc(O)cc(O)c12
REMARK SMILES IDX 5 1 3 2 2 3 1 4 22 5 20 6 19 7 17 8 16 9 15 10 14 11 6 12
REMARK SMILES IDX 7 13 8 14 9 15 13 16 11 17 10 18 12 20 4 22 21 24 18 26
REMARK H PARENT 10 19 12 21 4 23 21 25 18 27
REMARK Flexibility Score: inf
ROOT
ATOM      1  C   UNL     1       7.785  -5.293   6.706  1.00  0.00     0.180 A 
ATOM      2  C   UNL     1       7.358  -4.902   5.424  1.00  0.00     0.208 A 
ATOM      3  C   UNL     1       7.881  -3.729   4.860  1.00  0.00     0.238 A 
ATOM      4  O   UNL     1       7.454  -3.355   3.737  1.00  0.00    -0.285 OA
ATOM      5  C   UNL     1       8.838  -2.969   5.576  1.00  0.00     0.111 A 
ATOM      6  C   UNL     1       9.464  -1.785   5.084  1.00  0.00     0.134 A 
ATOM      7  C   UNL     1      10.298  -1.042   5.930  1.00  0.00     0.093 A 
ATOM      8  C   UNL     1      10.578  -1.476   7.229  1.00  0.00     0.123 A 
ATOM      9  C   UNL     1      10.019  -2.662   7.697  1.00  0.00     0.094 A 
ATOM     10  C   UNL     1       9.154  -3.406   6.889  1.00  0.00     0.146 A 
ATOM     11  O   UNL     1       8.634  -4.524   7.379  1.00  0.00    -0.452 OA
ENDROOT
BRANCH   1  12
ATOM     12  C   UNL     1       7.298  -6.531   7.357  1.00  0.00     0.025 A 
ATOM     13  C   UNL     1       6.030  -6.588   7.961  1.00  0.00     0.016 A 
ATOM     14  C   UNL     1       5.580  -7.773   8.549  1.00  0.00     0.051 A 
ATOM     15  C   UNL     1       6.384  -8.921   8.530  1.00  0.00     0.157 A 
ATOM     16  C   UNL     1       8.090  -7.689   7.323  1.00  0.00     0.062 A 
ATOM     17  C   UNL     1       7.644  -8.878   7.911  1.00  0.00     0.158 A 
BRANCH  15  18
ATOM     18  O   UNL     1       5.932 -10.101   9.119  1.00  0.00    -0.504 OA
ATOM     19  H   UNL     1       6.257 -10.397  10.032  1.00  0.00     0.293 HD
ENDBRANCH  15  18
BRANCH  17  20
ATOM     20  O   UNL     1       8.464 -10.004   7.869  1.00  0.00    -0.504 OA
ATOM     21  H   UNL     1       8.230 -10.822   7.318  1.00  0.00     0.293 HD
ENDBRANCH  17  20
ENDBRANCH   1  12
BRANCH   2  22
ATOM     22  O   UNL     1       6.396  -5.656   4.745  1.00  0.00    -0.502 OA
ATOM     23  H   UNL     1       5.690  -5.231   4.156  1.00  0.00     0.293 HD
ENDBRANCH   2  22
BRANCH   6  24
ATOM     24  O   UNL     1       9.326  -1.314   3.775  1.00  0.00    -0.507 OA
ATOM     25  H   UNL     1       8.597  -1.596   3.137  1.00  0.00     0.293 HD
ENDBRANCH   6  24
BRANCH   8  26
ATOM     26  O   UNL     1      11.421  -0.740   8.057  1.00  0.00    -0.508 OA
ATOM     27  H   UNL     1      12.115  -0.106   7.680  1.00  0.00     0.293 HD
ENDBRANCH   8  26
TORSDOF 6
ENDMDL
MODEL 7
REMARK VINA RESULT:    -6.154      1.519      2.117
REMARK INTER + INTRA:          -7.669
REMARK INTER:                  -7.374
REMARK INTRA:                  -0.295
REMARK UNBOUND:                -0.256
REMARK SMILES O=c1c(O)c(-c2ccc(O)c(O)c2)oc2cc(O)cc(O)c12
REMARK SMILES IDX 5 1 3 2 2 3 1 4 22 5 20 6 19 7 17 8 16 9 15 10 14 11 6 12
REMARK SMILES IDX 7 13 8 14 9 15 13 16 11 17 10 18 12 20 4 22 21 24 18 26
REMARK H PARENT 10 19 12 21 4 23 21 25 18 27
REMARK Flexibility Score: inf
ROOT
ATOM      1  C   UNL     1       8.218  -5.210   6.805  1.00  0.00     0.180 A 
ATOM      2  C   UNL     1       8.832  -4.415   7.789  1.00  0.00     0.208 A 
ATOM      3  C   UNL     1       9.450  -3.214   7.406  1.00  0.00     0.238 A 
ATOM      4  O   UNL     1      10.045  -2.535   8.282  1.00  0.00    -0.285 OA
ATOM      5  C   UNL     1       9.433  -2.815   6.048  1.00  0.00     0.111 A 
ATOM      6  C   UNL     1       9.994  -1.599   5.554  1.00  0.00     0.134 A 
ATOM      7  C   UNL     1      10.036  -1.368   4.173  1.00  0.00     0.093 A 
ATOM      8  C   UNL     1       9.478  -2.280   3.273  1.00  0.00     0.123 A 
ATOM      9  C   UNL     1       8.875  -3.442   3.750  1.00  0.00     0.094 A 
ATOM     10  C   UNL     1       8.851  -3.717   5.120  1.00  0.00     0.146 A 
ATOM     11  O   UNL     1       8.277  -4.841   5.530  1.00  0.00    -0.452 OA
ENDROOT
BRANCH   1  12
ATOM     12  C   UNL     1       7.524  -6.477   7.133  1.00  0.00     0.025 A 
ATOM     13  C   UNL     1       6.123  -6.540   7.225  1.00  0.00     0.016 A 
ATOM     14  C   UNL     1       5.488  -7.751   7.513  1.00  0.00     0.051 A 
ATOM     15  C   UNL     1       6.241  -8.918   7.700  1.00  0.00     0.157 A 
ATOM     16  C   UNL     1       8.273  -7.652   7.302  1.00  0.00     0.062 A 
ATOM     17  C   UNL     1       7.641  -8.867   7.591  1.00  0.00     0.158 A 
BRANCH  15  18
ATOM     18  O   UNL     1       5.605 -10.124   7.989  1.00  0.00    -0.504 OA
ATOM     19  H   UNL     1       4.802 -10.440   7.458  1.00  0.00     0.293 HD
ENDBRANCH  15  18
BRANCH  17  20
ATOM     20  O   UNL     1       8.419 -10.011   7.765  1.00  0.00    -0.504 OA
ATOM     21  H   UNL     1       9.418  -9.964   7.925  1.00  0.00     0.293 HD
ENDBRANCH  17  20
ENDBRANCH   1  12
BRANCH   2  22
ATOM     22  O   UNL     1       8.855  -4.840   9.120  1.00  0.00    -0.502 OA
ATOM     23  H   UNL     1       8.186  -4.512   9.807  1.00  0.00     0.293 HD
ENDBRANCH   2  22
BRANCH   6  24
ATOM     24  O   UNL     1      10.493  -0.581   6.372  1.00  0.00    -0.507 OA
ATOM     25  H   UNL     1       9.924   0.073   6.888  1.00  0.00     0.293 HD
ENDBRANCH   6  24
BRANCH   8  26
ATOM     26  O   UNL     1       9.509  -2.035   1.903  1.00  0.00    -0.508 OA
ATOM     27  H   UNL     1       9.080  -1.210   1.501  1.00  0.00     0.293 HD
ENDBRANCH   8  26
TORSDOF 6
ENDMDL
MODEL 8
REMARK VINA RESULT:    -5.855      2.036      7.337
REMARK INTER + INTRA:          -7.309
REMARK INTER:                  -7.229
REMARK INTRA:                  -0.080
REMARK UNBOUND:                -0.256
REMARK SMILES O=c1c(O)c(-c2ccc(O)c(O)c2)oc2cc(O)cc(O)c12
REMARK SMILES IDX 5 1 3 2 2 3 1 4 22 5 20 6 19 7 17 8 16 9 15 10 14 11 6 12
REMARK SMILES IDX 7 13 8 14 9 15 13 16 11 17 10 18 12 20 4 22 21 24 18 26
REMARK H PARENT 10 19 12 21 4 23 21 25 18 27
REMARK Flexibility Score: inf
ROOT
ATOM      1  C   UNL     1       9.057  -4.123   5.746  1.00  0.00     0.180 A 
ATOM      2  C   UNL     1       7.772  -4.036   5.182  1.00  0.00     0.208 A 
ATOM      3  C   UNL     1       6.812  -5.002   5.523  1.00  0.00     0.238 A 
ATOM      4  O   UNL     1       5.681  -4.951   4.974  1.00  0.00    -0.285 OA
ATOM      5  C   UNL     1       7.143  -6.032   6.436  1.00  0.00     0.111 A 
ATOM      6  C   UNL     1       6.237  -7.040   6.884  1.00  0.00     0.134 A 
ATOM      7  C   UNL     1       6.709  -8.087   7.686  1.00  0.00     0.093 A 
ATOM      8  C   UNL     1       8.040  -8.125   8.111  1.00  0.00     0.123 A 
ATOM      9  C   UNL     1       8.917  -7.113   7.728  1.00  0.00     0.094 A 
ATOM     10  C   UNL     1       8.485  -6.076   6.898  1.00  0.00     0.146 A 
ATOM     11  O   UNL     1       9.356  -5.139   6.548  1.00  0.00    -0.452 OA
ENDROOT
BRANCH   1  12
ATOM     12  C   UNL     1      10.115  -3.128   5.455  1.00  0.00     0.025 A 
ATOM     13  C   UNL     1      10.542  -2.880   4.138  1.00  0.00     0.016 A 
ATOM     14  C   UNL     1      11.525  -1.921   3.884  1.00  0.00     0.051 A 
ATOM     15  C   UNL     1      12.086  -1.186   4.937  1.00  0.00     0.157 A 
ATOM     16  C   UNL     1      10.665  -2.375   6.504  1.00  0.00     0.062 A 
ATOM     17  C   UNL     1      11.650  -1.414   6.253  1.00  0.00     0.158 A 
BRANCH  15  18
ATOM     18  O   UNL     1      13.067  -0.230   4.680  1.00  0.00    -0.504 OA
ATOM     19  H   UNL     1      13.040   0.687   5.108  1.00  0.00     0.293 HD
ENDBRANCH  15  18
BRANCH  17  20
ATOM     20  O   UNL     1      12.183  -0.695   7.323  1.00  0.00    -0.504 OA
ATOM     21  H   UNL     1      12.133  -1.032   8.277  1.00  0.00     0.293 HD
ENDBRANCH  17  20
ENDBRANCH   1  12
BRANCH   2  22
ATOM     22  O   UNL     1       7.474  -3.023   4.266  1.00  0.00    -0.502 OA
ATOM     23  H   UNL     1       8.179  -2.392   3.905  1.00  0.00     0.293 HD
ENDBRANCH   2  22
BRANCH   6  24
ATOM     24  O   UNL     1       4.869  -7.045   6.595  1.00  0.00    -0.507 OA
ATOM     25  H   UNL     1       4.338  -7.865   6.343  1.00  0.00     0.293 HD
ENDBRANCH   6  24
BRANCH   8  26
ATOM     26  O   UNL     1       8.497  -9.160   8.922  1.00  0.00    -0.508 OA
ATOM     27  H   UNL     1       9.232  -9.788   8.619  1.00  0.00     0.293 HD
ENDBRANCH   8  26
TORSDOF 6
ENDMDL
