MODEL 1
REMARK VINA RESULT:    -4.682      0.000      0.000
REMARK INTER + INTRA:          -9.704
REMARK INTER:                  -8.241
REMARK INTRA:                  -1.462
REMARK UNBOUND:                -1.462
REMARK SMILES CCCCCCCCCCCCCCC(=O)[O-]
REMARK SMILES IDX 9 1 10 2 11 3 12 4 13 5 14 6 15 7 16 8 17 9 8 10 7 11 6 12
REMARK SMILES IDX 5 13 4 14 3 15 2 16 1 17
REMARK H PARENT
REMARK Flexibility Score: inf
ROOT
ATOM      1  C   UNL     1      47.418  20.819  51.026  1.00  0.00     0.000 C 
ENDROOT
BRANCH   1   2
ATOM      2  C   UNL     1      47.837  21.572  52.305  1.00  0.00     0.000 C 
BRANCH   2   3
ATOM      3  C   UNL     1      48.614  22.880  52.067  1.00  0.00     0.000 C 
BRANCH   3   4
ATOM      4  C   UNL     1      49.610  23.194  53.196  1.00  0.00     0.000 C 
BRANCH   4   5
ATOM      5  C   UNL     1      50.039  21.938  53.971  1.00  0.00     0.006 C 
BRANCH   5   6
ATOM      6  C   UNL     1      51.354  22.136  54.738  1.00  0.00     0.053 C 
BRANCH   6   7
ATOM      7  C   UNL     1      52.151  20.870  54.742  1.00  0.00     0.041 C 
ATOM      8  O   UNL     1      51.577  19.760  54.886  1.00  0.00    -0.550 OA
ATOM      9  O   UNL     1      53.525  20.913  54.535  1.00  0.00    -0.550 OA
ENDBRANCH   6   7
ENDBRANCH   5   6
ENDBRANCH   4   5
ENDBRANCH   3   4
ENDBRANCH   2   3
ENDBRANCH   1   2
BRANCH   1  10
ATOM     10  C   UNL     1      48.526  20.658  49.966  1.00  0.00     0.000 C 
BRANCH  10  11
ATOM     11  C   UNL     1      49.239  19.294  49.971  1.00  0.00    -0.000 C 
BRANCH  11  12
ATOM     12  C   UNL     1      50.765  19.419  50.077  1.00  0.00    -0.000 C 
BRANCH  12  13
ATOM     13  C   UNL     1      51.161  20.414  51.177  1.00  0.00    -0.000 C 
BRANCH  13  14
ATOM     14  C   UNL     1      52.523  21.083  50.896  1.00  0.00    -0.000 C 
BRANCH  14  15
ATOM     15  C   UNL     1      53.006  20.909  49.445  1.00  0.00    -0.000 C 
BRANCH  15  16
ATOM     16  C   UNL     1      54.431  20.349  49.351  1.00  0.00    -0.003 C 
ATOM     17  C   UNL     1      55.234  21.064  48.269  1.00  0.00     0.004 C 
ENDBRANCH  15  16
ENDBRANCH  14  15
ENDBRANCH  13  14
ENDBRANCH  12  13
ENDBRANCH  11  12
ENDBRANCH  10  11
ENDBRANCH   1  10
TORSDOF 13
ENDMDL
MODEL 2
REMARK VINA RESULT:    -4.675      1.082      1.256
REMARK INTER + INTRA:          -9.690
REMARK INTER:                  -8.487
REMARK INTRA:                  -1.203
REMARK UNBOUND:                -1.462
REMARK SMILES CCCCCCCCCCCCCCC(=O)[O-]
REMARK SMILES IDX 9 1 10 2 11 3 12 4 13 5 14 6 15 7 16 8 17 9 8 10 7 11 6 12
REMARK SMILES IDX 5 13 4 14 3 15 2 16 1 17
REMARK H PARENT
REMARK Flexibility Score: inf
ROOT
ATOM      1  C   UNL     1      47.829  21.852  51.325  1.00  0.00     0.000 C 
ENDROOT
BRANCH   1   2
ATOM      2  C   UNL     1      48.107  21.910  52.841  1.00  0.00     0.000 C 
BRANCH   2   3
ATOM      3  C   UNL     1      49.157  22.950  53.272  1.00  0.00     0.000 C 
BRANCH   3   4
ATOM      4  C   UNL     1      50.338  23.044  52.292  1.00  0.00     0.000 C 
BRANCH   4   5
ATOM      5  C   UNL     1      51.688  23.213  53.008  1.00  0.00     0.006 C 
BRANCH   5   6
ATOM      6  C   UNL     1      52.448  21.889  53.157  1.00  0.00     0.053 C 
BRANCH   6   7
ATOM      7  C   UNL     1      52.202  21.295  54.508  1.00  0.00     0.041 C 
ATOM      8  O   UNL     1      51.688  20.151  54.614  1.00  0.00    -0.550 OA
ATOM      9  O   UNL     1      52.585  21.985  55.651  1.00  0.00    -0.550 OA
ENDBRANCH   6   7
ENDBRANCH   5   6
ENDBRANCH   4   5
ENDBRANCH   3   4
ENDBRANCH   2   3
ENDBRANCH   1   2
BRANCH   1  10
ATOM     10  C   UNL     1      47.742  20.434  50.727  1.00  0.00     0.000 C 
BRANCH  10  11
ATOM     11  C   UNL     1      48.826  20.099  49.686  1.00  0.00    -0.000 C 
BRANCH  11  12
ATOM     12  C   UNL     1      50.164  19.702  50.324  1.00  0.00    -0.000 C 
BRANCH  12  13
ATOM     13  C   UNL     1      51.247  20.750  50.027  1.00  0.00    -0.000 C 
BRANCH  13  14
ATOM     14  C   UNL     1      52.474  20.136  49.319  1.00  0.00    -0.000 C 
BRANCH  14  15
ATOM     15  C   UNL     1      53.818  20.588  49.916  1.00  0.00    -0.000 C 
BRANCH  15  16
ATOM     16  C   UNL     1      55.012  20.278  49.004  1.00  0.00    -0.003 C 
ATOM     17  C   UNL     1      55.171  21.342  47.922  1.00  0.00     0.004 C 
ENDBRANCH  15  16
ENDBRANCH  14  15
ENDBRANCH  13  14
ENDBRANCH  12  13
ENDBRANCH  11  12
ENDBRANCH  10  11
ENDBRANCH   1  10
TORSDOF 13
ENDMDL
MODEL 3
REMARK VINA RESULT:    -4.669      4.123      5.546
REMARK INTER + INTRA:          -9.680
REMARK INTER:                  -9.027
REMARK INTRA:                  -0.653
REMARK UNBOUND:                -1.462
REMARK SMILES CCCCCCCCCCCCCCC(=O)[O-]
REMARK SMILES IDX 9 1 10 2 11 3 12 4 13 5 14 6 15 7 16 8 17 9 8 10 7 11 6 12
REMARK SMILES IDX 5 13 4 14 3 15 2 16 1 17
REMARK H PARENT
REMARK Flexibility Score: inf
ROOT
ATOM      1  C   UNL     1      47.454  20.852  50.585  1.00  0.00     0.000 C 
ENDROOT
BRANCH   1   2
ATOM      2  C   UNL     1      46.964  19.753  51.551  1.00  0.00     0.000 C 
BRANCH   2   3
ATOM      3  C   UNL     1      45.596  19.141  51.202  1.00  0.00     0.000 C 
BRANCH   3   4
ATOM      4  C   UNL     1      45.333  17.815  51.936  1.00  0.00     0.000 C 
BRANCH   4   5
ATOM      5  C   UNL     1      44.624  18.017  53.285  1.00  0.00     0.006 C 
BRANCH   5   6
ATOM      6  C   UNL     1      43.255  18.694  53.139  1.00  0.00     0.053 C 
BRANCH   6   7
ATOM      7  C   UNL     1      42.595  18.829  54.474  1.00  0.00     0.041 C 
ATOM      8  O   UNL     1      42.955  18.102  55.436  1.00  0.00    -0.550 OA
ATOM      9  O   UNL     1      41.615  19.795  54.671  1.00  0.00    -0.550 OA
ENDBRANCH   6   7
ENDBRANCH   5   6
ENDBRANCH   4   5
ENDBRANCH   3   4
ENDBRANCH   2   3
ENDBRANCH   1   2
BRANCH   1  10
ATOM     10  C   UNL     1      48.504  20.397  49.553  1.00  0.00     0.000 C 
BRANCH  10  11
ATOM     11  C   UNL     1      49.467  19.301  50.043  1.00  0.00    -0.000 C 
BRANCH  11  12
ATOM     12  C   UNL     1      50.577  19.844  50.953  1.00  0.00    -0.000 C 
BRANCH  12  13
ATOM     13  C   UNL     1      51.283  21.043  50.304  1.00  0.00    -0.000 C 
BRANCH  13  14
ATOM     14  C   UNL     1      52.820  20.912  50.354  1.00  0.00    -0.000 C 
BRANCH  14  15
ATOM     15  C   UNL     1      53.419  20.218  49.118  1.00  0.00    -0.000 C 
BRANCH  15  16
ATOM     16  C   UNL     1      54.940  20.388  49.014  1.00  0.00    -0.003 C 
ATOM     17  C   UNL     1      55.312  21.355  47.894  1.00  0.00     0.004 C 
ENDBRANCH  15  16
ENDBRANCH  14  15
ENDBRANCH  13  14
ENDBRANCH  12  13
ENDBRANCH  11  12
ENDBRANCH  10  11
ENDBRANCH   1  10
TORSDOF 13
ENDMDL
MODEL 4
REMARK VINA RESULT:    -4.594      2.486      4.210
REMARK INTER + INTRA:          -9.547
REMARK INTER:                  -7.763
REMARK INTRA:                  -1.784
REMARK UNBOUND:                -1.462
REMARK SMILES CCCCCCCCCCCCCCC(=O)[O-]
REMARK SMILES IDX 9 1 10 2 11 3 12 4 13 5 14 6 15 7 16 8 17 9 8 10 7 11 6 12
REMARK SMILES IDX 5 13 4 14 3 15 2 16 1 17
REMARK H PARENT
REMARK Flexibility Score: inf
ROOT
ATOM      1  C   UNL     1      51.937  20.886  54.591  1.00  0.00     0.000 C 
ENDROOT
BRANCH   1   2
ATOM      2  C   UNL     1      50.869  21.943  54.940  1.00  0.00     0.000 C 
BRANCH   2   3
ATOM      3  C   UNL     1      49.551  21.822  54.155  1.00  0.00     0.000 C 
BRANCH   3   4
ATOM      4  C   UNL     1      49.294  23.028  53.235  1.00  0.00     0.000 C 
BRANCH   4   5
ATOM      5  C   UNL     1      49.689  22.751  51.775  1.00  0.00     0.006 C 
BRANCH   5   6
ATOM      6  C   UNL     1      49.768  21.252  51.458  1.00  0.00     0.053 C 
BRANCH   6   7
ATOM      7  C   UNL     1      48.628  20.844  50.580  1.00  0.00     0.041 C 
ATOM      8  O   UNL     1      48.847  20.374  49.433  1.00  0.00    -0.550 OA
ATOM      9  O   UNL     1      47.323  20.936  51.047  1.00  0.00    -0.550 OA
ENDBRANCH   6   7
ENDBRANCH   5   6
ENDBRANCH   4   5
ENDBRANCH   3   4
ENDBRANCH   2   3
ENDBRANCH   1   2
BRANCH   1  10
ATOM     10  C   UNL     1      53.247  21.445  54.002  1.00  0.00     0.000 C 
BRANCH  10  11
ATOM     11  C   UNL     1      53.110  22.796  53.275  1.00  0.00    -0.000 C 
BRANCH  11  12
ATOM     12  C   UNL     1      53.419  22.701  51.775  1.00  0.00    -0.000 C 
BRANCH  12  13
ATOM     13  C   UNL     1      53.433  21.238  51.308  1.00  0.00    -0.000 C 
BRANCH  13  14
ATOM     14  C   UNL     1      53.005  21.094  49.832  1.00  0.00    -0.000 C 
BRANCH  14  15
ATOM     15  C   UNL     1      53.652  19.893  49.119  1.00  0.00    -0.000 C 
BRANCH  15  16
ATOM     16  C   UNL     1      55.132  20.120  48.786  1.00  0.00    -0.003 C 
ATOM     17  C   UNL     1      55.332  21.426  48.023  1.00  0.00     0.004 C 
ENDBRANCH  15  16
ENDBRANCH  14  15
ENDBRANCH  13  14
ENDBRANCH  12  13
ENDBRANCH  11  12
ENDBRANCH  10  11
ENDBRANCH   1  10
TORSDOF 13
ENDMDL
MODEL 5
REMARK VINA RESULT:    -4.566      2.662      4.006
REMARK INTER + INTRA:          -9.499
REMARK INTER:                  -8.110
REMARK INTRA:                  -1.389
REMARK UNBOUND:                -1.462
REMARK SMILES CCCCCCCCCCCCCCC(=O)[O-]
REMARK SMILES IDX 9 1 10 2 11 3 12 4 13 5 14 6 15 7 16 8 17 9 8 10 7 11 6 12
REMARK SMILES IDX 5 13 4 14 3 15 2 16 1 17
REMARK H PARENT
REMARK Flexibility Score: inf
ROOT
ATOM      1  C   UNL     1      50.338  24.555  51.830  1.00  0.00     0.000 C 
ENDROOT
BRANCH   1   2
ATOM      2  C   UNL     1      49.485  24.904  53.068  1.00  0.00     0.000 C 
BRANCH   2   3
ATOM      3  C   UNL     1      48.118  24.201  53.136  1.00  0.00     0.000 C 
BRANCH   3   4
ATOM      4  C   UNL     1      48.197  22.809  53.786  1.00  0.00     0.000 C 
BRANCH   4   5
ATOM      5  C   UNL     1      47.607  21.706  52.892  1.00  0.00     0.006 C 
BRANCH   5   6
ATOM      6  C   UNL     1      48.088  21.803  51.439  1.00  0.00     0.053 C 
BRANCH   6   7
ATOM      7  C   UNL     1      47.722  20.564  50.685  1.00  0.00     0.041 C 
ATOM      8  O   UNL     1      48.294  20.290  49.598  1.00  0.00    -0.550 OA
ATOM      9  O   UNL     1      46.783  19.684  51.208  1.00  0.00    -0.550 OA
ENDBRANCH   6   7
ENDBRANCH   5   6
ENDBRANCH   4   5
ENDBRANCH   3   4
ENDBRANCH   2   3
ENDBRANCH   1   2
BRANCH   1  10
ATOM     10  C   UNL     1      51.737  23.984  52.137  1.00  0.00     0.000 C 
BRANCH  10  11
ATOM     11  C   UNL     1      51.742  22.670  52.939  1.00  0.00    -0.000 C 
BRANCH  11  12
ATOM     12  C   UNL     1      52.439  21.522  52.197  1.00  0.00    -0.000 C 
BRANCH  12  13
ATOM     13  C   UNL     1      51.525  20.931  51.113  1.00  0.00    -0.000 C 
BRANCH  13  14
ATOM     14  C   UNL     1      52.281  20.667  49.794  1.00  0.00    -0.000 C 
BRANCH  14  15
ATOM     15  C   UNL     1      53.811  20.718  49.941  1.00  0.00    -0.000 C 
BRANCH  15  16
ATOM     16  C   UNL     1      54.550  20.211  48.695  1.00  0.00    -0.003 C 
ATOM     17  C   UNL     1      55.276  21.348  47.983  1.00  0.00     0.004 C 
ENDBRANCH  15  16
ENDBRANCH  14  15
ENDBRANCH  13  14
ENDBRANCH  12  13
ENDBRANCH  11  12
ENDBRANCH  10  11
ENDBRANCH   1  10
TORSDOF 13
ENDMDL
MODEL 6
REMARK VINA RESULT:    -4.490      2.541      3.206
REMARK INTER + INTRA:          -9.365
REMARK INTER:                  -8.451
REMARK INTRA:                  -0.915
REMARK UNBOUND:                -1.462
REMARK SMILES CCCCCCCCCCCCCCC(=O)[O-]
REMARK SMILES IDX 9 1 10 2 11 3 12 4 13 5 14 6 15 7 16 8 17 9 8 10 7 11 6 12
REMARK SMILES IDX 5 13 4 14 3 15 2 16 1 17
REMARK H PARENT
REMARK Flexibility Score: inf
ROOT
ATOM      1  C   UNL     1      47.743  21.461  50.968  1.00  0.00     0.000 C 
ENDROOT
BRANCH   1   2
ATOM      2  C   UNL     1      48.368  21.950  52.291  1.00  0.00     0.000 C 
BRANCH   2   3
ATOM      3  C   UNL     1      48.679  23.456  52.346  1.00  0.00     0.000 C 
BRANCH   3   4
ATOM      4  C   UNL     1      48.260  24.102  53.678  1.00  0.00     0.000 C 
BRANCH   4   5
ATOM      5  C   UNL     1      46.747  24.359  53.759  1.00  0.00     0.006 C 
BRANCH   5   6
ATOM      6  C   UNL     1      46.163  24.026  55.139  1.00  0.00     0.053 C 
BRANCH   6   7
ATOM      7  C   UNL     1      46.701  22.720  55.631  1.00  0.00     0.041 C 
ATOM      8  O   UNL     1      47.535  22.692  56.573  1.00  0.00    -0.550 OA
ATOM      9  O   UNL     1      46.242  21.528  55.083  1.00  0.00    -0.550 OA
ENDBRANCH   6   7
ENDBRANCH   5   6
ENDBRANCH   4   5
ENDBRANCH   3   4
ENDBRANCH   2   3
ENDBRANCH   1   2
BRANCH   1  10
ATOM     10  C   UNL     1      48.570  20.413  50.198  1.00  0.00     0.000 C 
BRANCH  10  11
ATOM     11  C   UNL     1      50.000  20.852  49.833  1.00  0.00    -0.000 C 
BRANCH  11  12
ATOM     12  C   UNL     1      51.076  20.112  50.639  1.00  0.00    -0.000 C 
BRANCH  12  13
ATOM     13  C   UNL     1      52.038  21.102  51.313  1.00  0.00    -0.000 C 
BRANCH  13  14
ATOM     14  C   UNL     1      53.373  21.228  50.550  1.00  0.00    -0.000 C 
BRANCH  14  15
ATOM     15  C   UNL     1      53.541  20.189  49.427  1.00  0.00    -0.000 C 
BRANCH  15  16
ATOM     16  C   UNL     1      54.967  20.139  48.865  1.00  0.00    -0.003 C 
ATOM     17  C   UNL     1      55.263  21.361  48.001  1.00  0.00     0.004 C 
ENDBRANCH  15  16
ENDBRANCH  14  15
ENDBRANCH  13  14
ENDBRANCH  12  13
ENDBRANCH  11  12
ENDBRANCH  10  11
ENDBRANCH   1  10
TORSDOF 13
ENDMDL
MODEL 7
REMARK VINA RESULT:    -4.456      3.903      5.534
REMARK INTER + INTRA:          -9.305
REMARK INTER:                  -8.360
REMARK INTRA:                  -0.945
REMARK UNBOUND:                -1.462
REMARK SMILES CCCCCCCCCCCCCCC(=O)[O-]
REMARK SMILES IDX 9 1 10 2 11 3 12 4 13 5 14 6 15 7 16 8 17 9 8 10 7 11 6 12
REMARK SMILES IDX 5 13 4 14 3 15 2 16 1 17
REMARK H PARENT
REMARK Flexibility Score: inf
ROOT
ATOM      1  C   UNL     1      53.599  21.809  55.248  1.00  0.00     0.000 C 
ENDROOT
BRANCH   1   2
ATOM      2  C   UNL     1      53.467  23.346  55.220  1.00  0.00     0.000 C 
BRANCH   2   3
ATOM      3  C   UNL     1      54.738  24.102  54.793  1.00  0.00     0.000 C 
BRANCH   3   4
ATOM      4  C   UNL     1      56.015  23.261  54.961  1.00  0.00     0.000 C 
BRANCH   4   5
ATOM      5  C   UNL     1      57.025  23.909  55.922  1.00  0.00     0.006 C 
BRANCH   5   6
ATOM      6  C   UNL     1      56.894  23.388  57.359  1.00  0.00     0.053 C 
BRANCH   6   7
ATOM      7  C   UNL     1      58.163  22.726  57.792  1.00  0.00     0.041 C 
ATOM      8  O   UNL     1      58.242  21.470  57.833  1.00  0.00    -0.550 OA
ATOM      9  O   UNL     1      59.278  23.495  58.103  1.00  0.00    -0.550 OA
ENDBRANCH   6   7
ENDBRANCH   5   6
ENDBRANCH   4   5
ENDBRANCH   3   4
ENDBRANCH   2   3
ENDBRANCH   1   2
BRANCH   1  10
ATOM     10  C   UNL     1      53.071  21.083  53.995  1.00  0.00     0.000 C 
BRANCH  10  11
ATOM     11  C   UNL     1      51.914  21.793  53.269  1.00  0.00    -0.000 C 
BRANCH  11  12
ATOM     12  C   UNL     1      52.199  22.029  51.780  1.00  0.00    -0.000 C 
BRANCH  12  13
ATOM     13  C   UNL     1      51.411  21.042  50.906  1.00  0.00    -0.000 C 
BRANCH  13  14
ATOM     14  C   UNL     1      52.301  20.368  49.841  1.00  0.00    -0.000 C 
BRANCH  14  15
ATOM     15  C   UNL     1      53.775  20.804  49.906  1.00  0.00    -0.000 C 
BRANCH  15  16
ATOM     16  C   UNL     1      54.618  20.242  48.753  1.00  0.00    -0.003 C 
ATOM     17  C   UNL     1      55.302  21.361  47.974  1.00  0.00     0.004 C 
ENDBRANCH  15  16
ENDBRANCH  14  15
ENDBRANCH  13  14
ENDBRANCH  12  13
ENDBRANCH  11  12
ENDBRANCH  10  11
ENDBRANCH   1  10
TORSDOF 13
ENDMDL
MODEL 8
REMARK VINA RESULT:    -4.368      2.431      4.116
REMARK INTER + INTRA:          -9.149
REMARK INTER:                  -7.579
REMARK INTRA:                  -1.570
REMARK UNBOUND:                -1.462
REMARK SMILES CCCCCCCCCCCCCCC(=O)[O-]
REMARK SMILES IDX 9 1 10 2 11 3 12 4 13 5 14 6 15 7 16 8 17 9 8 10 7 11 6 12
REMARK SMILES IDX 5 13 4 14 3 15 2 16 1 17
REMARK H PARENT
REMARK Flexibility Score: inf
ROOT
ATOM      1  C   UNL     1      53.689  21.614  54.334  1.00  0.00     0.000 C 
ENDROOT
BRANCH   1   2
ATOM      2  C   UNL     1      53.818  23.110  54.689  1.00  0.00     0.000 C 
BRANCH   2   3
ATOM      3  C   UNL     1      52.512  23.918  54.588  1.00  0.00     0.000 C 
BRANCH   3   4
ATOM      4  C   UNL     1      52.416  24.734  53.287  1.00  0.00     0.000 C 
BRANCH   4   5
ATOM      5  C   UNL     1      51.058  24.567  52.586  1.00  0.00     0.006 C 
BRANCH   5   6
ATOM      6  C   UNL     1      49.898  24.392  53.575  1.00  0.00     0.053 C 
BRANCH   6   7
ATOM      7  C   UNL     1      49.000  23.281  53.133  1.00  0.00     0.041 C 
ATOM      8  O   UNL     1      48.992  22.910  51.930  1.00  0.00    -0.550 OA
ATOM      9  O   UNL     1      48.205  22.618  54.061  1.00  0.00    -0.550 OA
ENDBRANCH   6   7
ENDBRANCH   5   6
ENDBRANCH   4   5
ENDBRANCH   3   4
ENDBRANCH   2   3
ENDBRANCH   1   2
BRANCH   1  10
ATOM     10  C   UNL     1      52.280  21.015  54.513  1.00  0.00     0.000 C 
BRANCH  10  11
ATOM     11  C   UNL     1      51.523  20.727  53.204  1.00  0.00    -0.000 C 
BRANCH  11  12
ATOM     12  C   UNL     1      52.265  21.238  51.961  1.00  0.00    -0.000 C 
BRANCH  12  13
ATOM     13  C   UNL     1      51.592  20.738  50.674  1.00  0.00    -0.000 C 
BRANCH  13  14
ATOM     14  C   UNL     1      52.580  20.666  49.490  1.00  0.00    -0.000 C 
BRANCH  14  15
ATOM     15  C   UNL     1      54.041  20.449  49.920  1.00  0.00    -0.000 C 
BRANCH  15  16
ATOM     16  C   UNL     1      54.971  20.128  48.743  1.00  0.00    -0.003 C 
ATOM     17  C   UNL     1      55.285  21.381  47.931  1.00  0.00     0.004 C 
ENDBRANCH  15  16
ENDBRANCH  14  15
ENDBRANCH  13  14
ENDBRANCH  12  13
ENDBRANCH  11  12
ENDBRANCH  10  11
ENDBRANCH   1  10
TORSDOF 13
ENDMDL
MODEL 9
REMARK VINA RESULT:    -4.359      2.424      4.924
REMARK INTER + INTRA:          -9.135
REMARK INTER:                  -7.624
REMARK INTRA:                  -1.511
REMARK UNBOUND:                -1.462
REMARK SMILES CCCCCCCCCCCCCCC(=O)[O-]
REMARK SMILES IDX 9 1 10 2 11 3 12 4 13 5 14 6 15 7 16 8 17 9 8 10 7 11 6 12
REMARK SMILES IDX 5 13 4 14 3 15 2 16 1 17
REMARK H PARENT
REMARK Flexibility Score: inf
ROOT
ATOM      1  C   UNL     1      48.516  20.520  49.618  1.00  0.00     0.000 C 
ENDROOT
BRANCH   1   2
ATOM      2  C   UNL     1      49.198  19.160  49.874  1.00  0.00     0.000 C 
BRANCH   2   3
ATOM      3  C   UNL     1      50.663  19.243  50.338  1.00  0.00     0.000 C 
BRANCH   3   4
ATOM      4  C   UNL     1      51.140  20.691  50.547  1.00  0.00     0.000 C 
BRANCH   4   5
ATOM      5  C   UNL     1      52.257  21.091  49.570  1.00  0.00     0.006 C 
BRANCH   5   6
ATOM      6  C   UNL     1      53.650  20.672  50.060  1.00  0.00     0.053 C 
BRANCH   6   7
ATOM      7  C   UNL     1      54.559  20.426  48.898  1.00  0.00     0.041 C 
ATOM      8  O   UNL     1      54.708  19.262  48.444  1.00  0.00    -0.550 OA
ATOM      9  O   UNL     1      55.205  21.492  48.283  1.00  0.00    -0.550 OA
ENDBRANCH   6   7
ENDBRANCH   5   6
ENDBRANCH   4   5
ENDBRANCH   3   4
ENDBRANCH   2   3
ENDBRANCH   1   2
BRANCH   1  10
ATOM     10  C   UNL     1      47.358  20.865  50.576  1.00  0.00     0.000 C 
BRANCH  10  11
ATOM     11  C   UNL     1      47.786  21.244  52.005  1.00  0.00    -0.000 C 
BRANCH  11  12
ATOM     12  C   UNL     1      48.069  22.744  52.165  1.00  0.00    -0.000 C 
BRANCH  12  13
ATOM     13  C   UNL     1      49.404  22.978  52.888  1.00  0.00    -0.000 C 
BRANCH  13  14
ATOM     14  C   UNL     1      49.458  22.268  54.257  1.00  0.00    -0.000 C 
BRANCH  14  15
ATOM     15  C   UNL     1      50.888  22.049  54.781  1.00  0.00    -0.000 C 
BRANCH  15  16
ATOM     16  C   UNL     1      51.617  20.902  54.068  1.00  0.00    -0.003 C 
ATOM     17  C   UNL     1      53.117  21.169  53.985  1.00  0.00     0.004 C 
ENDBRANCH  15  16
ENDBRANCH  14  15
ENDBRANCH  13  14
ENDBRANCH  12  13
ENDBRANCH  11  12
ENDBRANCH  10  11
ENDBRANCH   1  10
TORSDOF 13
ENDMDL
