MODEL 1
REMARK VINA RESULT:    -4.336      0.000      0.000
REMARK INTER + INTRA:          -7.575
REMARK INTER:                  -6.871
REMARK INTRA:                  -0.703
REMARK UNBOUND:                -0.703
REMARK SMILES CCCCCCCCCCCC(=O)[O-]
REMARK SMILES IDX 7 1 8 2 9 3 10 4 11 5 12 6 13 7 14 8 6 9 5 10 4 11 3 12 2 13
REMARK SMILES IDX 1 14
REMARK H PARENT
REMARK Flexibility Score: inf
ROOT
ATOM      1  C   UNL     1      34.628   5.372  46.075  1.00  0.00     0.000 C 
ENDROOT
BRANCH   1   2
ATOM      2  C   UNL     1      33.784   4.980  47.301  1.00  0.00     0.000 C 
BRANCH   2   3
ATOM      3  C   UNL     1      33.811   6.045  48.409  1.00  0.00     0.000 C 
BRANCH   3   4
ATOM      4  C   UNL     1      32.429   6.681  48.656  1.00  0.00     0.006 C 
BRANCH   4   5
ATOM      5  C   UNL     1      31.320   6.175  47.721  1.00  0.00     0.053 C 
BRANCH   5   6
ATOM      6  C   UNL     1      29.957   6.579  48.193  1.00  0.00     0.041 C 
ATOM      7  O   UNL     1      29.773   7.722  48.690  1.00  0.00    -0.550 OA
ATOM      8  O   UNL     1      28.899   5.684  48.114  1.00  0.00    -0.550 OA
ENDBRANCH   5   6
ENDBRANCH   4   5
ENDBRANCH   3   4
ENDBRANCH   2   3
ENDBRANCH   1   2
BRANCH   1   9
ATOM      9  C   UNL     1      33.913   6.277  45.051  1.00  0.00     0.000 C 
BRANCH   9  10
ATOM     10  C   UNL     1      34.115   7.792  45.259  1.00  0.00    -0.000 C 
BRANCH  10  11
ATOM     11  C   UNL     1      34.476   8.583  43.988  1.00  0.00    -0.000 C 
BRANCH  11  12
ATOM     12  C   UNL     1      34.549  10.100  44.230  1.00  0.00    -0.000 C 
BRANCH  12  13
ATOM     13  C   UNL     1      34.811  10.449  45.702  1.00  0.00    -0.003 C 
ATOM     14  C   UNL     1      36.083  11.275  45.899  1.00  0.00     0.004 C 
ENDBRANCH  12  13
ENDBRANCH  11  12
ENDBRANCH  10  11
ENDBRANCH   9  10
ENDBRANCH   1   9
TORSDOF 10
ENDMDL
MODEL 2
REMARK VINA RESULT:    -4.329      2.904      4.146
REMARK INTER + INTRA:          -7.563
REMARK INTER:                  -6.675
REMARK INTRA:                  -0.887
REMARK UNBOUND:                -0.703
REMARK SMILES CCCCCCCCCCCC(=O)[O-]
REMARK SMILES IDX 7 1 8 2 9 3 10 4 11 5 12 6 13 7 14 8 6 9 5 10 4 11 3 12 2 13
REMARK SMILES IDX 1 14
REMARK H PARENT
REMARK Flexibility Score: inf
ROOT
ATOM      1  C   UNL     1      31.778   8.323  48.901  1.00  0.00     0.000 C 
ENDROOT
BRANCH   1   2
ATOM      2  C   UNL     1      30.804   7.404  48.142  1.00  0.00     0.000 C 
BRANCH   2   3
ATOM      3  C   UNL     1      31.483   6.137  47.596  1.00  0.00     0.000 C 
BRANCH   3   4
ATOM      4  C   UNL     1      33.002   6.118  47.851  1.00  0.00     0.006 C 
BRANCH   4   5
ATOM      5  C   UNL     1      33.856   5.912  46.590  1.00  0.00     0.053 C 
BRANCH   5   6
ATOM      6  C   UNL     1      34.858   4.812  46.762  1.00  0.00     0.041 C 
ATOM      7  O   UNL     1      35.279   4.514  47.910  1.00  0.00    -0.550 OA
ATOM      8  O   UNL     1      35.349   4.139  45.651  1.00  0.00    -0.550 OA
ENDBRANCH   5   6
ENDBRANCH   4   5
ENDBRANCH   3   4
ENDBRANCH   2   3
ENDBRANCH   1   2
BRANCH   1   9
ATOM      9  C   UNL     1      31.991   9.714  48.270  1.00  0.00     0.000 C 
BRANCH   9  10
ATOM     10  C   UNL     1      33.458  10.082  47.966  1.00  0.00    -0.000 C 
BRANCH  10  11
ATOM     11  C   UNL     1      34.026   9.479  46.668  1.00  0.00    -0.000 C 
BRANCH  11  12
ATOM     12  C   UNL     1      34.657  10.537  45.746  1.00  0.00    -0.000 C 
BRANCH  12  13
ATOM     13  C   UNL     1      34.480  10.200  44.258  1.00  0.00    -0.003 C 
ATOM     14  C   UNL     1      34.462   8.695  43.989  1.00  0.00     0.004 C 
ENDBRANCH  12  13
ENDBRANCH  11  12
ENDBRANCH  10  11
ENDBRANCH   9  10
ENDBRANCH   1   9
TORSDOF 10
ENDMDL
MODEL 3
REMARK VINA RESULT:    -4.302      3.142      5.690
REMARK INTER + INTRA:          -7.520
REMARK INTER:                  -6.268
REMARK INTRA:                  -1.253
REMARK UNBOUND:                -0.703
REMARK SMILES CCCCCCCCCCCC(=O)[O-]
REMARK SMILES IDX 7 1 8 2 9 3 10 4 11 5 12 6 13 7 14 8 6 9 5 10 4 11 3 12 2 13
REMARK SMILES IDX 1 14
REMARK H PARENT
REMARK Flexibility Score: inf
ROOT
ATOM      1  C   UNL     1      31.642   9.148  48.342  1.00  0.00     0.000 C 
ENDROOT
BRANCH   1   2
ATOM      2  C   UNL     1      32.966   9.216  49.124  1.00  0.00     0.000 C 
BRANCH   2   3
ATOM      3  C   UNL     1      34.172   9.546  48.229  1.00  0.00     0.000 C 
BRANCH   3   4
ATOM      4  C   UNL     1      33.810   9.584  46.732  1.00  0.00     0.006 C 
BRANCH   4   5
ATOM      5  C   UNL     1      34.860  10.265  45.841  1.00  0.00     0.053 C 
BRANCH   5   6
ATOM      6  C   UNL     1      34.623   9.997  44.387  1.00  0.00     0.041 C 
ATOM      7  O   UNL     1      35.184   9.021  43.823  1.00  0.00    -0.550 OA
ATOM      8  O   UNL     1      33.808  10.844  43.647  1.00  0.00    -0.550 OA
ENDBRANCH   5   6
ENDBRANCH   4   5
ENDBRANCH   3   4
ENDBRANCH   2   3
ENDBRANCH   1   2
BRANCH   1   9
ATOM      9  C   UNL     1      30.551   8.261  48.976  1.00  0.00     0.000 C 
BRANCH   9  10
ATOM     10  C   UNL     1      30.587   6.777  48.559  1.00  0.00    -0.000 C 
BRANCH  10  11
ATOM     11  C   UNL     1      31.457   6.465  47.328  1.00  0.00    -0.000 C 
BRANCH  11  12
ATOM     12  C   UNL     1      32.576   5.454  47.629  1.00  0.00    -0.000 C 
BRANCH  12  13
ATOM     13  C   UNL     1      33.959   5.957  47.189  1.00  0.00    -0.003 C 
ATOM     14  C   UNL     1      34.074   6.128  45.674  1.00  0.00     0.004 C 
ENDBRANCH  12  13
ENDBRANCH  11  12
ENDBRANCH  10  11
ENDBRANCH   9  10
ENDBRANCH   1   9
TORSDOF 10
ENDMDL
MODEL 4
REMARK VINA RESULT:    -4.150     17.057     18.552
REMARK INTER + INTRA:          -7.280
REMARK INTER:                  -6.338
REMARK INTRA:                  -0.942
REMARK UNBOUND:                -0.703
REMARK SMILES CCCCCCCCCCCC(=O)[O-]
REMARK SMILES IDX 7 1 8 2 9 3 10 4 11 5 12 6 13 7 14 8 6 9 5 10 4 11 3 12 2 13
REMARK SMILES IDX 1 14
REMARK H PARENT
REMARK Flexibility Score: inf
ROOT
ATOM      1  C   UNL     1      22.081  10.229  35.575  1.00  0.00     0.000 C 
ENDROOT
BRANCH   1   2
ATOM      2  C   UNL     1      22.304  11.752  35.563  1.00  0.00     0.000 C 
BRANCH   2   3
ATOM      3  C   UNL     1      20.996  12.547  35.703  1.00  0.00     0.000 C 
BRANCH   3   4
ATOM      4  C   UNL     1      20.828  13.616  34.606  1.00  0.00     0.006 C 
BRANCH   4   5
ATOM      5  C   UNL     1      20.335  13.070  33.257  1.00  0.00     0.053 C 
BRANCH   5   6
ATOM      6  C   UNL     1      21.417  13.064  32.222  1.00  0.00     0.041 C 
ATOM      7  O   UNL     1      21.936  11.978  31.854  1.00  0.00    -0.550 OA
ATOM      8  O   UNL     1      21.873  14.262  31.686  1.00  0.00    -0.550 OA
ENDBRANCH   5   6
ENDBRANCH   4   5
ENDBRANCH   3   4
ENDBRANCH   2   3
ENDBRANCH   1   2
BRANCH   1   9
ATOM      9  C   UNL     1      20.661   9.771  35.188  1.00  0.00     0.000 C 
BRANCH   9  10
ATOM     10  C   UNL     1      20.498   9.295  33.730  1.00  0.00    -0.000 C 
BRANCH  10  11
ATOM     11  C   UNL     1      20.174   7.799  33.564  1.00  0.00    -0.000 C 
BRANCH  11  12
ATOM     12  C   UNL     1      20.465   6.982  34.834  1.00  0.00    -0.000 C 
BRANCH  12  13
ATOM     13  C   UNL     1      19.183   6.531  35.550  1.00  0.00    -0.003 C 
ATOM     14  C   UNL     1      19.262   6.696  37.069  1.00  0.00     0.004 C 
ENDBRANCH  12  13
ENDBRANCH  11  12
ENDBRANCH  10  11
ENDBRANCH   9  10
ENDBRANCH   1   9
TORSDOF 10
ENDMDL
MODEL 5
REMARK VINA RESULT:    -4.109     16.770     18.247
REMARK INTER + INTRA:          -7.215
REMARK INTER:                  -6.248
REMARK INTRA:                  -0.967
REMARK UNBOUND:                -0.703
REMARK SMILES CCCCCCCCCCCC(=O)[O-]
REMARK SMILES IDX 7 1 8 2 9 3 10 4 11 5 12 6 13 7 14 8 6 9 5 10 4 11 3 12 2 13
REMARK SMILES IDX 1 14
REMARK H PARENT
REMARK Flexibility Score: inf
ROOT
ATOM      1  C   UNL     1      20.902   9.309  35.254  1.00  0.00     0.000 C 
ENDROOT
BRANCH   1   2
ATOM      2  C   UNL     1      22.125  10.170  35.617  1.00  0.00     0.000 C 
BRANCH   2   3
ATOM      3  C   UNL     1      22.160  11.507  34.858  1.00  0.00     0.000 C 
BRANCH   3   4
ATOM      4  C   UNL     1      21.577  12.673  35.680  1.00  0.00     0.006 C 
BRANCH   4   5
ATOM      5  C   UNL     1      20.449  13.444  34.976  1.00  0.00     0.053 C 
BRANCH   5   6
ATOM      6  C   UNL     1      19.099  12.880  35.292  1.00  0.00     0.041 C 
ATOM      7  O   UNL     1      18.573  12.031  34.525  1.00  0.00    -0.550 OA
ATOM      8  O   UNL     1      18.408  13.314  36.416  1.00  0.00    -0.550 OA
ENDBRANCH   5   6
ENDBRANCH   4   5
ENDBRANCH   3   4
ENDBRANCH   2   3
ENDBRANCH   1   2
BRANCH   1   9
ATOM      9  C   UNL     1      19.803   9.245  36.334  1.00  0.00     0.000 C 
BRANCH   9  10
ATOM     10  C   UNL     1      19.458   7.829  36.838  1.00  0.00    -0.000 C 
BRANCH  10  11
ATOM     11  C   UNL     1      19.782   6.689  35.855  1.00  0.00    -0.000 C 
BRANCH  11  12
ATOM     12  C   UNL     1      18.577   6.293  34.984  1.00  0.00    -0.000 C 
BRANCH  12  13
ATOM     13  C   UNL     1      18.885   6.374  33.481  1.00  0.00    -0.003 C 
ATOM     14  C   UNL     1      20.384   6.334  33.181  1.00  0.00     0.004 C 
ENDBRANCH  12  13
ENDBRANCH  11  12
ENDBRANCH  10  11
ENDBRANCH   9  10
ENDBRANCH   1   9
TORSDOF 10
ENDMDL
MODEL 6
REMARK VINA RESULT:    -4.051     16.743     18.326
REMARK INTER + INTRA:          -7.122
REMARK INTER:                  -6.208
REMARK INTRA:                  -0.914
REMARK UNBOUND:                -0.703
REMARK SMILES CCCCCCCCCCCC(=O)[O-]
REMARK SMILES IDX 7 1 8 2 9 3 10 4 11 5 12 6 13 7 14 8 6 9 5 10 4 11 3 12 2 13
REMARK SMILES IDX 1 14
REMARK H PARENT
REMARK Flexibility Score: inf
ROOT
ATOM      1  C   UNL     1      21.987  10.164  35.746  1.00  0.00     0.000 C 
ENDROOT
BRANCH   1   2
ATOM      2  C   UNL     1      22.678  11.110  34.748  1.00  0.00     0.000 C 
BRANCH   2   3
ATOM      3  C   UNL     1      21.886  11.279  33.440  1.00  0.00     0.000 C 
BRANCH   3   4
ATOM      4  C   UNL     1      21.450  12.736  33.192  1.00  0.00     0.006 C 
BRANCH   4   5
ATOM      5  C   UNL     1      19.930  12.960  33.230  1.00  0.00     0.053 C 
BRANCH   5   6
ATOM      6  C   UNL     1      19.452  13.346  34.595  1.00  0.00     0.041 C 
ATOM      7  O   UNL     1      20.272  13.745  35.464  1.00  0.00    -0.550 OA
ATOM      8  O   UNL     1      18.106  13.234  34.919  1.00  0.00    -0.550 OA
ENDBRANCH   5   6
ENDBRANCH   4   5
ENDBRANCH   3   4
ENDBRANCH   2   3
ENDBRANCH   1   2
BRANCH   1   9
ATOM      9  C   UNL     1      20.457  10.326  35.851  1.00  0.00     0.000 C 
BRANCH   9  10
ATOM     10  C   UNL     1      19.640   9.052  35.551  1.00  0.00    -0.000 C 
BRANCH  10  11
ATOM     11  C   UNL     1      20.418   7.930  34.839  1.00  0.00    -0.000 C 
BRANCH  11  12
ATOM     12  C   UNL     1      20.408   6.608  35.625  1.00  0.00    -0.000 C 
BRANCH  12  13
ATOM     13  C   UNL     1      19.398   6.617  36.781  1.00  0.00    -0.003 C 
ATOM     14  C   UNL     1      18.144   5.796  36.480  1.00  0.00     0.004 C 
ENDBRANCH  12  13
ENDBRANCH  11  12
ENDBRANCH  10  11
ENDBRANCH   9  10
ENDBRANCH   1   9
TORSDOF 10
ENDMDL
MODEL 7
REMARK VINA RESULT:    -4.013     17.047     18.157
REMARK INTER + INTRA:          -7.062
REMARK INTER:                  -5.994
REMARK INTRA:                  -1.068
REMARK UNBOUND:                -0.703
REMARK SMILES CCCCCCCCCCCC(=O)[O-]
REMARK SMILES IDX 7 1 8 2 9 3 10 4 11 5 12 6 13 7 14 8 6 9 5 10 4 11 3 12 2 13
REMARK SMILES IDX 1 14
REMARK H PARENT
REMARK Flexibility Score: inf
ROOT
ATOM      1  C   UNL     1      21.573   9.791  35.459  1.00  0.00     0.000 C 
ENDROOT
BRANCH   1   2
ATOM      2  C   UNL     1      20.067   9.757  35.774  1.00  0.00     0.000 C 
BRANCH   2   3
ATOM      3  C   UNL     1      19.620   8.430  36.410  1.00  0.00     0.000 C 
BRANCH   3   4
ATOM      4  C   UNL     1      20.200   7.199  35.688  1.00  0.00     0.006 C 
BRANCH   4   5
ATOM      5  C   UNL     1      19.371   6.717  34.487  1.00  0.00     0.053 C 
BRANCH   5   6
ATOM      6  C   UNL     1      20.128   6.829  33.200  1.00  0.00     0.041 C 
ATOM      7  O   UNL     1      20.689   5.816  32.705  1.00  0.00    -0.550 OA
ATOM      8  O   UNL     1      20.239   8.058  32.563  1.00  0.00    -0.550 OA
ENDBRANCH   5   6
ENDBRANCH   4   5
ENDBRANCH   3   4
ENDBRANCH   2   3
ENDBRANCH   1   2
BRANCH   1   9
ATOM      9  C   UNL     1      22.068  11.077  34.767  1.00  0.00     0.000 C 
BRANCH   9  10
ATOM     10  C   UNL     1      21.830  12.381  35.555  1.00  0.00    -0.000 C 
BRANCH  10  11
ATOM     11  C   UNL     1      20.846  13.369  34.902  1.00  0.00    -0.000 C 
BRANCH  11  12
ATOM     12  C   UNL     1      19.480  13.405  35.608  1.00  0.00    -0.000 C 
BRANCH  12  13
ATOM     13  C   UNL     1      18.340  12.906  34.708  1.00  0.00    -0.003 C 
ATOM     14  C   UNL     1      18.807  12.562  33.293  1.00  0.00     0.004 C 
ENDBRANCH  12  13
ENDBRANCH  11  12
ENDBRANCH  10  11
ENDBRANCH   9  10
ENDBRANCH   1   9
TORSDOF 10
ENDMDL
MODEL 8
REMARK VINA RESULT:    -4.008     16.604     17.734
REMARK INTER + INTRA:          -7.055
REMARK INTER:                  -5.942
REMARK INTRA:                  -1.112
REMARK UNBOUND:                -0.703
REMARK SMILES CCCCCCCCCCCC(=O)[O-]
REMARK SMILES IDX 7 1 8 2 9 3 10 4 11 5 12 6 13 7 14 8 6 9 5 10 4 11 3 12 2 13
REMARK SMILES IDX 1 14
REMARK H PARENT
REMARK Flexibility Score: inf
ROOT
ATOM      1  C   UNL     1      22.243  10.330  35.398  1.00  0.00     0.000 C 
ENDROOT
BRANCH   1   2
ATOM      2  C   UNL     1      20.829   9.770  35.638  1.00  0.00     0.000 C 
BRANCH   2   3
ATOM      3  C   UNL     1      20.113   9.380  34.335  1.00  0.00     0.000 C 
BRANCH   3   4
ATOM      4  C   UNL     1      20.221   7.875  34.024  1.00  0.00     0.006 C 
BRANCH   4   5
ATOM      5  C   UNL     1      20.496   6.990  35.250  1.00  0.00     0.053 C 
BRANCH   5   6
ATOM      6  C   UNL     1      19.240   6.646  35.989  1.00  0.00     0.041 C 
ATOM      7  O   UNL     1      19.057   7.073  37.159  1.00  0.00    -0.550 OA
ATOM      8  O   UNL     1      18.287   5.828  35.397  1.00  0.00    -0.550 OA
ENDBRANCH   5   6
ENDBRANCH   4   5
ENDBRANCH   3   4
ENDBRANCH   2   3
ENDBRANCH   1   2
BRANCH   1   9
ATOM      9  C   UNL     1      22.382  11.855  35.581  1.00  0.00     0.000 C 
BRANCH   9  10
ATOM     10  C   UNL     1      21.053  12.634  35.646  1.00  0.00    -0.000 C 
BRANCH  10  11
ATOM     11  C   UNL     1      20.835  13.649  34.509  1.00  0.00    -0.000 C 
BRANCH  11  12
ATOM     12  C   UNL     1      20.328  12.993  33.213  1.00  0.00    -0.000 C 
BRANCH  12  13
ATOM     13  C   UNL     1      21.436  12.832  32.162  1.00  0.00    -0.003 C 
ATOM     14  C   UNL     1      21.442  11.447  31.514  1.00  0.00     0.004 C 
ENDBRANCH  12  13
ENDBRANCH  11  12
ENDBRANCH  10  11
ENDBRANCH   9  10
ENDBRANCH   1   9
TORSDOF 10
ENDMDL
MODEL 9
REMARK VINA RESULT:    -3.949     17.099     18.538
REMARK INTER + INTRA:          -6.961
REMARK INTER:                  -5.683
REMARK INTRA:                  -1.278
REMARK UNBOUND:                -0.703
REMARK SMILES CCCCCCCCCCCC(=O)[O-]
REMARK SMILES IDX 7 1 8 2 9 3 10 4 11 5 12 6 13 7 14 8 6 9 5 10 4 11 3 12 2 13
REMARK SMILES IDX 1 14
REMARK H PARENT
REMARK Flexibility Score: inf
ROOT
ATOM      1  C   UNL     1      19.890   9.490  33.151  1.00  0.00     0.000 C 
ENDROOT
BRANCH   1   2
ATOM      2  C   UNL     1      18.978   9.892  34.324  1.00  0.00     0.000 C 
BRANCH   2   3
ATOM      3  C   UNL     1      19.753  10.116  35.633  1.00  0.00     0.000 C 
BRANCH   3   4
ATOM      4  C   UNL     1      21.280  10.067  35.436  1.00  0.00     0.006 C 
BRANCH   4   5
ATOM      5  C   UNL     1      21.995  11.406  35.679  1.00  0.00     0.053 C 
BRANCH   5   6
ATOM      6  C   UNL     1      21.406  12.515  34.864  1.00  0.00     0.041 C 
ATOM      7  O   UNL     1      21.634  12.582  33.627  1.00  0.00    -0.550 OA
ATOM      8  O   UNL     1      20.632  13.492  35.475  1.00  0.00    -0.550 OA
ENDBRANCH   5   6
ENDBRANCH   4   5
ENDBRANCH   3   4
ENDBRANCH   2   3
ENDBRANCH   1   2
BRANCH   1   9
ATOM      9  C   UNL     1      19.473   8.204  32.408  1.00  0.00     0.000 C 
BRANCH   9  10
ATOM     10  C   UNL     1      20.166   6.913  32.889  1.00  0.00    -0.000 C 
BRANCH  10  11
ATOM     11  C   UNL     1      19.926   6.556  34.368  1.00  0.00    -0.000 C 
BRANCH  11  12
ATOM     12  C   UNL     1      18.449   6.265  34.679  1.00  0.00    -0.000 C 
BRANCH  12  13
ATOM     13  C   UNL     1      18.166   6.204  36.188  1.00  0.00    -0.003 C 
ATOM     14  C   UNL     1      19.363   6.641  37.034  1.00  0.00     0.004 C 
ENDBRANCH  12  13
ENDBRANCH  11  12
ENDBRANCH  10  11
ENDBRANCH   9  10
ENDBRANCH   1   9
TORSDOF 10
ENDMDL
