MODEL 1
REMARK VINA RESULT:    -2.028      0.000      0.000
REMARK INTER + INTRA:          -2.438
REMARK INTER:                  -2.325
REMARK INTRA:                  -0.113
REMARK UNBOUND:                -0.113
REMARK SMILES COc1ccc(C(C)=O)cc1O
REMARK SMILES IDX 6 1 10 2 11 3 3 4 4 5 5 6 7 7 8 8 9 9 12 10 2 12 1 13
REMARK H PARENT 12 11
REMARK Flexibility Score: inf
ROOT
ATOM      1  C   UNL     1      11.272  14.451   1.333  1.00  0.00     0.021 A 
ATOM      2  C   UNL     1       9.957  14.027   1.597  1.00  0.00     0.062 A 
ATOM      3  C   UNL     1       8.941  14.958   1.858  1.00  0.00     0.158 A 
ATOM      4  C   UNL     1       9.226  16.331   1.859  1.00  0.00     0.160 A 
ATOM      5  C   UNL     1      10.539  16.760   1.596  1.00  0.00     0.051 A 
ATOM      6  C   UNL     1      11.549  15.830   1.336  1.00  0.00     0.016 A 
ENDROOT
BRANCH   1   7
ATOM      7  C   UNL     1      12.336  13.447   1.058  1.00  0.00     0.159 C 
ATOM      8  C   UNL     1      13.283  12.983   2.125  1.00  0.00     0.093 C 
ATOM      9  O   UNL     1      12.457  12.964  -0.100  1.00  0.00    -0.295 OA
ENDBRANCH   1   7
BRANCH   3  10
ATOM     10  O   UNL     1       7.642  14.527   2.117  1.00  0.00    -0.504 OA
ATOM     11  H   UNL     1       6.871  14.766   1.505  1.00  0.00     0.293 HD
ENDBRANCH   3  10
BRANCH   4  12
ATOM     12  O   UNL     1       8.182  17.231   2.125  1.00  0.00    -0.493 OA
ATOM     13  C   UNL     1       7.739  18.238   1.221  1.00  0.00     0.278 C 
ENDBRANCH   4  12
TORSDOF 3
ENDMDL
MODEL 2
REMARK VINA RESULT:    -1.728      1.346      2.320
REMARK INTER + INTRA:          -2.094
REMARK INTER:                  -1.991
REMARK INTRA:                  -0.102
REMARK UNBOUND:                -0.113
REMARK SMILES COc1ccc(C(C)=O)cc1O
REMARK SMILES IDX 6 1 10 2 11 3 3 4 4 5 5 6 7 7 8 8 9 9 12 10 2 12 1 13
REMARK H PARENT 12 11
REMARK Flexibility Score: inf
ROOT
ATOM      1  C   UNL     1      11.035  14.604   0.937  1.00  0.00     0.021 A 
ATOM      2  C   UNL     1      11.542  15.858   1.324  1.00  0.00     0.062 A 
ATOM      3  C   UNL     1      10.680  16.892   1.716  1.00  0.00     0.158 A 
ATOM      4  C   UNL     1       9.293  16.688   1.727  1.00  0.00     0.160 A 
ATOM      5  C   UNL     1       8.781  15.436   1.341  1.00  0.00     0.051 A 
ATOM      6  C   UNL     1       9.642  14.407   0.951  1.00  0.00     0.016 A 
ENDROOT
BRANCH   1   7
ATOM      7  C   UNL     1      11.967  13.519   0.525  1.00  0.00     0.159 C 
ATOM      8  C   UNL     1      12.041  13.034  -0.893  1.00  0.00     0.093 C 
ATOM      9  O   UNL     1      12.722  12.983   1.380  1.00  0.00    -0.295 OA
ENDBRANCH   1   7
BRANCH   3  10
ATOM     10  O   UNL     1      11.194  18.130   2.096  1.00  0.00    -0.504 OA
ATOM     11  H   UNL     1      12.146  18.229   2.430  1.00  0.00     0.293 HD
ENDBRANCH   3  10
BRANCH   4  12
ATOM     12  O   UNL     1       8.463  17.747   2.125  1.00  0.00    -0.493 OA
ATOM     13  C   UNL     1       7.041  17.720   2.067  1.00  0.00     0.278 C 
ENDBRANCH   4  12
TORSDOF 3
ENDMDL
MODEL 3
REMARK VINA RESULT:    -1.616      2.098      3.235
REMARK INTER + INTRA:          -1.965
REMARK INTER:                  -1.840
REMARK INTRA:                  -0.125
REMARK UNBOUND:                -0.113
REMARK SMILES COc1ccc(C(C)=O)cc1O
REMARK SMILES IDX 6 1 10 2 11 3 3 4 4 5 5 6 7 7 8 8 9 9 12 10 2 12 1 13
REMARK H PARENT 12 11
REMARK Flexibility Score: inf
ROOT
ATOM      1  C   UNL     1      10.151  16.085   2.002  1.00  0.00     0.021 A 
ATOM      2  C   UNL     1       9.142  17.065   2.044  1.00  0.00     0.062 A 
ATOM      3  C   UNL     1       7.789  16.701   2.083  1.00  0.00     0.158 A 
ATOM      4  C   UNL     1       7.422  15.348   2.082  1.00  0.00     0.160 A 
ATOM      5  C   UNL     1       8.426  14.364   2.041  1.00  0.00     0.051 A 
ATOM      6  C   UNL     1       9.774  14.730   2.001  1.00  0.00     0.016 A 
ENDROOT
BRANCH   1   7
ATOM      7  C   UNL     1      11.582  16.491   1.960  1.00  0.00     0.159 C 
ATOM      8  C   UNL     1      12.694  15.488   2.052  1.00  0.00     0.093 C 
ATOM      9  O   UNL     1      11.885  17.709   1.845  1.00  0.00    -0.295 OA
ENDBRANCH   1   7
BRANCH   3  10
ATOM     10  O   UNL     1       6.799  17.681   2.124  1.00  0.00    -0.504 OA
ATOM     11  H   UNL     1       6.775  18.381   2.857  1.00  0.00     0.293 HD
ENDBRANCH   3  10
BRANCH   4  12
ATOM     12  O   UNL     1       6.057  15.024   2.123  1.00  0.00    -0.493 OA
ATOM     13  C   UNL     1       5.451  13.995   1.347  1.00  0.00     0.278 C 
ENDBRANCH   4  12
TORSDOF 3
ENDMDL
MODEL 4
REMARK VINA RESULT:    -1.600      1.737      5.081
REMARK INTER + INTRA:          -1.947
REMARK INTER:                  -1.832
REMARK INTRA:                  -0.115
REMARK UNBOUND:                -0.113
REMARK SMILES COc1ccc(C(C)=O)cc1O
REMARK SMILES IDX 6 1 10 2 11 3 3 4 4 5 5 6 7 7 8 8 9 9 12 10 2 12 1 13
REMARK H PARENT 12 11
REMARK Flexibility Score: inf
ROOT
ATOM      1  C   UNL     1       9.307  16.690   1.485  1.00  0.00     0.021 A 
ATOM      2  C   UNL     1      10.605  17.188   1.700  1.00  0.00     0.062 A 
ATOM      3  C   UNL     1      11.683  16.316   1.908  1.00  0.00     0.158 A 
ATOM      4  C   UNL     1      11.480  14.929   1.902  1.00  0.00     0.160 A 
ATOM      5  C   UNL     1      10.185  14.426   1.687  1.00  0.00     0.051 A 
ATOM      6  C   UNL     1       9.112  15.297   1.481  1.00  0.00     0.016 A 
ENDROOT
BRANCH   1   7
ATOM      7  C   UNL     1       8.175  17.631   1.266  1.00  0.00     0.159 C 
ATOM      8  C   UNL     1       6.944  17.603   2.123  1.00  0.00     0.093 C 
ATOM      9  O   UNL     1       8.238  18.483   0.339  1.00  0.00    -0.295 OA
ENDBRANCH   1   7
BRANCH   3  10
ATOM     10  O   UNL     1      12.964  16.821   2.120  1.00  0.00    -0.504 OA
ATOM     11  H   UNL     1      13.168  17.444   2.894  1.00  0.00     0.293 HD
ENDBRANCH   3  10
BRANCH   4  12
ATOM     12  O   UNL     1      12.585  14.089   2.114  1.00  0.00    -0.493 OA
ATOM     13  C   UNL     1      12.894  12.950   1.317  1.00  0.00     0.278 C 
ENDBRANCH   4  12
TORSDOF 3
ENDMDL
MODEL 5
REMARK VINA RESULT:    -1.403      1.654      4.757
REMARK INTER + INTRA:          -1.721
REMARK INTER:                  -1.623
REMARK INTRA:                  -0.098
REMARK UNBOUND:                -0.113
REMARK SMILES COc1ccc(C(C)=O)cc1O
REMARK SMILES IDX 6 1 10 2 11 3 3 4 4 5 5 6 7 7 8 8 9 9 12 10 2 12 1 13
REMARK H PARENT 12 11
REMARK Flexibility Score: inf
ROOT
ATOM      1  C   UNL     1       9.651  16.274   1.218  1.00  0.00     0.021 A 
ATOM      2  C   UNL     1       9.548  15.221   0.291  1.00  0.00     0.062 A 
ATOM      3  C   UNL     1      10.496  14.189   0.267  1.00  0.00     0.158 A 
ATOM      4  C   UNL     1      11.565  14.192   1.173  1.00  0.00     0.160 A 
ATOM      5  C   UNL     1      11.673  15.241   2.104  1.00  0.00     0.051 A 
ATOM      6  C   UNL     1      10.727  16.269   2.125  1.00  0.00     0.016 A 
ENDROOT
BRANCH   1   7
ATOM      7  C   UNL     1       8.635  17.361   1.228  1.00  0.00     0.159 C 
ATOM      8  C   UNL     1       7.433  17.315   2.124  1.00  0.00     0.093 C 
ATOM      9  O   UNL     1       8.774  18.356   0.467  1.00  0.00    -0.295 OA
ENDBRANCH   1   7
BRANCH   3  10
ATOM     10  O   UNL     1      10.383  13.152  -0.657  1.00  0.00    -0.504 OA
ATOM     11  H   UNL     1      11.105  12.974  -1.347  1.00  0.00     0.293 HD
ENDBRANCH   3  10
BRANCH   4  12
ATOM     12  O   UNL     1      12.493  13.140   1.119  1.00  0.00    -0.493 OA
ATOM     13  C   UNL     1      13.570  12.969   2.034  1.00  0.00     0.278 C 
ENDBRANCH   4  12
TORSDOF 3
ENDMDL
MODEL 6
REMARK VINA RESULT:     0.511      1.914      2.474
REMARK INTER + INTRA:           0.472
REMARK INTER:                   0.582
REMARK INTRA:                  -0.110
REMARK UNBOUND:                -0.113
REMARK SMILES COc1ccc(C(C)=O)cc1O
REMARK SMILES IDX 6 1 10 2 11 3 3 4 4 5 5 6 7 7 8 8 9 9 12 10 2 12 1 13
REMARK H PARENT 12 11
REMARK Flexibility Score: inf
ROOT
ATOM      1  C   UNL     1      11.509  13.691   0.512  1.00  0.00     0.021 A 
ATOM      2  C   UNL     1      10.654  14.107  -0.525  1.00  0.00     0.062 A 
ATOM      3  C   UNL     1       9.382  14.626  -0.243  1.00  0.00     0.158 A 
ATOM      4  C   UNL     1       8.945  14.737   1.084  1.00  0.00     0.160 A 
ATOM      5  C   UNL     1       9.796  14.323   2.125  1.00  0.00     0.051 A 
ATOM      6  C   UNL     1      11.062  13.806   1.841  1.00  0.00     0.016 A 
ENDROOT
BRANCH   1   7
ATOM      7  C   UNL     1      12.855  13.143   0.192  1.00  0.00     0.159 C 
ATOM      8  C   UNL     1      13.291  12.885  -1.220  1.00  0.00     0.093 C 
ATOM      9  O   UNL     1      13.663  12.883   1.123  1.00  0.00    -0.295 OA
ENDBRANCH   1   7
BRANCH   3  10
ATOM     10  O   UNL     1       8.544  15.035  -1.278  1.00  0.00    -0.504 OA
ATOM     11  H   UNL     1       7.607  15.378  -1.098  1.00  0.00     0.293 HD
ENDBRANCH   3  10
BRANCH   4  12
ATOM     12  O   UNL     1       7.665  15.262   1.326  1.00  0.00    -0.493 OA
ATOM     13  C   UNL     1       6.642  14.587   2.051  1.00  0.00     0.278 C 
ENDBRANCH   4  12
TORSDOF 3
ENDMDL
