MODEL 1
REMARK VINA RESULT:    -3.899      0.000      0.000
REMARK INTER + INTRA:          -6.046
REMARK INTER:                  -5.722
REMARK INTRA:                  -0.324
REMARK UNBOUND:                -0.324
REMARK SMILES O=C([O-])CCCCCCCC(=O)[O-]
REMARK SMILES IDX 7 1 6 2 5 3 4 4 2 5 1 6 3 7 8 8 9 9 10 10 11 11 12 12 13 13
REMARK H PARENT
REMARK Flexibility Score: inf
ROOT
ATOM      1  C   UNL     1       1.891  22.498  25.154  1.00  0.00     0.000 C 
ENDROOT
BRANCH   1   2
ATOM      2  C   UNL     1       2.264  23.717  26.017  1.00  0.00     0.000 C 
BRANCH   2   3
ATOM      3  C   UNL     1       1.233  23.992  27.124  1.00  0.00     0.006 C 
BRANCH   3   4
ATOM      4  C   UNL     1      -0.087  24.552  26.578  1.00  0.00     0.053 C 
BRANCH   4   5
ATOM      5  C   UNL     1       0.081  25.983  26.175  1.00  0.00     0.041 C 
ATOM      6  O   UNL     1      -0.182  26.905  26.991  1.00  0.00    -0.550 OA
ATOM      7  O   UNL     1       0.482  26.300  24.883  1.00  0.00    -0.550 OA
ENDBRANCH   4   5
ENDBRANCH   3   4
ENDBRANCH   2   3
ENDBRANCH   1   2
BRANCH   1   8
ATOM      8  C   UNL     1       1.119  22.890  23.883  1.00  0.00     0.000 C 
BRANCH   8   9
ATOM      9  C   UNL     1       1.727  22.279  22.608  1.00  0.00     0.006 C 
BRANCH   9  10
ATOM     10  C   UNL     1       2.148  23.352  21.596  1.00  0.00     0.053 C 
BRANCH  10  11
ATOM     11  C   UNL     1       2.791  24.526  22.269  1.00  0.00     0.041 C 
ATOM     12  O   UNL     1       2.273  25.671  22.179  1.00  0.00    -0.550 OA
ATOM     13  O   UNL     1       3.981  24.362  22.967  1.00  0.00    -0.550 OA
ENDBRANCH  10  11
ENDBRANCH   9  10
ENDBRANCH   8   9
ENDBRANCH   1   8
TORSDOF 8
ENDMDL
MODEL 2
REMARK VINA RESULT:    -3.867      2.048      2.877
REMARK INTER + INTRA:          -6.000
REMARK INTER:                  -5.310
REMARK INTRA:                  -0.690
REMARK UNBOUND:                -0.324
REMARK SMILES O=C([O-])CCCCCCCC(=O)[O-]
REMARK SMILES IDX 7 1 6 2 5 3 4 4 2 5 1 6 3 7 8 8 9 9 10 10 11 11 12 12 13 13
REMARK H PARENT
REMARK Flexibility Score: inf
ROOT
ATOM      1  C   UNL     1       1.509  23.545  23.037  1.00  0.00     0.000 C 
ENDROOT
BRANCH   1   2
ATOM      2  C   UNL     1       1.484  22.492  24.159  1.00  0.00     0.000 C 
BRANCH   2   3
ATOM      3  C   UNL     1       0.934  23.053  25.481  1.00  0.00     0.006 C 
BRANCH   3   4
ATOM      4  C   UNL     1       1.084  24.577  25.585  1.00  0.00     0.053 C 
BRANCH   4   5
ATOM      5  C   UNL     1      -0.117  25.174  26.249  1.00  0.00     0.041 C 
ATOM      6  O   UNL     1      -0.155  26.409  26.496  1.00  0.00    -0.550 OA
ATOM      7  O   UNL     1      -1.173  24.361  26.641  1.00  0.00    -0.550 OA
ENDBRANCH   4   5
ENDBRANCH   3   4
ENDBRANCH   2   3
ENDBRANCH   1   2
BRANCH   1   8
ATOM      8  C   UNL     1       2.900  23.693  22.399  1.00  0.00     0.000 C 
BRANCH   8   9
ATOM      9  C   UNL     1       3.774  24.738  23.116  1.00  0.00     0.006 C 
BRANCH   9  10
ATOM     10  C   UNL     1       5.055  24.122  23.693  1.00  0.00     0.053 C 
BRANCH  10  11
ATOM     11  C   UNL     1       5.098  24.230  25.186  1.00  0.00     0.041 C 
ATOM     12  O   UNL     1       4.423  23.443  25.900  1.00  0.00    -0.550 OA
ATOM     13  O   UNL     1       5.859  25.225  25.789  1.00  0.00    -0.550 OA
ENDBRANCH  10  11
ENDBRANCH   9  10
ENDBRANCH   8   9
ENDBRANCH   1   8
TORSDOF 8
ENDMDL
MODEL 3
REMARK VINA RESULT:    -3.782      2.337      5.144
REMARK INTER + INTRA:          -5.875
REMARK INTER:                  -5.522
REMARK INTRA:                  -0.353
REMARK UNBOUND:                -0.324
REMARK SMILES O=C([O-])CCCCCCCC(=O)[O-]
REMARK SMILES IDX 7 1 6 2 5 3 4 4 2 5 1 6 3 7 8 8 9 9 10 10 11 11 12 12 13 13
REMARK H PARENT
REMARK Flexibility Score: inf
ROOT
ATOM      1  C   UNL     1       1.776  23.493  22.779  1.00  0.00     0.000 C 
ENDROOT
BRANCH   1   2
ATOM      2  C   UNL     1       3.188  23.992  22.423  1.00  0.00     0.000 C 
BRANCH   2   3
ATOM      3  C   UNL     1       4.020  24.344  23.667  1.00  0.00     0.006 C 
BRANCH   3   4
ATOM      4  C   UNL     1       5.518  24.076  23.473  1.00  0.00     0.053 C 
BRANCH   4   5
ATOM      5  C   UNL     1       6.211  24.010  24.798  1.00  0.00     0.041 C 
ATOM      6  O   UNL     1       6.991  23.055  25.057  1.00  0.00    -0.550 OA
ATOM      7  O   UNL     1       5.959  24.974  25.765  1.00  0.00    -0.550 OA
ENDBRANCH   4   5
ENDBRANCH   3   4
ENDBRANCH   2   3
ENDBRANCH   1   2
BRANCH   1   8
ATOM      8  C   UNL     1       1.765  22.599  24.030  1.00  0.00     0.000 C 
BRANCH   8   9
ATOM      9  C   UNL     1       0.785  23.098  25.107  1.00  0.00     0.006 C 
BRANCH   9  10
ATOM     10  C   UNL     1       1.109  24.524  25.569  1.00  0.00     0.053 C 
BRANCH  10  11
ATOM     11  C   UNL     1      -0.057  25.163  26.258  1.00  0.00     0.041 C 
ATOM     12  O   UNL     1      -1.048  24.467  26.606  1.00  0.00    -0.550 OA
ATOM     13  O   UNL     1      -0.065  26.534  26.484  1.00  0.00    -0.550 OA
ENDBRANCH  10  11
ENDBRANCH   9  10
ENDBRANCH   8   9
ENDBRANCH   1   8
TORSDOF 8
ENDMDL
MODEL 4
REMARK VINA RESULT:    -3.677      2.246      3.733
REMARK INTER + INTRA:          -5.720
REMARK INTER:                  -5.291
REMARK INTRA:                  -0.429
REMARK UNBOUND:                -0.324
REMARK SMILES O=C([O-])CCCCCCCC(=O)[O-]
REMARK SMILES IDX 7 1 6 2 5 3 4 4 2 5 1 6 3 7 8 8 9 9 10 10 11 11 12 12 13 13
REMARK H PARENT
REMARK Flexibility Score: inf
ROOT
ATOM      1  C   UNL     1       0.985  22.813  25.785  1.00  0.00     0.000 C 
ENDROOT
BRANCH   1   2
ATOM      2  C   UNL     1       2.354  22.409  26.361  1.00  0.00     0.000 C 
BRANCH   2   3
ATOM      3  C   UNL     1       3.397  23.533  26.243  1.00  0.00     0.006 C 
BRANCH   3   4
ATOM      4  C   UNL     1       4.816  23.062  26.590  1.00  0.00     0.053 C 
BRANCH   4   5
ATOM      5  C   UNL     1       5.821  23.749  25.720  1.00  0.00     0.041 C 
ATOM      6  O   UNL     1       6.704  23.078  25.122  1.00  0.00    -0.550 OA
ATOM      7  O   UNL     1       5.813  25.133  25.606  1.00  0.00    -0.550 OA
ENDBRANCH   4   5
ENDBRANCH   3   4
ENDBRANCH   2   3
ENDBRANCH   1   2
BRANCH   1   8
ATOM      8  C   UNL     1       1.102  23.505  24.417  1.00  0.00     0.000 C 
BRANCH   8   9
ATOM      9  C   UNL     1       1.512  22.534  23.295  1.00  0.00     0.006 C 
BRANCH   9  10
ATOM     10  C   UNL     1       1.933  23.272  22.017  1.00  0.00     0.053 C 
BRANCH  10  11
ATOM     11  C   UNL     1       2.742  24.494  22.325  1.00  0.00     0.041 C 
ATOM     12  O   UNL     1       3.873  24.387  22.867  1.00  0.00    -0.550 OA
ATOM     13  O   UNL     1       2.232  25.755  22.043  1.00  0.00    -0.550 OA
ENDBRANCH  10  11
ENDBRANCH   9  10
ENDBRANCH   8   9
ENDBRANCH   1   8
TORSDOF 8
ENDMDL
MODEL 5
REMARK VINA RESULT:    -3.632      1.348      4.310
REMARK INTER + INTRA:          -5.655
REMARK INTER:                  -4.947
REMARK INTRA:                  -0.708
REMARK UNBOUND:                -0.324
REMARK SMILES O=C([O-])CCCCCCCC(=O)[O-]
REMARK SMILES IDX 7 1 6 2 5 3 4 4 2 5 1 6 3 7 8 8 9 9 10 10 11 11 12 12 13 13
REMARK H PARENT
REMARK Flexibility Score: inf
ROOT
ATOM      1  C   UNL     1       2.800  23.145  26.881  1.00  0.00     0.000 C 
ENDROOT
BRANCH   1   2
ATOM      2  C   UNL     1       3.927  23.203  25.835  1.00  0.00     0.000 C 
BRANCH   2   3
ATOM      3  C   UNL     1       3.788  24.404  24.884  1.00  0.00     0.006 C 
BRANCH   3   4
ATOM      4  C   UNL     1       4.021  24.026  23.415  1.00  0.00     0.053 C 
BRANCH   4   5
ATOM      5  C   UNL     1       2.718  23.945  22.685  1.00  0.00     0.041 C 
ATOM      6  O   UNL     1       2.039  22.884  22.717  1.00  0.00    -0.550 OA
ATOM      7  O   UNL     1       2.275  25.022  21.929  1.00  0.00    -0.550 OA
ENDBRANCH   4   5
ENDBRANCH   3   4
ENDBRANCH   2   3
ENDBRANCH   1   2
BRANCH   1   8
ATOM      8  C   UNL     1       1.592  22.323  26.401  1.00  0.00     0.000 C 
BRANCH   8   9
ATOM      9  C   UNL     1       0.476  23.201  25.807  1.00  0.00     0.006 C 
BRANCH   9  10
ATOM     10  C   UNL     1       0.049  24.321  26.765  1.00  0.00     0.053 C 
BRANCH  10  11
ATOM     11  C   UNL     1       0.179  25.672  26.131  1.00  0.00     0.041 C 
ATOM     12  O   UNL     1      -0.196  26.702  26.751  1.00  0.00    -0.550 OA
ATOM     13  O   UNL     1       0.682  25.789  24.841  1.00  0.00    -0.550 OA
ENDBRANCH  10  11
ENDBRANCH   9  10
ENDBRANCH   8   9
ENDBRANCH   1   8
TORSDOF 8
ENDMDL
MODEL 6
REMARK VINA RESULT:    -3.612      2.562      3.449
REMARK INTER + INTRA:          -5.626
REMARK INTER:                  -5.101
REMARK INTRA:                  -0.525
REMARK UNBOUND:                -0.324
REMARK SMILES O=C([O-])CCCCCCCC(=O)[O-]
REMARK SMILES IDX 7 1 6 2 5 3 4 4 2 5 1 6 3 7 8 8 9 9 10 10 11 11 12 12 13 13
REMARK H PARENT
REMARK Flexibility Score: inf
ROOT
ATOM      1  C   UNL     1       2.486  24.341  23.808  1.00  0.00     0.000 C 
ENDROOT
BRANCH   1   2
ATOM      2  C   UNL     1       1.490  23.170  23.883  1.00  0.00     0.000 C 
BRANCH   2   3
ATOM      3  C   UNL     1       0.916  22.976  25.297  1.00  0.00     0.006 C 
BRANCH   3   4
ATOM      4  C   UNL     1       1.180  24.178  26.213  1.00  0.00     0.053 C 
BRANCH   4   5
ATOM      5  C   UNL     1      -0.080  24.955  26.429  1.00  0.00     0.041 C 
ATOM      6  O   UNL     1      -1.160  24.355  26.673  1.00  0.00    -0.550 OA
ATOM      7  O   UNL     1      -0.073  26.339  26.314  1.00  0.00    -0.550 OA
ENDBRANCH   4   5
ENDBRANCH   3   4
ENDBRANCH   2   3
ENDBRANCH   1   2
BRANCH   1   8
ATOM      8  C   UNL     1       3.740  23.997  22.987  1.00  0.00     0.000 C 
BRANCH   8   9
ATOM      9  C   UNL     1       5.046  24.299  23.744  1.00  0.00     0.006 C 
BRANCH   9  10
ATOM     10  C   UNL     1       4.826  24.400  25.259  1.00  0.00     0.053 C 
BRANCH  10  11
ATOM     11  C   UNL     1       6.101  24.703  25.985  1.00  0.00     0.041 C 
ATOM     12  O   UNL     1       6.322  25.863  26.421  1.00  0.00    -0.550 OA
ATOM     13  O   UNL     1       7.060  23.711  26.149  1.00  0.00    -0.550 OA
ENDBRANCH  10  11
ENDBRANCH   9  10
ENDBRANCH   8   9
ENDBRANCH   1   8
TORSDOF 8
ENDMDL
MODEL 7
REMARK VINA RESULT:    -3.606      2.274      4.327
REMARK INTER + INTRA:          -5.616
REMARK INTER:                  -5.067
REMARK INTRA:                  -0.549
REMARK UNBOUND:                -0.324
REMARK SMILES O=C([O-])CCCCCCCC(=O)[O-]
REMARK SMILES IDX 7 1 6 2 5 3 4 4 2 5 1 6 3 7 8 8 9 9 10 10 11 11 12 12 13 13
REMARK H PARENT
REMARK Flexibility Score: inf
ROOT
ATOM      1  C   UNL     1       1.485  22.939  26.069  1.00  0.00     0.000 C 
ENDROOT
BRANCH   1   2
ATOM      2  C   UNL     1       1.120  23.442  24.660  1.00  0.00     0.000 C 
BRANCH   2   3
ATOM      3  C   UNL     1       1.592  22.486  23.553  1.00  0.00     0.006 C 
BRANCH   3   4
ATOM      4  C   UNL     1       1.728  23.179  22.190  1.00  0.00     0.053 C 
BRANCH   4   5
ATOM      5  C   UNL     1       2.709  24.305  22.275  1.00  0.00     0.041 C 
ATOM      6  O   UNL     1       3.893  24.087  22.645  1.00  0.00    -0.550 OA
ATOM      7  O   UNL     1       2.306  25.604  21.991  1.00  0.00    -0.550 OA
ENDBRANCH   4   5
ENDBRANCH   3   4
ENDBRANCH   2   3
ENDBRANCH   1   2
BRANCH   1   8
ATOM      8  C   UNL     1       2.991  22.670  26.226  1.00  0.00     0.000 C 
BRANCH   8   9
ATOM      9  C   UNL     1       3.841  23.942  26.054  1.00  0.00     0.006 C 
BRANCH   9  10
ATOM     10  C   UNL     1       5.315  23.617  25.778  1.00  0.00     0.053 C 
BRANCH  10  11
ATOM     11  C   UNL     1       6.092  24.843  25.406  1.00  0.00     0.041 C 
ATOM     12  O   UNL     1       6.553  24.973  24.241  1.00  0.00    -0.550 OA
ATOM     13  O   UNL     1       6.338  25.826  26.357  1.00  0.00    -0.550 OA
ENDBRANCH  10  11
ENDBRANCH   9  10
ENDBRANCH   8   9
ENDBRANCH   1   8
TORSDOF 8
ENDMDL
MODEL 8
REMARK VINA RESULT:    -3.548      2.402      4.146
REMARK INTER + INTRA:          -5.531
REMARK INTER:                  -4.931
REMARK INTRA:                  -0.600
REMARK UNBOUND:                -0.324
REMARK SMILES O=C([O-])CCCCCCCC(=O)[O-]
REMARK SMILES IDX 7 1 6 2 5 3 4 4 2 5 1 6 3 7 8 8 9 9 10 10 11 11 12 12 13 13
REMARK H PARENT
REMARK Flexibility Score: inf
ROOT
ATOM      1  C   UNL     1       2.640  23.636  26.242  1.00  0.00     0.000 C 
ENDROOT
BRANCH   1   2
ATOM      2  C   UNL     1       2.039  22.459  25.453  1.00  0.00     0.000 C 
BRANCH   2   3
ATOM      3  C   UNL     1       1.524  22.881  24.067  1.00  0.00     0.006 C 
BRANCH   3   4
ATOM      4  C   UNL     1       1.661  24.389  23.819  1.00  0.00     0.053 C 
BRANCH   4   5
ATOM      5  C   UNL     1       2.292  24.643  22.486  1.00  0.00     0.041 C 
ATOM      6  O   UNL     1       2.980  23.746  21.930  1.00  0.00    -0.550 OA
ATOM      7  O   UNL     1       2.162  25.885  21.879  1.00  0.00    -0.550 OA
ENDBRANCH   4   5
ENDBRANCH   3   4
ENDBRANCH   2   3
ENDBRANCH   1   2
BRANCH   1   8
ATOM      8  C   UNL     1       3.932  23.251  26.981  1.00  0.00     0.000 C 
BRANCH   8   9
ATOM      9  C   UNL     1       5.180  23.351  26.085  1.00  0.00     0.006 C 
BRANCH   9  10
ATOM     10  C   UNL     1       5.092  24.523  25.099  1.00  0.00     0.053 C 
BRANCH  10  11
ATOM     11  C   UNL     1       6.370  24.705  24.339  1.00  0.00     0.041 C 
ATOM     12  O   UNL     1       7.089  25.719  24.540  1.00  0.00    -0.550 OA
ATOM     13  O   UNL     1       6.748  23.772  23.382  1.00  0.00    -0.550 OA
ENDBRANCH  10  11
ENDBRANCH   9  10
ENDBRANCH   8   9
ENDBRANCH   1   8
TORSDOF 8
ENDMDL
MODEL 9
REMARK VINA RESULT:    -3.363      2.832      5.317
REMARK INTER + INTRA:          -5.260
REMARK INTER:                  -4.807
REMARK INTRA:                  -0.453
REMARK UNBOUND:                -0.324
REMARK SMILES O=C([O-])CCCCCCCC(=O)[O-]
REMARK SMILES IDX 7 1 6 2 5 3 4 4 2 5 1 6 3 7 8 8 9 9 10 10 11 11 12 12 13 13
REMARK H PARENT
REMARK Flexibility Score: inf
ROOT
ATOM      1  C   UNL     1       1.501  24.255  23.850  1.00  0.00     0.000 C 
ENDROOT
BRANCH   1   2
ATOM      2  C   UNL     1       2.552  24.770  22.850  1.00  0.00     0.000 C 
BRANCH   2   3
ATOM      3  C   UNL     1       3.929  24.119  23.055  1.00  0.00     0.006 C 
BRANCH   3   4
ATOM      4  C   UNL     1       4.357  24.089  24.528  1.00  0.00     0.053 C 
BRANCH   4   5
ATOM      5  C   UNL     1       5.802  24.455  24.659  1.00  0.00     0.041 C 
ATOM      6  O   UNL     1       6.409  24.991  23.694  1.00  0.00    -0.550 OA
ATOM      7  O   UNL     1       6.493  24.159  25.827  1.00  0.00    -0.550 OA
ENDBRANCH   4   5
ENDBRANCH   3   4
ENDBRANCH   2   3
ENDBRANCH   1   2
BRANCH   1   8
ATOM      8  C   UNL     1       0.995  25.358  24.793  1.00  0.00     0.000 C 
BRANCH   8   9
ATOM      9  C   UNL     1       0.439  24.800  26.116  1.00  0.00     0.006 C 
BRANCH   9  10
ATOM     10  C   UNL     1       1.459  23.914  26.843  1.00  0.00     0.053 C 
BRANCH  10  11
ATOM     11  C   UNL     1       0.965  22.508  26.993  1.00  0.00     0.041 C 
ATOM     12  O   UNL     1       1.783  21.557  27.105  1.00  0.00    -0.550 OA
ATOM     13  O   UNL     1      -0.399  22.245  26.975  1.00  0.00    -0.550 OA
ENDBRANCH  10  11
ENDBRANCH   9  10
ENDBRANCH   8   9
ENDBRANCH   1   8
TORSDOF 8
ENDMDL
