MODEL 1
REMARK VINA RESULT:    -5.928      0.000      0.000
REMARK INTER + INTRA:         -10.034
REMARK INTER:                  -9.047
REMARK INTRA:                  -0.987
REMARK UNBOUND:                -0.987
REMARK SMILES OC[C@@H]1O[C@H](O[C@@]2(CO)O[C@H](CO)[C@@H](O)[C@H]2O)[C@@H](O)[C@@H](O)[C@H]1O
REMARK SMILES IDX 6 1 5 2 3 3 22 4 4 5 20 6 18 7 2 8 1 9 23 11 21 13 19 15
REMARK SMILES IDX 7 17 16 18 10 19 14 20 11 21 8 22 9 23 17 25 15 27 12 29
REMARK SMILES IDX 13 30
REMARK H PARENT 1 10 23 12 21 14 19 16 9 24 17 26 15 28 13 31
REMARK Flexibility Score: inf
ROOT
ATOM      1  O   UNL     1      38.310   2.683  43.559  1.00  0.00    -0.313 OA
ENDROOT
BRANCH   1   2
ATOM      2  C   UNL     1      38.153   4.095  43.510  1.00  0.00     0.285 C 
ATOM      3  C   UNL     1      38.857   6.134  44.400  1.00  0.00     0.178 C 
ATOM      4  C   UNL     1      38.773   6.878  43.022  1.00  0.00     0.177 C 
ATOM      5  O   UNL     1      39.176   4.759  44.236  1.00  0.00    -0.341 OA
ATOM      6  C   UNL     1      38.955   5.883  41.837  1.00  0.00     0.179 C 
ATOM      7  C   UNL     1      38.205   4.531  42.023  1.00  0.00     0.202 C 
BRANCH   3   8
ATOM      8  C   UNL     1      39.915   6.755  45.317  1.00  0.00     0.191 C 
BRANCH   8   9
ATOM      9  O   UNL     1      39.371   7.898  45.937  1.00  0.00    -0.394 OA
ATOM     10  H   UNL     1      38.590   8.169  45.376  1.00  0.00     0.210 HD
ENDBRANCH   8   9
ENDBRANCH   3   8
BRANCH   4  11
ATOM     11  O   UNL     1      37.575   7.604  42.907  1.00  0.00    -0.387 OA
ATOM     12  H   UNL     1      37.023   7.422  43.717  1.00  0.00     0.211 HD
ENDBRANCH   4  11
BRANCH   6  13
ATOM     13  O   UNL     1      38.686   6.466  40.575  1.00  0.00    -0.387 OA
ATOM     14  H   UNL     1      39.033   5.847  39.871  1.00  0.00     0.211 HD
ENDBRANCH   6  13
BRANCH   7  15
ATOM     15  O   UNL     1      36.921   4.523  41.452  1.00  0.00    -0.385 OA
ATOM     16  H   UNL     1      36.272   4.247  42.147  1.00  0.00     0.211 HD
ENDBRANCH   7  15
ENDBRANCH   1   2
BRANCH   1  17
ATOM     17  C   UNL     1      37.581   2.003  44.592  1.00  0.00     0.224 C 
ATOM     18  C   UNL     1      38.433   1.831  45.886  1.00  0.00     0.208 C 
ATOM     19  O   UNL     1      37.270   0.709  44.092  1.00  0.00    -0.337 OA
ATOM     20  C   UNL     1      38.249   0.372  46.251  1.00  0.00     0.180 C 
ATOM     21  C   UNL     1      37.898  -0.265  44.906  1.00  0.00     0.179 C 
BRANCH  17  22
ATOM     22  C   UNL     1      36.211   2.677  44.901  1.00  0.00     0.225 C 
BRANCH  22  23
ATOM     23  O   UNL     1      35.983   2.692  46.281  1.00  0.00    -0.391 OA
ATOM     24  H   UNL     1      35.929   1.750  46.561  1.00  0.00     0.210 HD
ENDBRANCH  22  23
ENDBRANCH  17  22
BRANCH  18  25
ATOM     25  O   UNL     1      39.806   2.131  45.706  1.00  0.00    -0.385 OA
ATOM     26  H   UNL     1      40.234   2.205  46.600  1.00  0.00     0.211 HD
ENDBRANCH  18  25
BRANCH  20  27
ATOM     27  O   UNL     1      39.415  -0.204  46.786  1.00  0.00    -0.387 OA
ATOM     28  H   UNL     1      39.606   0.282  47.638  1.00  0.00     0.211 HD
ENDBRANCH  20  27
BRANCH  21  29
ATOM     29  C   UNL     1      36.972  -1.484  45.068  1.00  0.00     0.191 C 
BRANCH  29  30
ATOM     30  O   UNL     1      36.870  -1.835  46.422  1.00  0.00    -0.394 OA
ATOM     31  H   UNL     1      37.408  -1.171  46.934  1.00  0.00     0.210 HD
ENDBRANCH  29  30
ENDBRANCH  21  29
ENDBRANCH   1  17
TORSDOF 13
ENDMDL
MODEL 2
REMARK VINA RESULT:    -5.884      3.359      5.137
REMARK INTER + INTRA:          -9.966
REMARK INTER:                  -8.890
REMARK INTRA:                  -1.076
REMARK UNBOUND:                -0.987
REMARK SMILES OC[C@@H]1O[C@H](O[C@@]2(CO)O[C@H](CO)[C@@H](O)[C@H]2O)[C@@H](O)[C@@H](O)[C@H]1O
REMARK SMILES IDX 6 1 5 2 3 3 22 4 4 5 20 6 18 7 2 8 1 9 23 11 21 13 19 15
REMARK SMILES IDX 7 17 16 18 10 19 14 20 11 21 8 22 9 23 17 25 15 27 12 29
REMARK SMILES IDX 13 30
REMARK H PARENT 1 10 23 12 21 14 19 16 9 24 17 26 15 28 13 31
REMARK Flexibility Score: inf
ROOT
ATOM      1  O   UNL     1      35.011   4.958  42.210  1.00  0.00    -0.313 OA
ENDROOT
BRANCH   1   2
ATOM      2  C   UNL     1      36.193   5.112  42.984  1.00  0.00     0.285 C 
ATOM      3  C   UNL     1      38.457   5.679  42.932  1.00  0.00     0.178 C 
ATOM      4  C   UNL     1      38.409   6.403  44.324  1.00  0.00     0.177 C 
ATOM      5  O   UNL     1      37.214   5.771  42.250  1.00  0.00    -0.341 OA
ATOM      6  C   UNL     1      36.977   6.934  44.629  1.00  0.00     0.179 C 
ATOM      7  C   UNL     1      35.837   5.947  44.241  1.00  0.00     0.202 C 
BRANCH   3   8
ATOM      8  C   UNL     1      39.537   6.269  42.023  1.00  0.00     0.191 C 
BRANCH   8   9
ATOM      9  O   UNL     1      39.022   7.413  41.380  1.00  0.00    -0.394 OA
ATOM     10  H   UNL     1      38.062   7.213  41.192  1.00  0.00     0.210 HD
ENDBRANCH   8   9
ENDBRANCH   3   8
BRANCH   4  11
ATOM     11  O   UNL     1      38.877   5.565  45.350  1.00  0.00    -0.387 OA
ATOM     12  H   UNL     1      38.235   4.809  45.451  1.00  0.00     0.211 HD
ENDBRANCH   4  11
BRANCH   6  13
ATOM     13  O   UNL     1      36.831   7.413  45.953  1.00  0.00    -0.387 OA
ATOM     14  H   UNL     1      37.405   8.225  46.051  1.00  0.00     0.211 HD
ENDBRANCH   6  13
BRANCH   7  15
ATOM     15  O   UNL     1      35.438   5.113  45.299  1.00  0.00    -0.385 OA
ATOM     16  H   UNL     1      35.769   4.198  45.118  1.00  0.00     0.211 HD
ENDBRANCH   7  15
ENDBRANCH   1   2
BRANCH   1  17
ATOM     17  C   UNL     1      34.534   3.613  42.049  1.00  0.00     0.224 C 
ATOM     18  C   UNL     1      33.052   3.577  41.565  1.00  0.00     0.208 C 
ATOM     19  O   UNL     1      34.597   2.998  43.329  1.00  0.00    -0.337 OA
ATOM     20  C   UNL     1      32.391   2.581  42.497  1.00  0.00     0.180 C 
ATOM     21  C   UNL     1      33.289   2.635  43.733  1.00  0.00     0.179 C 
BRANCH  17  22
ATOM     22  C   UNL     1      35.453   2.760  41.124  1.00  0.00     0.225 C 
BRANCH  22  23
ATOM     23  O   UNL     1      34.786   2.456  39.932  1.00  0.00    -0.391 OA
ATOM     24  H   UNL     1      35.485   2.250  39.271  1.00  0.00     0.210 HD
ENDBRANCH  22  23
ENDBRANCH  17  22
BRANCH  18  25
ATOM     25  O   UNL     1      32.402   4.833  41.634  1.00  0.00    -0.385 OA
ATOM     26  H   UNL     1      31.425   4.691  41.516  1.00  0.00     0.211 HD
ENDBRANCH  18  25
BRANCH  20  27
ATOM     27  O   UNL     1      31.070   2.939  42.823  1.00  0.00    -0.387 OA
ATOM     28  H   UNL     1      31.129   3.552  43.610  1.00  0.00     0.211 HD
ENDBRANCH  20  27
BRANCH  21  29
ATOM     29  C   UNL     1      33.328   1.289  44.477  1.00  0.00     0.191 C 
BRANCH  29  30
ATOM     30  O   UNL     1      32.167   1.130  45.248  1.00  0.00    -0.394 OA
ATOM     31  H   UNL     1      32.262   1.727  46.039  1.00  0.00     0.210 HD
ENDBRANCH  29  30
ENDBRANCH  21  29
ENDBRANCH   1  17
TORSDOF 13
ENDMDL
MODEL 3
REMARK VINA RESULT:    -5.770      2.818      4.383
REMARK INTER + INTRA:          -9.793
REMARK INTER:                  -8.619
REMARK INTRA:                  -1.174
REMARK UNBOUND:                -0.987
REMARK SMILES OC[C@@H]1O[C@H](O[C@@]2(CO)O[C@H](CO)[C@@H](O)[C@H]2O)[C@@H](O)[C@@H](O)[C@H]1O
REMARK SMILES IDX 6 1 5 2 3 3 22 4 4 5 20 6 18 7 2 8 1 9 23 11 21 13 19 15
REMARK SMILES IDX 7 17 16 18 10 19 14 20 11 21 8 22 9 23 17 25 15 27 12 29
REMARK SMILES IDX 13 30
REMARK H PARENT 1 10 23 12 21 14 19 16 9 24 17 26 15 28 13 31
REMARK Flexibility Score: inf
ROOT
ATOM      1  O   UNL     1      35.514   3.918  42.748  1.00  0.00    -0.313 OA
ENDROOT
BRANCH   1   2
ATOM      2  C   UNL     1      36.453   4.776  43.381  1.00  0.00     0.285 C 
ATOM      3  C   UNL     1      38.473   5.921  43.137  1.00  0.00     0.178 C 
ATOM      4  C   UNL     1      37.984   7.161  43.966  1.00  0.00     0.177 C 
ATOM      5  O   UNL     1      37.398   5.290  42.454  1.00  0.00    -0.341 OA
ATOM      6  C   UNL     1      36.434   7.300  43.903  1.00  0.00     0.179 C 
ATOM      7  C   UNL     1      35.670   5.949  44.027  1.00  0.00     0.202 C 
BRANCH   3   8
ATOM      8  C   UNL     1      39.525   6.313  42.097  1.00  0.00     0.191 C 
BRANCH   8   9
ATOM      9  O   UNL     1      39.007   7.343  41.286  1.00  0.00    -0.394 OA
ATOM     10  H   UNL     1      38.559   7.983  41.908  1.00  0.00     0.210 HD
ENDBRANCH   8   9
ENDBRANCH   3   8
BRANCH   4  11
ATOM     11  O   UNL     1      38.444   7.099  45.293  1.00  0.00    -0.387 OA
ATOM     12  H   UNL     1      38.122   7.912  45.771  1.00  0.00     0.211 HD
ENDBRANCH   4  11
BRANCH   6  13
ATOM     13  O   UNL     1      35.927   8.276  44.795  1.00  0.00    -0.387 OA
ATOM     14  H   UNL     1      35.845   9.136  44.293  1.00  0.00     0.211 HD
ENDBRANCH   6  13
BRANCH   7  15
ATOM     15  O   UNL     1      35.298   5.638  45.345  1.00  0.00    -0.385 OA
ATOM     16  H   UNL     1      35.194   4.655  45.417  1.00  0.00     0.211 HD
ENDBRANCH   7  15
ENDBRANCH   1   2
BRANCH   1  17
ATOM     17  C   UNL     1      35.179   2.717  43.460  1.00  0.00     0.224 C 
ATOM     18  C   UNL     1      34.989   1.505  42.496  1.00  0.00     0.208 C 
ATOM     19  O   UNL     1      33.941   2.958  44.116  1.00  0.00    -0.337 OA
ATOM     20  C   UNL     1      33.681   0.885  42.947  1.00  0.00     0.180 C 
ATOM     21  C   UNL     1      32.967   2.062  43.613  1.00  0.00     0.179 C 
BRANCH  17  22
ATOM     22  C   UNL     1      36.199   2.386  44.590  1.00  0.00     0.225 C 
BRANCH  22  23
ATOM     23  O   UNL     1      35.625   2.630  45.842  1.00  0.00    -0.391 OA
ATOM     24  H   UNL     1      35.133   1.812  46.083  1.00  0.00     0.210 HD
ENDBRANCH  22  23
ENDBRANCH  17  22
BRANCH  18  25
ATOM     25  O   UNL     1      34.922   1.873  41.130  1.00  0.00    -0.385 OA
ATOM     26  H   UNL     1      34.001   2.191  40.932  1.00  0.00     0.211 HD
ENDBRANCH  18  25
BRANCH  20  27
ATOM     27  O   UNL     1      32.922   0.383  41.874  1.00  0.00    -0.387 OA
ATOM     28  H   UNL     1      31.965   0.566  42.094  1.00  0.00     0.211 HD
ENDBRANCH  20  27
BRANCH  21  29
ATOM     29  C   UNL     1      32.042   1.605  44.754  1.00  0.00     0.191 C 
BRANCH  29  30
ATOM     30  O   UNL     1      30.851   1.082  44.229  1.00  0.00    -0.394 OA
ATOM     31  H   UNL     1      30.430   1.806  43.691  1.00  0.00     0.210 HD
ENDBRANCH  29  30
ENDBRANCH  21  29
ENDBRANCH   1  17
TORSDOF 13
ENDMDL
MODEL 4
REMARK VINA RESULT:    -5.762      1.970      5.979
REMARK INTER + INTRA:          -9.780
REMARK INTER:                  -8.891
REMARK INTRA:                  -0.889
REMARK UNBOUND:                -0.987
REMARK SMILES OC[C@@H]1O[C@H](O[C@@]2(CO)O[C@H](CO)[C@@H](O)[C@H]2O)[C@@H](O)[C@@H](O)[C@H]1O
REMARK SMILES IDX 6 1 5 2 3 3 22 4 4 5 20 6 18 7 2 8 1 9 23 11 21 13 19 15
REMARK SMILES IDX 7 17 16 18 10 19 14 20 11 21 8 22 9 23 17 25 15 27 12 29
REMARK SMILES IDX 13 30
REMARK H PARENT 1 10 23 12 21 14 19 16 9 24 17 26 15 28 13 31
REMARK Flexibility Score: inf
ROOT
ATOM      1  O   UNL     1      38.610   3.176  43.537  1.00  0.00    -0.313 OA
ENDROOT
BRANCH   1   2
ATOM      2  C   UNL     1      38.462   1.938  44.219  1.00  0.00     0.285 C 
ATOM      3  C   UNL     1      39.121  -0.300  44.295  1.00  0.00     0.178 C 
ATOM      4  C   UNL     1      39.122  -0.349  45.863  1.00  0.00     0.177 C 
ATOM      5  O   UNL     1      39.443   0.997  43.810  1.00  0.00    -0.341 OA
ATOM      6  C   UNL     1      39.370   1.065  46.467  1.00  0.00     0.179 C 
ATOM      7  C   UNL     1      38.605   2.209  45.739  1.00  0.00     0.202 C 
BRANCH   3   8
ATOM      8  C   UNL     1      40.125  -1.288  43.695  1.00  0.00     0.191 C 
BRANCH   8   9
ATOM      9  O   UNL     1      40.122  -2.469  44.464  1.00  0.00    -0.394 OA
ATOM     10  H   UNL     1      39.615  -2.253  45.297  1.00  0.00     0.210 HD
ENDBRANCH   8   9
ENDBRANCH   3   8
BRANCH   4  11
ATOM     11  O   UNL     1      37.936  -0.920  46.355  1.00  0.00    -0.387 OA
ATOM     12  H   UNL     1      37.916  -0.790  47.343  1.00  0.00     0.211 HD
ENDBRANCH   4  11
BRANCH   6  13
ATOM     13  O   UNL     1      39.179   1.112  47.869  1.00  0.00    -0.387 OA
ATOM     14  H   UNL     1      38.612   1.909  48.075  1.00  0.00     0.211 HD
ENDBRANCH   6  13
BRANCH   7  15
ATOM     15  O   UNL     1      37.357   2.500  46.316  1.00  0.00    -0.385 OA
ATOM     16  H   UNL     1      37.004   3.326  45.898  1.00  0.00     0.211 HD
ENDBRANCH   7  15
ENDBRANCH   1   2
BRANCH   1  17
ATOM     17  C   UNL     1      37.408   3.745  42.995  1.00  0.00     0.224 C 
ATOM     18  C   UNL     1      37.044   5.096  43.683  1.00  0.00     0.208 C 
ATOM     19  O   UNL     1      36.361   2.819  43.255  1.00  0.00    -0.337 OA
ATOM     20  C   UNL     1      35.572   4.948  44.015  1.00  0.00     0.180 C 
ATOM     21  C   UNL     1      35.401   3.431  44.096  1.00  0.00     0.179 C 
BRANCH  17  22
ATOM     22  C   UNL     1      37.464   3.896  41.445  1.00  0.00     0.225 C 
BRANCH  22  23
ATOM     23  O   UNL     1      37.499   5.250  41.095  1.00  0.00    -0.391 OA
ATOM     24  H   UNL     1      37.973   5.710  41.824  1.00  0.00     0.210 HD
ENDBRANCH  22  23
ENDBRANCH  17  22
BRANCH  18  25
ATOM     25  O   UNL     1      37.796   5.357  44.855  1.00  0.00    -0.385 OA
ATOM     26  H   UNL     1      37.543   4.691  45.548  1.00  0.00     0.211 HD
ENDBRANCH  18  25
BRANCH  20  27
ATOM     27  O   UNL     1      35.229   5.555  45.237  1.00  0.00    -0.387 OA
ATOM     28  H   UNL     1      34.232   5.544  45.289  1.00  0.00     0.211 HD
ENDBRANCH  20  27
BRANCH  21  29
ATOM     29  C   UNL     1      33.987   2.987  43.681  1.00  0.00     0.191 C 
BRANCH  29  30
ATOM     30  O   UNL     1      33.406   2.215  44.698  1.00  0.00    -0.394 OA
ATOM     31  H   UNL     1      32.645   2.744  45.063  1.00  0.00     0.210 HD
ENDBRANCH  29  30
ENDBRANCH  21  29
ENDBRANCH   1  17
TORSDOF 13
ENDMDL
MODEL 5
REMARK VINA RESULT:    -5.755      1.715      6.291
REMARK INTER + INTRA:          -9.770
REMARK INTER:                  -8.667
REMARK INTRA:                  -1.103
REMARK UNBOUND:                -0.987
REMARK SMILES OC[C@@H]1O[C@H](O[C@@]2(CO)O[C@H](CO)[C@@H](O)[C@H]2O)[C@@H](O)[C@@H](O)[C@H]1O
REMARK SMILES IDX 6 1 5 2 3 3 22 4 4 5 20 6 18 7 2 8 1 9 23 11 21 13 19 15
REMARK SMILES IDX 7 17 16 18 10 19 14 20 11 21 8 22 9 23 17 25 15 27 12 29
REMARK SMILES IDX 13 30
REMARK H PARENT 1 10 23 12 21 14 19 16 9 24 17 26 15 28 13 31
REMARK Flexibility Score: inf
ROOT
ATOM      1  O   UNL     1      38.640   4.151  44.542  1.00  0.00    -0.313 OA
ENDROOT
BRANCH   1   2
ATOM      2  C   UNL     1      37.371   3.511  44.519  1.00  0.00     0.285 C 
ATOM      3  C   UNL     1      35.539   2.931  43.194  1.00  0.00     0.178 C 
ATOM      4  C   UNL     1      35.331   1.551  43.911  1.00  0.00     0.177 C 
ATOM      5  O   UNL     1      36.905   3.321  43.191  1.00  0.00    -0.341 OA
ATOM      6  C   UNL     1      36.666   1.032  44.523  1.00  0.00     0.179 C 
ATOM      7  C   UNL     1      37.516   2.135  45.220  1.00  0.00     0.202 C 
BRANCH   3   8
ATOM      8  C   UNL     1      35.058   2.894  41.741  1.00  0.00     0.191 C 
BRANCH   8   9
ATOM      9  O   UNL     1      35.948   3.641  40.944  1.00  0.00    -0.394 OA
ATOM     10  H   UNL     1      36.442   4.242  41.572  1.00  0.00     0.210 HD
ENDBRANCH   8   9
ENDBRANCH   3   8
BRANCH   4  11
ATOM     11  O   UNL     1      34.315   1.628  44.879  1.00  0.00    -0.387 OA
ATOM     12  H   UNL     1      34.258   2.572  45.195  1.00  0.00     0.211 HD
ENDBRANCH   4  11
BRANCH   6  13
ATOM     13  O   UNL     1      36.494  -0.103  45.351  1.00  0.00    -0.387 OA
ATOM     14  H   UNL     1      36.317  -0.889  44.761  1.00  0.00     0.211 HD
ENDBRANCH   6  13
BRANCH   7  15
ATOM     15  O   UNL     1      37.265   2.245  46.597  1.00  0.00    -0.385 OA
ATOM     16  H   UNL     1      36.316   2.498  46.723  1.00  0.00     0.211 HD
ENDBRANCH   7  15
ENDBRANCH   1   2
BRANCH   1  17
ATOM     17  C   UNL     1      38.686   5.479  43.998  1.00  0.00     0.224 C 
ATOM     18  C   UNL     1      39.678   6.392  44.782  1.00  0.00     0.208 C 
ATOM     19  O   UNL     1      37.381   6.025  44.134  1.00  0.00    -0.337 OA
ATOM     20  C   UNL     1      38.882   7.657  45.037  1.00  0.00     0.180 C 
ATOM     21  C   UNL     1      37.438   7.157  44.982  1.00  0.00     0.179 C 
BRANCH  17  22
ATOM     22  C   UNL     1      38.992   5.490  42.471  1.00  0.00     0.225 C 
BRANCH  22  23
ATOM     23  O   UNL     1      37.824   5.761  41.748  1.00  0.00    -0.391 OA
ATOM     24  H   UNL     1      37.080   5.673  42.386  1.00  0.00     0.210 HD
ENDBRANCH  22  23
ENDBRANCH  17  22
BRANCH  18  25
ATOM     25  O   UNL     1      40.124   5.829  46.002  1.00  0.00    -0.385 OA
ATOM     26  H   UNL     1      39.520   6.132  46.731  1.00  0.00     0.211 HD
ENDBRANCH  18  25
BRANCH  20  27
ATOM     27  O   UNL     1      39.165   8.231  46.289  1.00  0.00    -0.387 OA
ATOM     28  H   UNL     1      38.648   9.085  46.333  1.00  0.00     0.211 HD
ENDBRANCH  20  27
BRANCH  21  29
ATOM     29  C   UNL     1      36.471   8.240  44.471  1.00  0.00     0.191 C 
BRANCH  29  30
ATOM     30  O   UNL     1      36.304   8.121  43.083  1.00  0.00    -0.394 OA
ATOM     31  H   UNL     1      35.987   9.006  42.754  1.00  0.00     0.210 HD
ENDBRANCH  29  30
ENDBRANCH  21  29
ENDBRANCH   1  17
TORSDOF 13
ENDMDL
MODEL 6
REMARK VINA RESULT:    -5.687      1.946      6.456
REMARK INTER + INTRA:          -9.666
REMARK INTER:                  -8.405
REMARK INTRA:                  -1.260
REMARK UNBOUND:                -0.987
REMARK SMILES OC[C@@H]1O[C@H](O[C@@]2(CO)O[C@H](CO)[C@@H](O)[C@H]2O)[C@@H](O)[C@@H](O)[C@H]1O
REMARK SMILES IDX 6 1 5 2 3 3 22 4 4 5 20 6 18 7 2 8 1 9 23 11 21 13 19 15
REMARK SMILES IDX 7 17 16 18 10 19 14 20 11 21 8 22 9 23 17 25 15 27 12 29
REMARK SMILES IDX 13 30
REMARK H PARENT 1 10 23 12 21 14 19 16 9 24 17 26 15 28 13 31
REMARK Flexibility Score: inf
ROOT
ATOM      1  O   UNL     1      37.767   3.769  44.671  1.00  0.00    -0.313 OA
ENDROOT
BRANCH   1   2
ATOM      2  C   UNL     1      36.950   2.806  44.019  1.00  0.00     0.285 C 
ATOM      3  C   UNL     1      36.736   0.559  43.427  1.00  0.00     0.178 C 
ATOM      4  C   UNL     1      35.185   0.542  43.662  1.00  0.00     0.177 C 
ATOM      5  O   UNL     1      37.388   1.483  44.288  1.00  0.00    -0.341 OA
ATOM      6  C   UNL     1      34.765   1.623  44.701  1.00  0.00     0.179 C 
ATOM      7  C   UNL     1      35.498   2.987  44.531  1.00  0.00     0.202 C 
BRANCH   3   8
ATOM      8  C   UNL     1      37.361  -0.820  43.659  1.00  0.00     0.191 C 
BRANCH   8   9
ATOM      9  O   UNL     1      36.353  -1.801  43.567  1.00  0.00    -0.394 OA
ATOM     10  H   UNL     1      36.815  -2.645  43.297  1.00  0.00     0.210 HD
ENDBRANCH   8   9
ENDBRANCH   3   8
BRANCH   4  11
ATOM     11  O   UNL     1      34.485   0.690  42.452  1.00  0.00    -0.387 OA
ATOM     12  H   UNL     1      34.898   0.083  41.778  1.00  0.00     0.211 HD
ENDBRANCH   4  11
BRANCH   6  13
ATOM     13  O   UNL     1      33.362   1.787  44.798  1.00  0.00    -0.387 OA
ATOM     14  H   UNL     1      33.108   2.582  44.249  1.00  0.00     0.211 HD
ENDBRANCH   6  13
BRANCH   7  15
ATOM     15  O   UNL     1      34.794   3.901  43.729  1.00  0.00    -0.385 OA
ATOM     16  H   UNL     1      34.247   4.477  44.320  1.00  0.00     0.211 HD
ENDBRANCH   7  15
ENDBRANCH   1   2
BRANCH   1  17
ATOM     17  C   UNL     1      37.945   5.016  43.982  1.00  0.00     0.224 C 
ATOM     18  C   UNL     1      39.210   5.780  44.480  1.00  0.00     0.208 C 
ATOM     19  O   UNL     1      36.804   5.813  44.274  1.00  0.00    -0.337 OA
ATOM     20  C   UNL     1      38.711   7.190  44.722  1.00  0.00     0.180 C 
ATOM     21  C   UNL     1      37.217   6.976  44.968  1.00  0.00     0.179 C 
BRANCH  17  22
ATOM     22  C   UNL     1      37.958   4.848  42.433  1.00  0.00     0.225 C 
BRANCH  22  23
ATOM     23  O   UNL     1      36.823   5.446  41.875  1.00  0.00    -0.391 OA
ATOM     24  H   UNL     1      36.982   5.485  40.905  1.00  0.00     0.210 HD
ENDBRANCH  22  23
ENDBRANCH  17  22
BRANCH  18  25
ATOM     25  O   UNL     1      39.770   5.239  45.663  1.00  0.00    -0.385 OA
ATOM     26  H   UNL     1      39.103   5.321  46.396  1.00  0.00     0.211 HD
ENDBRANCH  18  25
BRANCH  20  27
ATOM     27  O   UNL     1      39.318   7.796  45.837  1.00  0.00    -0.387 OA
ATOM     28  H   UNL     1      39.878   7.092  46.272  1.00  0.00     0.211 HD
ENDBRANCH  20  27
BRANCH  21  29
ATOM     29  C   UNL     1      36.378   8.182  44.508  1.00  0.00     0.191 C 
BRANCH  29  30
ATOM     30  O   UNL     1      36.246   8.173  43.112  1.00  0.00    -0.394 OA
ATOM     31  H   UNL     1      36.664   9.012  42.778  1.00  0.00     0.210 HD
ENDBRANCH  29  30
ENDBRANCH  21  29
ENDBRANCH   1  17
TORSDOF 13
ENDMDL
MODEL 7
REMARK VINA RESULT:    -5.671      1.712      6.279
REMARK INTER + INTRA:          -9.641
REMARK INTER:                  -8.539
REMARK INTRA:                  -1.102
REMARK UNBOUND:                -0.987
REMARK SMILES OC[C@@H]1O[C@H](O[C@@]2(CO)O[C@H](CO)[C@@H](O)[C@H]2O)[C@@H](O)[C@@H](O)[C@H]1O
REMARK SMILES IDX 6 1 5 2 3 3 22 4 4 5 20 6 18 7 2 8 1 9 23 11 21 13 19 15
REMARK SMILES IDX 7 17 16 18 10 19 14 20 11 21 8 22 9 23 17 25 15 27 12 29
REMARK SMILES IDX 13 30
REMARK H PARENT 1 10 23 12 21 14 19 16 9 24 17 26 15 28 13 31
REMARK Flexibility Score: inf
ROOT
ATOM      1  O   UNL     1      36.727   3.868  44.813  1.00  0.00    -0.313 OA
ENDROOT
BRANCH   1   2
ATOM      2  C   UNL     1      37.226   2.616  44.363  1.00  0.00     0.285 C 
ATOM      3  C   UNL     1      38.870   0.987  44.667  1.00  0.00     0.178 C 
ATOM      4  C   UNL     1      37.888  -0.200  44.367  1.00  0.00     0.177 C 
ATOM      5  O   UNL     1      38.195   2.090  45.257  1.00  0.00    -0.341 OA
ATOM      6  C   UNL     1      36.418   0.192  44.699  1.00  0.00     0.179 C 
ATOM      7  C   UNL     1      36.031   1.634  44.257  1.00  0.00     0.202 C 
BRANCH   3   8
ATOM      8  C   UNL     1      39.998   0.566  45.611  1.00  0.00     0.191 C 
BRANCH   8   9
ATOM      9  O   UNL     1      39.459  -0.219  46.650  1.00  0.00    -0.394 OA
ATOM     10  H   UNL     1      38.632  -0.638  46.277  1.00  0.00     0.210 HD
ENDBRANCH   8   9
ENDBRANCH   3   8
BRANCH   4  11
ATOM     11  O   UNL     1      38.016  -0.645  43.041  1.00  0.00    -0.387 OA
ATOM     12  H   UNL     1      37.104  -0.834  42.687  1.00  0.00     0.211 HD
ENDBRANCH   4  11
BRANCH   6  13
ATOM     13  O   UNL     1      35.473  -0.765  44.259  1.00  0.00    -0.387 OA
ATOM     14  H   UNL     1      34.563  -0.429  44.494  1.00  0.00     0.211 HD
ENDBRANCH   6  13
BRANCH   7  15
ATOM     15  O   UNL     1      35.450   1.688  42.979  1.00  0.00    -0.385 OA
ATOM     16  H   UNL     1      34.907   0.871  42.847  1.00  0.00     0.211 HD
ENDBRANCH   7  15
ENDBRANCH   1   2
BRANCH   1  17
ATOM     17  C   UNL     1      37.112   5.015  44.040  1.00  0.00     0.224 C 
ATOM     18  C   UNL     1      38.535   5.524  44.426  1.00  0.00     0.208 C 
ATOM     19  O   UNL     1      36.178   6.044  44.337  1.00  0.00    -0.337 OA
ATOM     20  C   UNL     1      38.349   7.018  44.604  1.00  0.00     0.180 C 
ATOM     21  C   UNL     1      36.861   7.131  44.937  1.00  0.00     0.179 C 
BRANCH  17  22
ATOM     22  C   UNL     1      36.995   4.769  42.506  1.00  0.00     0.225 C 
BRANCH  22  23
ATOM     23  O   UNL     1      35.934   5.513  41.979  1.00  0.00    -0.391 OA
ATOM     24  H   UNL     1      36.276   6.426  41.846  1.00  0.00     0.210 HD
ENDBRANCH  22  23
ENDBRANCH  17  22
BRANCH  18  25
ATOM     25  O   UNL     1      39.044   4.940  45.611  1.00  0.00    -0.385 OA
ATOM     26  H   UNL     1      38.624   5.390  46.392  1.00  0.00     0.211 HD
ENDBRANCH  18  25
BRANCH  20  27
ATOM     27  O   UNL     1      39.134   7.541  45.648  1.00  0.00    -0.387 OA
ATOM     28  H   UNL     1      38.969   6.961  46.445  1.00  0.00     0.211 HD
ENDBRANCH  20  27
BRANCH  21  29
ATOM     29  C   UNL     1      36.259   8.459  44.445  1.00  0.00     0.191 C 
BRANCH  29  30
ATOM     30  O   UNL     1      36.139   8.447  43.048  1.00  0.00    -0.394 OA
ATOM     31  H   UNL     1      37.061   8.515  42.679  1.00  0.00     0.210 HD
ENDBRANCH  29  30
ENDBRANCH  21  29
ENDBRANCH   1  17
TORSDOF 13
ENDMDL
MODEL 8
REMARK VINA RESULT:    -5.595     16.107     18.606
REMARK INTER + INTRA:          -9.526
REMARK INTER:                  -8.352
REMARK INTRA:                  -1.174
REMARK UNBOUND:                -0.987
REMARK SMILES OC[C@@H]1O[C@H](O[C@@]2(CO)O[C@H](CO)[C@@H](O)[C@H]2O)[C@@H](O)[C@@H](O)[C@H]1O
REMARK SMILES IDX 6 1 5 2 3 3 22 4 4 5 20 6 18 7 2 8 1 9 23 11 21 13 19 15
REMARK SMILES IDX 7 17 16 18 10 19 14 20 11 21 8 22 9 23 17 25 15 27 12 29
REMARK SMILES IDX 13 30
REMARK H PARENT 1 10 23 12 21 14 19 16 9 24 17 26 15 28 13 31
REMARK Flexibility Score: inf
ROOT
ATOM      1  O   UNL     1      20.021   1.510  39.108  1.00  0.00    -0.313 OA
ENDROOT
BRANCH   1   2
ATOM      2  C   UNL     1      20.904   0.484  39.539  1.00  0.00     0.285 C 
ATOM      3  C   UNL     1      21.281  -1.176  41.136  1.00  0.00     0.178 C 
ATOM      4  C   UNL     1      21.914  -2.169  40.099  1.00  0.00     0.177 C 
ATOM      5  O   UNL     1      20.307  -0.336  40.532  1.00  0.00    -0.341 OA
ATOM      6  C   UNL     1      21.380  -1.892  38.662  1.00  0.00     0.179 C 
ATOM      7  C   UNL     1      21.272  -0.380  38.305  1.00  0.00     0.202 C 
BRANCH   3   8
ATOM      8  C   UNL     1      20.609  -1.918  42.294  1.00  0.00     0.191 C 
BRANCH   8   9
ATOM      9  O   UNL     1      21.496  -2.894  42.791  1.00  0.00    -0.394 OA
ATOM     10  H   UNL     1      21.070  -3.258  43.617  1.00  0.00     0.210 HD
ENDBRANCH   8   9
ENDBRANCH   3   8
BRANCH   4  11
ATOM     11  O   UNL     1      23.317  -2.128  40.144  1.00  0.00    -0.387 OA
ATOM     12  H   UNL     1      23.586  -1.407  40.778  1.00  0.00     0.211 HD
ENDBRANCH   4  11
BRANCH   6  13
ATOM     13  O   UNL     1      22.067  -2.622  37.663  1.00  0.00    -0.387 OA
ATOM     14  H   UNL     1      21.388  -3.107  37.115  1.00  0.00     0.211 HD
ENDBRANCH   6  13
BRANCH   7  15
ATOM     15  O   UNL     1      22.416   0.124  37.664  1.00  0.00    -0.385 OA
ATOM     16  H   UNL     1      22.443   1.105  37.797  1.00  0.00     0.211 HD
ENDBRANCH   7  15
ENDBRANCH   1   2
BRANCH   1  17
ATOM     17  C   UNL     1      20.513   2.854  39.218  1.00  0.00     0.224 C 
ATOM     18  C   UNL     1      20.293   3.662  37.902  1.00  0.00     0.208 C 
ATOM     19  O   UNL     1      21.912   2.762  39.452  1.00  0.00    -0.337 OA
ATOM     20  C   UNL     1      21.640   4.308  37.645  1.00  0.00     0.180 C 
ATOM     21  C   UNL     1      22.603   3.374  38.378  1.00  0.00     0.179 C 
BRANCH  17  22
ATOM     22  C   UNL     1      19.928   3.607  40.450  1.00  0.00     0.225 C 
BRANCH  22  23
ATOM     23  O   UNL     1      20.957   4.221  41.172  1.00  0.00    -0.391 OA
ATOM     24  H   UNL     1      21.485   3.493  41.571  1.00  0.00     0.210 HD
ENDBRANCH  22  23
ENDBRANCH  17  22
BRANCH  18  25
ATOM     25  O   UNL     1      19.907   2.859  36.802  1.00  0.00    -0.385 OA
ATOM     26  H   UNL     1      19.647   1.961  37.140  1.00  0.00     0.211 HD
ENDBRANCH  18  25
BRANCH  20  27
ATOM     27  O   UNL     1      21.955   4.375  36.276  1.00  0.00    -0.387 OA
ATOM     28  H   UNL     1      21.598   5.247  35.944  1.00  0.00     0.211 HD
ENDBRANCH  20  27
BRANCH  21  29
ATOM     29  C   UNL     1      23.838   4.122  38.912  1.00  0.00     0.191 C 
BRANCH  29  30
ATOM     30  O   UNL     1      23.966   5.362  38.270  1.00  0.00    -0.394 OA
ATOM     31  H   UNL     1      24.084   5.173  37.299  1.00  0.00     0.210 HD
ENDBRANCH  29  30
ENDBRANCH  21  29
ENDBRANCH   1  17
TORSDOF 13
ENDMDL
MODEL 9
REMARK VINA RESULT:    -5.557      1.939      6.303
REMARK INTER + INTRA:          -9.467
REMARK INTER:                  -8.421
REMARK INTRA:                  -1.046
REMARK UNBOUND:                -0.987
REMARK SMILES OC[C@@H]1O[C@H](O[C@@]2(CO)O[C@H](CO)[C@@H](O)[C@H]2O)[C@@H](O)[C@@H](O)[C@H]1O
REMARK SMILES IDX 6 1 5 2 3 3 22 4 4 5 20 6 18 7 2 8 1 9 23 11 21 13 19 15
REMARK SMILES IDX 7 17 16 18 10 19 14 20 11 21 8 22 9 23 17 25 15 27 12 29
REMARK SMILES IDX 13 30
REMARK H PARENT 1 10 23 12 21 14 19 16 9 24 17 26 15 28 13 31
REMARK Flexibility Score: inf
ROOT
ATOM      1  O   UNL     1      39.798   3.837  44.081  1.00  0.00    -0.313 OA
ENDROOT
BRANCH   1   2
ATOM      2  C   UNL     1      39.236   2.533  44.142  1.00  0.00     0.285 C 
ATOM      3  C   UNL     1      39.305   0.373  43.260  1.00  0.00     0.178 C 
ATOM      4  C   UNL     1      39.024  -0.308  44.644  1.00  0.00     0.177 C 
ATOM      5  O   UNL     1      40.012   1.596  43.410  1.00  0.00    -0.341 OA
ATOM      6  C   UNL     1      39.502   0.595  45.820  1.00  0.00     0.179 C 
ATOM      7  C   UNL     1      39.177   2.106  45.631  1.00  0.00     0.202 C 
BRANCH   3   8
ATOM      8  C   UNL     1      40.124  -0.533  42.337  1.00  0.00     0.191 C 
BRANCH   8   9
ATOM      9  O   UNL     1      39.889  -1.878  42.688  1.00  0.00    -0.394 OA
ATOM     10  H   UNL     1      38.915  -1.940  42.902  1.00  0.00     0.210 HD
ENDBRANCH   8   9
ENDBRANCH   3   8
BRANCH   4  11
ATOM     11  O   UNL     1      37.668  -0.652  44.777  1.00  0.00    -0.387 OA
ATOM     12  H   UNL     1      37.176  -0.286  43.991  1.00  0.00     0.211 HD
ENDBRANCH   4  11
BRANCH   6  13
ATOM     13  O   UNL     1      39.090   0.122  47.089  1.00  0.00    -0.387 OA
ATOM     14  H   UNL     1      38.172  -0.259  46.991  1.00  0.00     0.211 HD
ENDBRANCH   6  13
BRANCH   7  15
ATOM     15  O   UNL     1      37.958   2.491  46.215  1.00  0.00    -0.385 OA
ATOM     16  H   UNL     1      37.543   1.692  46.626  1.00  0.00     0.211 HD
ENDBRANCH   7  15
ENDBRANCH   1   2
BRANCH   1  17
ATOM     17  C   UNL     1      38.971   4.853  43.493  1.00  0.00     0.224 C 
ATOM     18  C   UNL     1      38.976   6.165  44.335  1.00  0.00     0.208 C 
ATOM     19  O   UNL     1      37.644   4.344  43.474  1.00  0.00    -0.337 OA
ATOM     20  C   UNL     1      37.508   6.522  44.458  1.00  0.00     0.180 C 
ATOM     21  C   UNL     1      36.820   5.168  44.278  1.00  0.00     0.179 C 
BRANCH  17  22
ATOM     22  C   UNL     1      39.336   5.134  42.004  1.00  0.00     0.225 C 
BRANCH  22  23
ATOM     23  O   UNL     1      39.823   6.438  41.867  1.00  0.00    -0.391 OA
ATOM     24  H   UNL     1      39.739   6.664  40.913  1.00  0.00     0.210 HD
ENDBRANCH  22  23
ENDBRANCH  17  22
BRANCH  18  25
ATOM     25  O   UNL     1      39.561   6.015  45.616  1.00  0.00    -0.385 OA
ATOM     26  H   UNL     1      40.109   5.185  45.619  1.00  0.00     0.211 HD
ENDBRANCH  18  25
BRANCH  20  27
ATOM     27  O   UNL     1      37.189   7.081  45.709  1.00  0.00    -0.387 OA
ATOM     28  H   UNL     1      38.035   7.085  46.241  1.00  0.00     0.211 HD
ENDBRANCH  20  27
BRANCH  21  29
ATOM     29  C   UNL     1      35.431   5.308  43.629  1.00  0.00     0.191 C 
BRANCH  29  30
ATOM     30  O   UNL     1      35.564   5.600  42.264  1.00  0.00    -0.394 OA
ATOM     31  H   UNL     1      35.145   4.848  41.765  1.00  0.00     0.210 HD
ENDBRANCH  29  30
ENDBRANCH  21  29
ENDBRANCH   1  17
TORSDOF 13
ENDMDL
