MODEL 1
REMARK VINA RESULT:    -4.030      0.000      0.000
REMARK INTER + INTRA:          -6.795
REMARK INTER:                  -6.150
REMARK INTRA:                  -0.646
REMARK UNBOUND:                -0.646
REMARK SMILES CC1=CCC[C@H](C)C(=O)C[C@H](C(C)C)C(=O)C1
REMARK SMILES IDX 8 1 9 2 6 3 7 4 5 5 4 6 3 7 2 8 1 9 10 11 11 12 15 13 16 14
REMARK SMILES IDX 17 15 12 17 13 18 14 19
REMARK H PARENT
REMARK Flexibility Score: 70.00
ROOT
ATOM      1  C   UNL     1      19.642 -10.896  68.094  1.00  0.00     0.136 C 
ATOM      2  O   UNL     1      19.365 -10.195  69.056  1.00  0.00    -0.299 OA
ENDROOT
BRANCH   1   3
ATOM      3  C   UNL     1      19.123 -12.341  68.073  1.00  0.00     0.053 C 
ATOM      4  C   UNL     1      19.515 -13.076  69.357  1.00  0.00     0.016 C 
BRANCH   3   5
ATOM      5  C   UNL     1      17.620 -12.255  67.905  1.00  0.00     0.015 C 
BRANCH   5   6
ATOM      6  C   UNL     1      16.880 -11.208  67.115  1.00  0.00     0.028 C 
BRANCH   6   7
ATOM      7  C   UNL     1      16.778 -11.679  65.662  1.00  0.00    -0.028 C 
ATOM      8  C   UNL     1      17.373 -11.156  64.534  1.00  0.00    -0.070 CG0
ATOM      9  C   UNL     1      16.969 -11.778  63.218  1.00  0.00     0.039 C 
ATOM     10  G   UNL     1      18.425 -10.024  64.476  1.00  0.00     0.000 G0
ENDBRANCH   6   7
ENDBRANCH   5   6
ENDBRANCH   3   5
ENDBRANCH   1   3
BRANCH   1  11
ATOM     11  C   UNL     1      20.502 -10.291  66.966  1.00  0.00     0.087 C 
BRANCH  11  12
ATOM     12  C   UNL     1      20.587 -11.149  65.637  1.00  0.00     0.066 C 
BRANCH  12  13
ATOM     13  C   UNL     1      19.896 -10.473  64.430  1.00  0.00     0.140 C 
ATOM     14  O   UNL     1      20.527 -10.302  63.398  1.00  0.00    -0.299 OA
BRANCH  13  15
ATOM     15  C   UNL     1      18.434 -10.009  64.471  1.00  0.00     0.106 CG0
ATOM     16  G   UNL     1      17.397 -11.154  64.541  1.00  0.00     0.000 G0
ENDBRANCH  13  15
ENDBRANCH  12  13
BRANCH  12  17
ATOM     17  C   UNL     1      22.043 -11.563  65.256  1.00  0.00    -0.006 C 
ATOM     18  C   UNL     1      22.321 -13.040  65.584  1.00  0.00     0.008 C 
ATOM     19  C   UNL     1      23.137 -10.667  65.867  1.00  0.00     0.008 C 
ENDBRANCH  12  17
ENDBRANCH  11  12
ENDBRANCH   1  11
TORSDOF 1
ENDMDL
MODEL 2
REMARK VINA RESULT:    -3.934      2.018      5.009
REMARK INTER + INTRA:          -6.650
REMARK INTER:                  -6.082
REMARK INTRA:                  -0.568
REMARK UNBOUND:                -0.646
REMARK SMILES CC1=CCC[C@H](C)C(=O)C[C@H](C(C)C)C(=O)C1
REMARK SMILES IDX 8 1 9 2 6 3 7 4 5 5 4 6 3 7 2 8 1 9 10 11 11 12 15 13 16 14
REMARK SMILES IDX 17 15 12 17 13 18 14 19
REMARK H PARENT
REMARK Flexibility Score: 70.00
ROOT
ATOM      1  C   UNL     1      19.485  -9.889  65.309  1.00  0.00     0.136 C 
ATOM      2  O   UNL     1      19.854  -8.977  66.034  1.00  0.00    -0.299 OA
ENDROOT
BRANCH   1   3
ATOM      3  C   UNL     1      20.551 -10.721  64.584  1.00  0.00     0.053 C 
ATOM      4  C   UNL     1      21.318  -9.859  63.578  1.00  0.00     0.016 C 
BRANCH   3   5
ATOM      5  C   UNL     1      21.459 -11.285  65.657  1.00  0.00     0.015 C 
BRANCH   5   6
ATOM      6  C   UNL     1      21.366 -12.663  66.257  1.00  0.00     0.028 C 
BRANCH   6   7
ATOM      7  C   UNL     1      20.800 -12.536  67.673  1.00  0.00    -0.028 C 
ATOM      8  C   UNL     1      19.506 -12.719  68.112  1.00  0.00    -0.070 CG0
ATOM      9  C   UNL     1      19.243 -12.393  69.564  1.00  0.00     0.039 C 
ATOM     10  G   UNL     1      18.308 -13.244  67.288  1.00  0.00     0.000 G0
ENDBRANCH   6   7
ENDBRANCH   5   6
ENDBRANCH   3   5
ENDBRANCH   1   3
BRANCH   1  11
ATOM     11  C   UNL     1      17.971 -10.143  65.161  1.00  0.00     0.087 C 
BRANCH  11  12
ATOM     12  C   UNL     1      17.519 -11.658  65.257  1.00  0.00     0.066 C 
BRANCH  12  13
ATOM     13  C   UNL     1      17.382 -12.163  66.711  1.00  0.00     0.140 C 
ATOM     14  O   UNL     1      16.512 -11.692  67.429  1.00  0.00    -0.299 OA
BRANCH  13  15
ATOM     15  C   UNL     1      18.297 -13.246  67.297  1.00  0.00     0.106 CG0
ATOM     16  G   UNL     1      19.495 -12.706  68.111  1.00  0.00     0.000 G0
ENDBRANCH  13  15
ENDBRANCH  12  13
BRANCH  12  17
ATOM     17  C   UNL     1      16.214 -11.970  64.457  1.00  0.00    -0.006 C 
ATOM     18  C   UNL     1      16.515 -12.688  63.131  1.00  0.00     0.008 C 
ATOM     19  C   UNL     1      15.317 -10.743  64.206  1.00  0.00     0.008 C 
ENDBRANCH  12  17
ENDBRANCH  11  12
ENDBRANCH   1  11
TORSDOF 1
ENDMDL
MODEL 3
REMARK VINA RESULT:    -3.794      3.960      6.446
REMARK INTER + INTRA:          -6.436
REMARK INTER:                  -6.336
REMARK INTRA:                  -0.100
REMARK UNBOUND:                -0.646
REMARK SMILES CC1=CCC[C@H](C)C(=O)C[C@H](C(C)C)C(=O)C1
REMARK SMILES IDX 8 1 9 2 6 3 7 4 5 5 4 6 3 7 2 8 1 9 10 11 11 12 15 13 16 14
REMARK SMILES IDX 17 15 12 17 13 18 14 19
REMARK H PARENT
REMARK Flexibility Score: 70.00
ROOT
ATOM      1  C   UNL     1      15.825 -13.090  62.535  1.00  0.00     0.136 C 
ATOM      2  O   UNL     1      16.733 -13.003  61.720  1.00  0.00    -0.299 OA
ENDROOT
BRANCH   1   3
ATOM      3  C   UNL     1      14.554 -13.850  62.130  1.00  0.00     0.053 C 
ATOM      4  C   UNL     1      13.649 -14.075  63.343  1.00  0.00     0.016 C 
BRANCH   3   5
ATOM      5  C   UNL     1      13.877 -13.016  61.063  1.00  0.00     0.015 C 
BRANCH   5   6
ATOM      6  C   UNL     1      14.334 -11.667  60.575  1.00  0.00     0.028 C 
BRANCH   6   7
ATOM      7  C   UNL     1      13.178 -10.676  60.734  1.00  0.00    -0.028 C 
ATOM      8  C   UNL     1      12.989  -9.709  61.696  1.00  0.00    -0.070 CG0
ATOM      9  C   UNL     1      11.671  -8.971  61.648  1.00  0.00     0.039 C 
ATOM     10  G   UNL     1      13.987  -9.281  62.797  1.00  0.00     0.000 G0
ENDBRANCH   6   7
ENDBRANCH   5   6
ENDBRANCH   3   5
ENDBRANCH   1   3
BRANCH   1  11
ATOM     11  C   UNL     1      16.009 -12.425  63.914  1.00  0.00     0.087 C 
BRANCH  11  12
ATOM     12  C   UNL     1      15.863 -10.848  63.937  1.00  0.00     0.066 C 
BRANCH  12  13
ATOM     13  C   UNL     1      14.401 -10.368  63.787  1.00  0.00     0.140 C 
ATOM     14  O   UNL     1      13.531 -10.877  64.477  1.00  0.00    -0.299 OA
BRANCH  13  15
ATOM     15  C   UNL     1      13.992  -9.265  62.802  1.00  0.00     0.106 CG0
ATOM     16  G   UNL     1      12.995  -9.714  61.710  1.00  0.00     0.000 G0
ENDBRANCH  13  15
ENDBRANCH  12  13
BRANCH  12  17
ATOM     17  C   UNL     1      16.519 -10.180  65.187  1.00  0.00    -0.006 C 
ATOM     18  C   UNL     1      17.918  -9.625  64.870  1.00  0.00     0.008 C 
ATOM     19  C   UNL     1      16.576 -11.087  66.432  1.00  0.00     0.008 C 
ENDBRANCH  12  17
ENDBRANCH  11  12
ENDBRANCH   1  11
TORSDOF 1
ENDMDL
MODEL 4
REMARK VINA RESULT:    -3.661      4.730      7.163
REMARK INTER + INTRA:          -6.233
REMARK INTER:                  -5.727
REMARK INTRA:                  -0.506
REMARK UNBOUND:                -0.646
REMARK SMILES CC1=CCC[C@H](C)C(=O)C[C@H](C(C)C)C(=O)C1
REMARK SMILES IDX 8 1 9 2 6 3 7 4 5 5 4 6 3 7 2 8 1 9 10 11 11 12 15 13 16 14
REMARK SMILES IDX 17 15 12 17 13 18 14 19
REMARK H PARENT
REMARK Flexibility Score: 70.00
ROOT
ATOM      1  C   UNL     1      12.753 -11.317  62.791  1.00  0.00     0.136 C 
ATOM      2  O   UNL     1      11.621 -11.473  63.226  1.00  0.00    -0.299 OA
ENDROOT
BRANCH   1   3
ATOM      3  C   UNL     1      13.013 -11.626  61.310  1.00  0.00     0.053 C 
ATOM      4  C   UNL     1      12.757 -13.105  61.012  1.00  0.00     0.016 C 
BRANCH   3   5
ATOM      5  C   UNL     1      12.096 -10.720  60.515  1.00  0.00     0.015 C 
BRANCH   5   6
ATOM      6  C   UNL     1      12.490  -9.425  59.855  1.00  0.00     0.028 C 
BRANCH   6   7
ATOM      7  C   UNL     1      12.604  -8.345  60.935  1.00  0.00    -0.028 C 
ATOM      8  C   UNL     1      13.694  -7.993  61.701  1.00  0.00    -0.070 CG0
ATOM      9  C   UNL     1      13.446  -6.963  62.778  1.00  0.00     0.039 C 
ATOM     10  G   UNL     1      15.141  -8.518  61.558  1.00  0.00     0.000 G0
ENDBRANCH   6   7
ENDBRANCH   5   6
ENDBRANCH   3   5
ENDBRANCH   1   3
BRANCH   1  11
ATOM     11  C   UNL     1      13.852 -10.830  63.757  1.00  0.00     0.087 C 
BRANCH  11  12
ATOM     12  C   UNL     1      15.303 -10.706  63.135  1.00  0.00     0.066 C 
BRANCH  12  13
ATOM     13  C   UNL     1      15.695  -9.252  62.787  1.00  0.00     0.140 C 
ATOM     14  O   UNL     1      16.476  -8.653  63.512  1.00  0.00    -0.299 OA
BRANCH  13  15
ATOM     15  C   UNL     1      15.145  -8.523  61.554  1.00  0.00     0.106 CG0
ATOM     16  G   UNL     1      13.697  -8.004  61.706  1.00  0.00     0.000 G0
ENDBRANCH  13  15
ENDBRANCH  12  13
BRANCH  12  17
ATOM     17  C   UNL     1      16.415 -11.364  64.013  1.00  0.00    -0.006 C 
ATOM     18  C   UNL     1      16.829 -12.742  63.472  1.00  0.00     0.008 C 
ATOM     19  C   UNL     1      16.063 -11.464  65.510  1.00  0.00     0.008 C 
ENDBRANCH  12  17
ENDBRANCH  11  12
ENDBRANCH   1  11
TORSDOF 1
ENDMDL
MODEL 5
REMARK VINA RESULT:    -3.656      3.636      6.228
REMARK INTER + INTRA:          -6.225
REMARK INTER:                  -5.895
REMARK INTRA:                  -0.330
REMARK UNBOUND:                -0.646
REMARK SMILES CC1=CCC[C@H](C)C(=O)C[C@H](C(C)C)C(=O)C1
REMARK SMILES IDX 8 1 9 2 6 3 7 4 5 5 4 6 3 7 2 8 1 9 10 11 11 12 15 13 16 14
REMARK SMILES IDX 17 15 12 17 13 18 14 19
REMARK H PARENT
REMARK Flexibility Score: 70.00
ROOT
ATOM      1  C   UNL     1      15.735  -8.525  62.123  1.00  0.00     0.136 C 
ATOM      2  O   UNL     1      16.087  -8.076  61.043  1.00  0.00    -0.299 OA
ENDROOT
BRANCH   1   3
ATOM      3  C   UNL     1      14.305  -8.235  62.601  1.00  0.00     0.053 C 
ATOM      4  C   UNL     1      13.958  -6.758  62.406  1.00  0.00     0.016 C 
BRANCH   3   5
ATOM      5  C   UNL     1      13.393  -9.143  61.803  1.00  0.00     0.015 C 
BRANCH   5   6
ATOM      6  C   UNL     1      12.475 -10.192  62.372  1.00  0.00     0.028 C 
BRANCH   6   7
ATOM      7  C   UNL     1      12.956 -11.566  61.899  1.00  0.00    -0.028 C 
ATOM      8  C   UNL     1      13.856 -12.424  62.493  1.00  0.00    -0.070 CG0
ATOM      9  C   UNL     1      14.218 -13.660  61.704  1.00  0.00     0.039 C 
ATOM     10  G   UNL     1      14.510 -12.270  63.885  1.00  0.00     0.000 G0
ENDBRANCH   6   7
ENDBRANCH   5   6
ENDBRANCH   3   5
ENDBRANCH   1   3
BRANCH   1  11
ATOM     11  C   UNL     1      16.749  -9.348  62.944  1.00  0.00     0.087 C 
BRANCH  11  12
ATOM     12  C   UNL     1      16.149 -10.138  64.178  1.00  0.00     0.066 C 
BRANCH  12  13
ATOM     13  C   UNL     1      15.920 -11.640  63.888  1.00  0.00     0.140 C 
ATOM     14  O   UNL     1      16.881 -12.357  63.654  1.00  0.00    -0.299 OA
BRANCH  13  15
ATOM     15  C   UNL     1      14.523 -12.275  63.888  1.00  0.00     0.106 CG0
ATOM     16  G   UNL     1      13.876 -12.407  62.490  1.00  0.00     0.000 G0
ENDBRANCH  13  15
ENDBRANCH  12  13
BRANCH  12  17
ATOM     17  C   UNL     1      16.979  -9.968  65.490  1.00  0.00    -0.006 C 
ATOM     18  C   UNL     1      18.488  -9.880  65.203  1.00  0.00     0.008 C 
ATOM     19  C   UNL     1      16.703 -11.043  66.558  1.00  0.00     0.008 C 
ENDBRANCH  12  17
ENDBRANCH  11  12
ENDBRANCH   1  11
TORSDOF 1
ENDMDL
MODEL 6
REMARK VINA RESULT:    -3.583     16.602     18.326
REMARK INTER + INTRA:          -6.113
REMARK INTER:                  -5.792
REMARK INTRA:                  -0.321
REMARK UNBOUND:                -0.646
REMARK SMILES CC1=CCC[C@H](C)C(=O)C[C@H](C(C)C)C(=O)C1
REMARK SMILES IDX 8 1 9 2 6 3 7 4 5 5 4 6 3 7 2 8 1 9 10 11 11 12 15 13 16 14
REMARK SMILES IDX 17 15 12 17 13 18 14 19
REMARK H PARENT
REMARK Flexibility Score: 70.00
ROOT
ATOM      1  C   UNL     1       7.173  -0.213  61.221  1.00  0.00     0.136 C 
ATOM      2  O   UNL     1       6.427  -0.055  60.266  1.00  0.00    -0.299 OA
ENDROOT
BRANCH   1   3
ATOM      3  C   UNL     1       7.123  -1.552  61.970  1.00  0.00     0.053 C 
ATOM      4  C   UNL     1       8.536  -2.081  62.227  1.00  0.00     0.016 C 
BRANCH   3   5
ATOM      5  C   UNL     1       6.370  -1.295  63.258  1.00  0.00     0.015 C 
BRANCH   5   6
ATOM      6  C   UNL     1       5.110  -0.481  63.397  1.00  0.00     0.028 C 
BRANCH   6   7
ATOM      7  C   UNL     1       5.065   0.105  64.810  1.00  0.00    -0.028 C 
ATOM      8  C   UNL     1       5.470   1.347  65.250  1.00  0.00    -0.070 CG0
ATOM      9  C   UNL     1       5.410   1.577  66.742  1.00  0.00     0.039 C 
ATOM     10  G   UNL     1       5.950   2.532  64.381  1.00  0.00     0.000 G0
ENDBRANCH   6   7
ENDBRANCH   5   6
ENDBRANCH   3   5
ENDBRANCH   1   3
BRANCH   1  11
ATOM     11  C   UNL     1       8.111   0.944  61.621  1.00  0.00     0.087 C 
BRANCH  11  12
ATOM     12  C   UNL     1       7.393   2.261  62.130  1.00  0.00     0.066 C 
BRANCH  12  13
ATOM     13  C   UNL     1       7.285   2.340  63.671  1.00  0.00     0.140 C 
ATOM     14  O   UNL     1       8.297   2.240  64.347  1.00  0.00    -0.299 OA
BRANCH  13  15
ATOM     15  C   UNL     1       5.947   2.547  64.393  1.00  0.00     0.106 CG0
ATOM     16  G   UNL     1       5.473   1.336  65.229  1.00  0.00     0.000 G0
ENDBRANCH  13  15
ENDBRANCH  12  13
BRANCH  12  17
ATOM     17  C   UNL     1       8.030   3.573  61.572  1.00  0.00    -0.006 C 
ATOM     18  C   UNL     1       7.333   4.827  62.126  1.00  0.00     0.008 C 
ATOM     19  C   UNL     1       8.099   3.638  60.034  1.00  0.00     0.008 C 
ENDBRANCH  12  17
ENDBRANCH  11  12
ENDBRANCH   1  11
TORSDOF 1
ENDMDL
MODEL 7
REMARK VINA RESULT:    -3.526     15.684     17.796
REMARK INTER + INTRA:          -6.027
REMARK INTER:                  -5.550
REMARK INTRA:                  -0.477
REMARK UNBOUND:                -0.646
REMARK SMILES CC1=CCC[C@H](C)C(=O)C[C@H](C(C)C)C(=O)C1
REMARK SMILES IDX 8 1 9 2 6 3 7 4 5 5 4 6 3 7 2 8 1 9 10 11 11 12 15 13 16 14
REMARK SMILES IDX 17 15 12 17 13 18 14 19
REMARK H PARENT
REMARK Flexibility Score: 70.00
ROOT
ATOM      1  C   UNL     1       7.784   3.192  60.813  1.00  0.00     0.136 C 
ATOM      2  O   UNL     1       8.333   4.281  60.885  1.00  0.00    -0.299 OA
ENDROOT
BRANCH   1   3
ATOM      3  C   UNL     1       7.548   2.585  59.423  1.00  0.00     0.053 C 
ATOM      4  C   UNL     1       6.779   3.560  58.529  1.00  0.00     0.016 C 
BRANCH   3   5
ATOM      5  C   UNL     1       8.916   2.257  58.861  1.00  0.00     0.015 C 
BRANCH   5   6
ATOM      6  C   UNL     1       9.448   0.875  58.585  1.00  0.00     0.028 C 
BRANCH   6   7
ATOM      7  C   UNL     1      10.684   0.649  59.460  1.00  0.00    -0.028 C 
ATOM      8  C   UNL     1      10.766   0.107  60.725  1.00  0.00    -0.070 CG0
ATOM      9  C   UNL     1      12.130   0.138  61.374  1.00  0.00     0.039 C 
ATOM     10  G   UNL     1       9.624  -0.549  61.534  1.00  0.00     0.000 G0
ENDBRANCH   6   7
ENDBRANCH   5   6
ENDBRANCH   3   5
ENDBRANCH   1   3
BRANCH   1  11
ATOM     11  C   UNL     1       7.353   2.499  62.121  1.00  0.00     0.087 C 
BRANCH  11  12
ATOM     12  C   UNL     1       7.437   0.917  62.117  1.00  0.00     0.066 C 
BRANCH  12  13
ATOM     13  C   UNL     1       8.844   0.380  62.468  1.00  0.00     0.140 C 
ATOM     14  O   UNL     1       9.361   0.705  63.526  1.00  0.00    -0.299 OA
BRANCH  13  15
ATOM     15  C   UNL     1       9.624  -0.558  61.538  1.00  0.00     0.106 CG0
ATOM     16  G   UNL     1      10.766   0.122  60.748  1.00  0.00     0.000 G0
ENDBRANCH  13  15
ENDBRANCH  12  13
BRANCH  12  17
ATOM     17  C   UNL     1       6.363   0.234  63.021  1.00  0.00    -0.006 C 
ATOM     18  C   UNL     1       5.084  -0.101  62.235  1.00  0.00     0.008 C 
ATOM     19  C   UNL     1       6.012   1.025  64.296  1.00  0.00     0.008 C 
ENDBRANCH  12  17
ENDBRANCH  11  12
ENDBRANCH   1  11
TORSDOF 1
ENDMDL
MODEL 8
REMARK VINA RESULT:    -3.437      4.390      6.786
REMARK INTER + INTRA:          -5.891
REMARK INTER:                  -5.625
REMARK INTRA:                  -0.266
REMARK UNBOUND:                -0.646
REMARK SMILES CC1=CCC[C@H](C)C(=O)C[C@H](C(C)C)C(=O)C1
REMARK SMILES IDX 8 1 9 2 6 3 7 4 5 5 4 6 3 7 2 8 1 9 10 11 11 12 15 13 16 14
REMARK SMILES IDX 17 15 12 17 13 18 14 19
REMARK H PARENT
REMARK Flexibility Score: 70.00
ROOT
ATOM      1  C   UNL     1      16.650  -9.686  63.218  1.00  0.00     0.136 C 
ATOM      2  O   UNL     1      17.831  -9.371  63.207  1.00  0.00    -0.299 OA
ENDROOT
BRANCH   1   3
ATOM      3  C   UNL     1      16.282 -11.121  63.620  1.00  0.00     0.053 C 
ATOM      4  C   UNL     1      17.526 -11.895  64.061  1.00  0.00     0.016 C 
BRANCH   3   5
ATOM      5  C   UNL     1      15.260 -11.006  64.732  1.00  0.00     0.015 C 
BRANCH   5   6
ATOM      6  C   UNL     1      13.879 -11.607  64.726  1.00  0.00     0.028 C 
BRANCH   6   7
ATOM      7  C   UNL     1      13.652 -12.286  63.374  1.00  0.00    -0.028 C 
ATOM      8  C   UNL     1      12.900 -11.858  62.301  1.00  0.00    -0.070 CG0
ATOM      9  C   UNL     1      12.774 -12.826  61.147  1.00  0.00     0.039 C 
ATOM     10  G   UNL     1      12.199 -10.490  62.142  1.00  0.00     0.000 G0
ENDBRANCH   6   7
ENDBRANCH   5   6
ENDBRANCH   3   5
ENDBRANCH   1   3
BRANCH   1  11
ATOM     11  C   UNL     1      15.603  -8.626  62.818  1.00  0.00     0.087 C 
BRANCH  11  12
ATOM     12  C   UNL     1      14.505  -9.106  61.782  1.00  0.00     0.066 C 
BRANCH  12  13
ATOM     13  C   UNL     1      13.103  -9.273  62.412  1.00  0.00     0.140 C 
ATOM     14  O   UNL     1      12.681  -8.411  63.168  1.00  0.00    -0.299 OA
BRANCH  13  15
ATOM     15  C   UNL     1      12.208 -10.485  62.122  1.00  0.00     0.106 CG0
ATOM     16  G   UNL     1      12.900 -11.855  62.307  1.00  0.00     0.000 G0
ENDBRANCH  13  15
ENDBRANCH  12  13
BRANCH  12  17
ATOM     17  C   UNL     1      14.415  -8.206  60.509  1.00  0.00    -0.006 C 
ATOM     18  C   UNL     1      14.199  -9.040  59.235  1.00  0.00     0.008 C 
ATOM     19  C   UNL     1      15.609  -7.251  60.323  1.00  0.00     0.008 C 
ENDBRANCH  12  17
ENDBRANCH  11  12
ENDBRANCH   1  11
TORSDOF 1
ENDMDL
MODEL 9
REMARK VINA RESULT:    -3.389      5.534      8.393
REMARK INTER + INTRA:          -5.817
REMARK INTER:                  -5.331
REMARK INTRA:                  -0.486
REMARK UNBOUND:                -0.646
REMARK SMILES CC1=CCC[C@H](C)C(=O)C[C@H](C(C)C)C(=O)C1
REMARK SMILES IDX 8 1 9 2 6 3 7 4 5 5 4 6 3 7 2 8 1 9 10 11 11 12 15 13 16 14
REMARK SMILES IDX 17 15 12 17 13 18 14 19
REMARK H PARENT
REMARK Flexibility Score: 70.00
ROOT
ATOM      1  C   UNL     1      13.737 -11.471  60.490  1.00  0.00     0.136 C 
ATOM      2  O   UNL     1      13.878 -12.619  60.884  1.00  0.00    -0.299 OA
ENDROOT
BRANCH   1   3
ATOM      3  C   UNL     1      13.592 -11.231  58.980  1.00  0.00     0.053 C 
ATOM      4  C   UNL     1      12.582 -12.206  58.372  1.00  0.00     0.016 C 
BRANCH   3   5
ATOM      5  C   UNL     1      13.161  -9.789  58.814  1.00  0.00     0.015 C 
BRANCH   5   6
ATOM      6  C   UNL     1      13.872  -8.745  57.995  1.00  0.00     0.028 C 
BRANCH   6   7
ATOM      7  C   UNL     1      13.686  -7.386  58.675  1.00  0.00    -0.028 C 
ATOM      8  C   UNL     1      14.340  -6.866  59.772  1.00  0.00    -0.070 CG0
ATOM      9  C   UNL     1      13.834  -5.536  60.279  1.00  0.00     0.039 C 
ATOM     10  G   UNL     1      15.546  -7.483  60.516  1.00  0.00     0.000 G0
ENDBRANCH   6   7
ENDBRANCH   5   6
ENDBRANCH   3   5
ENDBRANCH   1   3
BRANCH   1  11
ATOM     11  C   UNL     1      13.721 -10.333  61.530  1.00  0.00     0.087 C 
BRANCH  11  12
ATOM     12  C   UNL     1      15.139  -9.747  61.924  1.00  0.00     0.066 C 
BRANCH  12  13
ATOM     13  C   UNL     1      15.210  -8.205  61.827  1.00  0.00     0.140 C 
ATOM     14  O   UNL     1      14.989  -7.533  62.823  1.00  0.00    -0.299 OA
BRANCH  13  15
ATOM     15  C   UNL     1      15.556  -7.477  60.522  1.00  0.00     0.106 CG0
ATOM     16  G   UNL     1      14.340  -6.880  59.776  1.00  0.00     0.000 G0
ENDBRANCH  13  15
ENDBRANCH  12  13
BRANCH  12  17
ATOM     17  C   UNL     1      15.640 -10.218  63.326  1.00  0.00    -0.006 C 
ATOM     18  C   UNL     1      16.797 -11.224  63.211  1.00  0.00     0.008 C 
ATOM     19  C   UNL     1      14.533 -10.783  64.237  1.00  0.00     0.008 C 
ENDBRANCH  12  17
ENDBRANCH  11  12
ENDBRANCH   1  11
TORSDOF 1
ENDMDL
