MODEL 1
REMARK VINA RESULT:    -4.236      0.000      0.000
REMARK INTER + INTRA:         -15.611
REMARK INTER:                 -10.675
REMARK INTRA:                  -4.936
REMARK UNBOUND:                -4.936
REMARK SMILES CCCCCCCCCCCCCCCCCCCCCCCCCCCC(=O)[O-]
REMARK SMILES IDX 15 1 16 2 17 3 18 4 19 5 20 6 21 7 22 8 23 9 24 10 25 11
REMARK SMILES IDX 26 12 27 13 28 14 29 15 30 16 14 17 13 18 12 19 11 20 10 21
REMARK SMILES IDX 9 22 8 23 7 24 6 25 5 26 4 27 3 28 2 29 1 30
REMARK H PARENT
REMARK Flexibility Score: inf
ROOT
ATOM      1  C   UNL     1      57.989  33.498  79.830  1.00  0.00     0.000 C 
ENDROOT
BRANCH   1   2
ATOM      2  C   UNL     1      59.092  34.570  79.902  1.00  0.00     0.000 C 
BRANCH   2   3
ATOM      3  C   UNL     1      58.927  35.506  81.119  1.00  0.00     0.000 C 
BRANCH   3   4
ATOM      4  C   UNL     1      58.075  36.759  80.840  1.00  0.00     0.000 C 
BRANCH   4   5
ATOM      5  C   UNL     1      57.317  36.750  79.501  1.00  0.00     0.000 C 
BRANCH   5   6
ATOM      6  C   UNL     1      57.598  37.958  78.586  1.00  0.00     0.000 C 
BRANCH   6   7
ATOM      7  C   UNL     1      59.083  38.385  78.552  1.00  0.00     0.000 C 
BRANCH   7   8
ATOM      8  C   UNL     1      59.579  38.662  77.121  1.00  0.00     0.000 C 
BRANCH   8   9
ATOM      9  C   UNL     1      59.181  37.565  76.119  1.00  0.00     0.000 C 
BRANCH   9  10
ATOM     10  C   UNL     1      58.579  38.076  74.796  1.00  0.00     0.000 C 
BRANCH  10  11
ATOM     11  C   UNL     1      57.190  38.706  74.972  1.00  0.00     0.000 C 
BRANCH  11  12
ATOM     12  C   UNL     1      56.110  37.628  75.118  1.00  0.00     0.006 C 
BRANCH  12  13
ATOM     13  C   UNL     1      55.137  37.662  73.935  1.00  0.00     0.053 C 
BRANCH  13  14
ATOM     14  C   UNL     1      55.540  36.665  72.896  1.00  0.00     0.041 C 
ATOM     15  O   UNL     1      56.371  36.982  72.003  1.00  0.00    -0.550 OA
ATOM     16  O   UNL     1      54.975  35.395  72.890  1.00  0.00    -0.550 OA
ENDBRANCH  13  14
ENDBRANCH  12  13
ENDBRANCH  11  12
ENDBRANCH  10  11
ENDBRANCH   9  10
ENDBRANCH   8   9
ENDBRANCH   7   8
ENDBRANCH   6   7
ENDBRANCH   5   6
ENDBRANCH   4   5
ENDBRANCH   3   4
ENDBRANCH   2   3
ENDBRANCH   1   2
BRANCH   1  17
ATOM     17  C   UNL     1      57.682  33.062  78.389  1.00  0.00     0.000 C 
BRANCH  17  18
ATOM     18  C   UNL     1      58.327  33.980  77.337  1.00  0.00     0.000 C 
BRANCH  18  19
ATOM     19  C   UNL     1      57.274  34.648  76.437  1.00  0.00     0.000 C 
BRANCH  19  20
ATOM     20  C   UNL     1      57.159  33.958  75.066  1.00  0.00     0.000 C 
BRANCH  20  21
ATOM     21  C   UNL     1      58.227  34.450  74.074  1.00  0.00     0.000 C 
BRANCH  21  22
ATOM     22  C   UNL     1      58.991  33.284  73.420  1.00  0.00    -0.000 C 
BRANCH  22  23
ATOM     23  C   UNL     1      60.201  32.831  74.253  1.00  0.00    -0.000 C 
BRANCH  23  24
ATOM     24  C   UNL     1      60.185  31.318  74.535  1.00  0.00    -0.000 C 
BRANCH  24  25
ATOM     25  C   UNL     1      60.065  31.000  76.034  1.00  0.00    -0.000 C 
BRANCH  25  26
ATOM     26  C   UNL     1      58.924  30.014  76.343  1.00  0.00    -0.000 C 
BRANCH  26  27
ATOM     27  C   UNL     1      57.584  30.454  75.715  1.00  0.00    -0.000 C 
BRANCH  27  28
ATOM     28  C   UNL     1      56.789  29.296  75.078  1.00  0.00    -0.000 C 
BRANCH  28  29
ATOM     29  C   UNL     1      55.672  29.735  74.116  1.00  0.00    -0.003 C 
ATOM     30  C   UNL     1      56.028  30.994  73.327  1.00  0.00     0.004 C 
ENDBRANCH  28  29
ENDBRANCH  27  28
ENDBRANCH  26  27
ENDBRANCH  25  26
ENDBRANCH  24  25
ENDBRANCH  23  24
ENDBRANCH  22  23
ENDBRANCH  21  22
ENDBRANCH  20  21
ENDBRANCH  19  20
ENDBRANCH  18  19
ENDBRANCH  17  18
ENDBRANCH   1  17
TORSDOF 26
ENDMDL
MODEL 2
REMARK VINA RESULT:    -3.993      2.297      3.889
REMARK INTER + INTRA:         -14.997
REMARK INTER:                 -10.065
REMARK INTRA:                  -4.933
REMARK UNBOUND:                -4.936
REMARK SMILES CCCCCCCCCCCCCCCCCCCCCCCCCCCC(=O)[O-]
REMARK SMILES IDX 15 1 16 2 17 3 18 4 19 5 20 6 21 7 22 8 23 9 24 10 25 11
REMARK SMILES IDX 26 12 27 13 28 14 29 15 30 16 14 17 13 18 12 19 11 20 10 21
REMARK SMILES IDX 9 22 8 23 7 24 6 25 5 26 4 27 3 28 2 29 1 30
REMARK H PARENT
REMARK Flexibility Score: inf
ROOT
ATOM      1  C   UNL     1      58.907  33.869  79.641  1.00  0.00     0.000 C 
ENDROOT
BRANCH   1   2
ATOM      2  C   UNL     1      59.090  35.375  79.378  1.00  0.00     0.000 C 
BRANCH   2   3
ATOM      3  C   UNL     1      58.232  36.248  80.321  1.00  0.00     0.000 C 
BRANCH   3   4
ATOM      4  C   UNL     1      57.146  37.071  79.602  1.00  0.00     0.000 C 
BRANCH   4   5
ATOM      5  C   UNL     1      57.654  37.973  78.464  1.00  0.00     0.000 C 
BRANCH   5   6
ATOM      6  C   UNL     1      57.222  37.541  77.049  1.00  0.00     0.000 C 
BRANCH   6   7
ATOM      7  C   UNL     1      56.356  36.261  77.023  1.00  0.00     0.000 C 
BRANCH   7   8
ATOM      8  C   UNL     1      56.090  35.765  75.590  1.00  0.00     0.000 C 
BRANCH   8   9
ATOM      9  C   UNL     1      56.623  36.720  74.509  1.00  0.00     0.000 C 
BRANCH   9  10
ATOM     10  C   UNL     1      57.074  36.041  73.201  1.00  0.00     0.000 C 
BRANCH  10  11
ATOM     11  C   UNL     1      58.526  36.369  72.825  1.00  0.00     0.000 C 
BRANCH  11  12
ATOM     12  C   UNL     1      59.407  36.481  74.076  1.00  0.00     0.006 C 
BRANCH  12  13
ATOM     13  C   UNL     1      60.700  35.678  73.910  1.00  0.00     0.053 C 
BRANCH  13  14
ATOM     14  C   UNL     1      61.886  36.511  74.277  1.00  0.00     0.041 C 
ATOM     15  O   UNL     1      61.725  37.653  74.785  1.00  0.00    -0.550 OA
ATOM     16  O   UNL     1      63.172  36.043  74.031  1.00  0.00    -0.550 OA
ENDBRANCH  13  14
ENDBRANCH  12  13
ENDBRANCH  11  12
ENDBRANCH  10  11
ENDBRANCH   9  10
ENDBRANCH   8   9
ENDBRANCH   7   8
ENDBRANCH   6   7
ENDBRANCH   5   6
ENDBRANCH   4   5
ENDBRANCH   3   4
ENDBRANCH   2   3
ENDBRANCH   1   2
BRANCH   1  17
ATOM     17  C   UNL     1      57.826  33.240  78.748  1.00  0.00     0.000 C 
BRANCH  17  18
ATOM     18  C   UNL     1      58.412  32.353  77.636  1.00  0.00     0.000 C 
BRANCH  18  19
ATOM     19  C   UNL     1      57.879  32.746  76.248  1.00  0.00     0.000 C 
BRANCH  19  20
ATOM     20  C   UNL     1      58.980  32.723  75.174  1.00  0.00     0.000 C 
BRANCH  20  21
ATOM     21  C   UNL     1      58.408  32.581  73.754  1.00  0.00     0.000 C 
BRANCH  21  22
ATOM     22  C   UNL     1      56.869  32.529  73.751  1.00  0.00    -0.000 C 
BRANCH  22  23
ATOM     23  C   UNL     1      56.326  31.197  73.211  1.00  0.00    -0.000 C 
BRANCH  23  24
ATOM     24  C   UNL     1      55.726  30.315  74.321  1.00  0.00    -0.000 C 
BRANCH  24  25
ATOM     25  C   UNL     1      56.480  28.986  74.488  1.00  0.00    -0.000 C 
BRANCH  25  26
ATOM     26  C   UNL     1      57.478  29.012  75.661  1.00  0.00    -0.000 C 
BRANCH  26  27
ATOM     27  C   UNL     1      58.942  29.100  75.180  1.00  0.00    -0.000 C 
BRANCH  27  28
ATOM     28  C   UNL     1      59.973  29.056  76.326  1.00  0.00    -0.000 C 
BRANCH  28  29
ATOM     29  C   UNL     1      61.417  29.380  75.907  1.00  0.00    -0.003 C 
ATOM     30  C   UNL     1      61.861  30.777  76.337  1.00  0.00     0.004 C 
ENDBRANCH  28  29
ENDBRANCH  27  28
ENDBRANCH  26  27
ENDBRANCH  25  26
ENDBRANCH  24  25
ENDBRANCH  23  24
ENDBRANCH  22  23
ENDBRANCH  21  22
ENDBRANCH  20  21
ENDBRANCH  19  20
ENDBRANCH  18  19
ENDBRANCH  17  18
ENDBRANCH   1  17
TORSDOF 26
ENDMDL
MODEL 3
REMARK VINA RESULT:    -3.989      1.343      3.766
REMARK INTER + INTRA:         -14.988
REMARK INTER:                 -10.367
REMARK INTRA:                  -4.620
REMARK UNBOUND:                -4.936
REMARK SMILES CCCCCCCCCCCCCCCCCCCCCCCCCCCC(=O)[O-]
REMARK SMILES IDX 15 1 16 2 17 3 18 4 19 5 20 6 21 7 22 8 23 9 24 10 25 11
REMARK SMILES IDX 26 12 27 13 28 14 29 15 30 16 14 17 13 18 12 19 11 20 10 21
REMARK SMILES IDX 9 22 8 23 7 24 6 25 5 26 4 27 3 28 2 29 1 30
REMARK H PARENT
REMARK Flexibility Score: inf
ROOT
ATOM      1  C   UNL     1      58.317  33.277  75.753  1.00  0.00     0.000 C 
ENDROOT
BRANCH   1   2
ATOM      2  C   UNL     1      57.703  33.776  77.075  1.00  0.00     0.000 C 
BRANCH   2   3
ATOM      3  C   UNL     1      57.974  32.813  78.252  1.00  0.00     0.000 C 
BRANCH   3   4
ATOM      4  C   UNL     1      57.881  33.476  79.640  1.00  0.00     0.000 C 
BRANCH   4   5
ATOM      5  C   UNL     1      59.075  34.367  80.020  1.00  0.00     0.000 C 
BRANCH   5   6
ATOM      6  C   UNL     1      58.761  35.475  81.046  1.00  0.00     0.000 C 
BRANCH   6   7
ATOM      7  C   UNL     1      58.472  36.853  80.408  1.00  0.00     0.000 C 
BRANCH   7   8
ATOM      8  C   UNL     1      56.984  37.033  80.056  1.00  0.00     0.000 C 
BRANCH   8   9
ATOM      9  C   UNL     1      56.709  36.987  78.543  1.00  0.00     0.000 C 
BRANCH   9  10
ATOM     10  C   UNL     1      57.917  37.324  77.648  1.00  0.00     0.000 C 
BRANCH  10  11
ATOM     11  C   UNL     1      57.511  37.877  76.275  1.00  0.00     0.000 C 
BRANCH  11  12
ATOM     12  C   UNL     1      56.299  37.124  75.714  1.00  0.00     0.006 C 
BRANCH  12  13
ATOM     13  C   UNL     1      56.644  36.439  74.387  1.00  0.00     0.053 C 
BRANCH  13  14
ATOM     14  C   UNL     1      55.434  36.345  73.515  1.00  0.00     0.041 C 
ATOM     15  O   UNL     1      55.237  35.316  72.815  1.00  0.00    -0.550 OA
ATOM     16  O   UNL     1      54.538  37.405  73.446  1.00  0.00    -0.550 OA
ENDBRANCH  13  14
ENDBRANCH  12  13
ENDBRANCH  11  12
ENDBRANCH  10  11
ENDBRANCH   9  10
ENDBRANCH   8   9
ENDBRANCH   7   8
ENDBRANCH   6   7
ENDBRANCH   5   6
ENDBRANCH   4   5
ENDBRANCH   3   4
ENDBRANCH   2   3
ENDBRANCH   1   2
BRANCH   1  17
ATOM     17  C   UNL     1      57.252  32.879  74.720  1.00  0.00     0.000 C 
BRANCH  17  18
ATOM     18  C   UNL     1      57.337  31.396  74.316  1.00  0.00     0.000 C 
BRANCH  18  19
ATOM     19  C   UNL     1      57.308  30.467  75.542  1.00  0.00     0.000 C 
BRANCH  19  20
ATOM     20  C   UNL     1      57.760  29.037  75.198  1.00  0.00     0.000 C 
BRANCH  20  21
ATOM     21  C   UNL     1      59.274  28.842  75.385  1.00  0.00     0.000 C 
BRANCH  21  22
ATOM     22  C   UNL     1      59.840  29.736  76.504  1.00  0.00    -0.000 C 
BRANCH  22  23
ATOM     23  C   UNL     1      60.950  30.674  76.004  1.00  0.00    -0.000 C 
BRANCH  23  24
ATOM     24  C   UNL     1      61.796  30.039  74.887  1.00  0.00    -0.000 C 
BRANCH  24  25
ATOM     25  C   UNL     1      61.997  30.984  73.691  1.00  0.00    -0.000 C 
BRANCH  25  26
ATOM     26  C   UNL     1      60.726  31.782  73.344  1.00  0.00    -0.000 C 
BRANCH  26  27
ATOM     27  C   UNL     1      60.988  33.302  73.281  1.00  0.00    -0.000 C 
BRANCH  27  28
ATOM     28  C   UNL     1      60.227  34.014  72.144  1.00  0.00    -0.000 C 
BRANCH  28  29
ATOM     29  C   UNL     1      59.506  33.074  71.164  1.00  0.00    -0.003 C 
ATOM     30  C   UNL     1      57.993  33.286  71.141  1.00  0.00     0.004 C 
ENDBRANCH  28  29
ENDBRANCH  27  28
ENDBRANCH  26  27
ENDBRANCH  25  26
ENDBRANCH  24  25
ENDBRANCH  23  24
ENDBRANCH  22  23
ENDBRANCH  21  22
ENDBRANCH  20  21
ENDBRANCH  19  20
ENDBRANCH  18  19
ENDBRANCH  17  18
ENDBRANCH   1  17
TORSDOF 26
ENDMDL
MODEL 4
REMARK VINA RESULT:    -3.956      2.540      6.751
REMARK INTER + INTRA:         -14.906
REMARK INTER:                  -9.917
REMARK INTRA:                  -4.989
REMARK UNBOUND:                -4.936
REMARK SMILES CCCCCCCCCCCCCCCCCCCCCCCCCCCC(=O)[O-]
REMARK SMILES IDX 15 1 16 2 17 3 18 4 19 5 20 6 21 7 22 8 23 9 24 10 25 11
REMARK SMILES IDX 26 12 27 13 28 14 29 15 30 16 14 17 13 18 12 19 11 20 10 21
REMARK SMILES IDX 9 22 8 23 7 24 6 25 5 26 4 27 3 28 2 29 1 30
REMARK H PARENT
REMARK Flexibility Score: inf
ROOT
ATOM      1  C   UNL     1      56.250  37.495  75.641  1.00  0.00     0.000 C 
ENDROOT
BRANCH   1   2
ATOM      2  C   UNL     1      55.389  37.240  74.390  1.00  0.00     0.000 C 
BRANCH   2   3
ATOM      3  C   UNL     1      55.634  35.843  73.778  1.00  0.00     0.000 C 
BRANCH   3   4
ATOM      4  C   UNL     1      55.721  35.836  72.240  1.00  0.00     0.000 C 
BRANCH   4   5
ATOM      5  C   UNL     1      57.006  36.447  71.655  1.00  0.00     0.000 C 
BRANCH   5   6
ATOM      6  C   UNL     1      57.612  35.674  70.467  1.00  0.00     0.000 C 
BRANCH   6   7
ATOM      7  C   UNL     1      59.094  35.284  70.666  1.00  0.00     0.000 C 
BRANCH   7   8
ATOM      8  C   UNL     1      59.276  33.769  70.871  1.00  0.00     0.000 C 
BRANCH   8   9
ATOM      9  C   UNL     1      57.948  33.020  71.071  1.00  0.00     0.000 C 
BRANCH   9  10
ATOM     10  C   UNL     1      57.783  32.337  72.442  1.00  0.00     0.000 C 
BRANCH  10  11
ATOM     11  C   UNL     1      56.316  32.058  72.801  1.00  0.00     0.000 C 
BRANCH  11  12
ATOM     12  C   UNL     1      56.199  30.862  73.754  1.00  0.00     0.006 C 
BRANCH  12  13
ATOM     13  C   UNL     1      57.423  30.769  74.670  1.00  0.00     0.053 C 
BRANCH  13  14
ATOM     14  C   UNL     1      57.492  29.424  75.319  1.00  0.00     0.041 C 
ATOM     15  O   UNL     1      58.461  28.655  75.080  1.00  0.00    -0.550 OA
ATOM     16  O   UNL     1      56.472  29.004  76.164  1.00  0.00    -0.550 OA
ENDBRANCH  13  14
ENDBRANCH  12  13
ENDBRANCH  11  12
ENDBRANCH  10  11
ENDBRANCH   9  10
ENDBRANCH   8   9
ENDBRANCH   7   8
ENDBRANCH   6   7
ENDBRANCH   5   6
ENDBRANCH   4   5
ENDBRANCH   3   4
ENDBRANCH   2   3
ENDBRANCH   1   2
BRANCH   1  17
ATOM     17  C   UNL     1      55.894  36.558  76.805  1.00  0.00     0.000 C 
BRANCH  17  18
ATOM     18  C   UNL     1      56.422  37.062  78.160  1.00  0.00     0.000 C 
BRANCH  18  19
ATOM     19  C   UNL     1      57.817  37.697  78.030  1.00  0.00     0.000 C 
BRANCH  19  20
ATOM     20  C   UNL     1      58.768  37.243  79.151  1.00  0.00     0.000 C 
BRANCH  20  21
ATOM     21  C   UNL     1      58.044  36.429  80.237  1.00  0.00     0.000 C 
BRANCH  21  22
ATOM     22  C   UNL     1      58.989  35.445  80.950  1.00  0.00    -0.000 C 
BRANCH  22  23
ATOM     23  C   UNL     1      59.090  34.093  80.225  1.00  0.00    -0.000 C 
BRANCH  23  24
ATOM     24  C   UNL     1      57.730  33.612  79.690  1.00  0.00    -0.000 C 
BRANCH  24  25
ATOM     25  C   UNL     1      57.816  33.093  78.245  1.00  0.00    -0.000 C 
BRANCH  25  26
ATOM     26  C   UNL     1      58.525  34.081  77.300  1.00  0.00    -0.000 C 
BRANCH  26  27
ATOM     27  C   UNL     1      58.003  33.980  75.851  1.00  0.00    -0.000 C 
BRANCH  27  28
ATOM     28  C   UNL     1      59.030  34.430  74.792  1.00  0.00    -0.000 C 
BRANCH  28  29
ATOM     29  C   UNL     1      59.249  35.950  74.711  1.00  0.00    -0.003 C 
ATOM     30  C   UNL     1      60.479  36.330  73.887  1.00  0.00     0.004 C 
ENDBRANCH  28  29
ENDBRANCH  27  28
ENDBRANCH  26  27
ENDBRANCH  25  26
ENDBRANCH  24  25
ENDBRANCH  23  24
ENDBRANCH  22  23
ENDBRANCH  21  22
ENDBRANCH  20  21
ENDBRANCH  19  20
ENDBRANCH  18  19
ENDBRANCH  17  18
ENDBRANCH   1  17
TORSDOF 26
ENDMDL
MODEL 5
REMARK VINA RESULT:    -3.955      2.122      5.406
REMARK INTER + INTRA:         -14.901
REMARK INTER:                 -10.666
REMARK INTRA:                  -4.235
REMARK UNBOUND:                -4.936
REMARK SMILES CCCCCCCCCCCCCCCCCCCCCCCCCCCC(=O)[O-]
REMARK SMILES IDX 15 1 16 2 17 3 18 4 19 5 20 6 21 7 22 8 23 9 24 10 25 11
REMARK SMILES IDX 26 12 27 13 28 14 29 15 30 16 14 17 13 18 12 19 11 20 10 21
REMARK SMILES IDX 9 22 8 23 7 24 6 25 5 26 4 27 3 28 2 29 1 30
REMARK H PARENT
REMARK Flexibility Score: inf
ROOT
ATOM      1  C   UNL     1      58.815  28.965  75.339  1.00  0.00     0.000 C 
ENDROOT
BRANCH   1   2
ATOM      2  C   UNL     1      59.310  30.417  75.202  1.00  0.00     0.000 C 
BRANCH   2   3
ATOM      3  C   UNL     1      59.684  31.044  76.563  1.00  0.00     0.000 C 
BRANCH   3   4
ATOM      4  C   UNL     1      58.482  31.598  77.353  1.00  0.00     0.000 C 
BRANCH   4   5
ATOM      5  C   UNL     1      57.992  32.986  76.910  1.00  0.00     0.000 C 
BRANCH   5   6
ATOM      6  C   UNL     1      57.947  34.048  78.027  1.00  0.00     0.000 C 
BRANCH   6   7
ATOM      7  C   UNL     1      58.677  33.624  79.322  1.00  0.00     0.000 C 
BRANCH   7   8
ATOM      8  C   UNL     1      58.508  34.655  80.452  1.00  0.00     0.000 C 
BRANCH   8   9
ATOM      9  C   UNL     1      59.011  36.058  80.073  1.00  0.00     0.000 C 
BRANCH   9  10
ATOM     10  C   UNL     1      58.054  37.213  80.425  1.00  0.00     0.000 C 
BRANCH  10  11
ATOM     11  C   UNL     1      56.803  37.249  79.535  1.00  0.00     0.000 C 
BRANCH  11  12
ATOM     12  C   UNL     1      57.168  37.598  78.087  1.00  0.00     0.006 C 
BRANCH  12  13
ATOM     13  C   UNL     1      57.479  39.091  77.944  1.00  0.00     0.053 C 
BRANCH  13  14
ATOM     14  C   UNL     1      58.844  39.289  77.366  1.00  0.00     0.041 C 
ATOM     15  O   UNL     1      59.109  40.333  76.712  1.00  0.00    -0.550 OA
ATOM     16  O   UNL     1      59.817  38.308  77.520  1.00  0.00    -0.550 OA
ENDBRANCH  13  14
ENDBRANCH  12  13
ENDBRANCH  11  12
ENDBRANCH  10  11
ENDBRANCH   9  10
ENDBRANCH   8   9
ENDBRANCH   7   8
ENDBRANCH   6   7
ENDBRANCH   5   6
ENDBRANCH   4   5
ENDBRANCH   3   4
ENDBRANCH   2   3
ENDBRANCH   1   2
BRANCH   1  17
ATOM     17  C   UNL     1      57.333  28.808  74.966  1.00  0.00     0.000 C 
BRANCH  17  18
ATOM     18  C   UNL     1      56.581  30.151  74.933  1.00  0.00     0.000 C 
BRANCH  18  19
ATOM     19  C   UNL     1      56.063  30.482  73.523  1.00  0.00     0.000 C 
BRANCH  19  20
ATOM     20  C   UNL     1      56.066  31.994  73.243  1.00  0.00     0.000 C 
BRANCH  20  21
ATOM     21  C   UNL     1      57.195  32.409  72.284  1.00  0.00     0.000 C 
BRANCH  21  22
ATOM     22  C   UNL     1      58.486  32.781  73.035  1.00  0.00    -0.000 C 
BRANCH  22  23
ATOM     23  C   UNL     1      58.741  34.297  73.054  1.00  0.00    -0.000 C 
BRANCH  23  24
ATOM     24  C   UNL     1      59.723  34.713  74.163  1.00  0.00    -0.000 C 
BRANCH  24  25
ATOM     25  C   UNL     1      59.232  35.934  74.957  1.00  0.00    -0.000 C 
BRANCH  25  26
ATOM     26  C   UNL     1      57.711  36.145  74.842  1.00  0.00    -0.000 C 
BRANCH  26  27
ATOM     27  C   UNL     1      57.352  37.581  74.405  1.00  0.00    -0.000 C 
BRANCH  27  28
ATOM     28  C   UNL     1      55.867  37.759  74.026  1.00  0.00    -0.000 C 
BRANCH  28  29
ATOM     29  C   UNL     1      55.226  36.540  73.343  1.00  0.00    -0.003 C 
ATOM     30  C   UNL     1      55.687  36.359  71.897  1.00  0.00     0.004 C 
ENDBRANCH  28  29
ENDBRANCH  27  28
ENDBRANCH  26  27
ENDBRANCH  25  26
ENDBRANCH  24  25
ENDBRANCH  23  24
ENDBRANCH  22  23
ENDBRANCH  21  22
ENDBRANCH  20  21
ENDBRANCH  19  20
ENDBRANCH  18  19
ENDBRANCH  17  18
ENDBRANCH   1  17
TORSDOF 26
ENDMDL
MODEL 6
REMARK VINA RESULT:    -3.928      3.436      6.962
REMARK INTER + INTRA:         -14.836
REMARK INTER:                 -10.528
REMARK INTRA:                  -4.308
REMARK UNBOUND:                -4.936
REMARK SMILES CCCCCCCCCCCCCCCCCCCCCCCCCCCC(=O)[O-]
REMARK SMILES IDX 15 1 16 2 17 3 18 4 19 5 20 6 21 7 22 8 23 9 24 10 25 11
REMARK SMILES IDX 26 12 27 13 28 14 29 15 30 16 14 17 13 18 12 19 11 20 10 21
REMARK SMILES IDX 9 22 8 23 7 24 6 25 5 26 4 27 3 28 2 29 1 30
REMARK H PARENT
REMARK Flexibility Score: inf
ROOT
ATOM      1  C   UNL     1      58.046  37.194  80.534  1.00  0.00     0.000 C 
ENDROOT
BRANCH   1   2
ATOM      2  C   UNL     1      59.004  36.131  79.964  1.00  0.00     0.000 C 
BRANCH   2   3
ATOM      3  C   UNL     1      59.136  34.899  80.886  1.00  0.00     0.000 C 
BRANCH   3   4
ATOM      4  C   UNL     1      58.167  33.751  80.546  1.00  0.00     0.000 C 
BRANCH   4   5
ATOM      5  C   UNL     1      57.666  33.726  79.092  1.00  0.00     0.000 C 
BRANCH   5   6
ATOM      6  C   UNL     1      58.430  32.768  78.157  1.00  0.00     0.000 C 
BRANCH   6   7
ATOM      7  C   UNL     1      57.846  32.693  76.728  1.00  0.00     0.000 C 
BRANCH   7   8
ATOM      8  C   UNL     1      58.901  32.273  75.688  1.00  0.00     0.000 C 
BRANCH   8   9
ATOM      9  C   UNL     1      58.486  31.039  74.869  1.00  0.00     0.000 C 
BRANCH   9  10
ATOM     10  C   UNL     1      57.709  29.965  75.653  1.00  0.00     0.000 C 
BRANCH  10  11
ATOM     11  C   UNL     1      58.349  28.572  75.559  1.00  0.00     0.000 C 
BRANCH  11  12
ATOM     12  C   UNL     1      59.859  28.675  75.312  1.00  0.00     0.006 C 
BRANCH  12  13
ATOM     13  C   UNL     1      60.629  28.714  76.636  1.00  0.00     0.053 C 
BRANCH  13  14
ATOM     14  C   UNL     1      61.078  27.342  77.023  1.00  0.00     0.041 C 
ATOM     15  O   UNL     1      61.301  27.066  78.232  1.00  0.00    -0.550 OA
ATOM     16  O   UNL     1      61.282  26.372  76.047  1.00  0.00    -0.550 OA
ENDBRANCH  13  14
ENDBRANCH  12  13
ENDBRANCH  11  12
ENDBRANCH  10  11
ENDBRANCH   9  10
ENDBRANCH   8   9
ENDBRANCH   7   8
ENDBRANCH   6   7
ENDBRANCH   5   6
ENDBRANCH   4   5
ENDBRANCH   3   4
ENDBRANCH   2   3
ENDBRANCH   1   2
BRANCH   1  17
ATOM     17  C   UNL     1      56.728  37.284  79.750  1.00  0.00     0.000 C 
BRANCH  17  18
ATOM     18  C   UNL     1      56.943  37.554  78.250  1.00  0.00     0.000 C 
BRANCH  18  19
ATOM     19  C   UNL     1      56.127  36.590  77.373  1.00  0.00     0.000 C 
BRANCH  19  20
ATOM     20  C   UNL     1      57.009  35.836  76.362  1.00  0.00     0.000 C 
BRANCH  20  21
ATOM     21  C   UNL     1      58.442  36.393  76.309  1.00  0.00     0.000 C 
BRANCH  21  22
ATOM     22  C   UNL     1      59.094  36.186  74.929  1.00  0.00    -0.000 C 
BRANCH  22  23
ATOM     23  C   UNL     1      58.571  37.176  73.876  1.00  0.00    -0.000 C 
BRANCH  23  24
ATOM     24  C   UNL     1      58.176  38.531  74.489  1.00  0.00    -0.000 C 
BRANCH  24  25
ATOM     25  C   UNL     1      56.665  38.801  74.395  1.00  0.00    -0.000 C 
BRANCH  25  26
ATOM     26  C   UNL     1      56.070  38.387  73.037  1.00  0.00    -0.000 C 
BRANCH  26  27
ATOM     27  C   UNL     1      55.043  37.243  73.172  1.00  0.00    -0.000 C 
BRANCH  27  28
ATOM     28  C   UNL     1      55.469  35.942  72.461  1.00  0.00    -0.000 C 
BRANCH  28  29
ATOM     29  C   UNL     1      55.597  34.717  73.382  1.00  0.00    -0.003 C 
ATOM     30  C   UNL     1      56.764  33.807  72.999  1.00  0.00     0.004 C 
ENDBRANCH  28  29
ENDBRANCH  27  28
ENDBRANCH  26  27
ENDBRANCH  25  26
ENDBRANCH  24  25
ENDBRANCH  23  24
ENDBRANCH  22  23
ENDBRANCH  21  22
ENDBRANCH  20  21
ENDBRANCH  19  20
ENDBRANCH  18  19
ENDBRANCH  17  18
ENDBRANCH   1  17
TORSDOF 26
ENDMDL
MODEL 7
REMARK VINA RESULT:    -3.926      1.158      2.173
REMARK INTER + INTRA:         -14.830
REMARK INTER:                  -9.860
REMARK INTRA:                  -4.970
REMARK UNBOUND:                -4.936
REMARK SMILES CCCCCCCCCCCCCCCCCCCCCCCCCCCC(=O)[O-]
REMARK SMILES IDX 15 1 16 2 17 3 18 4 19 5 20 6 21 7 22 8 23 9 24 10 25 11
REMARK SMILES IDX 26 12 27 13 28 14 29 15 30 16 14 17 13 18 12 19 11 20 10 21
REMARK SMILES IDX 9 22 8 23 7 24 6 25 5 26 4 27 3 28 2 29 1 30
REMARK H PARENT
REMARK Flexibility Score: inf
ROOT
ATOM      1  C   UNL     1      57.779  34.274  77.323  1.00  0.00     0.000 C 
ENDROOT
BRANCH   1   2
ATOM      2  C   UNL     1      57.985  33.171  78.379  1.00  0.00     0.000 C 
BRANCH   2   3
ATOM      3  C   UNL     1      57.878  33.709  79.823  1.00  0.00     0.000 C 
BRANCH   3   4
ATOM      4  C   UNL     1      59.139  34.446  80.315  1.00  0.00     0.000 C 
BRANCH   4   5
ATOM      5  C   UNL     1      58.874  35.727  81.124  1.00  0.00     0.000 C 
BRANCH   5   6
ATOM      6  C   UNL     1      57.814  36.670  80.521  1.00  0.00     0.000 C 
BRANCH   6   7
ATOM      7  C   UNL     1      58.308  37.457  79.286  1.00  0.00     0.000 C 
BRANCH   7   8
ATOM      8  C   UNL     1      57.175  37.739  78.282  1.00  0.00     0.000 C 
BRANCH   8   9
ATOM      9  C   UNL     1      57.645  38.518  77.042  1.00  0.00     0.000 C 
BRANCH   9  10
ATOM     10  C   UNL     1      58.882  37.934  76.333  1.00  0.00     0.000 C 
BRANCH  10  11
ATOM     11  C   UNL     1      58.885  38.196  74.819  1.00  0.00     0.000 C 
BRANCH  11  12
ATOM     12  C   UNL     1      58.180  37.063  74.063  1.00  0.00     0.006 C 
BRANCH  12  13
ATOM     13  C   UNL     1      57.051  37.609  73.184  1.00  0.00     0.053 C 
BRANCH  13  14
ATOM     14  C   UNL     1      55.734  37.046  73.611  1.00  0.00     0.041 C 
ATOM     15  O   UNL     1      55.171  36.156  72.918  1.00  0.00    -0.550 OA
ATOM     16  O   UNL     1      55.108  37.524  74.756  1.00  0.00    -0.550 OA
ENDBRANCH  13  14
ENDBRANCH  12  13
ENDBRANCH  11  12
ENDBRANCH  10  11
ENDBRANCH   9  10
ENDBRANCH   8   9
ENDBRANCH   7   8
ENDBRANCH   6   7
ENDBRANCH   5   6
ENDBRANCH   4   5
ENDBRANCH   3   4
ENDBRANCH   2   3
ENDBRANCH   1   2
BRANCH   1  17
ATOM     17  C   UNL     1      58.236  33.843  75.921  1.00  0.00     0.000 C 
BRANCH  17  18
ATOM     18  C   UNL     1      57.076  33.773  74.911  1.00  0.00     0.000 C 
BRANCH  18  19
ATOM     19  C   UNL     1      57.420  32.880  73.707  1.00  0.00     0.000 C 
BRANCH  19  20
ATOM     20  C   UNL     1      57.717  33.703  72.441  1.00  0.00     0.000 C 
BRANCH  20  21
ATOM     21  C   UNL     1      59.150  33.485  71.926  1.00  0.00     0.000 C 
BRANCH  21  22
ATOM     22  C   UNL     1      60.194  34.214  72.791  1.00  0.00    -0.000 C 
BRANCH  22  23
ATOM     23  C   UNL     1      61.407  33.331  73.122  1.00  0.00    -0.000 C 
BRANCH  23  24
ATOM     24  C   UNL     1      61.023  31.852  73.308  1.00  0.00    -0.000 C 
BRANCH  24  25
ATOM     25  C   UNL     1      60.734  31.499  74.776  1.00  0.00    -0.000 C 
BRANCH  25  26
ATOM     26  C   UNL     1      59.754  30.321  74.922  1.00  0.00    -0.000 C 
BRANCH  26  27
ATOM     27  C   UNL     1      59.053  30.310  76.297  1.00  0.00    -0.000 C 
BRANCH  27  28
ATOM     28  C   UNL     1      57.526  30.111  76.211  1.00  0.00    -0.000 C 
BRANCH  28  29
ATOM     29  C   UNL     1      57.069  29.078  75.168  1.00  0.00    -0.003 C 
ATOM     30  C   UNL     1      55.909  29.578  74.307  1.00  0.00     0.004 C 
ENDBRANCH  28  29
ENDBRANCH  27  28
ENDBRANCH  26  27
ENDBRANCH  25  26
ENDBRANCH  24  25
ENDBRANCH  23  24
ENDBRANCH  22  23
ENDBRANCH  21  22
ENDBRANCH  20  21
ENDBRANCH  19  20
ENDBRANCH  18  19
ENDBRANCH  17  18
ENDBRANCH   1  17
TORSDOF 26
ENDMDL
MODEL 8
REMARK VINA RESULT:    -3.888      1.813      5.987
REMARK INTER + INTRA:         -14.733
REMARK INTER:                 -10.075
REMARK INTRA:                  -4.658
REMARK UNBOUND:                -4.936
REMARK SMILES CCCCCCCCCCCCCCCCCCCCCCCCCCCC(=O)[O-]
REMARK SMILES IDX 15 1 16 2 17 3 18 4 19 5 20 6 21 7 22 8 23 9 24 10 25 11
REMARK SMILES IDX 26 12 27 13 28 14 29 15 30 16 14 17 13 18 12 19 11 20 10 21
REMARK SMILES IDX 9 22 8 23 7 24 6 25 5 26 4 27 3 28 2 29 1 30
REMARK H PARENT
REMARK Flexibility Score: inf
ROOT
ATOM      1  C   UNL     1      57.131  35.955  77.106  1.00  0.00     0.000 C 
ENDROOT
BRANCH   1   2
ATOM      2  C   UNL     1      56.129  37.029  77.569  1.00  0.00     0.000 C 
BRANCH   2   3
ATOM      3  C   UNL     1      56.605  37.774  78.835  1.00  0.00     0.000 C 
BRANCH   3   4
ATOM      4  C   UNL     1      56.797  36.866  80.065  1.00  0.00     0.000 C 
BRANCH   4   5
ATOM      5  C   UNL     1      58.168  36.979  80.754  1.00  0.00     0.000 C 
BRANCH   5   6
ATOM      6  C   UNL     1      58.976  35.668  80.815  1.00  0.00     0.000 C 
BRANCH   6   7
ATOM      7  C   UNL     1      58.174  34.419  80.381  1.00  0.00     0.000 C 
BRANCH   7   8
ATOM      8  C   UNL     1      58.887  33.625  79.271  1.00  0.00     0.000 C 
BRANCH   8   9
ATOM      9  C   UNL     1      57.938  32.718  78.470  1.00  0.00     0.000 C 
BRANCH   9  10
ATOM     10  C   UNL     1      58.224  32.646  76.958  1.00  0.00     0.000 C 
BRANCH  10  11
ATOM     11  C   UNL     1      57.960  31.256  76.362  1.00  0.00     0.000 C 
BRANCH  11  12
ATOM     12  C   UNL     1      58.292  31.225  74.865  1.00  0.00     0.006 C 
BRANCH  12  13
ATOM     13  C   UNL     1      57.782  32.489  74.165  1.00  0.00     0.053 C 
BRANCH  13  14
ATOM     14  C   UNL     1      56.959  32.130  72.969  1.00  0.00     0.041 C 
ATOM     15  O   UNL     1      56.045  31.269  73.066  1.00  0.00    -0.550 OA
ATOM     16  O   UNL     1      57.220  32.721  71.739  1.00  0.00    -0.550 OA
ENDBRANCH  13  14
ENDBRANCH  12  13
ENDBRANCH  11  12
ENDBRANCH  10  11
ENDBRANCH   9  10
ENDBRANCH   8   9
ENDBRANCH   7   8
ENDBRANCH   6   7
ENDBRANCH   5   6
ENDBRANCH   4   5
ENDBRANCH   3   4
ENDBRANCH   2   3
ENDBRANCH   1   2
BRANCH   1  17
ATOM     17  C   UNL     1      58.336  36.552  76.362  1.00  0.00     0.000 C 
BRANCH  17  18
ATOM     18  C   UNL     1      59.575  36.708  77.261  1.00  0.00     0.000 C 
BRANCH  18  19
ATOM     19  C   UNL     1      59.914  38.187  77.516  1.00  0.00     0.000 C 
BRANCH  19  20
ATOM     20  C   UNL     1      60.343  38.914  76.229  1.00  0.00     0.000 C 
BRANCH  20  21
ATOM     21  C   UNL     1      59.659  40.283  76.077  1.00  0.00     0.000 C 
BRANCH  21  22
ATOM     22  C   UNL     1      58.126  40.180  76.184  1.00  0.00    -0.000 C 
BRANCH  22  23
ATOM     23  C   UNL     1      57.422  40.458  74.846  1.00  0.00    -0.000 C 
BRANCH  23  24
ATOM     24  C   UNL     1      56.925  39.171  74.166  1.00  0.00    -0.000 C 
BRANCH  24  25
ATOM     25  C   UNL     1      55.665  39.402  73.316  1.00  0.00    -0.000 C 
BRANCH  25  26
ATOM     26  C   UNL     1      54.730  38.179  73.294  1.00  0.00    -0.000 C 
BRANCH  26  27
ATOM     27  C   UNL     1      55.264  37.019  74.161  1.00  0.00    -0.000 C 
BRANCH  27  28
ATOM     28  C   UNL     1      55.899  35.877  73.342  1.00  0.00    -0.000 C 
BRANCH  28  29
ATOM     29  C   UNL     1      55.907  36.102  71.821  1.00  0.00    -0.003 C 
ATOM     30  C   UNL     1      57.316  36.268  71.252  1.00  0.00     0.004 C 
ENDBRANCH  28  29
ENDBRANCH  27  28
ENDBRANCH  26  27
ENDBRANCH  25  26
ENDBRANCH  24  25
ENDBRANCH  23  24
ENDBRANCH  22  23
ENDBRANCH  21  22
ENDBRANCH  20  21
ENDBRANCH  19  20
ENDBRANCH  18  19
ENDBRANCH  17  18
ENDBRANCH   1  17
TORSDOF 26
ENDMDL
MODEL 9
REMARK VINA RESULT:    -3.852      1.648      6.829
REMARK INTER + INTRA:         -14.642
REMARK INTER:                  -9.803
REMARK INTRA:                  -4.839
REMARK UNBOUND:                -4.936
REMARK SMILES CCCCCCCCCCCCCCCCCCCCCCCCCCCC(=O)[O-]
REMARK SMILES IDX 15 1 16 2 17 3 18 4 19 5 20 6 21 7 22 8 23 9 24 10 25 11
REMARK SMILES IDX 26 12 27 13 28 14 29 15 30 16 14 17 13 18 12 19 11 20 10 21
REMARK SMILES IDX 9 22 8 23 7 24 6 25 5 26 4 27 3 28 2 29 1 30
REMARK H PARENT
REMARK Flexibility Score: inf
ROOT
ATOM      1  C   UNL     1      58.309  33.128  75.993  1.00  0.00     0.000 C 
ENDROOT
BRANCH   1   2
ATOM      2  C   UNL     1      57.294  32.828  74.874  1.00  0.00     0.000 C 
BRANCH   2   3
ATOM      3  C   UNL     1      57.391  31.375  74.362  1.00  0.00     0.000 C 
BRANCH   3   4
ATOM      4  C   UNL     1      57.263  30.308  75.467  1.00  0.00     0.000 C 
BRANCH   4   5
ATOM      5  C   UNL     1      57.865  28.935  75.123  1.00  0.00     0.000 C 
BRANCH   5   6
ATOM      6  C   UNL     1      59.304  28.710  75.629  1.00  0.00     0.000 C 
BRANCH   6   7
ATOM      7  C   UNL     1      59.869  29.890  76.452  1.00  0.00     0.000 C 
BRANCH   7   8
ATOM      8  C   UNL     1      61.246  30.352  75.941  1.00  0.00     0.000 C 
BRANCH   8   9
ATOM      9  C   UNL     1      61.409  30.203  74.419  1.00  0.00     0.000 C 
BRANCH   9  10
ATOM     10  C   UNL     1      61.900  31.467  73.688  1.00  0.00     0.000 C 
BRANCH  10  11
ATOM     11  C   UNL     1      60.843  32.580  73.636  1.00  0.00     0.000 C 
BRANCH  11  12
ATOM     12  C   UNL     1      60.322  32.779  72.208  1.00  0.00     0.006 C 
BRANCH  12  13
ATOM     13  C   UNL     1      59.472  34.049  72.106  1.00  0.00     0.053 C 
BRANCH  13  14
ATOM     14  C   UNL     1      58.166  33.755  71.440  1.00  0.00     0.041 C 
ATOM     15  O   UNL     1      57.171  34.503  71.639  1.00  0.00    -0.550 OA
ATOM     16  O   UNL     1      58.034  32.638  70.624  1.00  0.00    -0.550 OA
ENDBRANCH  13  14
ENDBRANCH  12  13
ENDBRANCH  11  12
ENDBRANCH  10  11
ENDBRANCH   9  10
ENDBRANCH   8   9
ENDBRANCH   7   8
ENDBRANCH   6   7
ENDBRANCH   5   6
ENDBRANCH   4   5
ENDBRANCH   3   4
ENDBRANCH   2   3
ENDBRANCH   1   2
BRANCH   1  17
ATOM     17  C   UNL     1      57.632  33.465  77.331  1.00  0.00     0.000 C 
BRANCH  17  18
ATOM     18  C   UNL     1      58.518  33.140  78.546  1.00  0.00     0.000 C 
BRANCH  18  19
ATOM     19  C   UNL     1      57.837  33.524  79.870  1.00  0.00     0.000 C 
BRANCH  19  20
ATOM     20  C   UNL     1      58.742  34.394  80.759  1.00  0.00     0.000 C 
BRANCH  20  21
ATOM     21  C   UNL     1      59.108  35.730  80.090  1.00  0.00     0.000 C 
BRANCH  21  22
ATOM     22  C   UNL     1      57.888  36.656  79.940  1.00  0.00    -0.000 C 
BRANCH  22  23
ATOM     23  C   UNL     1      58.192  37.900  79.089  1.00  0.00    -0.000 C 
BRANCH  23  24
ATOM     24  C   UNL     1      57.246  38.032  77.883  1.00  0.00    -0.000 C 
BRANCH  24  25
ATOM     25  C   UNL     1      56.323  36.813  77.723  1.00  0.00    -0.000 C 
BRANCH  25  26
ATOM     26  C   UNL     1      56.084  36.437  76.249  1.00  0.00    -0.000 C 
BRANCH  26  27
ATOM     27  C   UNL     1      56.937  37.287  75.283  1.00  0.00    -0.000 C 
BRANCH  27  28
ATOM     28  C   UNL     1      58.040  36.484  74.563  1.00  0.00    -0.000 C 
BRANCH  28  29
ATOM     29  C   UNL     1      59.391  36.445  75.298  1.00  0.00    -0.003 C 
ATOM     30  C   UNL     1      60.448  37.334  74.644  1.00  0.00     0.004 C 
ENDBRANCH  28  29
ENDBRANCH  27  28
ENDBRANCH  26  27
ENDBRANCH  25  26
ENDBRANCH  24  25
ENDBRANCH  23  24
ENDBRANCH  22  23
ENDBRANCH  21  22
ENDBRANCH  20  21
ENDBRANCH  19  20
ENDBRANCH  18  19
ENDBRANCH  17  18
ENDBRANCH   1  17
TORSDOF 26
ENDMDL
