MODEL 1
REMARK VINA RESULT:    -5.334      0.000      0.000
REMARK INTER + INTRA:         -11.350
REMARK INTER:                 -10.012
REMARK INTRA:                  -1.338
REMARK UNBOUND:                -1.338
REMARK SMILES O=C([O-])CCCCCCCCCCCCCCC(=O)[O-]
REMARK SMILES IDX 10 1 9 2 8 3 7 4 6 5 5 6 4 7 2 8 1 9 3 10 11 11 12 12 13 13
REMARK SMILES IDX 14 14 15 15 16 16 17 17 18 18 19 19 20 20
REMARK H PARENT
REMARK Flexibility Score: inf
ROOT
ATOM      1  C   UNL     1      12.571  24.032  -8.266  1.00  0.00     0.000 C 
ENDROOT
BRANCH   1   2
ATOM      2  C   UNL     1      11.582  24.173  -9.435  1.00  0.00     0.000 C 
BRANCH   2   3
ATOM      3  C   UNL     1      10.930  22.834  -9.827  1.00  0.00     0.000 C 
BRANCH   3   4
ATOM      4  C   UNL     1       9.388  22.830  -9.813  1.00  0.00     0.000 C 
BRANCH   4   5
ATOM      5  C   UNL     1       8.745  23.008  -8.425  1.00  0.00     0.000 C 
BRANCH   5   6
ATOM      6  C   UNL     1       7.701  24.132  -8.391  1.00  0.00     0.006 C 
BRANCH   6   7
ATOM      7  C   UNL     1       6.519  23.754  -7.493  1.00  0.00     0.053 C 
BRANCH   7   8
ATOM      8  C   UNL     1       6.797  24.134  -6.073  1.00  0.00     0.041 C 
ATOM      9  O   UNL     1       6.535  25.296  -5.665  1.00  0.00    -0.550 OA
ATOM     10  O   UNL     1       7.299  23.189  -5.186  1.00  0.00    -0.550 OA
ENDBRANCH   7   8
ENDBRANCH   6   7
ENDBRANCH   5   6
ENDBRANCH   4   5
ENDBRANCH   3   4
ENDBRANCH   2   3
ENDBRANCH   1   2
BRANCH   1  11
ATOM     11  C   UNL     1      12.340  22.753  -7.447  1.00  0.00     0.000 C 
BRANCH  11  12
ATOM     12  C   UNL     1      13.473  22.485  -6.444  1.00  0.00     0.000 C 
BRANCH  12  13
ATOM     13  C   UNL     1      14.845  22.745  -7.084  1.00  0.00     0.000 C 
BRANCH  13  14
ATOM     14  C   UNL     1      15.863  23.321  -6.085  1.00  0.00     0.000 C 
BRANCH  14  15
ATOM     15  C   UNL     1      15.396  24.651  -5.467  1.00  0.00     0.000 C 
BRANCH  15  16
ATOM     16  C   UNL     1      15.619  24.705  -3.948  1.00  0.00     0.006 C 
BRANCH  16  17
ATOM     17  C   UNL     1      15.174  23.419  -3.240  1.00  0.00     0.053 C 
BRANCH  17  18
ATOM     18  C   UNL     1      13.779  23.567  -2.717  1.00  0.00     0.041 C 
ATOM     19  O   UNL     1      12.910  22.693  -2.973  1.00  0.00    -0.550 OA
ATOM     20  O   UNL     1      13.452  24.647  -1.907  1.00  0.00    -0.550 OA
ENDBRANCH  17  18
ENDBRANCH  16  17
ENDBRANCH  15  16
ENDBRANCH  14  15
ENDBRANCH  13  14
ENDBRANCH  12  13
ENDBRANCH  11  12
ENDBRANCH   1  11
TORSDOF 15
ENDMDL
MODEL 2
REMARK VINA RESULT:    -5.316      1.044      7.173
REMARK INTER + INTRA:         -11.316
REMARK INTER:                 -10.198
REMARK INTRA:                  -1.117
REMARK UNBOUND:                -1.338
REMARK SMILES O=C([O-])CCCCCCCCCCCCCCC(=O)[O-]
REMARK SMILES IDX 10 1 9 2 8 3 7 4 6 5 5 6 4 7 2 8 1 9 3 10 11 11 12 12 13 13
REMARK SMILES IDX 14 14 15 15 16 16 17 17 18 18 19 19 20 20
REMARK H PARENT
REMARK Flexibility Score: inf
ROOT
ATOM      1  C   UNL     1      11.749  24.248  -9.298  1.00  0.00     0.000 C 
ENDROOT
BRANCH   1   2
ATOM      2  C   UNL     1      12.849  24.352  -8.227  1.00  0.00     0.000 C 
BRANCH   2   3
ATOM      3  C   UNL     1      13.008  23.058  -7.410  1.00  0.00     0.000 C 
BRANCH   3   4
ATOM      4  C   UNL     1      14.465  22.651  -7.109  1.00  0.00     0.000 C 
BRANCH   4   5
ATOM      5  C   UNL     1      15.441  23.821  -6.894  1.00  0.00     0.000 C 
BRANCH   5   6
ATOM      6  C   UNL     1      15.473  24.311  -5.440  1.00  0.00     0.006 C 
BRANCH   6   7
ATOM      7  C   UNL     1      15.303  23.142  -4.464  1.00  0.00     0.053 C 
BRANCH   7   8
ATOM      8  C   UNL     1      14.296  23.481  -3.411  1.00  0.00     0.041 C 
ATOM      9  O   UNL     1      14.434  24.521  -2.714  1.00  0.00    -0.550 OA
ATOM     10  O   UNL     1      13.177  22.676  -3.233  1.00  0.00    -0.550 OA
ENDBRANCH   7   8
ENDBRANCH   6   7
ENDBRANCH   5   6
ENDBRANCH   4   5
ENDBRANCH   3   4
ENDBRANCH   2   3
ENDBRANCH   1   2
BRANCH   1  11
ATOM     11  C   UNL     1      11.035  22.888  -9.279  1.00  0.00     0.000 C 
BRANCH  11  12
ATOM     12  C   UNL     1       9.762  22.881 -10.141  1.00  0.00     0.000 C 
BRANCH  12  13
ATOM     13  C   UNL     1       8.582  22.271  -9.370  1.00  0.00     0.000 C 
BRANCH  13  14
ATOM     14  C   UNL     1       7.220  22.674  -9.959  1.00  0.00     0.000 C 
BRANCH  14  15
ATOM     15  C   UNL     1       6.384  23.527  -8.988  1.00  0.00     0.000 C 
BRANCH  15  16
ATOM     16  C   UNL     1       7.236  24.546  -8.216  1.00  0.00     0.006 C 
BRANCH  16  17
ATOM     17  C   UNL     1       6.797  24.695  -6.753  1.00  0.00     0.053 C 
BRANCH  17  18
ATOM     18  C   UNL     1       6.813  23.365  -6.066  1.00  0.00     0.041 C 
ATOM     19  O   UNL     1       5.739  22.849  -5.658  1.00  0.00    -0.550 OA
ATOM     20  O   UNL     1       8.009  22.674  -5.919  1.00  0.00    -0.550 OA
ENDBRANCH  17  18
ENDBRANCH  16  17
ENDBRANCH  15  16
ENDBRANCH  14  15
ENDBRANCH  13  14
ENDBRANCH  12  13
ENDBRANCH  11  12
ENDBRANCH   1  11
TORSDOF 15
ENDMDL
MODEL 3
REMARK VINA RESULT:    -5.267      1.777      2.349
REMARK INTER + INTRA:         -11.224
REMARK INTER:                 -10.075
REMARK INTRA:                  -1.149
REMARK UNBOUND:                -1.338
REMARK SMILES O=C([O-])CCCCCCCCCCCCCCC(=O)[O-]
REMARK SMILES IDX 10 1 9 2 8 3 7 4 6 5 5 6 4 7 2 8 1 9 3 10 11 11 12 12 13 13
REMARK SMILES IDX 14 14 15 15 16 16 17 17 18 18 19 19 20 20
REMARK H PARENT
REMARK Flexibility Score: inf
ROOT
ATOM      1  C   UNL     1      11.758  24.378  -9.594  1.00  0.00     0.000 C 
ENDROOT
BRANCH   1   2
ATOM      2  C   UNL     1      10.935  23.345 -10.383  1.00  0.00     0.000 C 
BRANCH   2   3
ATOM      3  C   UNL     1      10.122  22.410  -9.471  1.00  0.00     0.000 C 
BRANCH   3   4
ATOM      4  C   UNL     1       8.606  22.693  -9.431  1.00  0.00     0.000 C 
BRANCH   4   5
ATOM      5  C   UNL     1       8.185  23.879  -8.544  1.00  0.00     0.000 C 
BRANCH   5   6
ATOM      6  C   UNL     1       6.663  24.072  -8.491  1.00  0.00     0.006 C 
BRANCH   6   7
ATOM      7  C   UNL     1       6.070  23.402  -7.247  1.00  0.00     0.053 C 
BRANCH   7   8
ATOM      8  C   UNL     1       6.690  23.959  -6.005  1.00  0.00     0.041 C 
ATOM      9  O   UNL     1       7.325  23.205  -5.221  1.00  0.00    -0.550 OA
ATOM     10  O   UNL     1       6.611  25.321  -5.738  1.00  0.00    -0.550 OA
ENDBRANCH   7   8
ENDBRANCH   6   7
ENDBRANCH   5   6
ENDBRANCH   4   5
ENDBRANCH   3   4
ENDBRANCH   2   3
ENDBRANCH   1   2
BRANCH   1  11
ATOM     11  C   UNL     1      12.222  23.844  -8.229  1.00  0.00     0.000 C 
BRANCH  11  12
ATOM     12  C   UNL     1      13.628  24.337  -7.852  1.00  0.00     0.000 C 
BRANCH  12  13
ATOM     13  C   UNL     1      14.434  23.221  -7.168  1.00  0.00     0.000 C 
BRANCH  13  14
ATOM     14  C   UNL     1      13.586  22.397  -6.186  1.00  0.00     0.000 C 
BRANCH  14  15
ATOM     15  C   UNL     1      13.916  22.710  -4.715  1.00  0.00     0.000 C 
BRANCH  15  16
ATOM     16  C   UNL     1      15.284  23.392  -4.550  1.00  0.00     0.006 C 
BRANCH  16  17
ATOM     17  C   UNL     1      15.197  24.703  -3.759  1.00  0.00     0.053 C 
BRANCH  17  18
ATOM     18  C   UNL     1      16.141  25.717  -4.326  1.00  0.00     0.041 C 
ATOM     19  O   UNL     1      16.761  26.503  -3.562  1.00  0.00    -0.550 OA
ATOM     20  O   UNL     1      16.372  25.762  -5.694  1.00  0.00    -0.550 OA
ENDBRANCH  17  18
ENDBRANCH  16  17
ENDBRANCH  15  16
ENDBRANCH  14  15
ENDBRANCH  13  14
ENDBRANCH  12  13
ENDBRANCH  11  12
ENDBRANCH   1  11
TORSDOF 15
ENDMDL
MODEL 4
REMARK VINA RESULT:    -5.253      1.681      6.568
REMARK INTER + INTRA:         -11.198
REMARK INTER:                  -9.985
REMARK INTRA:                  -1.213
REMARK UNBOUND:                -1.338
REMARK SMILES O=C([O-])CCCCCCCCCCCCCCC(=O)[O-]
REMARK SMILES IDX 10 1 9 2 8 3 7 4 6 5 5 6 4 7 2 8 1 9 3 10 11 11 12 12 13 13
REMARK SMILES IDX 14 14 15 15 16 16 17 17 18 18 19 19 20 20
REMARK H PARENT
REMARK Flexibility Score: inf
ROOT
ATOM      1  C   UNL     1      11.762  24.411  -9.754  1.00  0.00     0.000 C 
ENDROOT
BRANCH   1   2
ATOM      2  C   UNL     1      11.997  24.210  -8.247  1.00  0.00     0.000 C 
BRANCH   2   3
ATOM      3  C   UNL     1      13.488  24.243  -7.867  1.00  0.00     0.000 C 
BRANCH   3   4
ATOM      4  C   UNL     1      14.059  22.906  -7.350  1.00  0.00     0.000 C 
BRANCH   4   5
ATOM      5  C   UNL     1      13.444  22.397  -6.034  1.00  0.00     0.000 C 
BRANCH   5   6
ATOM      6  C   UNL     1      14.179  22.919  -4.791  1.00  0.00     0.006 C 
BRANCH   6   7
ATOM      7  C   UNL     1      13.349  22.683  -3.525  1.00  0.00     0.053 C 
BRANCH   7   8
ATOM      8  C   UNL     1      13.865  23.521  -2.398  1.00  0.00     0.041 C 
ATOM      9  O   UNL     1      14.738  24.403  -2.611  1.00  0.00    -0.550 OA
ATOM     10  O   UNL     1      13.345  23.362  -1.119  1.00  0.00    -0.550 OA
ENDBRANCH   7   8
ENDBRANCH   6   7
ENDBRANCH   5   6
ENDBRANCH   4   5
ENDBRANCH   3   4
ENDBRANCH   2   3
ENDBRANCH   1   2
BRANCH   1  11
ATOM     11  C   UNL     1      10.910  23.291 -10.373  1.00  0.00     0.000 C 
BRANCH  11  12
ATOM     12  C   UNL     1      10.223  22.421  -9.310  1.00  0.00     0.000 C 
BRANCH  12  13
ATOM     13  C   UNL     1       8.694  22.546  -9.404  1.00  0.00     0.000 C 
BRANCH  13  14
ATOM     14  C   UNL     1       8.169  23.844  -8.768  1.00  0.00     0.000 C 
BRANCH  14  15
ATOM     15  C   UNL     1       6.940  23.607  -7.871  1.00  0.00     0.000 C 
BRANCH  15  16
ATOM     16  C   UNL     1       7.221  23.918  -6.393  1.00  0.00     0.006 C 
BRANCH  16  17
ATOM     17  C   UNL     1       6.880  22.742  -5.468  1.00  0.00     0.053 C 
BRANCH  17  18
ATOM     18  C   UNL     1       8.131  22.052  -5.020  1.00  0.00     0.041 C 
ATOM     19  O   UNL     1       8.271  21.712  -3.816  1.00  0.00    -0.550 OA
ATOM     20  O   UNL     1       9.121  21.741  -5.943  1.00  0.00    -0.550 OA
ENDBRANCH  17  18
ENDBRANCH  16  17
ENDBRANCH  15  16
ENDBRANCH  14  15
ENDBRANCH  13  14
ENDBRANCH  12  13
ENDBRANCH  11  12
ENDBRANCH   1  11
TORSDOF 15
ENDMDL
MODEL 5
REMARK VINA RESULT:    -5.252      2.153      7.537
REMARK INTER + INTRA:         -11.195
REMARK INTER:                  -9.781
REMARK INTRA:                  -1.414
REMARK UNBOUND:                -1.338
REMARK SMILES O=C([O-])CCCCCCCCCCCCCCC(=O)[O-]
REMARK SMILES IDX 10 1 9 2 8 3 7 4 6 5 5 6 4 7 2 8 1 9 3 10 11 11 12 12 13 13
REMARK SMILES IDX 14 14 15 15 16 16 17 17 18 18 19 19 20 20
REMARK H PARENT
REMARK Flexibility Score: inf
ROOT
ATOM      1  C   UNL     1       9.891  23.124  -8.378  1.00  0.00     0.000 C 
ENDROOT
BRANCH   1   2
ATOM      2  C   UNL     1       9.579  21.967  -7.416  1.00  0.00     0.000 C 
BRANCH   2   3
ATOM      3  C   UNL     1      10.701  20.914  -7.366  1.00  0.00     0.000 C 
BRANCH   3   4
ATOM      4  C   UNL     1      12.075  21.401  -7.868  1.00  0.00     0.000 C 
BRANCH   4   5
ATOM      5  C   UNL     1      12.932  22.137  -6.822  1.00  0.00     0.000 C 
BRANCH   5   6
ATOM      6  C   UNL     1      13.536  23.443  -7.358  1.00  0.00     0.006 C 
BRANCH   6   7
ATOM      7  C   UNL     1      15.038  23.512  -7.064  1.00  0.00     0.053 C 
BRANCH   7   8
ATOM      8  C   UNL     1      15.366  24.757  -6.303  1.00  0.00     0.041 C 
ATOM      9  O   UNL     1      14.790  25.841  -6.583  1.00  0.00    -0.550 OA
ATOM     10  O   UNL     1      16.272  24.711  -5.250  1.00  0.00    -0.550 OA
ENDBRANCH   7   8
ENDBRANCH   6   7
ENDBRANCH   5   6
ENDBRANCH   4   5
ENDBRANCH   3   4
ENDBRANCH   2   3
ENDBRANCH   1   2
BRANCH   1  11
ATOM     11  C   UNL     1       9.312  22.896  -9.783  1.00  0.00     0.000 C 
BRANCH  11  12
ATOM     12  C   UNL     1       8.036  22.041  -9.761  1.00  0.00     0.000 C 
BRANCH  12  13
ATOM     13  C   UNL     1       6.933  22.680 -10.620  1.00  0.00     0.000 C 
BRANCH  13  14
ATOM     14  C   UNL     1       6.023  23.618  -9.810  1.00  0.00     0.000 C 
BRANCH  14  15
ATOM     15  C   UNL     1       5.050  22.852  -8.895  1.00  0.00     0.000 C 
BRANCH  15  16
ATOM     16  C   UNL     1       5.283  23.151  -7.405  1.00  0.00     0.006 C 
BRANCH  16  17
ATOM     17  C   UNL     1       6.508  24.043  -7.167  1.00  0.00     0.053 C 
BRANCH  17  18
ATOM     18  C   UNL     1       6.750  24.214  -5.700  1.00  0.00     0.041 C 
ATOM     19  O   UNL     1       6.467  25.302  -5.133  1.00  0.00    -0.550 OA
ATOM     20  O   UNL     1       7.245  23.155  -4.949  1.00  0.00    -0.550 OA
ENDBRANCH  17  18
ENDBRANCH  16  17
ENDBRANCH  15  16
ENDBRANCH  14  15
ENDBRANCH  13  14
ENDBRANCH  12  13
ENDBRANCH  11  12
ENDBRANCH   1  11
TORSDOF 15
ENDMDL
MODEL 6
REMARK VINA RESULT:    -5.244      3.356      5.198
REMARK INTER + INTRA:         -11.180
REMARK INTER:                  -9.633
REMARK INTRA:                  -1.548
REMARK UNBOUND:                -1.338
REMARK SMILES O=C([O-])CCCCCCCCCCCCCCC(=O)[O-]
REMARK SMILES IDX 10 1 9 2 8 3 7 4 6 5 5 6 4 7 2 8 1 9 3 10 11 11 12 12 13 13
REMARK SMILES IDX 14 14 15 15 16 16 17 17 18 18 19 19 20 20
REMARK H PARENT
REMARK Flexibility Score: inf
ROOT
ATOM      1  C   UNL     1      12.882  24.171  -7.976  1.00  0.00     0.000 C 
ENDROOT
BRANCH   1   2
ATOM      2  C   UNL     1      12.054  24.298  -9.265  1.00  0.00     0.000 C 
BRANCH   2   3
ATOM      3  C   UNL     1      10.556  24.025  -9.040  1.00  0.00     0.000 C 
BRANCH   3   4
ATOM      4  C   UNL     1       9.916  23.037 -10.037  1.00  0.00     0.000 C 
BRANCH   4   5
ATOM      5  C   UNL     1       8.732  22.223  -9.483  1.00  0.00     0.000 C 
BRANCH   5   6
ATOM      6  C   UNL     1       7.446  22.408 -10.299  1.00  0.00     0.006 C 
BRANCH   6   7
ATOM      7  C   UNL     1       6.581  23.527  -9.711  1.00  0.00     0.053 C 
BRANCH   7   8
ATOM      8  C   UNL     1       5.129  23.214  -9.888  1.00  0.00     0.041 C 
ATOM      9  O   UNL     1       4.639  22.170  -9.381  1.00  0.00    -0.550 OA
ATOM     10  O   UNL     1       4.304  24.100 -10.572  1.00  0.00    -0.550 OA
ENDBRANCH   7   8
ENDBRANCH   6   7
ENDBRANCH   5   6
ENDBRANCH   4   5
ENDBRANCH   3   4
ENDBRANCH   2   3
ENDBRANCH   1   2
BRANCH   1  11
ATOM     11  C   UNL     1      13.167  22.708  -7.600  1.00  0.00     0.000 C 
BRANCH  11  12
ATOM     12  C   UNL     1      12.106  22.128  -6.652  1.00  0.00     0.000 C 
BRANCH  12  13
ATOM     13  C   UNL     1      11.380  20.941  -7.304  1.00  0.00     0.000 C 
BRANCH  13  14
ATOM     14  C   UNL     1       9.917  20.822  -6.846  1.00  0.00     0.000 C 
BRANCH  14  15
ATOM     15  C   UNL     1       9.592  21.746  -5.659  1.00  0.00     0.000 C 
BRANCH  15  16
ATOM     16  C   UNL     1       8.094  22.076  -5.562  1.00  0.00     0.006 C 
BRANCH  16  17
ATOM     17  C   UNL     1       7.702  23.294  -6.408  1.00  0.00     0.053 C 
BRANCH  17  18
ATOM     18  C   UNL     1       6.416  23.879  -5.914  1.00  0.00     0.041 C 
ATOM     19  O   UNL     1       6.391  25.044  -5.437  1.00  0.00    -0.550 OA
ATOM     20  O   UNL     1       5.235  23.156  -6.026  1.00  0.00    -0.550 OA
ENDBRANCH  17  18
ENDBRANCH  16  17
ENDBRANCH  15  16
ENDBRANCH  14  15
ENDBRANCH  13  14
ENDBRANCH  12  13
ENDBRANCH  11  12
ENDBRANCH   1  11
TORSDOF 15
ENDMDL
MODEL 7
REMARK VINA RESULT:    -5.243      4.221      6.036
REMARK INTER + INTRA:         -11.179
REMARK INTER:                 -10.232
REMARK INTRA:                  -0.947
REMARK UNBOUND:                -1.338
REMARK SMILES O=C([O-])CCCCCCCCCCCCCCC(=O)[O-]
REMARK SMILES IDX 10 1 9 2 8 3 7 4 6 5 5 6 4 7 2 8 1 9 3 10 11 11 12 12 13 13
REMARK SMILES IDX 14 14 15 15 16 16 17 17 18 18 19 19 20 20
REMARK H PARENT
REMARK Flexibility Score: inf
ROOT
ATOM      1  C   UNL     1       7.007  22.293 -10.255  1.00  0.00     0.000 C 
ENDROOT
BRANCH   1   2
ATOM      2  C   UNL     1       5.982  23.023  -9.372  1.00  0.00     0.000 C 
BRANCH   2   3
ATOM      3  C   UNL     1       5.096  23.997 -10.169  1.00  0.00     0.000 C 
BRANCH   3   4
ATOM      4  C   UNL     1       4.978  23.688 -11.676  1.00  0.00     0.000 C 
BRANCH   4   5
ATOM      5  C   UNL     1       4.502  24.863 -12.550  1.00  0.00     0.000 C 
BRANCH   5   6
ATOM      6  C   UNL     1       4.339  26.168 -11.757  1.00  0.00     0.006 C 
BRANCH   6   7
ATOM      7  C   UNL     1       4.205  27.367 -12.701  1.00  0.00     0.053 C 
BRANCH   7   8
ATOM      8  C   UNL     1       4.374  28.648 -11.947  1.00  0.00     0.041 C 
ATOM      9  O   UNL     1       3.370  29.240 -11.469  1.00  0.00    -0.550 OA
ATOM     10  O   UNL     1       5.646  29.164 -11.727  1.00  0.00    -0.550 OA
ENDBRANCH   7   8
ENDBRANCH   6   7
ENDBRANCH   5   6
ENDBRANCH   4   5
ENDBRANCH   3   4
ENDBRANCH   2   3
ENDBRANCH   1   2
BRANCH   1  11
ATOM     11  C   UNL     1       8.430  22.346  -9.676  1.00  0.00     0.000 C 
BRANCH  11  12
ATOM     12  C   UNL     1       8.505  23.166  -8.379  1.00  0.00     0.000 C 
BRANCH  12  13
ATOM     13  C   UNL     1       9.338  22.433  -7.315  1.00  0.00     0.000 C 
BRANCH  13  14
ATOM     14  C   UNL     1       9.895  21.092  -7.822  1.00  0.00     0.000 C 
BRANCH  14  15
ATOM     15  C   UNL     1      11.430  21.095  -7.935  1.00  0.00     0.000 C 
BRANCH  15  16
ATOM     16  C   UNL     1      12.086  22.142  -7.021  1.00  0.00     0.006 C 
BRANCH  16  17
ATOM     17  C   UNL     1      13.611  22.194  -7.182  1.00  0.00     0.053 C 
BRANCH  17  18
ATOM     18  C   UNL     1      14.070  23.609  -7.347  1.00  0.00     0.041 C 
ATOM     19  O   UNL     1      15.228  23.945  -6.986  1.00  0.00    -0.550 OA
ATOM     20  O   UNL     1      13.235  24.545  -7.943  1.00  0.00    -0.550 OA
ENDBRANCH  17  18
ENDBRANCH  16  17
ENDBRANCH  15  16
ENDBRANCH  14  15
ENDBRANCH  13  14
ENDBRANCH  12  13
ENDBRANCH  11  12
ENDBRANCH   1  11
TORSDOF 15
ENDMDL
MODEL 8
REMARK VINA RESULT:    -5.229      2.365      4.281
REMARK INTER + INTRA:         -11.152
REMARK INTER:                 -10.279
REMARK INTRA:                  -0.873
REMARK UNBOUND:                -1.338
REMARK SMILES O=C([O-])CCCCCCCCCCCCCCC(=O)[O-]
REMARK SMILES IDX 10 1 9 2 8 3 7 4 6 5 5 6 4 7 2 8 1 9 3 10 11 11 12 12 13 13
REMARK SMILES IDX 14 14 15 15 16 16 17 17 18 18 19 19 20 20
REMARK H PARENT
REMARK Flexibility Score: inf
ROOT
ATOM      1  C   UNL     1       7.751  22.794  -9.455  1.00  0.00     0.000 C 
ENDROOT
BRANCH   1   2
ATOM      2  C   UNL     1       6.823  22.522 -10.652  1.00  0.00     0.000 C 
BRANCH   2   3
ATOM      3  C   UNL     1       5.392  22.154 -10.223  1.00  0.00     0.000 C 
BRANCH   3   4
ATOM      4  C   UNL     1       4.719  23.157  -9.263  1.00  0.00     0.000 C 
BRANCH   4   5
ATOM      5  C   UNL     1       4.012  22.528  -8.049  1.00  0.00     0.000 C 
BRANCH   5   6
ATOM      6  C   UNL     1       4.645  22.938  -6.712  1.00  0.00     0.006 C 
BRANCH   6   7
ATOM      7  C   UNL     1       6.075  23.449  -6.917  1.00  0.00     0.053 C 
BRANCH   7   8
ATOM      8  C   UNL     1       6.662  23.901  -5.618  1.00  0.00     0.041 C 
ATOM      9  O   UNL     1       7.353  23.108  -4.925  1.00  0.00    -0.550 OA
ATOM     10  O   UNL     1       6.488  25.213  -5.195  1.00  0.00    -0.550 OA
ENDBRANCH   7   8
ENDBRANCH   6   7
ENDBRANCH   5   6
ENDBRANCH   4   5
ENDBRANCH   3   4
ENDBRANCH   2   3
ENDBRANCH   1   2
BRANCH   1  11
ATOM     11  C   UNL     1       9.235  22.819  -9.854  1.00  0.00     0.000 C 
BRANCH  11  12
ATOM     12  C   UNL     1      10.154  23.166  -8.672  1.00  0.00     0.000 C 
BRANCH  12  13
ATOM     13  C   UNL     1       9.770  22.358  -7.423  1.00  0.00     0.000 C 
BRANCH  13  14
ATOM     14  C   UNL     1      10.993  21.766  -6.703  1.00  0.00     0.000 C 
BRANCH  14  15
ATOM     15  C   UNL     1      12.288  21.911  -7.522  1.00  0.00     0.000 C 
BRANCH  15  16
ATOM     16  C   UNL     1      13.374  22.699  -6.774  1.00  0.00     0.006 C 
BRANCH  16  17
ATOM     17  C   UNL     1      13.820  23.955  -7.533  1.00  0.00     0.053 C 
BRANCH  17  18
ATOM     18  C   UNL     1      14.972  24.606  -6.833  1.00  0.00     0.041 C 
ATOM     19  O   UNL     1      16.022  23.952  -6.597  1.00  0.00    -0.550 OA
ATOM     20  O   UNL     1      14.904  25.948  -6.482  1.00  0.00    -0.550 OA
ENDBRANCH  17  18
ENDBRANCH  16  17
ENDBRANCH  15  16
ENDBRANCH  14  15
ENDBRANCH  13  14
ENDBRANCH  12  13
ENDBRANCH  11  12
ENDBRANCH   1  11
TORSDOF 15
ENDMDL
MODEL 9
REMARK VINA RESULT:    -5.156      4.034      5.850
REMARK INTER + INTRA:         -11.015
REMARK INTER:                  -9.854
REMARK INTRA:                  -1.161
REMARK UNBOUND:                -1.338
REMARK SMILES O=C([O-])CCCCCCCCCCCCCCC(=O)[O-]
REMARK SMILES IDX 10 1 9 2 8 3 7 4 6 5 5 6 4 7 2 8 1 9 3 10 11 11 12 12 13 13
REMARK SMILES IDX 14 14 15 15 16 16 17 17 18 18 19 19 20 20
REMARK H PARENT
REMARK Flexibility Score: inf
ROOT
ATOM      1  C   UNL     1       7.936  23.278  -8.095  1.00  0.00     0.000 C 
ENDROOT
BRANCH   1   2
ATOM      2  C   UNL     1       6.441  23.636  -8.050  1.00  0.00     0.000 C 
BRANCH   2   3
ATOM      3  C   UNL     1       5.746  23.458  -9.412  1.00  0.00     0.000 C 
BRANCH   3   4
ATOM      4  C   UNL     1       4.513  22.532  -9.399  1.00  0.00     0.000 C 
BRANCH   4   5
ATOM      5  C   UNL     1       3.715  22.521  -8.082  1.00  0.00     0.000 C 
BRANCH   5   6
ATOM      6  C   UNL     1       2.515  21.564  -8.119  1.00  0.00     0.006 C 
BRANCH   6   7
ATOM      7  C   UNL     1       1.336  22.136  -7.326  1.00  0.00     0.053 C 
BRANCH   7   8
ATOM      8  C   UNL     1       0.067  22.007  -8.109  1.00  0.00     0.041 C 
ATOM      9  O   UNL     1      -0.120  21.008  -8.853  1.00  0.00    -0.550 OA
ATOM     10  O   UNL     1      -0.931  22.965  -7.979  1.00  0.00    -0.550 OA
ENDBRANCH   7   8
ENDBRANCH   6   7
ENDBRANCH   5   6
ENDBRANCH   4   5
ENDBRANCH   3   4
ENDBRANCH   2   3
ENDBRANCH   1   2
BRANCH   1  11
ATOM     11  C   UNL     1       8.329  22.543  -9.386  1.00  0.00     0.000 C 
BRANCH  11  12
ATOM     12  C   UNL     1       9.748  22.899  -9.857  1.00  0.00     0.000 C 
BRANCH  12  13
ATOM     13  C   UNL     1      10.390  23.937  -8.924  1.00  0.00     0.000 C 
BRANCH  13  14
ATOM     14  C   UNL     1      11.870  24.192  -9.254  1.00  0.00     0.000 C 
BRANCH  14  15
ATOM     15  C   UNL     1      12.794  23.954  -8.046  1.00  0.00     0.000 C 
BRANCH  15  16
ATOM     16  C   UNL     1      12.309  22.803  -7.151  1.00  0.00     0.006 C 
BRANCH  16  17
ATOM     17  C   UNL     1      12.598  21.423  -7.755  1.00  0.00     0.053 C 
BRANCH  17  18
ATOM     18  C   UNL     1      11.435  20.506  -7.542  1.00  0.00     0.041 C 
ATOM     19  O   UNL     1      11.504  19.300  -7.897  1.00  0.00    -0.550 OA
ATOM     20  O   UNL     1      10.290  20.972  -6.909  1.00  0.00    -0.550 OA
ENDBRANCH  17  18
ENDBRANCH  16  17
ENDBRANCH  15  16
ENDBRANCH  14  15
ENDBRANCH  13  14
ENDBRANCH  12  13
ENDBRANCH  11  12
ENDBRANCH   1  11
TORSDOF 15
ENDMDL
