MODEL 1
REMARK VINA RESULT:    -4.232      0.000      0.000
REMARK INTER + INTRA:          -5.468
REMARK INTER:                  -5.222
REMARK INTRA:                  -0.246
REMARK UNBOUND:                -0.246
REMARK SMILES C=CC[C@@H](C)C(=O)CC
REMARK SMILES IDX 4 1 5 2 6 3 7 4 8 5 9 6 3 7 2 8 1 9
REMARK H PARENT
REMARK Flexibility Score: inf
ROOT
ATOM      1  C   UNL     1      18.724  -9.469  67.646  1.00  0.00     0.057 C 
ATOM      2  C   UNL     1      17.352  -9.930  67.138  1.00  0.00     0.016 C 
ENDROOT
BRANCH   1   3
ATOM      3  C   UNL     1      19.108 -10.219  68.907  1.00  0.00     0.135 C 
ATOM      4  O   UNL     1      19.468  -9.584  69.888  1.00  0.00    -0.299 OA
BRANCH   3   5
ATOM      5  C   UNL     1      19.088 -11.726  68.981  1.00  0.00     0.072 C 
ATOM      6  C   UNL     1      20.492 -12.280  69.199  1.00  0.00     0.012 C 
ENDBRANCH   3   5
ENDBRANCH   1   3
BRANCH   1   7
ATOM      7  C   UNL     1      19.793  -9.607  66.542  1.00  0.00     0.038 C 
BRANCH   7   8
ATOM      8  C   UNL     1      19.192  -9.597  65.161  1.00  0.00    -0.034 C 
ATOM      9  C   UNL     1      19.951  -9.574  64.062  1.00  0.00     0.004 C 
ENDBRANCH   7   8
ENDBRANCH   1   7
TORSDOF 4
ENDMDL
MODEL 2
REMARK VINA RESULT:    -3.907     15.767     17.087
REMARK INTER + INTRA:          -5.066
REMARK INTER:                  -4.584
REMARK INTRA:                  -0.482
REMARK UNBOUND:                -0.246
REMARK SMILES C=CC[C@@H](C)C(=O)CC
REMARK SMILES IDX 4 1 5 2 6 3 7 4 8 5 9 6 3 7 2 8 1 9
REMARK H PARENT
REMARK Flexibility Score: inf
ROOT
ATOM      1  C   UNL     1       5.468  -6.933  57.664  1.00  0.00     0.057 C 
ATOM      2  C   UNL     1       6.101  -8.075  58.467  1.00  0.00     0.016 C 
ENDROOT
BRANCH   1   3
ATOM      3  C   UNL     1       6.363  -5.707  57.679  1.00  0.00     0.135 C 
ATOM      4  O   UNL     1       5.952  -4.667  57.186  1.00  0.00    -0.299 OA
BRANCH   3   5
ATOM      5  C   UNL     1       7.756  -5.739  58.258  1.00  0.00     0.072 C 
ATOM      6  C   UNL     1       8.802  -5.863  57.155  1.00  0.00     0.012 C 
ENDBRANCH   3   5
ENDBRANCH   1   3
BRANCH   1   7
ATOM      7  C   UNL     1       5.135  -7.388  56.229  1.00  0.00     0.038 C 
BRANCH   7   8
ATOM      8  C   UNL     1       6.319  -8.015  55.540  1.00  0.00    -0.034 C 
ATOM      9  C   UNL     1       6.688  -7.658  54.306  1.00  0.00     0.004 C 
ENDBRANCH   7   8
ENDBRANCH   1   7
TORSDOF 4
ENDMDL
MODEL 3
REMARK VINA RESULT:    -3.862      1.160      2.312
REMARK INTER + INTRA:          -5.011
REMARK INTER:                  -4.545
REMARK INTRA:                  -0.466
REMARK UNBOUND:                -0.246
REMARK SMILES C=CC[C@@H](C)C(=O)CC
REMARK SMILES IDX 4 1 5 2 6 3 7 4 8 5 9 6 3 7 2 8 1 9
REMARK H PARENT
REMARK Flexibility Score: inf
ROOT
ATOM      1  C   UNL     1      18.888 -10.378  67.383  1.00  0.00     0.057 C 
ATOM      2  C   UNL     1      19.754  -9.352  66.644  1.00  0.00     0.016 C 
ENDROOT
BRANCH   1   3
ATOM      3  C   UNL     1      19.424 -10.625  68.781  1.00  0.00     0.135 C 
ATOM      4  O   UNL     1      19.378  -9.720  69.601  1.00  0.00    -0.299 OA
BRANCH   3   5
ATOM      5  C   UNL     1      20.039 -11.943  69.182  1.00  0.00     0.072 C 
ATOM      6  C   UNL     1      19.803 -13.003  68.112  1.00  0.00     0.012 C 
ENDBRANCH   3   5
ENDBRANCH   1   3
BRANCH   1   7
ATOM      7  C   UNL     1      17.409  -9.939  67.400  1.00  0.00     0.038 C 
BRANCH   7   8
ATOM      8  C   UNL     1      16.490 -11.010  66.873  1.00  0.00    -0.034 C 
ATOM      9  C   UNL     1      16.907 -11.927  65.994  1.00  0.00     0.004 C 
ENDBRANCH   7   8
ENDBRANCH   1   7
TORSDOF 4
ENDMDL
MODEL 4
REMARK VINA RESULT:    -3.841     16.092     17.475
REMARK INTER + INTRA:          -4.985
REMARK INTER:                  -4.726
REMARK INTRA:                  -0.260
REMARK UNBOUND:                -0.246
REMARK SMILES C=CC[C@@H](C)C(=O)CC
REMARK SMILES IDX 4 1 5 2 6 3 7 4 8 5 9 6 3 7 2 8 1 9
REMARK H PARENT
REMARK Flexibility Score: inf
ROOT
ATOM      1  C   UNL     1       5.723  -7.590  55.969  1.00  0.00     0.057 C 
ATOM      2  C   UNL     1       7.014  -6.867  55.567  1.00  0.00     0.016 C 
ENDROOT
BRANCH   1   3
ATOM      3  C   UNL     1       6.035  -8.947  56.574  1.00  0.00     0.135 C 
ATOM      4  O   UNL     1       5.433  -9.929  56.168  1.00  0.00    -0.299 OA
BRANCH   3   5
ATOM      5  C   UNL     1       7.046  -9.117  57.682  1.00  0.00     0.072 C 
ATOM      6  C   UNL     1       6.369  -9.076  59.048  1.00  0.00     0.012 C 
ENDBRANCH   3   5
ENDBRANCH   1   3
BRANCH   1   7
ATOM      7  C   UNL     1       4.875  -6.716  56.916  1.00  0.00     0.038 C 
BRANCH   7   8
ATOM      8  C   UNL     1       5.578  -5.438  57.294  1.00  0.00    -0.034 C 
ATOM      9  C   UNL     1       4.948  -4.259  57.288  1.00  0.00     0.004 C 
ENDBRANCH   7   8
ENDBRANCH   1   7
TORSDOF 4
ENDMDL
MODEL 5
REMARK VINA RESULT:    -3.837     16.139     17.486
REMARK INTER + INTRA:          -4.981
REMARK INTER:                  -4.496
REMARK INTRA:                  -0.484
REMARK UNBOUND:                -0.246
REMARK SMILES C=CC[C@@H](C)C(=O)CC
REMARK SMILES IDX 4 1 5 2 6 3 7 4 8 5 9 6 3 7 2 8 1 9
REMARK H PARENT
REMARK Flexibility Score: inf
ROOT
ATOM      1  C   UNL     1       7.591  -9.014  53.889  1.00  0.00     0.057 C 
ATOM      2  C   UNL     1       9.092  -8.783  54.098  1.00  0.00     0.016 C 
ENDROOT
BRANCH   1   3
ATOM      3  C   UNL     1       7.106 -10.181  54.729  1.00  0.00     0.135 C 
ATOM      4  O   UNL     1       5.981 -10.620  54.539  1.00  0.00    -0.299 OA
BRANCH   3   5
ATOM      5  C   UNL     1       7.958 -10.799  55.810  1.00  0.00     0.072 C 
ATOM      6  C   UNL     1       7.578 -10.252  57.182  1.00  0.00     0.012 C 
ENDBRANCH   3   5
ENDBRANCH   1   3
BRANCH   1   7
ATOM      7  C   UNL     1       6.792  -7.725  54.174  1.00  0.00     0.038 C 
BRANCH   7   8
ATOM      8  C   UNL     1       7.226  -7.057  55.453  1.00  0.00    -0.034 C 
ATOM      9  C   UNL     1       6.346  -6.683  56.387  1.00  0.00     0.004 C 
ENDBRANCH   7   8
ENDBRANCH   1   7
TORSDOF 4
ENDMDL
MODEL 6
REMARK VINA RESULT:    -3.794      2.988      4.679
REMARK INTER + INTRA:          -4.926
REMARK INTER:                  -4.463
REMARK INTRA:                  -0.464
REMARK UNBOUND:                -0.246
REMARK SMILES C=CC[C@@H](C)C(=O)CC
REMARK SMILES IDX 4 1 5 2 6 3 7 4 8 5 9 6 3 7 2 8 1 9
REMARK H PARENT
REMARK Flexibility Score: inf
ROOT
ATOM      1  C   UNL     1      18.025 -11.351  65.398  1.00  0.00     0.057 C 
ATOM      2  C   UNL     1      17.796 -12.867  65.430  1.00  0.00     0.016 C 
ENDROOT
BRANCH   1   3
ATOM      3  C   UNL     1      18.207 -10.868  63.971  1.00  0.00     0.135 C 
ATOM      4  O   UNL     1      17.773 -11.550  63.054  1.00  0.00    -0.299 OA
BRANCH   3   5
ATOM      5  C   UNL     1      18.932  -9.585  63.646  1.00  0.00     0.072 C 
ATOM      6  C   UNL     1      20.376  -9.637  64.131  1.00  0.00     0.012 C 
ENDBRANCH   3   5
ENDBRANCH   1   3
BRANCH   1   7
ATOM      7  C   UNL     1      16.881 -10.608  66.119  1.00  0.00     0.038 C 
BRANCH   7   8
ATOM      8  C   UNL     1      17.370  -9.838  67.319  1.00  0.00    -0.034 C 
ATOM      9  C   UNL     1      18.671  -9.635  67.544  1.00  0.00     0.004 C 
ENDBRANCH   7   8
ENDBRANCH   1   7
TORSDOF 4
ENDMDL
MODEL 7
REMARK VINA RESULT:    -3.773     16.143     17.392
REMARK INTER + INTRA:          -4.901
REMARK INTER:                  -4.455
REMARK INTRA:                  -0.446
REMARK UNBOUND:                -0.246
REMARK SMILES C=CC[C@@H](C)C(=O)CC
REMARK SMILES IDX 4 1 5 2 6 3 7 4 8 5 9 6 3 7 2 8 1 9
REMARK H PARENT
REMARK Flexibility Score: inf
ROOT
ATOM      1  C   UNL     1       6.444  -6.863  56.138  1.00  0.00     0.057 C 
ATOM      2  C   UNL     1       7.833  -6.390  56.584  1.00  0.00     0.016 C 
ENDROOT
BRANCH   1   3
ATOM      3  C   UNL     1       6.561  -7.987  55.126  1.00  0.00     0.135 C 
ATOM      4  O   UNL     1       6.009  -7.868  54.042  1.00  0.00    -0.299 OA
BRANCH   3   5
ATOM      5  C   UNL     1       7.313  -9.261  55.425  1.00  0.00     0.072 C 
ATOM      6  C   UNL     1       6.354 -10.435  55.590  1.00  0.00     0.012 C 
ENDBRANCH   3   5
ENDBRANCH   1   3
BRANCH   1   7
ATOM      7  C   UNL     1       5.585  -7.267  57.354  1.00  0.00     0.038 C 
BRANCH   7   8
ATOM      8  C   UNL     1       6.425  -7.649  58.545  1.00  0.00    -0.034 C 
ATOM      9  C   UNL     1       6.298  -8.835  59.147  1.00  0.00     0.004 C 
ENDBRANCH   7   8
ENDBRANCH   1   7
TORSDOF 4
ENDMDL
MODEL 8
REMARK VINA RESULT:    -3.767      1.816      3.265
REMARK INTER + INTRA:          -4.894
REMARK INTER:                  -4.545
REMARK INTRA:                  -0.349
REMARK UNBOUND:                -0.246
REMARK SMILES C=CC[C@@H](C)C(=O)CC
REMARK SMILES IDX 4 1 5 2 6 3 7 4 8 5 9 6 3 7 2 8 1 9
REMARK H PARENT
REMARK Flexibility Score: inf
ROOT
ATOM      1  C   UNL     1      19.535 -11.980  68.382  1.00  0.00     0.057 C 
ATOM      2  C   UNL     1      20.583 -12.560  69.340  1.00  0.00     0.016 C 
ENDROOT
BRANCH   1   3
ATOM      3  C   UNL     1      19.275 -10.518  68.694  1.00  0.00     0.135 C 
ATOM      4  O   UNL     1      19.468 -10.111  69.830  1.00  0.00    -0.299 OA
BRANCH   3   5
ATOM      5  C   UNL     1      18.757  -9.556  67.653  1.00  0.00     0.072 C 
ATOM      6  C   UNL     1      17.293  -9.837  67.331  1.00  0.00     0.012 C 
ENDBRANCH   3   5
ENDBRANCH   1   3
BRANCH   1   7
ATOM      7  C   UNL     1      19.956 -12.192  66.913  1.00  0.00     0.038 C 
BRANCH   7   8
ATOM      8  C   UNL     1      19.191 -13.313  66.258  1.00  0.00    -0.034 C 
ATOM      9  C   UNL     1      18.126 -13.082  65.485  1.00  0.00     0.004 C 
ENDBRANCH   7   8
ENDBRANCH   1   7
TORSDOF 4
ENDMDL
MODEL 9
REMARK VINA RESULT:    -3.742      1.860      2.292
REMARK INTER + INTRA:          -4.863
REMARK INTER:                  -4.419
REMARK INTRA:                  -0.444
REMARK UNBOUND:                -0.246
REMARK SMILES C=CC[C@@H](C)C(=O)CC
REMARK SMILES IDX 4 1 5 2 6 3 7 4 8 5 9 6 3 7 2 8 1 9
REMARK H PARENT
REMARK Flexibility Score: inf
ROOT
ATOM      1  C   UNL     1      17.658 -11.240  66.873  1.00  0.00     0.057 C 
ATOM      2  C   UNL     1      16.152 -11.463  66.696  1.00  0.00     0.016 C 
ENDROOT
BRANCH   1   3
ATOM      3  C   UNL     1      18.165 -11.964  68.107  1.00  0.00     0.135 C 
ATOM      4  O   UNL     1      17.565 -12.953  68.502  1.00  0.00    -0.299 OA
BRANCH   3   5
ATOM      5  C   UNL     1      19.371 -11.486  68.878  1.00  0.00     0.072 C 
ATOM      6  C   UNL     1      19.263  -9.998  69.192  1.00  0.00     0.012 C 
ENDBRANCH   3   5
ENDBRANCH   1   3
BRANCH   1   7
ATOM      7  C   UNL     1      18.429 -11.653  65.602  1.00  0.00     0.038 C 
BRANCH   7   8
ATOM      8  C   UNL     1      19.067 -10.474  64.914  1.00  0.00    -0.034 C 
ATOM      9  C   UNL     1      19.819  -9.592  65.579  1.00  0.00     0.004 C 
ENDBRANCH   7   8
ENDBRANCH   1   7
TORSDOF 4
ENDMDL
