MODEL 1
REMARK VINA RESULT:    -0.822      0.000      0.000
REMARK INTER + INTRA:          -0.822
REMARK INTER:                  -0.822
REMARK INTRA:                   0.000
REMARK UNBOUND:                 0.000
REMARK SMILES CC(=O)[O-]
REMARK SMILES IDX 1 1 2 2 3 3 4 4
REMARK H PARENT
REMARK Flexibility Score: inf
ROOT
ATOM      1  C   UNL     1      36.347   1.515  42.118  1.00  0.00     0.063 C 
ATOM      2  C   UNL     1      37.790   1.891  42.096  1.00  0.00     0.038 C 
ATOM      3  O   UNL     1      38.126   3.101  42.006  1.00  0.00    -0.550 OA
ATOM      4  O   UNL     1      38.767   0.905  42.117  1.00  0.00    -0.550 OA
ENDROOT
TORSDOF 0
ENDMDL
MODEL 2
REMARK VINA RESULT:    -0.789      1.505      2.117
REMARK INTER + INTRA:          -0.789
REMARK INTER:                  -0.789
REMARK INTRA:                   0.000
REMARK UNBOUND:                 0.000
REMARK SMILES CC(=O)[O-]
REMARK SMILES IDX 1 1 2 2 3 3 4 4
REMARK H PARENT
REMARK Flexibility Score: inf
ROOT
ATOM      1  C   UNL     1      38.051   3.914  42.082  1.00  0.00     0.063 C 
ATOM      2  C   UNL     1      37.776   2.449  42.043  1.00  0.00     0.038 C 
ATOM      3  O   UNL     1      38.723   1.634  41.886  1.00  0.00    -0.550 OA
ATOM      4  O   UNL     1      36.471   1.983  42.125  1.00  0.00    -0.550 OA
ENDROOT
TORSDOF 0
ENDMDL
MODEL 3
REMARK VINA RESULT:    -0.716      2.341      3.104
REMARK INTER + INTRA:          -0.716
REMARK INTER:                  -0.716
REMARK INTRA:                   0.000
REMARK UNBOUND:                 0.000
REMARK SMILES CC(=O)[O-]
REMARK SMILES IDX 1 1 2 2 3 3 4 4
REMARK H PARENT
REMARK Flexibility Score: inf
ROOT
ATOM      1  C   UNL     1      37.941   3.422  41.970  1.00  0.00     0.063 C 
ATOM      2  C   UNL     1      36.455   3.368  42.085  1.00  0.00     0.038 C 
ATOM      3  O   UNL     1      35.863   2.257  42.097  1.00  0.00    -0.550 OA
ATOM      4  O   UNL     1      35.716   4.543  42.125  1.00  0.00    -0.550 OA
ENDROOT
TORSDOF 0
ENDMDL
MODEL 4
REMARK VINA RESULT:    -0.681      2.538      3.316
REMARK INTER + INTRA:          -0.681
REMARK INTER:                  -0.681
REMARK INTRA:                   0.000
REMARK UNBOUND:                 0.000
REMARK SMILES CC(=O)[O-]
REMARK SMILES IDX 1 1 2 2 3 3 4 4
REMARK H PARENT
REMARK Flexibility Score: inf
ROOT
ATOM      1  C   UNL     1      35.689   2.280  42.125  1.00  0.00     0.063 C 
ATOM      2  C   UNL     1      35.659   3.770  42.088  1.00  0.00     0.038 C 
ATOM      3  O   UNL     1      36.736   4.423  42.082  1.00  0.00    -0.550 OA
ATOM      4  O   UNL     1      34.446   4.444  42.116  1.00  0.00    -0.550 OA
ENDROOT
TORSDOF 0
ENDMDL
MODEL 5
REMARK VINA RESULT:    -0.670      3.154      3.779
REMARK INTER + INTRA:          -0.670
REMARK INTER:                  -0.670
REMARK INTRA:                   0.000
REMARK UNBOUND:                 0.000
REMARK SMILES CC(=O)[O-]
REMARK SMILES IDX 1 1 2 2 3 3 4 4
REMARK H PARENT
REMARK Flexibility Score: inf
ROOT
ATOM      1  C   UNL     1      36.130   4.354  42.110  1.00  0.00     0.063 C 
ATOM      2  C   UNL     1      35.123   3.261  41.987  1.00  0.00     0.038 C 
ATOM      3  O   UNL     1      35.478   2.060  42.112  1.00  0.00    -0.550 OA
ATOM      4  O   UNL     1      33.803   3.562  41.681  1.00  0.00    -0.550 OA
ENDROOT
TORSDOF 0
ENDMDL
MODEL 6
REMARK VINA RESULT:    -0.657      1.745      2.221
REMARK INTER + INTRA:          -0.657
REMARK INTER:                  -0.657
REMARK INTRA:                   0.000
REMARK UNBOUND:                 0.000
REMARK SMILES CC(=O)[O-]
REMARK SMILES IDX 1 1 2 2 3 3 4 4
REMARK H PARENT
REMARK Flexibility Score: inf
ROOT
ATOM      1  C   UNL     1      37.932   2.967  41.817  1.00  0.00     0.063 C 
ATOM      2  C   UNL     1      39.074   2.102  41.403  1.00  0.00     0.038 C 
ATOM      3  O   UNL     1      39.070   0.875  41.684  1.00  0.00    -0.550 OA
ATOM      4  O   UNL     1      40.170   2.658  40.756  1.00  0.00    -0.550 OA
ENDROOT
TORSDOF 0
ENDMDL
MODEL 7
REMARK VINA RESULT:    -0.514      1.800      2.201
REMARK INTER + INTRA:          -0.514
REMARK INTER:                  -0.514
REMARK INTRA:                   0.000
REMARK UNBOUND:                 0.000
REMARK SMILES CC(=O)[O-]
REMARK SMILES IDX 1 1 2 2 3 3 4 4
REMARK H PARENT
REMARK Flexibility Score: inf
ROOT
ATOM      1  C   UNL     1      38.371   3.474  39.995  1.00  0.00     0.063 C 
ATOM      2  C   UNL     1      38.108   3.421  41.462  1.00  0.00     0.038 C 
ATOM      3  O   UNL     1      37.941   4.487  42.111  1.00  0.00    -0.550 OA
ATOM      4  O   UNL     1      38.100   2.202  42.125  1.00  0.00    -0.550 OA
ENDROOT
TORSDOF 0
ENDMDL
