MODEL 1
REMARK VINA RESULT:    -3.896      0.000      0.000
REMARK INTER + INTRA:          -4.155
REMARK INTER:                  -4.124
REMARK INTRA:                  -0.032
REMARK UNBOUND:                -0.032
REMARK SMILES COc1ccc2ccc(=O)oc2c1
REMARK SMILES IDX 3 1 13 2 12 3 6 4 5 5 4 6 7 7 8 8 9 9 10 10 11 11 2 12 1 13
REMARK H PARENT
REMARK Flexibility Score: inf
ROOT
ATOM      1  C   UNL     1       4.575  -2.644  -6.585  1.00  0.00     0.122 A 
ATOM      2  C   UNL     1       5.487  -2.569  -5.525  1.00  0.00     0.094 A 
ATOM      3  C   UNL     1       5.804  -3.707  -4.776  1.00  0.00     0.142 A 
ATOM      4  C   UNL     1       5.198  -4.944  -5.090  1.00  0.00     0.018 A 
ATOM      5  C   UNL     1       4.285  -5.025  -6.148  1.00  0.00     0.016 A 
ATOM      6  C   UNL     1       3.974  -3.882  -6.893  1.00  0.00     0.047 A 
ATOM      7  C   UNL     1       5.534  -6.065  -4.324  1.00  0.00     0.019 A 
ATOM      8  C   UNL     1       6.449  -5.931  -3.280  1.00  0.00     0.094 A 
ATOM      9  C   UNL     1       7.009  -4.674  -3.027  1.00  0.00     0.336 A 
ATOM     10  O   UNL     1       7.837  -4.532  -2.089  1.00  0.00    -0.246 OA
ATOM     11  O   UNL     1       6.672  -3.624  -3.772  1.00  0.00    -0.423 OA
ENDROOT
BRANCH   1  12
ATOM     12  O   UNL     1       4.294  -1.473  -7.304  1.00  0.00    -0.497 OA
ATOM     13  C   UNL     1       2.981  -0.999  -7.586  1.00  0.00     0.278 C 
ENDBRANCH   1  12
TORSDOF 1
ENDMDL
MODEL 2
REMARK VINA RESULT:    -3.790      8.299      9.848
REMARK INTER + INTRA:          -4.044
REMARK INTER:                  -4.011
REMARK INTRA:                  -0.033
REMARK UNBOUND:                -0.032
REMARK SMILES COc1ccc2ccc(=O)oc2c1
REMARK SMILES IDX 3 1 13 2 12 3 6 4 5 5 4 6 7 7 8 8 9 9 10 10 11 11 2 12 1 13
REMARK H PARENT
REMARK Flexibility Score: inf
ROOT
ATOM      1  C   UNL     1       6.638   5.009  -7.329  1.00  0.00     0.122 A 
ATOM      2  C   UNL     1       5.361   5.508  -7.614  1.00  0.00     0.094 A 
ATOM      3  C   UNL     1       4.411   4.706  -8.255  1.00  0.00     0.142 A 
ATOM      4  C   UNL     1       4.740   3.383  -8.620  1.00  0.00     0.018 A 
ATOM      5  C   UNL     1       6.017   2.879  -8.338  1.00  0.00     0.016 A 
ATOM      6  C   UNL     1       6.962   3.687  -7.696  1.00  0.00     0.047 A 
ATOM      7  C   UNL     1       3.770   2.605  -9.260  1.00  0.00     0.019 A 
ATOM      8  C   UNL     1       2.515   3.154  -9.517  1.00  0.00     0.094 A 
ATOM      9  C   UNL     1       2.258   4.473  -9.127  1.00  0.00     0.336 A 
ATOM     10  O   UNL     1       1.131   4.987  -9.351  1.00  0.00    -0.246 OA
ATOM     11  O   UNL     1       3.200   5.191  -8.519  1.00  0.00    -0.423 OA
ENDROOT
BRANCH   1  12
ATOM     12  O   UNL     1       7.553   5.855  -6.684  1.00  0.00    -0.497 OA
ATOM     13  C   UNL     1       7.812   5.841  -5.284  1.00  0.00     0.278 C 
ENDBRANCH   1  12
TORSDOF 1
ENDMDL
MODEL 3
REMARK VINA RESULT:    -3.692     18.688     19.544
REMARK INTER + INTRA:          -3.940
REMARK INTER:                  -3.899
REMARK INTRA:                  -0.040
REMARK UNBOUND:                -0.032
REMARK SMILES COc1ccc2ccc(=O)oc2c1
REMARK SMILES IDX 3 1 13 2 12 3 6 4 5 5 4 6 7 7 8 8 9 9 10 10 11 11 2 12 1 13
REMARK H PARENT
REMARK Flexibility Score: inf
ROOT
ATOM      1  C   UNL     1     -11.991   4.902  -3.286  1.00  0.00     0.122 A 
ATOM      2  C   UNL     1     -12.087   5.326  -4.616  1.00  0.00     0.094 A 
ATOM      3  C   UNL     1     -12.007   4.404  -5.665  1.00  0.00     0.142 A 
ATOM      4  C   UNL     1     -11.828   3.033  -5.381  1.00  0.00     0.018 A 
ATOM      5  C   UNL     1     -11.731   2.603  -4.052  1.00  0.00     0.016 A 
ATOM      6  C   UNL     1     -11.812   3.531  -3.008  1.00  0.00     0.047 A 
ATOM      7  C   UNL     1     -11.752   2.134  -6.449  1.00  0.00     0.019 A 
ATOM      8  C   UNL     1     -11.854   2.614  -7.755  1.00  0.00     0.094 A 
ATOM      9  C   UNL     1     -12.030   3.986  -7.961  1.00  0.00     0.336 A 
ATOM     10  O   UNL     1     -12.125   4.439  -9.132  1.00  0.00    -0.246 OA
ATOM     11  O   UNL     1     -12.100   4.819  -6.925  1.00  0.00    -0.423 OA
ENDROOT
BRANCH   1  12
ATOM     12  O   UNL     1     -12.078   5.868  -2.272  1.00  0.00    -0.497 OA
ATOM     13  C   UNL     1     -11.566   7.193  -2.378  1.00  0.00     0.278 C 
ENDBRANCH   1  12
TORSDOF 1
ENDMDL
MODEL 4
REMARK VINA RESULT:    -3.673     18.592     19.873
REMARK INTER + INTRA:          -3.920
REMARK INTER:                  -3.877
REMARK INTRA:                  -0.043
REMARK UNBOUND:                -0.032
REMARK SMILES COc1ccc2ccc(=O)oc2c1
REMARK SMILES IDX 3 1 13 2 12 3 6 4 5 5 4 6 7 7 8 8 9 9 10 10 11 11 2 12 1 13
REMARK H PARENT
REMARK Flexibility Score: inf
ROOT
ATOM      1  C   UNL     1     -11.901   3.049  -4.725  1.00  0.00     0.122 A 
ATOM      2  C   UNL     1     -11.905   4.435  -4.921  1.00  0.00     0.094 A 
ATOM      3  C   UNL     1     -11.974   5.308  -3.831  1.00  0.00     0.142 A 
ATOM      4  C   UNL     1     -12.041   4.789  -2.519  1.00  0.00     0.018 A 
ATOM      5  C   UNL     1     -12.038   3.403  -2.317  1.00  0.00     0.016 A 
ATOM      6  C   UNL     1     -11.969   2.536  -3.413  1.00  0.00     0.047 A 
ATOM      7  C   UNL     1     -12.109   5.685  -1.448  1.00  0.00     0.019 A 
ATOM      8  C   UNL     1     -12.109   7.056  -1.704  1.00  0.00     0.094 A 
ATOM      9  C   UNL     1     -12.040   7.499  -3.029  1.00  0.00     0.336 A 
ATOM     10  O   UNL     1     -12.039   8.733  -3.280  1.00  0.00    -0.246 OA
ATOM     11  O   UNL     1     -11.976   6.623  -4.030  1.00  0.00    -0.423 OA
ENDROOT
BRANCH   1  12
ATOM     12  O   UNL     1     -11.830   2.218  -5.853  1.00  0.00    -0.497 OA
ATOM     13  C   UNL     1     -11.841   2.686  -7.198  1.00  0.00     0.278 C 
ENDBRANCH   1  12
TORSDOF 1
ENDMDL
MODEL 5
REMARK VINA RESULT:    -3.673     18.770     19.212
REMARK INTER + INTRA:          -3.919
REMARK INTER:                  -3.886
REMARK INTRA:                  -0.033
REMARK UNBOUND:                -0.032
REMARK SMILES COc1ccc2ccc(=O)oc2c1
REMARK SMILES IDX 3 1 13 2 12 3 6 4 5 5 4 6 7 7 8 8 9 9 10 10 11 11 2 12 1 13
REMARK H PARENT
REMARK Flexibility Score: inf
ROOT
ATOM      1  C   UNL     1     -12.041   4.627  -7.334  1.00  0.00     0.122 A 
ATOM      2  C   UNL     1     -12.119   5.286  -6.101  1.00  0.00     0.094 A 
ATOM      3  C   UNL     1     -12.040   4.567  -4.904  1.00  0.00     0.142 A 
ATOM      4  C   UNL     1     -11.881   3.165  -4.936  1.00  0.00     0.018 A 
ATOM      5  C   UNL     1     -11.803   2.500  -6.167  1.00  0.00     0.016 A 
ATOM      6  C   UNL     1     -11.882   3.226  -7.360  1.00  0.00     0.047 A 
ATOM      7  C   UNL     1     -11.806   2.473  -3.724  1.00  0.00     0.019 A 
ATOM      8  C   UNL     1     -11.889   3.182  -2.526  1.00  0.00     0.094 A 
ATOM      9  C   UNL     1     -12.046   4.571  -2.569  1.00  0.00     0.336 A 
ATOM     10  O   UNL     1     -12.123   5.229  -1.499  1.00  0.00    -0.246 OA
ATOM     11  O   UNL     1     -12.115   5.205  -3.738  1.00  0.00    -0.423 OA
ENDROOT
BRANCH   1  12
ATOM     12  O   UNL     1     -12.125   5.395  -8.505  1.00  0.00    -0.497 OA
ATOM     13  C   UNL     1     -11.030   6.093  -9.088  1.00  0.00     0.278 C 
ENDBRANCH   1  12
TORSDOF 1
ENDMDL
MODEL 6
REMARK VINA RESULT:    -3.659     18.470     19.002
REMARK INTER + INTRA:          -3.905
REMARK INTER:                  -3.863
REMARK INTRA:                  -0.042
REMARK UNBOUND:                -0.032
REMARK SMILES COc1ccc2ccc(=O)oc2c1
REMARK SMILES IDX 3 1 13 2 12 3 6 4 5 5 4 6 7 7 8 8 9 9 10 10 11 11 2 12 1 13
REMARK H PARENT
REMARK Flexibility Score: inf
ROOT
ATOM      1  C   UNL     1     -11.855   3.557  -6.722  1.00  0.00     0.122 A 
ATOM      2  C   UNL     1     -11.769   2.664  -5.648  1.00  0.00     0.094 A 
ATOM      3  C   UNL     1     -11.859   3.124  -4.331  1.00  0.00     0.142 A 
ATOM      4  C   UNL     1     -12.038   4.502  -4.080  1.00  0.00     0.018 A 
ATOM      5  C   UNL     1     -12.125   5.400  -5.150  1.00  0.00     0.016 A 
ATOM      6  C   UNL     1     -12.034   4.932  -6.466  1.00  0.00     0.047 A 
ATOM      7  C   UNL     1     -12.125   4.933  -2.752  1.00  0.00     0.019 A 
ATOM      8  C   UNL     1     -12.033   3.998  -1.722  1.00  0.00     0.094 A 
ATOM      9  C   UNL     1     -11.855   2.648  -2.045  1.00  0.00     0.336 A 
ATOM     10  O   UNL     1     -11.770   1.788  -1.130  1.00  0.00    -0.246 OA
ATOM     11  O   UNL     1     -11.776   2.265  -3.318  1.00  0.00    -0.423 OA
ENDROOT
BRANCH   1  12
ATOM     12  O   UNL     1     -11.759   3.043  -8.024  1.00  0.00    -0.497 OA
ATOM     13  C   UNL     1     -12.046   1.694  -8.379  1.00  0.00     0.278 C 
ENDBRANCH   1  12
TORSDOF 1
ENDMDL
MODEL 7
REMARK VINA RESULT:    -3.650      1.914      2.796
REMARK INTER + INTRA:          -3.895
REMARK INTER:                  -3.861
REMARK INTRA:                  -0.034
REMARK UNBOUND:                -0.032
REMARK SMILES COc1ccc2ccc(=O)oc2c1
REMARK SMILES IDX 3 1 13 2 12 3 6 4 5 5 4 6 7 7 8 8 9 9 10 10 11 11 2 12 1 13
REMARK H PARENT
REMARK Flexibility Score: inf
ROOT
ATOM      1  C   UNL     1       2.460  -3.336  -8.577  1.00  0.00     0.122 A 
ATOM      2  C   UNL     1       3.269  -2.559  -7.740  1.00  0.00     0.094 A 
ATOM      3  C   UNL     1       4.032  -3.158  -6.732  1.00  0.00     0.142 A 
ATOM      4  C   UNL     1       3.985  -4.558  -6.555  1.00  0.00     0.018 A 
ATOM      5  C   UNL     1       3.177  -5.340  -7.390  1.00  0.00     0.016 A 
ATOM      6  C   UNL     1       2.418  -4.734  -8.396  1.00  0.00     0.047 A 
ATOM      7  C   UNL     1       4.758  -5.129  -5.539  1.00  0.00     0.019 A 
ATOM      8  C   UNL     1       5.547  -4.306  -4.736  1.00  0.00     0.094 A 
ATOM      9  C   UNL     1       5.543  -2.926  -4.968  1.00  0.00     0.336 A 
ATOM     10  O   UNL     1       6.248  -2.167  -4.254  1.00  0.00    -0.246 OA
ATOM     11  O   UNL     1       4.798  -2.409  -5.943  1.00  0.00    -0.423 OA
ENDROOT
BRANCH   1  12
ATOM     12  O   UNL     1       1.716  -2.685  -9.573  1.00  0.00    -0.497 OA
ATOM     13  C   UNL     1       0.490  -1.997  -9.341  1.00  0.00     0.278 C 
ENDBRANCH   1  12
TORSDOF 1
ENDMDL
MODEL 8
REMARK VINA RESULT:    -2.056     20.484     20.824
REMARK INTER + INTRA:          -2.208
REMARK INTER:                  -2.168
REMARK INTRA:                  -0.040
REMARK UNBOUND:                -0.032
REMARK SMILES COc1ccc2ccc(=O)oc2c1
REMARK SMILES IDX 3 1 13 2 12 3 6 4 5 5 4 6 7 7 8 8 9 9 10 10 11 11 2 12 1 13
REMARK H PARENT
REMARK Flexibility Score: inf
ROOT
ATOM      1  C   UNL     1      -8.877   2.287   9.611  1.00  0.00     0.122 A 
ATOM      2  C   UNL     1      -9.743   1.902   8.581  1.00  0.00     0.094 A 
ATOM      3  C   UNL     1      -9.700   0.604   8.061  1.00  0.00     0.142 A 
ATOM      4  C   UNL     1      -8.774  -0.328   8.580  1.00  0.00     0.018 A 
ATOM      5  C   UNL     1      -7.905   0.052   9.610  1.00  0.00     0.016 A 
ATOM      6  C   UNL     1      -7.955   1.352  10.125  1.00  0.00     0.047 A 
ATOM      7  C   UNL     1      -8.753  -1.618   8.041  1.00  0.00     0.019 A 
ATOM      8  C   UNL     1      -9.639  -1.945   7.015  1.00  0.00     0.094 A 
ATOM      9  C   UNL     1     -10.529  -0.970   6.551  1.00  0.00     0.336 A 
ATOM     10  O   UNL     1     -11.337  -1.246   5.626  1.00  0.00    -0.246 OA
ATOM     11  O   UNL     1     -10.528   0.250   7.082  1.00  0.00    -0.423 OA
ENDROOT
BRANCH   1  12
ATOM     12  O   UNL     1      -8.963   3.601  10.096  1.00  0.00    -0.497 OA
ATOM     13  C   UNL     1      -9.285   4.734   9.295  1.00  0.00     0.278 C 
ENDBRANCH   1  12
TORSDOF 1
ENDMDL
