MODEL 1
REMARK VINA RESULT:    -3.310      0.000      0.000
REMARK INTER + INTRA:          -5.382
REMARK INTER:                  -5.052
REMARK INTRA:                  -0.330
REMARK UNBOUND:                -0.330
REMARK SMILES CC1=CCC[C@@H](C)C(=O)C[C@@H](C(C)C)C(=O)C1
REMARK SMILES IDX 8 1 9 2 6 3 7 4 5 5 4 6 3 7 2 8 1 9 10 11 11 12 15 13 16 14
REMARK SMILES IDX 17 15 12 17 13 18 14 19
REMARK H PARENT
REMARK Flexibility Score: 70.00
ROOT
ATOM      1  C   UNL     1       4.780  19.223  15.270  1.00  0.00     0.136 C 
ATOM      2  O   UNL     1       3.929  19.625  16.052  1.00  0.00    -0.299 OA
ENDROOT
BRANCH   1   3
ATOM      3  C   UNL     1       4.380  18.800  13.866  1.00  0.00     0.053 C 
ATOM      4  C   UNL     1       3.590  19.916  13.166  1.00  0.00     0.016 C 
BRANCH   3   5
ATOM      5  C   UNL     1       3.564  17.485  13.900  1.00  0.00     0.015 C 
BRANCH   5   6
ATOM      6  C   UNL     1       4.367  16.308  14.490  1.00  0.00     0.028 C 
BRANCH   6   7
ATOM      7  C   UNL     1       5.389  15.793  13.510  1.00  0.00    -0.028 C 
ATOM      8  C   UNL     1       6.731  15.874  13.682  1.00  0.00    -0.070 CG0
ATOM      9  C   UNL     1       7.617  15.261  12.627  1.00  0.00     0.039 C 
ATOM     10  G   UNL     1       7.372  16.552  14.885  1.00  0.00     0.000 G0
ENDBRANCH   6   7
ENDBRANCH   5   6
ENDBRANCH   3   5
ENDBRANCH   1   3
BRANCH   1  11
ATOM     11  C   UNL     1       6.218  19.136  15.727  1.00  0.00     0.087 C 
BRANCH  11  12
ATOM     12  C   UNL     1       7.257  19.179  14.570  1.00  0.00     0.066 C 
BRANCH  12  13
ATOM     13  C   UNL     1       8.037  17.872  14.507  1.00  0.00     0.140 C 
ATOM     14  O   UNL     1       9.192  17.874  14.104  1.00  0.00    -0.299 OA
BRANCH  13  15
ATOM     15  C   UNL     1       7.382  16.565  14.874  1.00  0.00     0.106 CG0
ATOM     16  G   UNL     1       6.747  15.881  13.671  1.00  0.00     0.000 G0
ENDBRANCH  13  15
ENDBRANCH  12  13
BRANCH  12  17
ATOM     17  C   UNL     1       8.216  20.416  14.600  1.00  0.00    -0.006 C 
ATOM     18  C   UNL     1       8.814  20.672  15.996  1.00  0.00     0.008 C 
ATOM     19  C   UNL     1       7.482  21.689  14.137  1.00  0.00     0.008 C 
ENDBRANCH  12  17
ENDBRANCH  11  12
ENDBRANCH   1  11
TORSDOF 1
ENDMDL
MODEL 2
REMARK VINA RESULT:    -3.283     10.938     14.184
REMARK INTER + INTRA:          -5.341
REMARK INTER:                  -4.890
REMARK INTRA:                  -0.451
REMARK UNBOUND:                -0.330
REMARK SMILES CC1=CCC[C@@H](C)C(=O)C[C@@H](C(C)C)C(=O)C1
REMARK SMILES IDX 8 1 9 2 6 3 7 4 5 5 4 6 3 7 2 8 1 9 10 11 11 12 15 13 16 14
REMARK SMILES IDX 17 15 12 17 13 18 14 19
REMARK H PARENT
REMARK Flexibility Score: 70.00
ROOT
ATOM      1  C   UNL     1      16.176  27.537  14.748  1.00  0.00     0.136 C 
ATOM      2  O   UNL     1      17.092  27.383  15.543  1.00  0.00    -0.299 OA
ENDROOT
BRANCH   1   3
ATOM      3  C   UNL     1      16.482  27.827  13.287  1.00  0.00     0.053 C 
ATOM      4  C   UNL     1      17.180  26.627  12.628  1.00  0.00     0.016 C 
BRANCH   3   5
ATOM      5  C   UNL     1      17.341  29.108  13.149  1.00  0.00     0.015 C 
BRANCH   5   6
ATOM      6  C   UNL     1      16.573  30.380  13.563  1.00  0.00     0.028 C 
BRANCH   6   7
ATOM      7  C   UNL     1      15.442  30.674  12.611  1.00  0.00    -0.028 C 
ATOM      8  C   UNL     1      14.128  30.612  12.933  1.00  0.00    -0.070 CG0
ATOM      9  C   UNL     1      13.122  30.990  11.875  1.00  0.00     0.039 C 
ATOM     10  G   UNL     1      13.631  30.182  14.306  1.00  0.00     0.000 G0
ENDBRANCH   6   7
ENDBRANCH   5   6
ENDBRANCH   3   5
ENDBRANCH   1   3
BRANCH   1  11
ATOM     11  C   UNL     1      14.751  27.455  15.241  1.00  0.00     0.087 C 
BRANCH  11  12
ATOM     12  C   UNL     1      13.681  27.527  14.113  1.00  0.00     0.066 C 
BRANCH  12  13
ATOM     13  C   UNL     1      12.886  28.822  14.215  1.00  0.00     0.140 C 
ATOM     14  O   UNL     1      11.664  28.788  14.180  1.00  0.00    -0.299 OA
BRANCH  13  15
ATOM     15  C   UNL     1      13.589  30.154  14.293  1.00  0.00     0.106 CG0
ATOM     16  G   UNL     1      14.125  30.602  12.940  1.00  0.00     0.000 G0
ENDBRANCH  13  15
ENDBRANCH  12  13
BRANCH  12  17
ATOM     17  C   UNL     1      12.736  26.281  14.029  1.00  0.00    -0.006 C 
ATOM     18  C   UNL     1      12.389  25.704  15.414  1.00  0.00     0.008 C 
ATOM     19  C   UNL     1      13.374  25.168  13.176  1.00  0.00     0.008 C 
ENDBRANCH  12  17
ENDBRANCH  11  12
ENDBRANCH   1  11
TORSDOF 1
ENDMDL
MODEL 3
REMARK VINA RESULT:    -2.999      2.048      3.548
REMARK INTER + INTRA:          -4.907
REMARK INTER:                  -4.440
REMARK INTRA:                  -0.466
REMARK UNBOUND:                -0.330
REMARK SMILES CC1=CCC[C@@H](C)C(=O)C[C@@H](C(C)C)C(=O)C1
REMARK SMILES IDX 8 1 9 2 6 3 7 4 5 5 4 6 3 7 2 8 1 9 10 11 11 12 15 13 16 14
REMARK SMILES IDX 17 15 12 17 13 18 14 19
REMARK H PARENT
REMARK Flexibility Score: 70.00
ROOT
ATOM      1  C   UNL     1       4.993  17.431  14.712  1.00  0.00     0.136 C 
ATOM      2  O   UNL     1       4.340  16.525  15.210  1.00  0.00    -0.299 OA
ENDROOT
BRANCH   1   3
ATOM      3  C   UNL     1       5.862  17.159  13.495  1.00  0.00     0.053 C 
ATOM      4  C   UNL     1       5.001  16.741  12.293  1.00  0.00     0.016 C 
BRANCH   3   5
ATOM      5  C   UNL     1       6.928  16.082  13.811  1.00  0.00     0.015 C 
BRANCH   5   6
ATOM      6  C   UNL     1       7.877  16.507  14.949  1.00  0.00     0.028 C 
BRANCH   6   7
ATOM      7  C   UNL     1       8.861  17.550  14.485  1.00  0.00    -0.028 C 
ATOM      8  C   UNL     1       8.871  18.839  14.901  1.00  0.00    -0.070 CG0
ATOM      9  C   UNL     1       9.959  19.742  14.378  1.00  0.00     0.039 C 
ATOM     10  G   UNL     1       7.839  19.407  15.865  1.00  0.00     0.000 G0
ENDBRANCH   6   7
ENDBRANCH   5   6
ENDBRANCH   3   5
ENDBRANCH   1   3
BRANCH   1  11
ATOM     11  C   UNL     1       4.937  18.807  15.333  1.00  0.00     0.087 C 
BRANCH  11  12
ATOM     12  C   UNL     1       5.659  19.910  14.506  1.00  0.00     0.066 C 
BRANCH  12  13
ATOM     13  C   UNL     1       6.899  20.401  15.242  1.00  0.00     0.140 C 
ATOM     14  O   UNL     1       7.157  21.597  15.265  1.00  0.00    -0.299 OA
BRANCH  13  15
ATOM     15  C   UNL     1       7.850  19.425  15.887  1.00  0.00     0.106 CG0
ATOM     16  G   UNL     1       8.845  18.847  14.891  1.00  0.00     0.000 G0
ENDBRANCH  13  15
ENDBRANCH  12  13
BRANCH  12  17
ATOM     17  C   UNL     1       4.744  21.103  14.069  1.00  0.00    -0.006 C 
ATOM     18  C   UNL     1       3.288  20.942  14.548  1.00  0.00     0.008 C 
ATOM     19  C   UNL     1       4.744  21.260  12.536  1.00  0.00     0.008 C 
ENDBRANCH  12  17
ENDBRANCH  11  12
ENDBRANCH   1  11
TORSDOF 1
ENDMDL
MODEL 4
REMARK VINA RESULT:    -2.943      1.879      3.765
REMARK INTER + INTRA:          -4.822
REMARK INTER:                  -4.405
REMARK INTRA:                  -0.417
REMARK UNBOUND:                -0.330
REMARK SMILES CC1=CCC[C@@H](C)C(=O)C[C@@H](C(C)C)C(=O)C1
REMARK SMILES IDX 8 1 9 2 6 3 7 4 5 5 4 6 3 7 2 8 1 9 10 11 11 12 15 13 16 14
REMARK SMILES IDX 17 15 12 17 13 18 14 19
REMARK H PARENT
REMARK Flexibility Score: 70.00
ROOT
ATOM      1  C   UNL     1       7.453  18.585  15.578  1.00  0.00     0.136 C 
ATOM      2  O   UNL     1       7.940  18.832  16.673  1.00  0.00    -0.299 OA
ENDROOT
BRANCH   1   3
ATOM      3  C   UNL     1       6.816  19.699  14.763  1.00  0.00     0.053 C 
ATOM      4  C   UNL     1       7.783  20.882  14.607  1.00  0.00     0.016 C 
BRANCH   3   5
ATOM      5  C   UNL     1       5.484  20.157  15.407  1.00  0.00     0.015 C 
BRANCH   5   6
ATOM      6  C   UNL     1       4.590  18.971  15.821  1.00  0.00     0.028 C 
BRANCH   6   7
ATOM      7  C   UNL     1       3.674  18.554  14.700  1.00  0.00    -0.028 C 
ATOM      8  C   UNL     1       3.700  17.342  14.094  1.00  0.00    -0.070 CG0
ATOM      9  C   UNL     1       2.676  17.067  13.021  1.00  0.00     0.039 C 
ATOM     10  G   UNL     1       4.708  16.259  14.450  1.00  0.00     0.000 G0
ENDBRANCH   6   7
ENDBRANCH   5   6
ENDBRANCH   3   5
ENDBRANCH   1   3
BRANCH   1  11
ATOM     11  C   UNL     1       7.480  17.165  15.063  1.00  0.00     0.087 C 
BRANCH  11  12
ATOM     12  C   UNL     1       7.060  17.019  13.572  1.00  0.00     0.066 C 
BRANCH  12  13
ATOM     13  C   UNL     1       5.832  16.128  13.450  1.00  0.00     0.140 C 
ATOM     14  O   UNL     1       5.733  15.358  12.504  1.00  0.00    -0.299 OA
BRANCH  13  15
ATOM     15  C   UNL     1       4.703  16.229  14.445  1.00  0.00     0.106 CG0
ATOM     16  G   UNL     1       3.718  17.334  14.087  1.00  0.00     0.000 G0
ENDBRANCH  13  15
ENDBRANCH  12  13
BRANCH  12  17
ATOM     17  C   UNL     1       8.206  16.548  12.615  1.00  0.00    -0.006 C 
ATOM     18  C   UNL     1       9.127  15.497  13.262  1.00  0.00     0.008 C 
ATOM     19  C   UNL     1       9.065  17.744  12.160  1.00  0.00     0.008 C 
ENDBRANCH  12  17
ENDBRANCH  11  12
ENDBRANCH   1  11
TORSDOF 1
ENDMDL
MODEL 5
REMARK VINA RESULT:    -2.943      1.740      3.820
REMARK INTER + INTRA:          -4.822
REMARK INTER:                  -4.656
REMARK INTRA:                  -0.166
REMARK UNBOUND:                -0.330
REMARK SMILES CC1=CCC[C@@H](C)C(=O)C[C@@H](C(C)C)C(=O)C1
REMARK SMILES IDX 8 1 9 2 6 3 7 4 5 5 4 6 3 7 2 8 1 9 10 11 11 12 15 13 16 14
REMARK SMILES IDX 17 15 12 17 13 18 14 19
REMARK H PARENT
REMARK Flexibility Score: 70.00
ROOT
ATOM      1  C   UNL     1       7.470  20.677  14.203  1.00  0.00     0.136 C 
ATOM      2  O   UNL     1       7.729  21.836  13.911  1.00  0.00    -0.299 OA
ENDROOT
BRANCH   1   3
ATOM      3  C   UNL     1       8.246  19.982  15.309  1.00  0.00     0.053 C 
ATOM      4  C   UNL     1       9.111  20.989  16.083  1.00  0.00     0.016 C 
BRANCH   3   5
ATOM      5  C   UNL     1       9.115  18.836  14.735  1.00  0.00     0.015 C 
BRANCH   5   6
ATOM      6  C   UNL     1       8.681  17.450  15.254  1.00  0.00     0.028 C 
BRANCH   6   7
ATOM      7  C   UNL     1       8.231  16.557  14.126  1.00  0.00    -0.028 C 
ATOM      8  C   UNL     1       6.938  16.275  13.836  1.00  0.00    -0.070 CG0
ATOM      9  C   UNL     1       6.656  15.403  12.639  1.00  0.00     0.039 C 
ATOM     10  G   UNL     1       5.770  16.799  14.661  1.00  0.00     0.000 G0
ENDBRANCH   6   7
ENDBRANCH   5   6
ENDBRANCH   3   5
ENDBRANCH   1   3
BRANCH   1  11
ATOM     11  C   UNL     1       6.389  19.949  13.438  1.00  0.00     0.087 C 
BRANCH  11  12
ATOM     12  C   UNL     1       5.261  19.360  14.333  1.00  0.00     0.066 C 
BRANCH  12  13
ATOM     13  C   UNL     1       5.005  17.902  13.976  1.00  0.00     0.140 C 
ATOM     14  O   UNL     1       4.143  17.621  13.154  1.00  0.00    -0.299 OA
BRANCH  13  15
ATOM     15  C   UNL     1       5.755  16.794  14.672  1.00  0.00     0.106 CG0
ATOM     16  G   UNL     1       6.931  16.289  13.847  1.00  0.00     0.000 G0
ENDBRANCH  13  15
ENDBRANCH  12  13
BRANCH  12  17
ATOM     17  C   UNL     1       3.933  20.189  14.339  1.00  0.00    -0.006 C 
ATOM     18  C   UNL     1       4.179  21.708  14.276  1.00  0.00     0.008 C 
ATOM     19  C   UNL     1       3.098  19.876  15.596  1.00  0.00     0.008 C 
ENDBRANCH  12  17
ENDBRANCH  11  12
ENDBRANCH   1  11
TORSDOF 1
ENDMDL
MODEL 6
REMARK VINA RESULT:    -2.899      5.808      8.190
REMARK INTER + INTRA:          -4.755
REMARK INTER:                  -4.438
REMARK INTRA:                  -0.317
REMARK UNBOUND:                -0.330
REMARK SMILES CC1=CCC[C@@H](C)C(=O)C[C@@H](C(C)C)C(=O)C1
REMARK SMILES IDX 8 1 9 2 6 3 7 4 5 5 4 6 3 7 2 8 1 9 10 11 11 12 15 13 16 14
REMARK SMILES IDX 17 15 12 17 13 18 14 19
REMARK H PARENT
REMARK Flexibility Score: 70.00
ROOT
ATOM      1  C   UNL     1      15.012  18.187  15.865  1.00  0.00     0.136 C 
ATOM      2  O   UNL     1      15.932  18.514  16.603  1.00  0.00    -0.299 OA
ENDROOT
BRANCH   1   3
ATOM      3  C   UNL     1      14.874  18.830  14.495  1.00  0.00     0.053 C 
ATOM      4  C   UNL     1      16.036  19.799  14.228  1.00  0.00     0.016 C 
BRANCH   3   5
ATOM      5  C   UNL     1      13.512  19.553  14.361  1.00  0.00     0.015 C 
BRANCH   5   6
ATOM      6  C   UNL     1      12.590  18.885  13.321  1.00  0.00     0.028 C 
BRANCH   6   7
ATOM      7  C   UNL     1      11.253  18.529  13.918  1.00  0.00    -0.028 C 
ATOM      8  C   UNL     1      10.857  17.271  14.227  1.00  0.00    -0.070 CG0
ATOM      9  C   UNL     1       9.504  17.093  14.869  1.00  0.00     0.039 C 
ATOM     10  G   UNL     1      11.716  16.043  13.957  1.00  0.00     0.000 G0
ENDBRANCH   6   7
ENDBRANCH   5   6
ENDBRANCH   3   5
ENDBRANCH   1   3
BRANCH   1  11
ATOM     11  C   UNL     1      14.015  17.157  16.343  1.00  0.00     0.087 C 
BRANCH  11  12
ATOM     12  C   UNL     1      13.900  15.907  15.424  1.00  0.00     0.066 C 
BRANCH  12  13
ATOM     13  C   UNL     1      12.438  15.548  15.195  1.00  0.00     0.140 C 
ATOM     14  O   UNL     1      11.863  14.812  15.986  1.00  0.00    -0.299 OA
BRANCH  13  15
ATOM     15  C   UNL     1      11.707  16.034  13.969  1.00  0.00     0.106 CG0
ATOM     16  G   UNL     1      10.859  17.266  14.256  1.00  0.00     0.000 G0
ENDBRANCH  13  15
ENDBRANCH  12  13
BRANCH  12  17
ATOM     17  C   UNL     1      14.725  14.666  15.903  1.00  0.00    -0.006 C 
ATOM     18  C   UNL     1      15.086  14.733  17.399  1.00  0.00     0.008 C 
ATOM     19  C   UNL     1      16.026  14.525  15.088  1.00  0.00     0.008 C 
ENDBRANCH  12  17
ENDBRANCH  11  12
ENDBRANCH   1  11
TORSDOF 1
ENDMDL
MODEL 7
REMARK VINA RESULT:    -2.757     10.801     12.938
REMARK INTER + INTRA:          -4.538
REMARK INTER:                  -4.149
REMARK INTRA:                  -0.389
REMARK UNBOUND:                -0.330
REMARK SMILES CC1=CCC[C@@H](C)C(=O)C[C@@H](C(C)C)C(=O)C1
REMARK SMILES IDX 8 1 9 2 6 3 7 4 5 5 4 6 3 7 2 8 1 9 10 11 11 12 15 13 16 14
REMARK SMILES IDX 17 15 12 17 13 18 14 19
REMARK H PARENT
REMARK Flexibility Score: 70.00
ROOT
ATOM      1  C   UNL     1       4.952  32.078  12.979  1.00  0.00     0.136 C 
ATOM      2  O   UNL     1       5.763  32.759  12.367  1.00  0.00    -0.299 OA
ENDROOT
BRANCH   1   3
ATOM      3  C   UNL     1       4.406  32.564  14.312  1.00  0.00     0.053 C 
ATOM      4  C   UNL     1       3.570  33.840  14.126  1.00  0.00     0.016 C 
BRANCH   3   5
ATOM      5  C   UNL     1       5.554  32.799  15.323  1.00  0.00     0.015 C 
BRANCH   5   6
ATOM      6  C   UNL     1       6.022  31.494  15.998  1.00  0.00     0.028 C 
BRANCH   6   7
ATOM      7  C   UNL     1       7.172  30.869  15.250  1.00  0.00    -0.028 C 
ATOM      8  C   UNL     1       7.159  29.622  14.721  1.00  0.00    -0.070 CG0
ATOM      9  C   UNL     1       8.377  29.167  13.955  1.00  0.00     0.039 C 
ATOM     10  G   UNL     1       5.978  28.672  14.865  1.00  0.00     0.000 G0
ENDBRANCH   6   7
ENDBRANCH   5   6
ENDBRANCH   3   5
ENDBRANCH   1   3
BRANCH   1  11
ATOM     11  C   UNL     1       4.521  30.751  12.400  1.00  0.00     0.087 C 
BRANCH  11  12
ATOM     12  C   UNL     1       4.028  29.724  13.460  1.00  0.00     0.066 C 
BRANCH  12  13
ATOM     13  C   UNL     1       5.071  28.633  13.668  1.00  0.00     0.140 C 
ATOM     14  O   UNL     1       5.141  27.702  12.877  1.00  0.00    -0.299 OA
BRANCH  13  15
ATOM     15  C   UNL     1       5.975  28.650  14.875  1.00  0.00     0.106 CG0
ATOM     16  G   UNL     1       7.138  29.618  14.708  1.00  0.00     0.000 G0
ENDBRANCH  13  15
ENDBRANCH  12  13
BRANCH  12  17
ATOM     17  C   UNL     1       2.614  29.116  13.173  1.00  0.00    -0.006 C 
ATOM     18  C   UNL     1       1.702  30.077  12.388  1.00  0.00     0.008 C 
ATOM     19  C   UNL     1       1.908  28.729  14.487  1.00  0.00     0.008 C 
ENDBRANCH  12  17
ENDBRANCH  11  12
ENDBRANCH   1  11
TORSDOF 1
ENDMDL
MODEL 8
REMARK VINA RESULT:    -2.622     10.948     13.847
REMARK INTER + INTRA:          -4.332
REMARK INTER:                  -4.406
REMARK INTRA:                   0.074
REMARK UNBOUND:                -0.330
REMARK SMILES CC1=CCC[C@@H](C)C(=O)C[C@@H](C(C)C)C(=O)C1
REMARK SMILES IDX 8 1 9 2 6 3 7 4 5 5 4 6 3 7 2 8 1 9 10 11 11 12 15 13 16 14
REMARK SMILES IDX 17 15 12 17 13 18 14 19
REMARK H PARENT
REMARK Flexibility Score: 70.00
ROOT
ATOM      1  C   UNL     1      14.361  25.737  14.385  1.00  0.00     0.136 C 
ATOM      2  O   UNL     1      14.584  24.657  14.913  1.00  0.00    -0.299 OA
ENDROOT
BRANCH   1   3
ATOM      3  C   UNL     1      13.241  26.620  14.910  1.00  0.00     0.053 C 
ATOM      4  C   UNL     1      11.928  25.829  15.016  1.00  0.00     0.016 C 
BRANCH   3   5
ATOM      5  C   UNL     1      13.060  27.870  14.014  1.00  0.00     0.015 C 
BRANCH   5   6
ATOM      6  C   UNL     1      13.463  29.173  14.733  1.00  0.00     0.028 C 
BRANCH   6   7
ATOM      7  C   UNL     1      14.055  30.172  13.772  1.00  0.00    -0.028 C 
ATOM      8  C   UNL     1      15.364  30.229  13.428  1.00  0.00    -0.070 CG0
ATOM      9  C   UNL     1      15.784  31.258  12.409  1.00  0.00     0.039 C 
ATOM     10  G   UNL     1      16.418  29.304  14.023  1.00  0.00     0.000 G0
ENDBRANCH   6   7
ENDBRANCH   5   6
ENDBRANCH   3   5
ENDBRANCH   1   3
BRANCH   1  11
ATOM     11  C   UNL     1      15.197  26.165  13.202  1.00  0.00     0.087 C 
BRANCH  11  12
ATOM     12  C   UNL     1      16.602  26.716  13.580  1.00  0.00     0.066 C 
BRANCH  12  13
ATOM     13  C   UNL     1      16.757  28.153  13.102  1.00  0.00     0.140 C 
ATOM     14  O   UNL     1      17.198  28.376  11.982  1.00  0.00    -0.299 OA
BRANCH  13  15
ATOM     15  C   UNL     1      16.437  29.309  14.016  1.00  0.00     0.106 CG0
ATOM     16  G   UNL     1      15.386  30.237  13.423  1.00  0.00     0.000 G0
ENDBRANCH  13  15
ENDBRANCH  12  13
BRANCH  12  17
ATOM     17  C   UNL     1      17.801  25.825  13.111  1.00  0.00    -0.006 C 
ATOM     18  C   UNL     1      17.467  24.321  13.129  1.00  0.00     0.008 C 
ATOM     19  C   UNL     1      19.041  26.066  13.994  1.00  0.00     0.008 C 
ENDBRANCH  12  17
ENDBRANCH  11  12
ENDBRANCH   1  11
TORSDOF 1
ENDMDL
MODEL 9
REMARK VINA RESULT:    -2.558      8.356     10.581
REMARK INTER + INTRA:          -4.234
REMARK INTER:                  -3.870
REMARK INTRA:                  -0.364
REMARK UNBOUND:                -0.330
REMARK SMILES CC1=CCC[C@@H](C)C(=O)C[C@@H](C(C)C)C(=O)C1
REMARK SMILES IDX 8 1 9 2 6 3 7 4 5 5 4 6 3 7 2 8 1 9 10 11 11 12 15 13 16 14
REMARK SMILES IDX 17 15 12 17 13 18 14 19
REMARK H PARENT
REMARK Flexibility Score: 70.00
ROOT
ATOM      1  C   UNL     1      17.579  15.830  14.054  1.00  0.00     0.136 C 
ATOM      2  O   UNL     1      18.025  15.317  13.037  1.00  0.00    -0.299 OA
ENDROOT
BRANCH   1   3
ATOM      3  C   UNL     1      17.859  15.197  15.407  1.00  0.00     0.053 C 
ATOM      4  C   UNL     1      19.345  14.830  15.540  1.00  0.00     0.016 C 
BRANCH   3   5
ATOM      5  C   UNL     1      16.963  13.954  15.628  1.00  0.00     0.015 C 
BRANCH   5   6
ATOM      6  C   UNL     1      15.932  14.164  16.756  1.00  0.00     0.028 C 
BRANCH   6   7
ATOM      7  C   UNL     1      14.538  14.322  16.205  1.00  0.00    -0.028 C 
ATOM      8  C   UNL     1      13.857  15.492  16.154  1.00  0.00    -0.070 CG0
ATOM      9  C   UNL     1      12.488  15.487  15.522  1.00  0.00     0.039 C 
ATOM     10  G   UNL     1      14.414  16.799  16.702  1.00  0.00     0.000 G0
ENDBRANCH   6   7
ENDBRANCH   5   6
ENDBRANCH   3   5
ENDBRANCH   1   3
BRANCH   1  11
ATOM     11  C   UNL     1      16.739  17.080  13.941  1.00  0.00     0.087 C 
BRANCH  11  12
ATOM     12  C   UNL     1      16.442  17.774  15.302  1.00  0.00     0.066 C 
BRANCH  12  13
ATOM     13  C   UNL     1      14.953  17.710  15.617  1.00  0.00     0.140 C 
ATOM     14  O   UNL     1      14.175  18.442  15.021  1.00  0.00    -0.299 OA
BRANCH  13  15
ATOM     15  C   UNL     1      14.433  16.803  16.704  1.00  0.00     0.106 CG0
ATOM     16  G   UNL     1      13.871  15.502  16.148  1.00  0.00     0.000 G0
ENDBRANCH  13  15
ENDBRANCH  12  13
BRANCH  12  17
ATOM     17  C   UNL     1      16.990  19.235  15.423  1.00  0.00    -0.006 C 
ATOM     18  C   UNL     1      17.482  19.800  14.077  1.00  0.00     0.008 C 
ATOM     19  C   UNL     1      18.147  19.303  16.439  1.00  0.00     0.008 C 
ENDBRANCH  12  17
ENDBRANCH  11  12
ENDBRANCH   1  11
TORSDOF 1
ENDMDL
