MODEL 1
REMARK VINA RESULT:    -4.738      0.000      0.000
REMARK INTER + INTRA:          -5.196
REMARK INTER:                  -5.153
REMARK INTRA:                  -0.042
REMARK UNBOUND:                -0.042
REMARK SMILES COc1ccccc1O
REMARK SMILES IDX 3 1 4 2 5 3 6 4 7 5 8 6 2 7 1 8 9 9
REMARK H PARENT 9 10
REMARK Flexibility Score: inf
ROOT
ATOM      1  C   UNL     1      -5.682   9.693 -14.900  1.00  0.00     0.160 A 
ATOM      2  C   UNL     1      -5.437   8.564 -15.707  1.00  0.00     0.050 A 
ATOM      3  C   UNL     1      -5.415   8.682 -17.099  1.00  0.00     0.004 A 
ATOM      4  C   UNL     1      -5.636   9.921 -17.701  1.00  0.00     0.004 A 
ATOM      5  C   UNL     1      -5.878  11.047 -16.912  1.00  0.00     0.050 A 
ATOM      6  C   UNL     1      -5.903  10.941 -15.517  1.00  0.00     0.157 A 
ENDROOT
BRANCH   1   7
ATOM      7  O   UNL     1      -5.711   9.615 -13.499  1.00  0.00    -0.493 OA
ATOM      8  C   UNL     1      -4.580   9.325 -12.684  1.00  0.00     0.278 C 
ENDBRANCH   1   7
BRANCH   6   9
ATOM      9  O   UNL     1      -6.149  12.085 -14.758  1.00  0.00    -0.504 OA
ATOM     10  H   UNL     1      -5.656  12.955 -14.917  1.00  0.00     0.293 HD
ENDBRANCH   6   9
TORSDOF 2
ENDMDL
MODEL 2
REMARK VINA RESULT:    -4.715      1.732      2.029
REMARK INTER + INTRA:          -5.171
REMARK INTER:                  -5.146
REMARK INTRA:                  -0.025
REMARK UNBOUND:                -0.042
REMARK SMILES COc1ccccc1O
REMARK SMILES IDX 3 1 4 2 5 3 6 4 7 5 8 6 2 7 1 8 9 9
REMARK H PARENT 9 10
REMARK Flexibility Score: inf
ROOT
ATOM      1  C   UNL     1      -5.747   9.605 -13.830  1.00  0.00     0.160 A 
ATOM      2  C   UNL     1      -6.480   8.543 -14.394  1.00  0.00     0.050 A 
ATOM      3  C   UNL     1      -6.102   8.000 -15.626  1.00  0.00     0.004 A 
ATOM      4  C   UNL     1      -4.995   8.508 -16.305  1.00  0.00     0.004 A 
ATOM      5  C   UNL     1      -4.261   9.561 -15.755  1.00  0.00     0.050 A 
ATOM      6  C   UNL     1      -4.630  10.112 -14.523  1.00  0.00     0.157 A 
ENDROOT
BRANCH   1   7
ATOM      7  O   UNL     1      -6.095  10.176 -12.595  1.00  0.00    -0.493 OA
ATOM      8  C   UNL     1      -7.287   9.876 -11.875  1.00  0.00     0.278 C 
ENDBRANCH   1   7
BRANCH   6   9
ATOM      9  O   UNL     1      -3.875  11.163 -14.002  1.00  0.00    -0.504 OA
ATOM     10  H   UNL     1      -2.867  11.117 -13.923  1.00  0.00     0.293 HD
ENDBRANCH   6   9
TORSDOF 2
ENDMDL
MODEL 3
REMARK VINA RESULT:    -4.525      1.436      1.615
REMARK INTER + INTRA:          -4.964
REMARK INTER:                  -4.929
REMARK INTRA:                  -0.035
REMARK UNBOUND:                -0.042
REMARK SMILES COc1ccccc1O
REMARK SMILES IDX 3 1 4 2 5 3 6 4 7 5 8 6 2 7 1 8 9 9
REMARK H PARENT 9 10
REMARK Flexibility Score: inf
ROOT
ATOM      1  C   UNL     1      -6.759   9.871 -14.315  1.00  0.00     0.160 A 
ATOM      2  C   UNL     1      -6.646   8.481 -14.522  1.00  0.00     0.050 A 
ATOM      3  C   UNL     1      -5.936   7.985 -15.619  1.00  0.00     0.004 A 
ATOM      4  C   UNL     1      -5.333   8.865 -16.518  1.00  0.00     0.004 A 
ATOM      5  C   UNL     1      -5.438  10.243 -16.324  1.00  0.00     0.050 A 
ATOM      6  C   UNL     1      -6.147  10.751 -15.230  1.00  0.00     0.157 A 
ENDROOT
BRANCH   1   7
ATOM      7  O   UNL     1      -7.463  10.407 -13.225  1.00  0.00    -0.493 OA
ATOM      8  C   UNL     1      -7.244  10.042 -11.866  1.00  0.00     0.278 C 
ENDBRANCH   1   7
BRANCH   6   9
ATOM      9  O   UNL     1      -6.232  12.134 -15.065  1.00  0.00    -0.504 OA
ATOM     10  H   UNL     1      -6.188  12.775 -15.847  1.00  0.00     0.293 HD
ENDBRANCH   6   9
TORSDOF 2
ENDMDL
MODEL 4
REMARK VINA RESULT:    -4.512      1.994      3.430
REMARK INTER + INTRA:          -4.950
REMARK INTER:                  -4.924
REMARK INTRA:                  -0.026
REMARK UNBOUND:                -0.042
REMARK SMILES COc1ccccc1O
REMARK SMILES IDX 3 1 4 2 5 3 6 4 7 5 8 6 2 7 1 8 9 9
REMARK H PARENT 9 10
REMARK Flexibility Score: inf
ROOT
ATOM      1  C   UNL     1      -5.125   9.126 -14.599  1.00  0.00     0.160 A 
ATOM      2  C   UNL     1      -6.168   8.368 -15.167  1.00  0.00     0.050 A 
ATOM      3  C   UNL     1      -7.274   7.999 -14.396  1.00  0.00     0.004 A 
ATOM      4  C   UNL     1      -7.352   8.380 -13.056  1.00  0.00     0.004 A 
ATOM      5  C   UNL     1      -6.325   9.132 -12.483  1.00  0.00     0.050 A 
ATOM      6  C   UNL     1      -5.213   9.507 -13.245  1.00  0.00     0.157 A 
ENDROOT
BRANCH   1   7
ATOM      7  O   UNL     1      -3.999   9.517 -15.341  1.00  0.00    -0.493 OA
ATOM      8  C   UNL     1      -3.895   9.424 -16.758  1.00  0.00     0.278 C 
ENDBRANCH   1   7
BRANCH   6   9
ATOM      9  O   UNL     1      -4.204  10.258 -12.641  1.00  0.00    -0.504 OA
ATOM     10  H   UNL     1      -3.784  11.061 -13.093  1.00  0.00     0.293 HD
ENDBRANCH   6   9
TORSDOF 2
ENDMDL
MODEL 5
REMARK VINA RESULT:    -4.425      2.104      2.975
REMARK INTER + INTRA:          -4.855
REMARK INTER:                  -4.818
REMARK INTRA:                  -0.037
REMARK UNBOUND:                -0.042
REMARK SMILES COc1ccccc1O
REMARK SMILES IDX 3 1 4 2 5 3 6 4 7 5 8 6 2 7 1 8 9 9
REMARK H PARENT 9 10
REMARK Flexibility Score: inf
ROOT
ATOM      1  C   UNL     1      -5.268   9.412 -13.776  1.00  0.00     0.160 A 
ATOM      2  C   UNL     1      -6.444   9.050 -13.091  1.00  0.00     0.050 A 
ATOM      3  C   UNL     1      -7.361   8.171 -13.676  1.00  0.00     0.004 A 
ATOM      4  C   UNL     1      -7.115   7.646 -14.944  1.00  0.00     0.004 A 
ATOM      5  C   UNL     1      -5.952   7.997 -15.633  1.00  0.00     0.050 A 
ATOM      6  C   UNL     1      -5.029   8.876 -15.058  1.00  0.00     0.157 A 
ENDROOT
BRANCH   1   7
ATOM      7  O   UNL     1      -4.324  10.291 -13.222  1.00  0.00    -0.493 OA
ATOM      8  C   UNL     1      -4.356  11.707 -13.370  1.00  0.00     0.278 C 
ENDBRANCH   1   7
BRANCH   6   9
ATOM      9  O   UNL     1      -3.877   9.206 -15.772  1.00  0.00    -0.504 OA
ATOM     10  H   UNL     1      -3.913   9.591 -16.708  1.00  0.00     0.293 HD
ENDBRANCH   6   9
TORSDOF 2
ENDMDL
MODEL 6
REMARK VINA RESULT:    -4.400      1.852      2.379
REMARK INTER + INTRA:          -4.828
REMARK INTER:                  -4.803
REMARK INTRA:                  -0.025
REMARK UNBOUND:                -0.042
REMARK SMILES COc1ccccc1O
REMARK SMILES IDX 3 1 4 2 5 3 6 4 7 5 8 6 2 7 1 8 9 9
REMARK H PARENT 9 10
REMARK Flexibility Score: inf
ROOT
ATOM      1  C   UNL     1      -7.028   9.674 -14.708  1.00  0.00     0.160 A 
ATOM      2  C   UNL     1      -6.748   8.529 -15.480  1.00  0.00     0.050 A 
ATOM      3  C   UNL     1      -5.466   8.324 -16.000  1.00  0.00     0.004 A 
ATOM      4  C   UNL     1      -4.455   9.254 -15.757  1.00  0.00     0.004 A 
ATOM      5  C   UNL     1      -4.721  10.392 -14.993  1.00  0.00     0.050 A 
ATOM      6  C   UNL     1      -6.000  10.607 -14.469  1.00  0.00     0.157 A 
ENDROOT
BRANCH   1   7
ATOM      7  O   UNL     1      -8.302   9.914 -14.169  1.00  0.00    -0.493 OA
ATOM      8  C   UNL     1      -9.365   8.966 -14.158  1.00  0.00     0.278 C 
ENDBRANCH   1   7
BRANCH   6   9
ATOM      9  O   UNL     1      -6.233  11.755 -13.710  1.00  0.00    -0.504 OA
ATOM     10  H   UNL     1      -5.576  12.525 -13.679  1.00  0.00     0.293 HD
ENDBRANCH   6   9
TORSDOF 2
ENDMDL
MODEL 7
REMARK VINA RESULT:    -4.381      0.974      2.326
REMARK INTER + INTRA:          -4.808
REMARK INTER:                  -4.787
REMARK INTRA:                  -0.021
REMARK UNBOUND:                -0.042
REMARK SMILES COc1ccccc1O
REMARK SMILES IDX 3 1 4 2 5 3 6 4 7 5 8 6 2 7 1 8 9 9
REMARK H PARENT 9 10
REMARK Flexibility Score: inf
ROOT
ATOM      1  C   UNL     1      -5.809  10.626 -15.280  1.00  0.00     0.160 A 
ATOM      2  C   UNL     1      -5.798  11.031 -16.629  1.00  0.00     0.050 A 
ATOM      3  C   UNL     1      -5.679  10.084 -17.650  1.00  0.00     0.004 A 
ATOM      4  C   UNL     1      -5.571   8.729 -17.339  1.00  0.00     0.004 A 
ATOM      5  C   UNL     1      -5.581   8.315 -16.005  1.00  0.00     0.050 A 
ATOM      6  C   UNL     1      -5.699   9.254 -14.975  1.00  0.00     0.157 A 
ENDROOT
BRANCH   1   7
ATOM      7  O   UNL     1      -5.927  11.547 -14.227  1.00  0.00    -0.493 OA
ATOM      8  C   UNL     1      -4.825  12.130 -13.538  1.00  0.00     0.278 C 
ENDBRANCH   1   7
BRANCH   6   9
ATOM      9  O   UNL     1      -5.706   8.807 -13.654  1.00  0.00    -0.504 OA
ATOM     10  H   UNL     1      -4.893   8.387 -13.221  1.00  0.00     0.293 HD
ENDBRANCH   6   9
TORSDOF 2
ENDMDL
MODEL 8
REMARK VINA RESULT:    -4.314      1.964      2.563
REMARK INTER + INTRA:          -4.734
REMARK INTER:                  -4.689
REMARK INTRA:                  -0.046
REMARK UNBOUND:                -0.042
REMARK SMILES COc1ccccc1O
REMARK SMILES IDX 3 1 4 2 5 3 6 4 7 5 8 6 2 7 1 8 9 9
REMARK H PARENT 9 10
REMARK Flexibility Score: inf
ROOT
ATOM      1  C   UNL     1      -5.684   8.954 -14.019  1.00  0.00     0.160 A 
ATOM      2  C   UNL     1      -4.505   9.686 -14.265  1.00  0.00     0.050 A 
ATOM      3  C   UNL     1      -3.974   9.757 -15.556  1.00  0.00     0.004 A 
ATOM      4  C   UNL     1      -4.609   9.102 -16.611  1.00  0.00     0.004 A 
ATOM      5  C   UNL     1      -5.778   8.375 -16.380  1.00  0.00     0.050 A 
ATOM      6  C   UNL     1      -6.318   8.296 -15.091  1.00  0.00     0.157 A 
ENDROOT
BRANCH   1   7
ATOM      7  O   UNL     1      -6.248   8.860 -12.736  1.00  0.00    -0.493 OA
ATOM      8  C   UNL     1      -7.008   9.890 -12.113  1.00  0.00     0.278 C 
ENDBRANCH   1   7
BRANCH   6   9
ATOM      9  O   UNL     1      -7.488   7.561 -14.894  1.00  0.00    -0.504 OA
ATOM     10  H   UNL     1      -7.543   6.801 -14.227  1.00  0.00     0.293 HD
ENDBRANCH   6   9
TORSDOF 2
ENDMDL
MODEL 9
REMARK VINA RESULT:    -4.219      2.269      3.007
REMARK INTER + INTRA:          -4.632
REMARK INTER:                  -4.606
REMARK INTRA:                  -0.025
REMARK UNBOUND:                -0.042
REMARK SMILES COc1ccccc1O
REMARK SMILES IDX 3 1 4 2 5 3 6 4 7 5 8 6 2 7 1 8 9 9
REMARK H PARENT 9 10
REMARK Flexibility Score: inf
ROOT
ATOM      1  C   UNL     1      -6.852   8.924 -12.931  1.00  0.00     0.160 A 
ATOM      2  C   UNL     1      -7.657   8.035 -13.671  1.00  0.00     0.050 A 
ATOM      3  C   UNL     1      -7.251   7.600 -14.936  1.00  0.00     0.004 A 
ATOM      4  C   UNL     1      -6.043   8.044 -15.475  1.00  0.00     0.004 A 
ATOM      5  C   UNL     1      -5.237   8.924 -14.750  1.00  0.00     0.050 A 
ATOM      6  C   UNL     1      -5.633   9.367 -13.484  1.00  0.00     0.157 A 
ENDROOT
BRANCH   1   7
ATOM      7  O   UNL     1      -7.225   9.382 -11.658  1.00  0.00    -0.493 OA
ATOM      8  C   UNL     1      -8.290   8.838 -10.885  1.00  0.00     0.278 C 
ENDBRANCH   1   7
BRANCH   6   9
ATOM      9  O   UNL     1      -4.804  10.246 -12.787  1.00  0.00    -0.504 OA
ATOM     10  H   UNL     1      -4.725  10.229 -11.778  1.00  0.00     0.293 HD
ENDBRANCH   6   9
TORSDOF 2
ENDMDL
