MODEL 1
REMARK VINA RESULT:    -4.370      0.000      0.000
REMARK INTER + INTRA:          -6.912
REMARK INTER:                  -6.413
REMARK INTRA:                  -0.499
REMARK UNBOUND:                -0.499
REMARK SMILES O=C([O-])CCCCCCCC(=O)[O-]
REMARK SMILES IDX 7 1 6 2 5 3 4 4 2 5 1 6 3 7 8 8 9 9 10 10 11 11 12 12 13 13
REMARK H PARENT
REMARK Flexibility Score: inf
ROOT
ATOM      1  C   UNL     1     -12.441  -5.422  -5.847  1.00  0.00     0.000 C 
ENDROOT
BRANCH   1   2
ATOM      2  C   UNL     1     -12.422  -4.077  -6.581  1.00  0.00     0.000 C 
BRANCH   2   3
ATOM      3  C   UNL     1     -11.079  -3.858  -7.294  1.00  0.00     0.006 C 
BRANCH   3   4
ATOM      4  C   UNL     1     -11.235  -3.789  -8.818  1.00  0.00     0.053 C 
BRANCH   4   5
ATOM      5  C   UNL     1     -10.936  -5.104  -9.469  1.00  0.00     0.041 C 
ATOM      6  O   UNL     1     -10.372  -6.021  -8.815  1.00  0.00    -0.550 OA
ATOM      7  O   UNL     1     -11.247  -5.304 -10.808  1.00  0.00    -0.550 OA
ENDBRANCH   4   5
ENDBRANCH   3   4
ENDBRANCH   2   3
ENDBRANCH   1   2
BRANCH   1   8
ATOM      8  C   UNL     1     -11.074  -5.729  -5.224  1.00  0.00     0.000 C 
BRANCH   8   9
ATOM      9  C   UNL     1     -10.600  -7.140  -5.603  1.00  0.00     0.006 C 
BRANCH   9  10
ATOM     10  C   UNL     1      -9.190  -7.439  -5.077  1.00  0.00     0.053 C 
BRANCH  10  11
ATOM     11  C   UNL     1      -8.904  -8.910  -5.065  1.00  0.00     0.041 C 
ATOM     12  O   UNL     1      -7.717  -9.324  -4.990  1.00  0.00    -0.550 OA
ATOM     13  O   UNL     1      -9.946  -9.822  -5.168  1.00  0.00    -0.550 OA
ENDBRANCH  10  11
ENDBRANCH   9  10
ENDBRANCH   8   9
ENDBRANCH   1   8
TORSDOF 8
ENDMDL
MODEL 2
REMARK VINA RESULT:    -4.336      2.225      3.615
REMARK INTER + INTRA:          -6.863
REMARK INTER:                  -6.518
REMARK INTRA:                  -0.344
REMARK UNBOUND:                -0.499
REMARK SMILES O=C([O-])CCCCCCCC(=O)[O-]
REMARK SMILES IDX 7 1 6 2 5 3 4 4 2 5 1 6 3 7 8 8 9 9 10 10 11 11 12 12 13 13
REMARK H PARENT
REMARK Flexibility Score: inf
ROOT
ATOM      1  C   UNL     1      -8.807  -8.130  -5.027  1.00  0.00     0.000 C 
ENDROOT
BRANCH   1   2
ATOM      2  C   UNL     1      -9.833  -7.042  -5.365  1.00  0.00     0.000 C 
BRANCH   2   3
ATOM      3  C   UNL     1      -9.393  -6.235  -6.596  1.00  0.00     0.006 C 
BRANCH   3   4
ATOM      4  C   UNL     1     -10.488  -6.170  -7.668  1.00  0.00     0.053 C 
BRANCH   4   5
ATOM      5  C   UNL     1     -10.520  -4.839  -8.353  1.00  0.00     0.041 C 
ATOM      6  O   UNL     1     -10.364  -4.764  -9.601  1.00  0.00    -0.550 OA
ATOM      7  O   UNL     1     -10.685  -3.677  -7.610  1.00  0.00    -0.550 OA
ENDBRANCH   4   5
ENDBRANCH   3   4
ENDBRANCH   2   3
ENDBRANCH   1   2
BRANCH   1   8
ATOM      8  C   UNL     1      -9.438  -9.525  -5.106  1.00  0.00     0.000 C 
BRANCH   8   9
ATOM      9  C   UNL     1      -8.368 -10.600  -5.353  1.00  0.00     0.006 C 
BRANCH   9  10
ATOM     10  C   UNL     1      -6.948 -10.021  -5.327  1.00  0.00     0.053 C 
BRANCH  10  11
ATOM     11  C   UNL     1      -6.081 -10.632  -6.386  1.00  0.00     0.041 C 
ATOM     12  O   UNL     1      -6.601 -11.155  -7.406  1.00  0.00    -0.550 OA
ATOM     13  O   UNL     1      -4.701 -10.650  -6.229  1.00  0.00    -0.550 OA
ENDBRANCH  10  11
ENDBRANCH   9  10
ENDBRANCH   8   9
ENDBRANCH   1   8
TORSDOF 8
ENDMDL
MODEL 3
REMARK VINA RESULT:    -4.308      2.458      5.212
REMARK INTER + INTRA:          -6.821
REMARK INTER:                  -6.372
REMARK INTRA:                  -0.450
REMARK UNBOUND:                -0.499
REMARK SMILES O=C([O-])CCCCCCCC(=O)[O-]
REMARK SMILES IDX 7 1 6 2 5 3 4 4 2 5 1 6 3 7 8 8 9 9 10 10 11 11 12 12 13 13
REMARK H PARENT
REMARK Flexibility Score: inf
ROOT
ATOM      1  C   UNL     1     -10.486  -6.061  -7.911  1.00  0.00     0.000 C 
ENDROOT
BRANCH   1   2
ATOM      2  C   UNL     1      -9.525  -6.202  -6.726  1.00  0.00     0.000 C 
BRANCH   2   3
ATOM      3  C   UNL     1      -9.966  -7.340  -5.792  1.00  0.00     0.006 C 
BRANCH   3   4
ATOM      4  C   UNL     1      -8.835  -7.798  -4.861  1.00  0.00     0.053 C 
BRANCH   4   5
ATOM      5  C   UNL     1      -8.593  -9.272  -4.962  1.00  0.00     0.041 C 
ATOM      6  O   UNL     1      -7.416  -9.719  -5.015  1.00  0.00    -0.550 OA
ATOM      7  O   UNL     1      -9.666 -10.151  -5.032  1.00  0.00    -0.550 OA
ENDBRANCH   4   5
ENDBRANCH   3   4
ENDBRANCH   2   3
ENDBRANCH   1   2
BRANCH   1   8
ATOM      8  C   UNL     1     -10.909  -4.600  -8.106  1.00  0.00     0.000 C 
BRANCH   8   9
ATOM      9  C   UNL     1     -11.371  -3.979  -6.779  1.00  0.00     0.006 C 
BRANCH   9  10
ATOM     10  C   UNL     1     -12.626  -4.665  -6.223  1.00  0.00     0.053 C 
BRANCH  10  11
ATOM     11  C   UNL     1     -12.495  -4.959  -4.760  1.00  0.00     0.041 C 
ATOM     12  O   UNL     1     -11.421  -4.699  -4.155  1.00  0.00    -0.550 OA
ATOM     13  O   UNL     1     -13.547  -5.548  -4.072  1.00  0.00    -0.550 OA
ENDBRANCH  10  11
ENDBRANCH   9  10
ENDBRANCH   8   9
ENDBRANCH   1   8
TORSDOF 8
ENDMDL
MODEL 4
REMARK VINA RESULT:    -4.291      2.381      3.154
REMARK INTER + INTRA:          -6.797
REMARK INTER:                  -6.303
REMARK INTRA:                  -0.495
REMARK UNBOUND:                -0.499
REMARK SMILES O=C([O-])CCCCCCCC(=O)[O-]
REMARK SMILES IDX 7 1 6 2 5 3 4 4 2 5 1 6 3 7 8 8 9 9 10 10 11 11 12 12 13 13
REMARK H PARENT
REMARK Flexibility Score: inf
ROOT
ATOM      1  C   UNL     1     -10.093  -5.846  -7.689  1.00  0.00     0.000 C 
ENDROOT
BRANCH   1   2
ATOM      2  C   UNL     1     -10.802  -4.489  -7.758  1.00  0.00     0.000 C 
BRANCH   2   3
ATOM      3  C   UNL     1     -11.389  -4.105  -6.390  1.00  0.00     0.006 C 
BRANCH   3   4
ATOM      4  C   UNL     1     -12.820  -4.624  -6.206  1.00  0.00     0.053 C 
BRANCH   4   5
ATOM      5  C   UNL     1     -12.941  -5.514  -5.007  1.00  0.00     0.041 C 
ATOM      6  O   UNL     1     -13.258  -6.724  -5.146  1.00  0.00    -0.550 OA
ATOM      7  O   UNL     1     -12.737  -4.997  -3.734  1.00  0.00    -0.550 OA
ENDBRANCH   4   5
ENDBRANCH   3   4
ENDBRANCH   2   3
ENDBRANCH   1   2
BRANCH   1   8
ATOM      8  C   UNL     1      -9.457  -6.066  -6.312  1.00  0.00     0.000 C 
BRANCH   8   9
ATOM      9  C   UNL     1      -9.861  -7.428  -5.730  1.00  0.00     0.006 C 
BRANCH   9  10
ATOM     10  C   UNL     1      -8.790  -8.000  -4.792  1.00  0.00     0.053 C 
BRANCH  10  11
ATOM     11  C   UNL     1      -8.638  -9.481  -4.961  1.00  0.00     0.041 C 
ATOM     12  O   UNL     1      -7.492  -9.992  -5.068  1.00  0.00    -0.550 OA
ATOM     13  O   UNL     1      -9.763 -10.291  -5.031  1.00  0.00    -0.550 OA
ENDBRANCH  10  11
ENDBRANCH   9  10
ENDBRANCH   8   9
ENDBRANCH   1   8
TORSDOF 8
ENDMDL
MODEL 5
REMARK VINA RESULT:    -4.273      0.338      5.324
REMARK INTER + INTRA:          -6.771
REMARK INTER:                  -6.308
REMARK INTRA:                  -0.463
REMARK UNBOUND:                -0.499
REMARK SMILES O=C([O-])CCCCCCCC(=O)[O-]
REMARK SMILES IDX 7 1 6 2 5 3 4 4 2 5 1 6 3 7 8 8 9 9 10 10 11 11 12 12 13 13
REMARK H PARENT
REMARK Flexibility Score: inf
ROOT
ATOM      1  C   UNL     1     -12.290  -5.405  -5.363  1.00  0.00     0.000 C 
ENDROOT
BRANCH   1   2
ATOM      2  C   UNL     1     -10.803  -5.734  -5.189  1.00  0.00     0.000 C 
BRANCH   2   3
ATOM      3  C   UNL     1     -10.523  -7.207  -5.525  1.00  0.00     0.006 C 
BRANCH   3   4
ATOM      4  C   UNL     1      -9.082  -7.614  -5.190  1.00  0.00     0.053 C 
BRANCH   4   5
ATOM      5  C   UNL     1      -8.931  -9.101  -5.095  1.00  0.00     0.041 C 
ATOM      6  O   UNL     1      -9.944  -9.846  -5.165  1.00  0.00    -0.550 OA
ATOM      7  O   UNL     1      -7.677  -9.662  -4.893  1.00  0.00    -0.550 OA
ENDBRANCH   4   5
ENDBRANCH   3   4
ENDBRANCH   2   3
ENDBRANCH   1   2
BRANCH   1   8
ATOM      8  C   UNL     1     -12.505  -4.421  -6.520  1.00  0.00     0.000 C 
BRANCH   8   9
ATOM      9  C   UNL     1     -11.162  -3.928  -7.079  1.00  0.00     0.006 C 
BRANCH   9  10
ATOM     10  C   UNL     1     -11.231  -3.640  -8.584  1.00  0.00     0.053 C 
BRANCH  10  11
ATOM     11  C   UNL     1     -10.780  -4.817  -9.395  1.00  0.00     0.041 C 
ATOM     12  O   UNL     1     -10.360  -5.857  -8.823  1.00  0.00    -0.550 OA
ATOM     13  O   UNL     1     -10.795  -4.752 -10.782  1.00  0.00    -0.550 OA
ENDBRANCH  10  11
ENDBRANCH   9  10
ENDBRANCH   8   9
ENDBRANCH   1   8
TORSDOF 8
ENDMDL
MODEL 6
REMARK VINA RESULT:    -4.234      2.368      6.406
REMARK INTER + INTRA:          -6.713
REMARK INTER:                  -6.400
REMARK INTRA:                  -0.313
REMARK UNBOUND:                -0.499
REMARK SMILES O=C([O-])CCCCCCCC(=O)[O-]
REMARK SMILES IDX 7 1 6 2 5 3 4 4 2 5 1 6 3 7 8 8 9 9 10 10 11 11 12 12 13 13
REMARK H PARENT
REMARK Flexibility Score: inf
ROOT
ATOM      1  C   UNL     1      -8.881  -8.186  -5.120  1.00  0.00     0.000 C 
ENDROOT
BRANCH   1   2
ATOM      2  C   UNL     1      -9.409  -9.623  -5.034  1.00  0.00     0.000 C 
BRANCH   2   3
ATOM      3  C   UNL     1      -8.323 -10.633  -5.439  1.00  0.00     0.006 C 
BRANCH   3   4
ATOM      4  C   UNL     1      -6.937  -9.983  -5.543  1.00  0.00     0.053 C 
BRANCH   4   5
ATOM      5  C   UNL     1      -6.029 -10.751  -6.454  1.00  0.00     0.041 C 
ATOM      6  O   UNL     1      -6.506 -11.410  -7.415  1.00  0.00    -0.550 OA
ATOM      7  O   UNL     1      -4.660 -10.766  -6.221  1.00  0.00    -0.550 OA
ENDBRANCH   4   5
ENDBRANCH   3   4
ENDBRANCH   2   3
ENDBRANCH   1   2
BRANCH   1   8
ATOM      8  C   UNL     1      -9.972  -7.228  -5.612  1.00  0.00     0.000 C 
BRANCH   8   9
ATOM      9  C   UNL     1      -9.391  -6.178  -6.570  1.00  0.00     0.006 C 
BRANCH   9  10
ATOM     10  C   UNL     1     -10.349  -5.851  -7.723  1.00  0.00     0.053 C 
BRANCH  10  11
ATOM     11  C   UNL     1     -10.848  -4.441  -7.646  1.00  0.00     0.041 C 
ATOM     12  O   UNL     1     -10.713  -3.666  -8.630  1.00  0.00    -0.550 OA
ATOM     13  O   UNL     1     -11.434  -3.973  -6.477  1.00  0.00    -0.550 OA
ENDBRANCH  10  11
ENDBRANCH   9  10
ENDBRANCH   8   9
ENDBRANCH   1   8
TORSDOF 8
ENDMDL
MODEL 7
REMARK VINA RESULT:    -4.170      2.118      2.810
REMARK INTER + INTRA:          -6.620
REMARK INTER:                  -6.240
REMARK INTRA:                  -0.379
REMARK UNBOUND:                -0.499
REMARK SMILES O=C([O-])CCCCCCCC(=O)[O-]
REMARK SMILES IDX 7 1 6 2 5 3 4 4 2 5 1 6 3 7 8 8 9 9 10 10 11 11 12 12 13 13
REMARK H PARENT
REMARK Flexibility Score: inf
ROOT
ATOM      1  C   UNL     1      -9.251  -6.204  -6.804  1.00  0.00     0.000 C 
ENDROOT
BRANCH   1   2
ATOM      2  C   UNL     1     -10.369  -6.102  -7.848  1.00  0.00     0.000 C 
BRANCH   2   3
ATOM      3  C   UNL     1     -10.433  -4.689  -8.449  1.00  0.00     0.006 C 
BRANCH   3   4
ATOM      4  C   UNL     1     -11.790  -4.017  -8.208  1.00  0.00     0.053 C 
BRANCH   4   5
ATOM      5  C   UNL     1     -12.114  -3.922  -6.749  1.00  0.00     0.041 C 
ATOM      6  O   UNL     1     -11.515  -3.086  -6.021  1.00  0.00    -0.550 OA
ATOM      7  O   UNL     1     -13.049  -4.780  -6.186  1.00  0.00    -0.550 OA
ENDBRANCH   4   5
ENDBRANCH   3   4
ENDBRANCH   2   3
ENDBRANCH   1   2
BRANCH   1   8
ATOM      8  C   UNL     1      -9.790  -6.736  -5.470  1.00  0.00     0.000 C 
BRANCH   8   9
ATOM      9  C   UNL     1      -9.696  -8.268  -5.411  1.00  0.00     0.006 C 
BRANCH   9  10
ATOM     10  C   UNL     1      -8.445  -8.744  -4.661  1.00  0.00     0.053 C 
BRANCH  10  11
ATOM     11  C   UNL     1      -7.853  -9.967  -5.291  1.00  0.00     0.041 C 
ATOM     12  O   UNL     1      -8.505 -11.045  -5.319  1.00  0.00    -0.550 OA
ATOM     13  O   UNL     1      -6.569  -9.926  -5.819  1.00  0.00    -0.550 OA
ENDBRANCH  10  11
ENDBRANCH   9  10
ENDBRANCH   8   9
ENDBRANCH   1   8
TORSDOF 8
ENDMDL
MODEL 8
REMARK VINA RESULT:    -4.168      1.883      6.365
REMARK INTER + INTRA:          -6.617
REMARK INTER:                  -6.434
REMARK INTRA:                  -0.183
REMARK UNBOUND:                -0.499
REMARK SMILES O=C([O-])CCCCCCCC(=O)[O-]
REMARK SMILES IDX 7 1 6 2 5 3 4 4 2 5 1 6 3 7 8 8 9 9 10 10 11 11 12 12 13 13
REMARK H PARENT
REMARK Flexibility Score: inf
ROOT
ATOM      1  C   UNL     1     -10.000  -7.349  -5.558  1.00  0.00     0.000 C 
ENDROOT
BRANCH   1   2
ATOM      2  C   UNL     1      -8.799  -7.967  -4.833  1.00  0.00     0.000 C 
BRANCH   2   3
ATOM      3  C   UNL     1      -8.711  -9.478  -5.101  1.00  0.00     0.006 C 
BRANCH   3   4
ATOM      4  C   UNL     1      -7.280 -10.011  -4.955  1.00  0.00     0.053 C 
BRANCH   4   5
ATOM      5  C   UNL     1      -6.827 -10.735  -6.185  1.00  0.00     0.041 C 
ATOM      6  O   UNL     1      -5.766 -10.388  -6.768  1.00  0.00    -0.550 OA
ATOM      7  O   UNL     1      -7.593 -11.768  -6.707  1.00  0.00    -0.550 OA
ENDBRANCH   4   5
ENDBRANCH   3   4
ENDBRANCH   2   3
ENDBRANCH   1   2
BRANCH   1   8
ATOM      8  C   UNL     1      -9.554  -6.233  -6.509  1.00  0.00     0.000 C 
BRANCH   8   9
ATOM      9  C   UNL     1     -10.589  -6.011  -7.622  1.00  0.00     0.006 C 
BRANCH   9  10
ATOM     10  C   UNL     1     -10.766  -4.526  -7.964  1.00  0.00     0.053 C 
BRANCH  10  11
ATOM     11  C   UNL     1     -11.072  -4.324  -9.416  1.00  0.00     0.041 C 
ATOM     12  O   UNL     1     -11.110  -5.310 -10.199  1.00  0.00    -0.550 OA
ATOM     13  O   UNL     1     -11.283  -3.044  -9.911  1.00  0.00    -0.550 OA
ENDBRANCH  10  11
ENDBRANCH   9  10
ENDBRANCH   8   9
ENDBRANCH   1   8
TORSDOF 8
ENDMDL
MODEL 9
REMARK VINA RESULT:    -4.112      2.615      3.990
REMARK INTER + INTRA:          -6.534
REMARK INTER:                  -5.899
REMARK INTRA:                  -0.635
REMARK UNBOUND:                -0.499
REMARK SMILES O=C([O-])CCCCCCCC(=O)[O-]
REMARK SMILES IDX 7 1 6 2 5 3 4 4 2 5 1 6 3 7 8 8 9 9 10 10 11 11 12 12 13 13
REMARK H PARENT
REMARK Flexibility Score: inf
ROOT
ATOM      1  C   UNL     1     -10.755  -3.809  -7.436  1.00  0.00     0.000 C 
ENDROOT
BRANCH   1   2
ATOM      2  C   UNL     1     -12.191  -3.651  -6.922  1.00  0.00     0.000 C 
BRANCH   2   3
ATOM      3  C   UNL     1     -12.354  -4.299  -5.538  1.00  0.00     0.006 C 
BRANCH   3   4
ATOM      4  C   UNL     1     -12.977  -5.698  -5.624  1.00  0.00     0.053 C 
BRANCH   4   5
ATOM      5  C   UNL     1     -13.407  -6.200  -4.280  1.00  0.00     0.041 C 
ATOM      6  O   UNL     1     -13.848  -7.373  -4.153  1.00  0.00    -0.550 OA
ATOM      7  O   UNL     1     -13.353  -5.362  -3.174  1.00  0.00    -0.550 OA
ENDBRANCH   4   5
ENDBRANCH   3   4
ENDBRANCH   2   3
ENDBRANCH   1   2
BRANCH   1   8
ATOM      8  C   UNL     1     -10.688  -4.834  -8.575  1.00  0.00     0.000 C 
BRANCH   8   9
ATOM      9  C   UNL     1     -10.373  -6.237  -8.034  1.00  0.00     0.006 C 
BRANCH   9  10
ATOM     10  C   UNL     1      -9.254  -6.217  -6.986  1.00  0.00     0.053 C 
BRANCH  10  11
ATOM     11  C   UNL     1      -9.681  -6.869  -5.706  1.00  0.00     0.041 C 
ATOM     12  O   UNL     1      -9.279  -6.419  -4.601  1.00  0.00    -0.550 OA
ATOM     13  O   UNL     1     -10.497  -7.991  -5.736  1.00  0.00    -0.550 OA
ENDBRANCH  10  11
ENDBRANCH   9  10
ENDBRANCH   8   9
ENDBRANCH   1   8
TORSDOF 8
ENDMDL
