MODEL 1
REMARK VINA RESULT:    -2.751      0.000      0.000
REMARK INTER + INTRA:          -7.431
REMARK INTER:                  -6.288
REMARK INTRA:                  -1.143
REMARK UNBOUND:                -1.143
REMARK SMILES CCCCCCCCCCCCCCCCCCCCCCCC(=O)[O-]
REMARK SMILES IDX 13 1 14 2 15 3 16 4 17 5 18 6 19 7 20 8 21 9 22 10 23 11
REMARK SMILES IDX 24 12 25 13 26 14 12 15 11 16 10 17 9 18 8 19 7 20 6 21 5 22
REMARK SMILES IDX 4 23 3 24 2 25 1 26
REMARK H PARENT
REMARK Flexibility Score: inf
ROOT
ATOM      1  C   UNL     1      -2.412 -23.053  16.254  1.00  0.00     0.000 C 
ENDROOT
BRANCH   1   2
ATOM      2  C   UNL     1      -3.708 -22.255  16.026  1.00  0.00     0.000 C 
BRANCH   2   3
ATOM      3  C   UNL     1      -4.932 -22.929  16.685  1.00  0.00     0.000 C 
BRANCH   3   4
ATOM      4  C   UNL     1      -6.032 -21.938  17.103  1.00  0.00     0.000 C 
BRANCH   4   5
ATOM      5  C   UNL     1      -7.426 -22.579  17.151  1.00  0.00     0.000 C 
BRANCH   5   6
ATOM      6  C   UNL     1      -8.475 -21.582  17.664  1.00  0.00     0.000 C 
BRANCH   6   7
ATOM      7  C   UNL     1      -9.823 -21.718  16.940  1.00  0.00     0.000 C 
BRANCH   7   8
ATOM      8  C   UNL     1     -11.023 -21.526  17.882  1.00  0.00     0.000 C 
BRANCH   8   9
ATOM      9  C   UNL     1     -10.625 -21.554  19.368  1.00  0.00     0.000 C 
BRANCH   9  10
ATOM     10  C   UNL     1     -11.007 -20.270  20.134  1.00  0.00     0.006 C 
BRANCH  10  11
ATOM     11  C   UNL     1     -10.028 -19.963  21.275  1.00  0.00     0.053 C 
BRANCH  11  12
ATOM     12  C   UNL     1     -10.110 -18.522  21.666  1.00  0.00     0.041 C 
ATOM     13  O   UNL     1     -10.228 -17.632  20.784  1.00  0.00    -0.550 OA
ATOM     14  O   UNL     1     -10.025 -18.158  23.005  1.00  0.00    -0.550 OA
ENDBRANCH  11  12
ENDBRANCH  10  11
ENDBRANCH   9  10
ENDBRANCH   8   9
ENDBRANCH   7   8
ENDBRANCH   6   7
ENDBRANCH   5   6
ENDBRANCH   4   5
ENDBRANCH   3   4
ENDBRANCH   2   3
ENDBRANCH   1   2
BRANCH   1  15
ATOM     15  C   UNL     1      -1.153 -22.241  15.885  1.00  0.00     0.000 C 
BRANCH  15  16
ATOM     16  C   UNL     1       0.024 -23.110  15.409  1.00  0.00     0.000 C 
BRANCH  16  17
ATOM     17  C   UNL     1       1.279 -22.290  15.081  1.00  0.00     0.000 C 
BRANCH  17  18
ATOM     18  C   UNL     1       2.205 -23.061  14.131  1.00  0.00    -0.000 C 
BRANCH  18  19
ATOM     19  C   UNL     1       3.674 -22.912  14.552  1.00  0.00    -0.000 C 
BRANCH  19  20
ATOM     20  C   UNL     1       4.651 -23.018  13.367  1.00  0.00    -0.000 C 
BRANCH  20  21
ATOM     21  C   UNL     1       6.137 -23.115  13.758  1.00  0.00    -0.000 C 
BRANCH  21  22
ATOM     22  C   UNL     1       6.919 -21.823  13.469  1.00  0.00    -0.000 C 
BRANCH  22  23
ATOM     23  C   UNL     1       7.846 -21.428  14.639  1.00  0.00    -0.000 C 
BRANCH  23  24
ATOM     24  C   UNL     1       7.778 -22.395  15.837  1.00  0.00    -0.000 C 
BRANCH  24  25
ATOM     25  C   UNL     1       7.307 -21.755  17.153  1.00  0.00    -0.003 C 
ATOM     26  C   UNL     1       5.804 -21.479  17.175  1.00  0.00     0.004 C 
ENDBRANCH  24  25
ENDBRANCH  23  24
ENDBRANCH  22  23
ENDBRANCH  21  22
ENDBRANCH  20  21
ENDBRANCH  19  20
ENDBRANCH  18  19
ENDBRANCH  17  18
ENDBRANCH  16  17
ENDBRANCH  15  16
ENDBRANCH   1  15
TORSDOF 22
ENDMDL
MODEL 2
REMARK VINA RESULT:    -2.386      5.612     14.620
REMARK INTER + INTRA:          -6.598
REMARK INTER:                  -5.566
REMARK INTRA:                  -1.033
REMARK UNBOUND:                -1.143
REMARK SMILES CCCCCCCCCCCCCCCCCCCCCCCC(=O)[O-]
REMARK SMILES IDX 13 1 14 2 15 3 16 4 17 5 18 6 19 7 20 8 21 9 22 10 23 11
REMARK SMILES IDX 24 12 25 13 26 14 12 15 11 16 10 17 9 18 8 19 7 20 6 21 5 22
REMARK SMILES IDX 4 23 3 24 2 25 1 26
REMARK H PARENT
REMARK Flexibility Score: inf
ROOT
ATOM      1  C   UNL     1      -2.163 -22.829  16.007  1.00  0.00     0.000 C 
ENDROOT
BRANCH   1   2
ATOM      2  C   UNL     1      -1.189 -21.637  16.015  1.00  0.00     0.000 C 
BRANCH   2   3
ATOM      3  C   UNL     1       0.285 -22.089  16.116  1.00  0.00     0.000 C 
BRANCH   3   4
ATOM      4  C   UNL     1       0.773 -22.881  14.891  1.00  0.00     0.000 C 
BRANCH   4   5
ATOM      5  C   UNL     1       2.297 -23.061  14.866  1.00  0.00     0.000 C 
BRANCH   5   6
ATOM      6  C   UNL     1       2.969 -22.241  15.976  1.00  0.00     0.000 C 
BRANCH   6   7
ATOM      7  C   UNL     1       4.486 -22.472  16.046  1.00  0.00     0.000 C 
BRANCH   7   8
ATOM      8  C   UNL     1       5.227 -21.329  16.760  1.00  0.00     0.000 C 
BRANCH   8   9
ATOM      9  C   UNL     1       6.519 -21.795  17.451  1.00  0.00     0.000 C 
BRANCH   9  10
ATOM     10  C   UNL     1       7.718 -21.934  16.489  1.00  0.00     0.006 C 
BRANCH  10  11
ATOM     11  C   UNL     1       7.649 -20.932  15.329  1.00  0.00     0.053 C 
BRANCH  11  12
ATOM     12  C   UNL     1       7.767 -21.637  14.015  1.00  0.00     0.041 C 
ATOM     13  O   UNL     1       8.899 -21.827  13.498  1.00  0.00    -0.550 OA
ATOM     14  O   UNL     1       6.624 -22.057  13.346  1.00  0.00    -0.550 OA
ENDBRANCH  11  12
ENDBRANCH  10  11
ENDBRANCH   9  10
ENDBRANCH   8   9
ENDBRANCH   7   8
ENDBRANCH   6   7
ENDBRANCH   5   6
ENDBRANCH   4   5
ENDBRANCH   3   4
ENDBRANCH   2   3
ENDBRANCH   1   2
BRANCH   1  15
ATOM     15  C   UNL     1      -3.608 -22.401  15.677  1.00  0.00     0.000 C 
BRANCH  15  16
ATOM     16  C   UNL     1      -4.545 -22.403  16.896  1.00  0.00     0.000 C 
BRANCH  16  17
ATOM     17  C   UNL     1      -5.980 -21.979  16.550  1.00  0.00     0.000 C 
BRANCH  17  18
ATOM     18  C   UNL     1      -6.995 -22.688  17.453  1.00  0.00    -0.000 C 
BRANCH  18  19
ATOM     19  C   UNL     1      -8.381 -22.034  17.346  1.00  0.00    -0.000 C 
BRANCH  19  20
ATOM     20  C   UNL     1      -9.013 -21.740  18.718  1.00  0.00    -0.000 C 
BRANCH  20  21
ATOM     21  C   UNL     1      -9.810 -20.425  18.797  1.00  0.00    -0.000 C 
BRANCH  21  22
ATOM     22  C   UNL     1     -10.690 -20.331  20.054  1.00  0.00    -0.000 C 
BRANCH  22  23
ATOM     23  C   UNL     1     -10.024 -20.990  21.282  1.00  0.00    -0.000 C 
BRANCH  23  24
ATOM     24  C   UNL     1     -10.140 -20.154  22.572  1.00  0.00    -0.000 C 
BRANCH  24  25
ATOM     25  C   UNL     1     -10.340 -18.648  22.345  1.00  0.00    -0.003 C 
ATOM     26  C   UNL     1      -9.070 -17.835  22.597  1.00  0.00     0.004 C 
ENDBRANCH  24  25
ENDBRANCH  23  24
ENDBRANCH  22  23
ENDBRANCH  21  22
ENDBRANCH  20  21
ENDBRANCH  19  20
ENDBRANCH  18  19
ENDBRANCH  17  18
ENDBRANCH  16  17
ENDBRANCH  15  16
ENDBRANCH   1  15
TORSDOF 22
ENDMDL
MODEL 3
REMARK VINA RESULT:    -2.367      5.934     14.995
REMARK INTER + INTRA:          -6.555
REMARK INTER:                  -5.701
REMARK INTRA:                  -0.854
REMARK UNBOUND:                -1.143
REMARK SMILES CCCCCCCCCCCCCCCCCCCCCCCC(=O)[O-]
REMARK SMILES IDX 13 1 14 2 15 3 16 4 17 5 18 6 19 7 20 8 21 9 22 10 23 11
REMARK SMILES IDX 24 12 25 13 26 14 12 15 11 16 10 17 9 18 8 19 7 20 6 21 5 22
REMARK SMILES IDX 4 23 3 24 2 25 1 26
REMARK H PARENT
REMARK Flexibility Score: inf
ROOT
ATOM      1  C   UNL     1      -1.089 -22.187  15.786  1.00  0.00     0.000 C 
ENDROOT
BRANCH   1   2
ATOM      2  C   UNL     1       0.210 -23.010  15.722  1.00  0.00     0.000 C 
BRANCH   2   3
ATOM      3  C   UNL     1       1.269 -22.357  14.806  1.00  0.00     0.000 C 
BRANCH   3   4
ATOM      4  C   UNL     1       2.697 -22.880  15.042  1.00  0.00     0.000 C 
BRANCH   4   5
ATOM      5  C   UNL     1       3.448 -22.095  16.126  1.00  0.00     0.000 C 
BRANCH   5   6
ATOM      6  C   UNL     1       4.964 -22.309  16.012  1.00  0.00     0.000 C 
BRANCH   6   7
ATOM      7  C   UNL     1       5.768 -21.303  16.851  1.00  0.00     0.000 C 
BRANCH   7   8
ATOM      8  C   UNL     1       7.197 -21.789  17.147  1.00  0.00     0.000 C 
BRANCH   8   9
ATOM      9  C   UNL     1       7.957 -22.215  15.879  1.00  0.00     0.000 C 
BRANCH   9  10
ATOM     10  C   UNL     1       8.350 -21.032  14.969  1.00  0.00     0.006 C 
BRANCH  10  11
ATOM     11  C   UNL     1       8.422 -21.438  13.491  1.00  0.00     0.053 C 
BRANCH  11  12
ATOM     12  C   UNL     1       8.396 -20.229  12.610  1.00  0.00     0.041 C 
ATOM     13  O   UNL     1       8.825 -19.126  13.038  1.00  0.00    -0.550 OA
ATOM     14  O   UNL     1       7.869 -20.314  11.327  1.00  0.00    -0.550 OA
ENDBRANCH  11  12
ENDBRANCH  10  11
ENDBRANCH   9  10
ENDBRANCH   8   9
ENDBRANCH   7   8
ENDBRANCH   6   7
ENDBRANCH   5   6
ENDBRANCH   4   5
ENDBRANCH   3   4
ENDBRANCH   2   3
ENDBRANCH   1   2
BRANCH   1  15
ATOM     15  C   UNL     1      -2.338 -23.077  15.952  1.00  0.00     0.000 C 
BRANCH  15  16
ATOM     16  C   UNL     1      -3.658 -22.289  15.986  1.00  0.00     0.000 C 
BRANCH  16  17
ATOM     17  C   UNL     1      -4.776 -23.024  16.738  1.00  0.00     0.000 C 
BRANCH  17  18
ATOM     18  C   UNL     1      -5.994 -22.114  16.936  1.00  0.00    -0.000 C 
BRANCH  18  19
ATOM     19  C   UNL     1      -7.019 -22.762  17.879  1.00  0.00    -0.000 C 
BRANCH  19  20
ATOM     20  C   UNL     1      -8.133 -21.792  18.311  1.00  0.00    -0.000 C 
BRANCH  20  21
ATOM     21  C   UNL     1      -9.050 -22.315  19.432  1.00  0.00    -0.000 C 
BRANCH  21  22
ATOM     22  C   UNL     1     -10.174 -21.331  19.795  1.00  0.00    -0.000 C 
BRANCH  22  23
ATOM     23  C   UNL     1      -9.919 -19.918  19.227  1.00  0.00    -0.000 C 
BRANCH  23  24
ATOM     24  C   UNL     1     -10.696 -18.806  19.959  1.00  0.00    -0.000 C 
BRANCH  24  25
ATOM     25  C   UNL     1      -9.851 -17.964  20.928  1.00  0.00    -0.003 C 
ATOM     26  C   UNL     1      -9.594 -18.668  22.260  1.00  0.00     0.004 C 
ENDBRANCH  24  25
ENDBRANCH  23  24
ENDBRANCH  22  23
ENDBRANCH  21  22
ENDBRANCH  20  21
ENDBRANCH  19  20
ENDBRANCH  18  19
ENDBRANCH  17  18
ENDBRANCH  16  17
ENDBRANCH  15  16
ENDBRANCH   1  15
TORSDOF 22
ENDMDL
MODEL 4
REMARK VINA RESULT:    -2.343      1.214      2.298
REMARK INTER + INTRA:          -6.498
REMARK INTER:                  -5.697
REMARK INTRA:                  -0.802
REMARK UNBOUND:                -1.143
REMARK SMILES CCCCCCCCCCCCCCCCCCCCCCCC(=O)[O-]
REMARK SMILES IDX 13 1 14 2 15 3 16 4 17 5 18 6 19 7 20 8 21 9 22 10 23 11
REMARK SMILES IDX 24 12 25 13 26 14 12 15 11 16 10 17 9 18 8 19 7 20 6 21 5 22
REMARK SMILES IDX 4 23 3 24 2 25 1 26
REMARK H PARENT
REMARK Flexibility Score: inf
ROOT
ATOM      1  C   UNL     1      -1.459 -21.617  15.983  1.00  0.00     0.000 C 
ENDROOT
BRANCH   1   2
ATOM      2  C   UNL     1      -2.408 -22.829  15.985  1.00  0.00     0.000 C 
BRANCH   2   3
ATOM      3  C   UNL     1      -3.890 -22.409  15.875  1.00  0.00     0.000 C 
BRANCH   3   4
ATOM      4  C   UNL     1      -4.757 -22.889  17.052  1.00  0.00     0.000 C 
BRANCH   4   5
ATOM      5  C   UNL     1      -6.145 -22.234  17.077  1.00  0.00     0.000 C 
BRANCH   5   6
ATOM      6  C   UNL     1      -7.026 -22.847  18.175  1.00  0.00     0.000 C 
BRANCH   6   7
ATOM      7  C   UNL     1      -8.526 -22.730  17.863  1.00  0.00     0.000 C 
BRANCH   7   8
ATOM      8  C   UNL     1      -9.126 -21.395  18.335  1.00  0.00     0.000 C 
BRANCH   8   9
ATOM      9  C   UNL     1     -10.538 -21.551  18.925  1.00  0.00     0.000 C 
BRANCH   9  10
ATOM     10  C   UNL     1     -10.809 -20.625  20.130  1.00  0.00     0.006 C 
BRANCH  10  11
ATOM     11  C   UNL     1     -10.181 -19.237  19.946  1.00  0.00     0.053 C 
BRANCH  11  12
ATOM     12  C   UNL     1      -9.789 -18.657  21.267  1.00  0.00     0.041 C 
ATOM     13  O   UNL     1      -9.542 -17.427  21.370  1.00  0.00    -0.550 OA
ATOM     14  O   UNL     1      -9.665 -19.481  22.379  1.00  0.00    -0.550 OA
ENDBRANCH  11  12
ENDBRANCH  10  11
ENDBRANCH   9  10
ENDBRANCH   8   9
ENDBRANCH   7   8
ENDBRANCH   6   7
ENDBRANCH   5   6
ENDBRANCH   4   5
ENDBRANCH   3   4
ENDBRANCH   2   3
ENDBRANCH   1   2
BRANCH   1  15
ATOM     15  C   UNL     1       0.018 -22.030  16.160  1.00  0.00     0.000 C 
BRANCH  15  16
ATOM     16  C   UNL     1       0.534 -22.964  15.053  1.00  0.00     0.000 C 
BRANCH  16  17
ATOM     17  C   UNL     1       2.039 -22.811  14.794  1.00  0.00     0.000 C 
BRANCH  17  18
ATOM     18  C   UNL     1       2.717 -22.044  15.937  1.00  0.00    -0.000 C 
BRANCH  18  19
ATOM     19  C   UNL     1       4.171 -22.503  16.121  1.00  0.00    -0.000 C 
BRANCH  19  20
ATOM     20  C   UNL     1       5.081 -21.398  16.689  1.00  0.00    -0.000 C 
BRANCH  20  21
ATOM     21  C   UNL     1       6.312 -21.905  17.461  1.00  0.00    -0.000 C 
BRANCH  21  22
ATOM     22  C   UNL     1       7.634 -21.643  16.720  1.00  0.00    -0.000 C 
BRANCH  22  23
ATOM     23  C   UNL     1       7.414 -21.356  15.219  1.00  0.00    -0.000 C 
BRANCH  23  24
ATOM     24  C   UNL     1       8.720 -21.132  14.432  1.00  0.00    -0.000 C 
BRANCH  24  25
ATOM     25  C   UNL     1       8.535 -20.955  12.917  1.00  0.00    -0.003 C 
ATOM     26  C   UNL     1       8.461 -19.488  12.494  1.00  0.00     0.004 C 
ENDBRANCH  24  25
ENDBRANCH  23  24
ENDBRANCH  22  23
ENDBRANCH  21  22
ENDBRANCH  20  21
ENDBRANCH  19  20
ENDBRANCH  18  19
ENDBRANCH  17  18
ENDBRANCH  16  17
ENDBRANCH  15  16
ENDBRANCH   1  15
TORSDOF 22
ENDMDL
MODEL 5
REMARK VINA RESULT:    -2.188      1.706      3.036
REMARK INTER + INTRA:          -6.144
REMARK INTER:                  -4.759
REMARK INTRA:                  -1.385
REMARK UNBOUND:                -1.143
REMARK SMILES CCCCCCCCCCCCCCCCCCCCCCCC(=O)[O-]
REMARK SMILES IDX 13 1 14 2 15 3 16 4 17 5 18 6 19 7 20 8 21 9 22 10 23 11
REMARK SMILES IDX 24 12 25 13 26 14 12 15 11 16 10 17 9 18 8 19 7 20 6 21 5 22
REMARK SMILES IDX 4 23 3 24 2 25 1 26
REMARK H PARENT
REMARK Flexibility Score: inf
ROOT
ATOM      1  C   UNL     1      -1.228 -22.356  16.077  1.00  0.00     0.000 C 
ENDROOT
BRANCH   1   2
ATOM      2  C   UNL     1      -2.559 -23.122  15.978  1.00  0.00     0.000 C 
BRANCH   2   3
ATOM      3  C   UNL     1      -3.765 -22.175  15.796  1.00  0.00     0.000 C 
BRANCH   3   4
ATOM      4  C   UNL     1      -4.844 -22.333  16.881  1.00  0.00     0.000 C 
BRANCH   4   5
ATOM      5  C   UNL     1      -6.233 -22.637  16.303  1.00  0.00     0.000 C 
BRANCH   5   6
ATOM      6  C   UNL     1      -6.801 -21.419  15.560  1.00  0.00     0.000 C 
BRANCH   6   7
ATOM      7  C   UNL     1      -8.336 -21.433  15.490  1.00  0.00     0.000 C 
BRANCH   7   8
ATOM      8  C   UNL     1      -8.892 -20.373  14.524  1.00  0.00     0.000 C 
BRANCH   8   9
ATOM      9  C   UNL     1     -10.428 -20.284  14.557  1.00  0.00     0.000 C 
BRANCH   9  10
ATOM     10  C   UNL     1     -11.040 -20.694  15.913  1.00  0.00     0.006 C 
BRANCH  10  11
ATOM     11  C   UNL     1     -11.123 -19.514  16.891  1.00  0.00     0.053 C 
BRANCH  11  12
ATOM     12  C   UNL     1     -10.728 -19.943  18.269  1.00  0.00     0.041 C 
ATOM     13  O   UNL     1     -10.148 -21.046  18.446  1.00  0.00    -0.550 OA
ATOM     14  O   UNL     1     -11.028 -19.138  19.361  1.00  0.00    -0.550 OA
ENDBRANCH  11  12
ENDBRANCH  10  11
ENDBRANCH   9  10
ENDBRANCH   8   9
ENDBRANCH   7   8
ENDBRANCH   6   7
ENDBRANCH   5   6
ENDBRANCH   4   5
ENDBRANCH   3   4
ENDBRANCH   2   3
ENDBRANCH   1   2
BRANCH   1  15
ATOM     15  C   UNL     1      -0.067 -23.109  15.394  1.00  0.00     0.000 C 
BRANCH  15  16
ATOM     16  C   UNL     1       1.281 -22.374  15.482  1.00  0.00     0.000 C 
BRANCH  16  17
ATOM     17  C   UNL     1       2.251 -22.766  14.359  1.00  0.00     0.000 C 
BRANCH  17  18
ATOM     18  C   UNL     1       3.688 -22.867  14.884  1.00  0.00    -0.000 C 
BRANCH  18  19
ATOM     19  C   UNL     1       3.812 -22.229  16.276  1.00  0.00    -0.000 C 
BRANCH  19  20
ATOM     20  C   UNL     1       5.062 -21.341  16.419  1.00  0.00    -0.000 C 
BRANCH  20  21
ATOM     21  C   UNL     1       6.079 -21.818  17.471  1.00  0.00    -0.000 C 
BRANCH  21  22
ATOM     22  C   UNL     1       7.521 -21.851  16.939  1.00  0.00    -0.000 C 
BRANCH  22  23
ATOM     23  C   UNL     1       7.638 -21.224  15.532  1.00  0.00    -0.000 C 
BRANCH  23  24
ATOM     24  C   UNL     1       8.595 -21.984  14.592  1.00  0.00    -0.000 C 
BRANCH  24  25
ATOM     25  C   UNL     1       7.914 -22.654  13.388  1.00  0.00    -0.003 C 
ATOM     26  C   UNL     1       6.718 -21.860  12.864  1.00  0.00     0.004 C 
ENDBRANCH  24  25
ENDBRANCH  23  24
ENDBRANCH  22  23
ENDBRANCH  21  22
ENDBRANCH  20  21
ENDBRANCH  19  20
ENDBRANCH  18  19
ENDBRANCH  17  18
ENDBRANCH  16  17
ENDBRANCH  15  16
ENDBRANCH   1  15
TORSDOF 22
ENDMDL
MODEL 6
REMARK VINA RESULT:    -2.171      6.332     14.934
REMARK INTER + INTRA:          -6.106
REMARK INTER:                  -5.124
REMARK INTRA:                  -0.982
REMARK UNBOUND:                -1.143
REMARK SMILES CCCCCCCCCCCCCCCCCCCCCCCC(=O)[O-]
REMARK SMILES IDX 13 1 14 2 15 3 16 4 17 5 18 6 19 7 20 8 21 9 22 10 23 11
REMARK SMILES IDX 24 12 25 13 26 14 12 15 11 16 10 17 9 18 8 19 7 20 6 21 5 22
REMARK SMILES IDX 4 23 3 24 2 25 1 26
REMARK H PARENT
REMARK Flexibility Score: inf
ROOT
ATOM      1  C   UNL     1       0.457 -22.178  16.235  1.00  0.00     0.000 C 
ENDROOT
BRANCH   1   2
ATOM      2  C   UNL     1       1.086 -23.085  15.162  1.00  0.00     0.000 C 
BRANCH   2   3
ATOM      3  C   UNL     1       1.928 -22.286  14.144  1.00  0.00     0.000 C 
BRANCH   3   4
ATOM      4  C   UNL     1       3.012 -23.125  13.445  1.00  0.00     0.000 C 
BRANCH   4   5
ATOM      5  C   UNL     1       4.377 -23.034  14.139  1.00  0.00     0.000 C 
BRANCH   5   6
ATOM      6  C   UNL     1       5.521 -23.072  13.116  1.00  0.00     0.000 C 
BRANCH   6   7
ATOM      7  C   UNL     1       6.900 -22.871  13.763  1.00  0.00     0.000 C 
BRANCH   7   8
ATOM      8  C   UNL     1       6.923 -21.695  14.755  1.00  0.00     0.000 C 
BRANCH   8   9
ATOM      9  C   UNL     1       8.195 -20.838  14.635  1.00  0.00     0.000 C 
BRANCH   9  10
ATOM     10  C   UNL     1       8.888 -20.953  13.261  1.00  0.00     0.006 C 
BRANCH  10  11
ATOM     11  C   UNL     1       8.231 -20.055  12.204  1.00  0.00     0.053 C 
BRANCH  11  12
ATOM     12  C   UNL     1       8.274 -20.707  10.858  1.00  0.00     0.041 C 
ATOM     13  O   UNL     1       8.528 -21.935  10.758  1.00  0.00    -0.550 OA
ATOM     14  O   UNL     1       8.065 -19.950   9.711  1.00  0.00    -0.550 OA
ENDBRANCH  11  12
ENDBRANCH  10  11
ENDBRANCH   9  10
ENDBRANCH   8   9
ENDBRANCH   7   8
ENDBRANCH   6   7
ENDBRANCH   5   6
ENDBRANCH   4   5
ENDBRANCH   3   4
ENDBRANCH   2   3
ENDBRANCH   1   2
BRANCH   1  15
ATOM     15  C   UNL     1      -0.976 -21.740  15.864  1.00  0.00     0.000 C 
BRANCH  15  16
ATOM     16  C   UNL     1      -1.986 -22.900  15.831  1.00  0.00     0.000 C 
BRANCH  16  17
ATOM     17  C   UNL     1      -3.430 -22.430  15.608  1.00  0.00     0.000 C 
BRANCH  17  18
ATOM     18  C   UNL     1      -4.385 -23.100  16.603  1.00  0.00    -0.000 C 
BRANCH  18  19
ATOM     19  C   UNL     1      -5.657 -22.261  16.797  1.00  0.00    -0.000 C 
BRANCH  19  20
ATOM     20  C   UNL     1      -6.868 -23.102  17.239  1.00  0.00    -0.000 C 
BRANCH  20  21
ATOM     21  C   UNL     1      -8.218 -22.362  17.208  1.00  0.00    -0.000 C 
BRANCH  21  22
ATOM     22  C   UNL     1      -8.647 -21.838  18.588  1.00  0.00    -0.000 C 
BRANCH  22  23
ATOM     23  C   UNL     1      -8.324 -22.840  19.718  1.00  0.00    -0.000 C 
BRANCH  23  24
ATOM     24  C   UNL     1      -9.339 -22.815  20.877  1.00  0.00    -0.000 C 
BRANCH  24  25
ATOM     25  C   UNL     1      -8.737 -23.090  22.264  1.00  0.00    -0.003 C 
ATOM     26  C   UNL     1      -8.920 -21.923  23.235  1.00  0.00     0.004 C 
ENDBRANCH  24  25
ENDBRANCH  23  24
ENDBRANCH  22  23
ENDBRANCH  21  22
ENDBRANCH  20  21
ENDBRANCH  19  20
ENDBRANCH  18  19
ENDBRANCH  17  18
ENDBRANCH  16  17
ENDBRANCH  15  16
ENDBRANCH   1  15
TORSDOF 22
ENDMDL
MODEL 7
REMARK VINA RESULT:    -2.131      1.670      2.873
REMARK INTER + INTRA:          -6.016
REMARK INTER:                  -5.113
REMARK INTRA:                  -0.903
REMARK UNBOUND:                -1.143
REMARK SMILES CCCCCCCCCCCCCCCCCCCCCCCC(=O)[O-]
REMARK SMILES IDX 13 1 14 2 15 3 16 4 17 5 18 6 19 7 20 8 21 9 22 10 23 11
REMARK SMILES IDX 24 12 25 13 26 14 12 15 11 16 10 17 9 18 8 19 7 20 6 21 5 22
REMARK SMILES IDX 4 23 3 24 2 25 1 26
REMARK H PARENT
REMARK Flexibility Score: inf
ROOT
ATOM      1  C   UNL     1      -4.380 -22.805  16.496  1.00  0.00     0.000 C 
ENDROOT
BRANCH   1   2
ATOM      2  C   UNL     1      -5.709 -22.046  16.667  1.00  0.00     0.000 C 
BRANCH   2   3
ATOM      3  C   UNL     1      -6.521 -22.558  17.877  1.00  0.00     0.000 C 
BRANCH   3   4
ATOM      4  C   UNL     1      -8.019 -22.747  17.581  1.00  0.00     0.000 C 
BRANCH   4   5
ATOM      5  C   UNL     1      -8.923 -22.087  18.631  1.00  0.00     0.000 C 
BRANCH   5   6
ATOM      6  C   UNL     1     -10.227 -22.877  18.811  1.00  0.00     0.000 C 
BRANCH   6   7
ATOM      7  C   UNL     1     -10.589 -23.092  20.289  1.00  0.00     0.000 C 
BRANCH   7   8
ATOM      8  C   UNL     1      -9.859 -22.114  21.225  1.00  0.00     0.000 C 
BRANCH   8   9
ATOM      9  C   UNL     1     -10.667 -21.785  22.491  1.00  0.00     0.000 C 
BRANCH   9  10
ATOM     10  C   UNL     1     -10.815 -20.271  22.752  1.00  0.00     0.006 C 
BRANCH  10  11
ATOM     11  C   UNL     1     -11.048 -19.480  21.458  1.00  0.00     0.053 C 
BRANCH  11  12
ATOM     12  C   UNL     1     -10.181 -18.262  21.422  1.00  0.00     0.041 C 
ATOM     13  O   UNL     1     -10.288 -17.436  20.478  1.00  0.00    -0.550 OA
ATOM     14  O   UNL     1      -9.231 -18.054  22.415  1.00  0.00    -0.550 OA
ENDBRANCH  11  12
ENDBRANCH  10  11
ENDBRANCH   9  10
ENDBRANCH   8   9
ENDBRANCH   7   8
ENDBRANCH   6   7
ENDBRANCH   5   6
ENDBRANCH   4   5
ENDBRANCH   3   4
ENDBRANCH   2   3
ENDBRANCH   1   2
BRANCH   1  15
ATOM     15  C   UNL     1      -3.314 -21.960  15.767  1.00  0.00     0.000 C 
BRANCH  15  16
ATOM     16  C   UNL     1      -1.940 -22.645  15.678  1.00  0.00     0.000 C 
BRANCH  16  17
ATOM     17  C   UNL     1      -0.770 -21.659  15.799  1.00  0.00     0.000 C 
BRANCH  17  18
ATOM     18  C   UNL     1       0.543 -22.398  16.083  1.00  0.00    -0.000 C 
BRANCH  18  19
ATOM     19  C   UNL     1       1.309 -22.680  14.782  1.00  0.00    -0.000 C 
BRANCH  19  20
ATOM     20  C   UNL     1       2.837 -22.641  14.966  1.00  0.00    -0.000 C 
BRANCH  20  21
ATOM     21  C   UNL     1       3.649 -23.125  13.751  1.00  0.00    -0.000 C 
BRANCH  21  22
ATOM     22  C   UNL     1       5.166 -22.956  13.937  1.00  0.00    -0.000 C 
BRANCH  22  23
ATOM     23  C   UNL     1       5.801 -22.108  12.812  1.00  0.00    -0.000 C 
BRANCH  23  24
ATOM     24  C   UNL     1       6.399 -22.948  11.666  1.00  0.00    -0.000 C 
BRANCH  24  25
ATOM     25  C   UNL     1       7.771 -22.468  11.167  1.00  0.00    -0.003 C 
ATOM     26  C   UNL     1       8.350 -21.337  12.016  1.00  0.00     0.004 C 
ENDBRANCH  24  25
ENDBRANCH  23  24
ENDBRANCH  22  23
ENDBRANCH  21  22
ENDBRANCH  20  21
ENDBRANCH  19  20
ENDBRANCH  18  19
ENDBRANCH  17  18
ENDBRANCH  16  17
ENDBRANCH  15  16
ENDBRANCH   1  15
TORSDOF 22
ENDMDL
MODEL 8
REMARK VINA RESULT:    -2.047      5.924     14.941
REMARK INTER + INTRA:          -5.823
REMARK INTER:                  -4.674
REMARK INTRA:                  -1.149
REMARK UNBOUND:                -1.143
REMARK SMILES CCCCCCCCCCCCCCCCCCCCCCCC(=O)[O-]
REMARK SMILES IDX 13 1 14 2 15 3 16 4 17 5 18 6 19 7 20 8 21 9 22 10 23 11
REMARK SMILES IDX 24 12 25 13 26 14 12 15 11 16 10 17 9 18 8 19 7 20 6 21 5 22
REMARK SMILES IDX 4 23 3 24 2 25 1 26
REMARK H PARENT
REMARK Flexibility Score: inf
ROOT
ATOM      1  C   UNL     1      -0.759 -22.948  15.292  1.00  0.00     0.000 C 
ENDROOT
BRANCH   1   2
ATOM      2  C   UNL     1       0.287 -21.986  15.885  1.00  0.00     0.000 C 
BRANCH   2   3
ATOM      3  C   UNL     1       1.733 -22.466  15.629  1.00  0.00     0.000 C 
BRANCH   3   4
ATOM      4  C   UNL     1       2.801 -21.608  16.329  1.00  0.00     0.000 C 
BRANCH   4   5
ATOM      5  C   UNL     1       4.191 -22.259  16.315  1.00  0.00     0.000 C 
BRANCH   5   6
ATOM      6  C   UNL     1       5.265 -21.278  16.809  1.00  0.00     0.000 C 
BRANCH   6   7
ATOM      7  C   UNL     1       6.526 -21.992  17.320  1.00  0.00     0.000 C 
BRANCH   7   8
ATOM      8  C   UNL     1       7.743 -21.767  16.406  1.00  0.00     0.000 C 
BRANCH   8   9
ATOM      9  C   UNL     1       7.729 -22.669  15.161  1.00  0.00     0.000 C 
BRANCH   9  10
ATOM     10  C   UNL     1       8.677 -22.190  14.041  1.00  0.00     0.006 C 
BRANCH  10  11
ATOM     11  C   UNL     1       7.912 -21.716  12.797  1.00  0.00     0.053 C 
BRANCH  11  12
ATOM     12  C   UNL     1       8.203 -20.276  12.518  1.00  0.00     0.041 C 
ATOM     13  O   UNL     1       8.196 -19.847  11.335  1.00  0.00    -0.550 OA
ATOM     14  O   UNL     1       8.512 -19.413  13.562  1.00  0.00    -0.550 OA
ENDBRANCH  11  12
ENDBRANCH  10  11
ENDBRANCH   9  10
ENDBRANCH   8   9
ENDBRANCH   7   8
ENDBRANCH   6   7
ENDBRANCH   5   6
ENDBRANCH   4   5
ENDBRANCH   3   4
ENDBRANCH   2   3
ENDBRANCH   1   2
BRANCH   1  15
ATOM     15  C   UNL     1      -1.990 -23.110  16.208  1.00  0.00     0.000 C 
BRANCH  15  16
ATOM     16  C   UNL     1      -3.201 -22.272  15.767  1.00  0.00     0.000 C 
BRANCH  16  17
ATOM     17  C   UNL     1      -4.528 -22.787  16.342  1.00  0.00     0.000 C 
BRANCH  17  18
ATOM     18  C   UNL     1      -5.661 -21.785  16.092  1.00  0.00    -0.000 C 
BRANCH  18  19
ATOM     19  C   UNL     1      -7.027 -22.401  16.430  1.00  0.00    -0.000 C 
BRANCH  19  20
ATOM     20  C   UNL     1      -7.581 -21.923  17.785  1.00  0.00    -0.000 C 
BRANCH  20  21
ATOM     21  C   UNL     1      -8.845 -22.659  18.264  1.00  0.00    -0.000 C 
BRANCH  21  22
ATOM     22  C   UNL     1     -10.026 -21.711  18.533  1.00  0.00    -0.000 C 
BRANCH  22  23
ATOM     23  C   UNL     1     -10.232 -20.696  17.386  1.00  0.00    -0.000 C 
BRANCH  23  24
ATOM     24  C   UNL     1     -11.035 -21.259  16.198  1.00  0.00    -0.000 C 
BRANCH  24  25
ATOM     25  C   UNL     1     -11.010 -20.385  14.934  1.00  0.00    -0.003 C 
ATOM     26  C   UNL     1      -9.599 -20.173  14.385  1.00  0.00     0.004 C 
ENDBRANCH  24  25
ENDBRANCH  23  24
ENDBRANCH  22  23
ENDBRANCH  21  22
ENDBRANCH  20  21
ENDBRANCH  19  20
ENDBRANCH  18  19
ENDBRANCH  17  18
ENDBRANCH  16  17
ENDBRANCH  15  16
ENDBRANCH   1  15
TORSDOF 22
ENDMDL
MODEL 9
REMARK VINA RESULT:    -1.972      6.230     15.152
REMARK INTER + INTRA:          -5.651
REMARK INTER:                  -4.571
REMARK INTRA:                  -1.080
REMARK UNBOUND:                -1.143
REMARK SMILES CCCCCCCCCCCCCCCCCCCCCCCC(=O)[O-]
REMARK SMILES IDX 13 1 14 2 15 3 16 4 17 5 18 6 19 7 20 8 21 9 22 10 23 11
REMARK SMILES IDX 24 12 25 13 26 14 12 15 11 16 10 17 9 18 8 19 7 20 6 21 5 22
REMARK SMILES IDX 4 23 3 24 2 25 1 26
REMARK H PARENT
REMARK Flexibility Score: inf
ROOT
ATOM      1  C   UNL     1       0.488 -21.776  16.291  1.00  0.00     0.000 C 
ENDROOT
BRANCH   1   2
ATOM      2  C   UNL     1       1.245 -22.822  15.453  1.00  0.00     0.000 C 
BRANCH   2   3
ATOM      3  C   UNL     1       1.612 -22.290  14.050  1.00  0.00     0.000 C 
BRANCH   3   4
ATOM      4  C   UNL     1       2.789 -23.034  13.396  1.00  0.00     0.000 C 
BRANCH   4   5
ATOM      5  C   UNL     1       4.023 -23.115  14.306  1.00  0.00     0.000 C 
BRANCH   5   6
ATOM      6  C   UNL     1       5.299 -22.732  13.542  1.00  0.00     0.000 C 
BRANCH   6   7
ATOM      7  C   UNL     1       6.572 -22.940  14.377  1.00  0.00     0.000 C 
BRANCH   7   8
ATOM      8  C   UNL     1       7.235 -21.613  14.785  1.00  0.00     0.000 C 
BRANCH   8   9
ATOM      9  C   UNL     1       8.687 -21.496  14.290  1.00  0.00     0.000 C 
BRANCH   9  10
ATOM     10  C   UNL     1       8.914 -22.110  12.893  1.00  0.00     0.006 C 
BRANCH  10  11
ATOM     11  C   UNL     1       8.949 -21.044  11.790  1.00  0.00     0.053 C 
BRANCH  11  12
ATOM     12  C   UNL     1       8.241 -21.530  10.565  1.00  0.00     0.041 C 
ATOM     13  O   UNL     1       8.249 -20.838   9.514  1.00  0.00    -0.550 OA
ATOM     14  O   UNL     1       7.546 -22.733  10.594  1.00  0.00    -0.550 OA
ENDBRANCH  11  12
ENDBRANCH  10  11
ENDBRANCH   9  10
ENDBRANCH   8   9
ENDBRANCH   7   8
ENDBRANCH   6   7
ENDBRANCH   5   6
ENDBRANCH   4   5
ENDBRANCH   3   4
ENDBRANCH   2   3
ENDBRANCH   1   2
BRANCH   1  15
ATOM     15  C   UNL     1      -0.955 -21.558  15.790  1.00  0.00     0.000 C 
BRANCH  15  16
ATOM     16  C   UNL     1      -1.887 -22.752  16.054  1.00  0.00     0.000 C 
BRANCH  16  17
ATOM     17  C   UNL     1      -3.356 -22.448  15.726  1.00  0.00     0.000 C 
BRANCH  17  18
ATOM     18  C   UNL     1      -4.257 -22.725  16.936  1.00  0.00    -0.000 C 
BRANCH  18  19
ATOM     19  C   UNL     1      -5.689 -22.233  16.681  1.00  0.00    -0.000 C 
BRANCH  19  20
ATOM     20  C   UNL     1      -6.648 -22.550  17.844  1.00  0.00    -0.000 C 
BRANCH  20  21
ATOM     21  C   UNL     1      -8.126 -22.703  17.442  1.00  0.00    -0.000 C 
BRANCH  21  22
ATOM     22  C   UNL     1      -8.957 -21.441  17.724  1.00  0.00    -0.000 C 
BRANCH  22  23
ATOM     23  C   UNL     1     -10.474 -21.698  17.579  1.00  0.00    -0.000 C 
BRANCH  23  24
ATOM     24  C   UNL     1     -11.098 -21.038  16.334  1.00  0.00    -0.000 C 
BRANCH  24  25
ATOM     25  C   UNL     1     -10.108 -20.253  15.459  1.00  0.00    -0.003 C 
ATOM     26  C   UNL     1     -10.397 -20.391  13.964  1.00  0.00     0.004 C 
ENDBRANCH  24  25
ENDBRANCH  23  24
ENDBRANCH  22  23
ENDBRANCH  21  22
ENDBRANCH  20  21
ENDBRANCH  19  20
ENDBRANCH  18  19
ENDBRANCH  17  18
ENDBRANCH  16  17
ENDBRANCH  15  16
ENDBRANCH   1  15
TORSDOF 22
ENDMDL
