MODEL 1
REMARK VINA RESULT:    -5.726      0.000      0.000
REMARK INTER + INTRA:         -14.721
REMARK INTER:                 -13.091
REMARK INTRA:                  -1.630
REMARK UNBOUND:                -1.630
REMARK SMILES CCCCCCCCCCCCCCCCCCCCCCCC(=O)[O-]
REMARK SMILES IDX 13 1 14 2 15 3 16 4 17 5 18 6 19 7 20 8 21 9 22 10 23 11
REMARK SMILES IDX 24 12 25 13 26 14 12 15 11 16 10 17 9 18 8 19 7 20 6 21 5 22
REMARK SMILES IDX 4 23 3 24 2 25 1 26
REMARK H PARENT
REMARK Flexibility Score: inf
ROOT
ATOM      1  C   UNL     1      12.820  -8.486   0.104  1.00  0.00     0.000 C 
ENDROOT
BRANCH   1   2
ATOM      2  C   UNL     1      14.250  -8.202  -0.401  1.00  0.00     0.000 C 
BRANCH   2   3
ATOM      3  C   UNL     1      14.401  -8.109  -1.932  1.00  0.00     0.000 C 
BRANCH   3   4
ATOM      4  C   UNL     1      13.441  -7.125  -2.627  1.00  0.00     0.000 C 
BRANCH   4   5
ATOM      5  C   UNL     1      12.463  -7.821  -3.589  1.00  0.00     0.000 C 
BRANCH   5   6
ATOM      6  C   UNL     1      12.618  -9.353  -3.589  1.00  0.00     0.000 C 
BRANCH   6   7
ATOM      7  C   UNL     1      12.468 -10.022  -4.969  1.00  0.00     0.000 C 
BRANCH   7   8
ATOM      8  C   UNL     1      11.690  -9.195  -6.013  1.00  0.00     0.000 C 
BRANCH   8   9
ATOM      9  C   UNL     1      11.946  -9.638  -7.469  1.00  0.00     0.000 C 
BRANCH   9  10
ATOM     10  C   UNL     1      10.646  -9.804  -8.268  1.00  0.00     0.006 C 
BRANCH  10  11
ATOM     11  C   UNL     1       9.487 -10.204  -7.351  1.00  0.00     0.053 C 
BRANCH  11  12
ATOM     12  C   UNL     1       9.278 -11.685  -7.380  1.00  0.00     0.041 C 
ATOM     13  O   UNL     1       8.264 -12.170  -7.949  1.00  0.00    -0.550 OA
ATOM     14  O   UNL     1      10.185 -12.529  -6.752  1.00  0.00    -0.550 OA
ENDBRANCH  11  12
ENDBRANCH  10  11
ENDBRANCH   9  10
ENDBRANCH   8   9
ENDBRANCH   7   8
ENDBRANCH   6   7
ENDBRANCH   5   6
ENDBRANCH   4   5
ENDBRANCH   3   4
ENDBRANCH   2   3
ENDBRANCH   1   2
BRANCH   1  15
ATOM     15  C   UNL     1      12.736  -9.125   1.502  1.00  0.00     0.000 C 
BRANCH  15  16
ATOM     16  C   UNL     1      13.628 -10.370   1.643  1.00  0.00     0.000 C 
BRANCH  16  17
ATOM     17  C   UNL     1      13.955 -10.708   3.109  1.00  0.00     0.000 C 
BRANCH  17  18
ATOM     18  C   UNL     1      13.390  -9.724   4.154  1.00  0.00    -0.000 C 
BRANCH  18  19
ATOM     19  C   UNL     1      12.538 -10.369   5.265  1.00  0.00    -0.000 C 
BRANCH  19  20
ATOM     20  C   UNL     1      11.104 -10.745   4.845  1.00  0.00    -0.000 C 
BRANCH  20  21
ATOM     21  C   UNL     1      10.908 -12.218   4.435  1.00  0.00    -0.000 C 
BRANCH  21  22
ATOM     22  C   UNL     1      10.112 -13.077   5.436  1.00  0.00    -0.000 C 
BRANCH  22  23
ATOM     23  C   UNL     1       8.850 -12.369   5.958  1.00  0.00    -0.000 C 
BRANCH  23  24
ATOM     24  C   UNL     1       8.110 -13.193   7.023  1.00  0.00    -0.000 C 
BRANCH  24  25
ATOM     25  C   UNL     1       8.605 -14.645   7.098  1.00  0.00    -0.003 C 
ATOM     26  C   UNL     1       7.629 -15.595   6.408  1.00  0.00     0.004 C 
ENDBRANCH  24  25
ENDBRANCH  23  24
ENDBRANCH  22  23
ENDBRANCH  21  22
ENDBRANCH  20  21
ENDBRANCH  19  20
ENDBRANCH  18  19
ENDBRANCH  17  18
ENDBRANCH  16  17
ENDBRANCH  15  16
ENDBRANCH   1  15
TORSDOF 22
ENDMDL
MODEL 2
REMARK VINA RESULT:    -5.647      7.679     13.437
REMARK INTER + INTRA:         -14.540
REMARK INTER:                 -12.128
REMARK INTRA:                  -2.412
REMARK UNBOUND:                -1.630
REMARK SMILES CCCCCCCCCCCCCCCCCCCCCCCC(=O)[O-]
REMARK SMILES IDX 13 1 14 2 15 3 16 4 17 5 18 6 19 7 20 8 21 9 22 10 23 11
REMARK SMILES IDX 24 12 25 13 26 14 12 15 11 16 10 17 9 18 8 19 7 20 6 21 5 22
REMARK SMILES IDX 4 23 3 24 2 25 1 26
REMARK H PARENT
REMARK Flexibility Score: inf
ROOT
ATOM      1  C   UNL     1       4.874 -15.017  -6.441  1.00  0.00     0.000 C 
ENDROOT
BRANCH   1   2
ATOM      2  C   UNL     1       5.997 -15.891  -5.845  1.00  0.00     0.000 C 
BRANCH   2   3
ATOM      3  C   UNL     1       5.529 -16.985  -4.865  1.00  0.00     0.000 C 
BRANCH   3   4
ATOM      4  C   UNL     1       4.002 -17.107  -4.698  1.00  0.00     0.000 C 
BRANCH   4   5
ATOM      5  C   UNL     1       3.518 -18.567  -4.661  1.00  0.00     0.000 C 
BRANCH   5   6
ATOM      6  C   UNL     1       2.915 -18.958  -3.298  1.00  0.00     0.000 C 
BRANCH   6   7
ATOM      7  C   UNL     1       3.433 -18.141  -2.100  1.00  0.00     0.000 C 
BRANCH   7   8
ATOM      8  C   UNL     1       4.709 -18.694  -1.435  1.00  0.00     0.000 C 
BRANCH   8   9
ATOM      9  C   UNL     1       4.912 -18.209   0.016  1.00  0.00     0.000 C 
BRANCH   9  10
ATOM     10  C   UNL     1       3.604 -18.202   0.819  1.00  0.00     0.006 C 
BRANCH  10  11
ATOM     11  C   UNL     1       3.820 -18.777   2.222  1.00  0.00     0.053 C 
BRANCH  11  12
ATOM     12  C   UNL     1       4.040 -17.678   3.214  1.00  0.00     0.041 C 
ATOM     13  O   UNL     1       5.059 -17.689   3.954  1.00  0.00    -0.550 OA
ATOM     14  O   UNL     1       3.103 -16.660   3.345  1.00  0.00    -0.550 OA
ENDBRANCH  11  12
ENDBRANCH  10  11
ENDBRANCH   9  10
ENDBRANCH   8   9
ENDBRANCH   7   8
ENDBRANCH   6   7
ENDBRANCH   5   6
ENDBRANCH   4   5
ENDBRANCH   3   4
ENDBRANCH   2   3
ENDBRANCH   1   2
BRANCH   1  15
ATOM     15  C   UNL     1       5.162 -14.451  -7.844  1.00  0.00     0.000 C 
BRANCH  15  16
ATOM     16  C   UNL     1       6.222 -15.262  -8.608  1.00  0.00     0.000 C 
BRANCH  16  17
ATOM     17  C   UNL     1       7.381 -14.392  -9.128  1.00  0.00     0.000 C 
BRANCH  17  18
ATOM     18  C   UNL     1       7.807 -13.238  -8.198  1.00  0.00    -0.000 C 
BRANCH  18  19
ATOM     19  C   UNL     1       8.782 -13.633  -7.071  1.00  0.00    -0.000 C 
BRANCH  19  20
ATOM     20  C   UNL     1       8.585 -12.870  -5.747  1.00  0.00    -0.000 C 
BRANCH  20  21
ATOM     21  C   UNL     1       7.873 -11.508  -5.878  1.00  0.00    -0.000 C 
BRANCH  21  22
ATOM     22  C   UNL     1       8.768 -10.277  -5.641  1.00  0.00    -0.000 C 
BRANCH  22  23
ATOM     23  C   UNL     1       8.796  -9.319  -6.844  1.00  0.00    -0.000 C 
BRANCH  23  24
ATOM     24  C   UNL     1       9.502  -9.928  -8.066  1.00  0.00    -0.000 C 
BRANCH  24  25
ATOM     25  C   UNL     1      11.032  -9.817  -7.981  1.00  0.00    -0.003 C 
ATOM     26  C   UNL     1      11.690 -11.188  -8.117  1.00  0.00     0.004 C 
ENDBRANCH  24  25
ENDBRANCH  23  24
ENDBRANCH  22  23
ENDBRANCH  21  22
ENDBRANCH  20  21
ENDBRANCH  19  20
ENDBRANCH  18  19
ENDBRANCH  17  18
ENDBRANCH  16  17
ENDBRANCH  15  16
ENDBRANCH   1  15
TORSDOF 22
ENDMDL
MODEL 3
REMARK VINA RESULT:    -5.621      3.823     10.851
REMARK INTER + INTRA:         -14.482
REMARK INTER:                 -12.793
REMARK INTRA:                  -1.688
REMARK UNBOUND:                -1.630
REMARK SMILES CCCCCCCCCCCCCCCCCCCCCCCC(=O)[O-]
REMARK SMILES IDX 13 1 14 2 15 3 16 4 17 5 18 6 19 7 20 8 21 9 22 10 23 11
REMARK SMILES IDX 24 12 25 13 26 14 12 15 11 16 10 17 9 18 8 19 7 20 6 21 5 22
REMARK SMILES IDX 4 23 3 24 2 25 1 26
REMARK H PARENT
REMARK Flexibility Score: inf
ROOT
ATOM      1  C   UNL     1      12.366  -9.719   1.560  1.00  0.00     0.000 C 
ENDROOT
BRANCH   1   2
ATOM      2  C   UNL     1      13.351 -10.887   1.775  1.00  0.00     0.000 C 
BRANCH   2   3
ATOM      3  C   UNL     1      13.815 -11.097   3.230  1.00  0.00     0.000 C 
BRANCH   3   4
ATOM      4  C   UNL     1      13.524  -9.925   4.187  1.00  0.00     0.000 C 
BRANCH   4   5
ATOM      5  C   UNL     1      12.514 -10.287   5.289  1.00  0.00     0.000 C 
BRANCH   5   6
ATOM      6  C   UNL     1      11.617 -11.479   4.905  1.00  0.00     0.000 C 
BRANCH   6   7
ATOM      7  C   UNL     1      10.261 -11.097   4.280  1.00  0.00     0.000 C 
BRANCH   7   8
ATOM      8  C   UNL     1       9.056 -11.915   4.788  1.00  0.00     0.000 C 
BRANCH   8   9
ATOM      9  C   UNL     1       8.953 -11.976   6.327  1.00  0.00     0.000 C 
BRANCH   9  10
ATOM     10  C   UNL     1       8.014 -13.091   6.807  1.00  0.00     0.006 C 
BRANCH  10  11
ATOM     11  C   UNL     1       7.505 -13.925   5.627  1.00  0.00     0.053 C 
BRANCH  11  12
ATOM     12  C   UNL     1       8.061 -15.313   5.683  1.00  0.00     0.041 C 
ATOM     13  O   UNL     1       7.352 -16.293   5.333  1.00  0.00    -0.550 OA
ATOM     14  O   UNL     1       9.351 -15.528   6.153  1.00  0.00    -0.550 OA
ENDBRANCH  11  12
ENDBRANCH  10  11
ENDBRANCH   9  10
ENDBRANCH   8   9
ENDBRANCH   7   8
ENDBRANCH   6   7
ENDBRANCH   5   6
ENDBRANCH   4   5
ENDBRANCH   3   4
ENDBRANCH   2   3
ENDBRANCH   1   2
BRANCH   1  15
ATOM     15  C   UNL     1      12.916  -8.545   0.731  1.00  0.00     0.000 C 
BRANCH  15  16
ATOM     16  C   UNL     1      13.950  -8.988  -0.317  1.00  0.00     0.000 C 
BRANCH  16  17
ATOM     17  C   UNL     1      14.643  -7.802  -1.013  1.00  0.00     0.000 C 
BRANCH  17  18
ATOM     18  C   UNL     1      14.365  -7.670  -2.524  1.00  0.00    -0.000 C 
BRANCH  18  19
ATOM     19  C   UNL     1      13.055  -6.943  -2.886  1.00  0.00    -0.000 C 
BRANCH  19  20
ATOM     20  C   UNL     1      11.941  -7.852  -3.439  1.00  0.00    -0.000 C 
BRANCH  20  21
ATOM     21  C   UNL     1      12.427  -9.003  -4.343  1.00  0.00    -0.000 C 
BRANCH  21  22
ATOM     22  C   UNL     1      11.510  -9.330  -5.537  1.00  0.00    -0.000 C 
BRANCH  22  23
ATOM     23  C   UNL     1      12.273  -9.420  -6.869  1.00  0.00    -0.000 C 
BRANCH  23  24
ATOM     24  C   UNL     1      11.388  -9.916  -8.023  1.00  0.00    -0.000 C 
BRANCH  24  25
ATOM     25  C   UNL     1       9.927  -9.463  -7.886  1.00  0.00    -0.003 C 
ATOM     26  C   UNL     1       8.989 -10.662  -7.761  1.00  0.00     0.004 C 
ENDBRANCH  24  25
ENDBRANCH  23  24
ENDBRANCH  22  23
ENDBRANCH  21  22
ENDBRANCH  20  21
ENDBRANCH  19  20
ENDBRANCH  18  19
ENDBRANCH  17  18
ENDBRANCH  16  17
ENDBRANCH  15  16
ENDBRANCH   1  15
TORSDOF 22
ENDMDL
MODEL 4
REMARK VINA RESULT:    -5.610      6.485     13.673
REMARK INTER + INTRA:         -14.456
REMARK INTER:                 -12.911
REMARK INTRA:                  -1.545
REMARK UNBOUND:                -1.630
REMARK SMILES CCCCCCCCCCCCCCCCCCCCCCCC(=O)[O-]
REMARK SMILES IDX 13 1 14 2 15 3 16 4 17 5 18 6 19 7 20 8 21 9 22 10 23 11
REMARK SMILES IDX 24 12 25 13 26 14 12 15 11 16 10 17 9 18 8 19 7 20 6 21 5 22
REMARK SMILES IDX 4 23 3 24 2 25 1 26
REMARK H PARENT
REMARK Flexibility Score: inf
ROOT
ATOM      1  C   UNL     1       3.855 -18.885   2.182  1.00  0.00     0.000 C 
ENDROOT
BRANCH   1   2
ATOM      2  C   UNL     1       3.914 -18.391   3.642  1.00  0.00     0.000 C 
BRANCH   2   3
ATOM      3  C   UNL     1       3.701 -16.876   3.833  1.00  0.00     0.000 C 
BRANCH   3   4
ATOM      4  C   UNL     1       4.929 -16.100   4.347  1.00  0.00     0.000 C 
BRANCH   4   5
ATOM      5  C   UNL     1       6.258 -16.812   4.044  1.00  0.00     0.000 C 
BRANCH   5   6
ATOM      6  C   UNL     1       7.464 -16.131   4.719  1.00  0.00     0.000 C 
BRANCH   6   7
ATOM      7  C   UNL     1       7.181 -15.541   6.113  1.00  0.00     0.000 C 
BRANCH   7   8
ATOM      8  C   UNL     1       8.357 -14.770   6.745  1.00  0.00     0.000 C 
BRANCH   8   9
ATOM      9  C   UNL     1       8.031 -13.293   7.060  1.00  0.00     0.000 C 
BRANCH   9  10
ATOM     10  C   UNL     1       8.872 -12.318   6.223  1.00  0.00     0.006 C 
BRANCH  10  11
ATOM     11  C   UNL     1       9.937 -13.066   5.416  1.00  0.00     0.053 C 
BRANCH  11  12
ATOM     12  C   UNL     1      10.694 -12.121   4.537  1.00  0.00     0.041 C 
ATOM     13  O   UNL     1      10.795 -10.906   4.854  1.00  0.00    -0.550 OA
ATOM     14  O   UNL     1      11.260 -12.574   3.352  1.00  0.00    -0.550 OA
ENDBRANCH  11  12
ENDBRANCH  10  11
ENDBRANCH   9  10
ENDBRANCH   8   9
ENDBRANCH   7   8
ENDBRANCH   6   7
ENDBRANCH   5   6
ENDBRANCH   4   5
ENDBRANCH   3   4
ENDBRANCH   2   3
ENDBRANCH   1   2
BRANCH   1  15
ATOM     15  C   UNL     1       3.717 -17.777   1.122  1.00  0.00     0.000 C 
BRANCH  15  16
ATOM     16  C   UNL     1       4.854 -17.799   0.086  1.00  0.00     0.000 C 
BRANCH  16  17
ATOM     17  C   UNL     1       4.340 -17.893  -1.363  1.00  0.00     0.000 C 
BRANCH  17  18
ATOM     18  C   UNL     1       2.808 -17.816  -1.526  1.00  0.00    -0.000 C 
BRANCH  18  19
ATOM     19  C   UNL     1       2.306 -17.808  -2.983  1.00  0.00    -0.000 C 
BRANCH  19  20
ATOM     20  C   UNL     1       3.029 -18.793  -3.922  1.00  0.00    -0.000 C 
BRANCH  20  21
ATOM     21  C   UNL     1       3.830 -18.136  -5.064  1.00  0.00    -0.000 C 
BRANCH  21  22
ATOM     22  C   UNL     1       4.255 -16.678  -4.811  1.00  0.00    -0.000 C 
BRANCH  22  23
ATOM     23  C   UNL     1       5.164 -16.120  -5.919  1.00  0.00    -0.000 C 
BRANCH  23  24
ATOM     24  C   UNL     1       4.456 -15.071  -6.791  1.00  0.00    -0.000 C 
BRANCH  24  25
ATOM     25  C   UNL     1       5.198 -14.795  -8.107  1.00  0.00    -0.003 C 
ATOM     26  C   UNL     1       6.536 -15.528  -8.147  1.00  0.00     0.004 C 
ENDBRANCH  24  25
ENDBRANCH  23  24
ENDBRANCH  22  23
ENDBRANCH  21  22
ENDBRANCH  20  21
ENDBRANCH  19  20
ENDBRANCH  18  19
ENDBRANCH  17  18
ENDBRANCH  16  17
ENDBRANCH  15  16
ENDBRANCH   1  15
TORSDOF 22
ENDMDL
MODEL 5
REMARK VINA RESULT:    -5.610      6.126     10.310
REMARK INTER + INTRA:         -14.456
REMARK INTER:                 -12.865
REMARK INTRA:                  -1.591
REMARK UNBOUND:                -1.630
REMARK SMILES CCCCCCCCCCCCCCCCCCCCCCCC(=O)[O-]
REMARK SMILES IDX 13 1 14 2 15 3 16 4 17 5 18 6 19 7 20 8 21 9 22 10 23 11
REMARK SMILES IDX 24 12 25 13 26 14 12 15 11 16 10 17 9 18 8 19 7 20 6 21 5 22
REMARK SMILES IDX 4 23 3 24 2 25 1 26
REMARK H PARENT
REMARK Flexibility Score: inf
ROOT
ATOM      1  C   UNL     1       6.585 -15.364   4.943  1.00  0.00     0.000 C 
ENDROOT
BRANCH   1   2
ATOM      2  C   UNL     1       5.742 -16.488   4.304  1.00  0.00     0.000 C 
BRANCH   2   3
ATOM      3  C   UNL     1       4.220 -16.245   4.295  1.00  0.00     0.000 C 
BRANCH   3   4
ATOM      4  C   UNL     1       3.360 -17.485   3.982  1.00  0.00     0.000 C 
BRANCH   4   5
ATOM      5  C   UNL     1       4.200 -18.722   3.624  1.00  0.00     0.000 C 
BRANCH   5   6
ATOM      6  C   UNL     1       3.915 -19.242   2.202  1.00  0.00     0.000 C 
BRANCH   6   7
ATOM      7  C   UNL     1       3.581 -18.152   1.166  1.00  0.00     0.000 C 
BRANCH   7   8
ATOM      8  C   UNL     1       4.613 -17.994   0.031  1.00  0.00     0.000 C 
BRANCH   8   9
ATOM      9  C   UNL     1       4.041 -17.325  -1.237  1.00  0.00     0.000 C 
BRANCH   9  10
ATOM     10  C   UNL     1       2.647 -17.855  -1.600  1.00  0.00     0.006 C 
BRANCH  10  11
ATOM     11  C   UNL     1       2.392 -17.740  -3.106  1.00  0.00     0.053 C 
BRANCH  11  12
ATOM     12  C   UNL     1       3.252 -18.703  -3.862  1.00  0.00     0.041 C 
ATOM     13  O   UNL     1       3.334 -19.904  -3.491  1.00  0.00    -0.550 OA
ATOM     14  O   UNL     1       3.989 -18.267  -4.956  1.00  0.00    -0.550 OA
ENDBRANCH  11  12
ENDBRANCH  10  11
ENDBRANCH   9  10
ENDBRANCH   8   9
ENDBRANCH   7   8
ENDBRANCH   6   7
ENDBRANCH   5   6
ENDBRANCH   4   5
ENDBRANCH   3   4
ENDBRANCH   2   3
ENDBRANCH   1   2
BRANCH   1  15
ATOM     15  C   UNL     1       7.655 -15.838   5.943  1.00  0.00     0.000 C 
BRANCH  15  16
ATOM     16  C   UNL     1       8.204 -14.697   6.815  1.00  0.00     0.000 C 
BRANCH  16  17
ATOM     17  C   UNL     1       7.682 -13.313   6.386  1.00  0.00     0.000 C 
BRANCH  17  18
ATOM     18  C   UNL     1       8.748 -12.200   6.313  1.00  0.00    -0.000 C 
BRANCH  18  19
ATOM     19  C   UNL     1       9.416 -12.026   4.935  1.00  0.00    -0.000 C 
BRANCH  19  20
ATOM     20  C   UNL     1      10.957 -12.052   4.955  1.00  0.00    -0.000 C 
BRANCH  20  21
ATOM     21  C   UNL     1      11.630 -11.882   3.578  1.00  0.00    -0.000 C 
BRANCH  21  22
ATOM     22  C   UNL     1      13.082 -11.369   3.618  1.00  0.00    -0.000 C 
BRANCH  22  23
ATOM     23  C   UNL     1      13.202  -9.886   3.229  1.00  0.00    -0.000 C 
BRANCH  23  24
ATOM     24  C   UNL     1      12.698  -8.944   4.334  1.00  0.00    -0.000 C 
BRANCH  24  25
ATOM     25  C   UNL     1      11.779  -7.837   3.795  1.00  0.00    -0.003 C 
ATOM     26  C   UNL     1      10.480  -8.421   3.245  1.00  0.00     0.004 C 
ENDBRANCH  24  25
ENDBRANCH  23  24
ENDBRANCH  22  23
ENDBRANCH  21  22
ENDBRANCH  20  21
ENDBRANCH  19  20
ENDBRANCH  18  19
ENDBRANCH  17  18
ENDBRANCH  16  17
ENDBRANCH  15  16
ENDBRANCH   1  15
TORSDOF 22
ENDMDL
MODEL 6
REMARK VINA RESULT:    -5.596      7.577     14.301
REMARK INTER + INTRA:         -14.423
REMARK INTER:                 -12.668
REMARK INTRA:                  -1.755
REMARK UNBOUND:                -1.630
REMARK SMILES CCCCCCCCCCCCCCCCCCCCCCCC(=O)[O-]
REMARK SMILES IDX 13 1 14 2 15 3 16 4 17 5 18 6 19 7 20 8 21 9 22 10 23 11
REMARK SMILES IDX 24 12 25 13 26 14 12 15 11 16 10 17 9 18 8 19 7 20 6 21 5 22
REMARK SMILES IDX 4 23 3 24 2 25 1 26
REMARK H PARENT
REMARK Flexibility Score: inf
ROOT
ATOM      1  C   UNL     1       4.286 -18.121  -0.957  1.00  0.00     0.000 C 
ENDROOT
BRANCH   1   2
ATOM      2  C   UNL     1       4.744 -18.265   0.510  1.00  0.00     0.000 C 
BRANCH   2   3
ATOM      3  C   UNL     1       3.640 -18.668   1.507  1.00  0.00     0.000 C 
BRANCH   3   4
ATOM      4  C   UNL     1       4.100 -18.817   2.970  1.00  0.00     0.000 C 
BRANCH   4   5
ATOM      5  C   UNL     1       3.467 -17.773   3.906  1.00  0.00     0.000 C 
BRANCH   5   6
ATOM      6  C   UNL     1       4.181 -16.409   3.845  1.00  0.00     0.000 C 
BRANCH   6   7
ATOM      7  C   UNL     1       5.426 -16.286   4.744  1.00  0.00     0.000 C 
BRANCH   7   8
ATOM      8  C   UNL     1       6.771 -16.245   3.992  1.00  0.00     0.000 C 
BRANCH   8   9
ATOM      9  C   UNL     1       7.927 -15.650   4.824  1.00  0.00     0.000 C 
BRANCH   9  10
ATOM     10  C   UNL     1       7.541 -15.440   6.296  1.00  0.00     0.006 C 
BRANCH  10  11
ATOM     11  C   UNL     1       8.595 -14.599   7.023  1.00  0.00     0.053 C 
BRANCH  11  12
ATOM     12  C   UNL     1       8.521 -13.169   6.589  1.00  0.00     0.041 C 
ATOM     13  O   UNL     1       9.442 -12.671   5.891  1.00  0.00    -0.550 OA
ATOM     14  O   UNL     1       7.449 -12.377   6.984  1.00  0.00    -0.550 OA
ENDBRANCH  11  12
ENDBRANCH  10  11
ENDBRANCH   9  10
ENDBRANCH   8   9
ENDBRANCH   7   8
ENDBRANCH   6   7
ENDBRANCH   5   6
ENDBRANCH   4   5
ENDBRANCH   3   4
ENDBRANCH   2   3
ENDBRANCH   1   2
BRANCH   1  15
ATOM     15  C   UNL     1       2.878 -17.529  -1.146  1.00  0.00     0.000 C 
BRANCH  15  16
ATOM     16  C   UNL     1       2.340 -17.717  -2.575  1.00  0.00     0.000 C 
BRANCH  16  17
ATOM     17  C   UNL     1       2.895 -18.977  -3.262  1.00  0.00     0.000 C 
BRANCH  17  18
ATOM     18  C   UNL     1       3.499 -18.752  -4.664  1.00  0.00    -0.000 C 
BRANCH  18  19
ATOM     19  C   UNL     1       4.674 -17.755  -4.716  1.00  0.00    -0.000 C 
BRANCH  19  20
ATOM     20  C   UNL     1       4.390 -16.460  -5.501  1.00  0.00    -0.000 C 
BRANCH  20  21
ATOM     21  C   UNL     1       4.757 -15.156  -4.764  1.00  0.00    -0.000 C 
BRANCH  21  22
ATOM     22  C   UNL     1       4.887 -13.911  -5.662  1.00  0.00    -0.000 C 
BRANCH  22  23
ATOM     23  C   UNL     1       4.826 -14.247  -7.162  1.00  0.00    -0.000 C 
BRANCH  23  24
ATOM     24  C   UNL     1       6.144 -13.938  -7.889  1.00  0.00    -0.000 C 
BRANCH  24  25
ATOM     25  C   UNL     1       7.164 -15.080  -7.779  1.00  0.00    -0.003 C 
ATOM     26  C   UNL     1       6.991 -16.083  -8.917  1.00  0.00     0.004 C 
ENDBRANCH  24  25
ENDBRANCH  23  24
ENDBRANCH  22  23
ENDBRANCH  21  22
ENDBRANCH  20  21
ENDBRANCH  19  20
ENDBRANCH  18  19
ENDBRANCH  17  18
ENDBRANCH  16  17
ENDBRANCH  15  16
ENDBRANCH   1  15
TORSDOF 22
ENDMDL
MODEL 7
REMARK VINA RESULT:    -5.558      5.771      9.935
REMARK INTER + INTRA:         -14.338
REMARK INTER:                 -12.213
REMARK INTRA:                  -2.124
REMARK UNBOUND:                -1.630
REMARK SMILES CCCCCCCCCCCCCCCCCCCCCCCC(=O)[O-]
REMARK SMILES IDX 13 1 14 2 15 3 16 4 17 5 18 6 19 7 20 8 21 9 22 10 23 11
REMARK SMILES IDX 24 12 25 13 26 14 12 15 11 16 10 17 9 18 8 19 7 20 6 21 5 22
REMARK SMILES IDX 4 23 3 24 2 25 1 26
REMARK H PARENT
REMARK Flexibility Score: inf
ROOT
ATOM      1  C   UNL     1       9.093 -10.820  -7.624  1.00  0.00     0.000 C 
ENDROOT
BRANCH   1   2
ATOM      2  C   UNL     1       9.770 -12.063  -7.010  1.00  0.00     0.000 C 
BRANCH   2   3
ATOM      3  C   UNL     1       8.993 -13.384  -7.175  1.00  0.00     0.000 C 
BRANCH   3   4
ATOM      4  C   UNL     1       7.684 -13.280  -7.981  1.00  0.00     0.000 C 
BRANCH   4   5
ATOM      5  C   UNL     1       7.459 -14.478  -8.918  1.00  0.00     0.000 C 
BRANCH   5   6
ATOM      6  C   UNL     1       6.153 -15.236  -8.611  1.00  0.00     0.000 C 
BRANCH   6   7
ATOM      7  C   UNL     1       5.009 -14.363  -8.062  1.00  0.00     0.000 C 
BRANCH   7   8
ATOM      8  C   UNL     1       4.531 -14.731  -6.643  1.00  0.00     0.000 C 
BRANCH   8   9
ATOM      9  C   UNL     1       5.097 -16.072  -6.129  1.00  0.00     0.000 C 
BRANCH   9  10
ATOM     10  C   UNL     1       4.378 -16.565  -4.864  1.00  0.00     0.006 C 
BRANCH  10  11
ATOM     11  C   UNL     1       3.879 -18.001  -5.043  1.00  0.00     0.053 C 
BRANCH  11  12
ATOM     12  C   UNL     1       3.781 -18.694  -3.720  1.00  0.00     0.041 C 
ATOM     13  O   UNL     1       2.672 -18.776  -3.130  1.00  0.00    -0.550 OA
ATOM     14  O   UNL     1       4.920 -19.220  -3.124  1.00  0.00    -0.550 OA
ENDBRANCH  11  12
ENDBRANCH  10  11
ENDBRANCH   9  10
ENDBRANCH   8   9
ENDBRANCH   7   8
ENDBRANCH   6   7
ENDBRANCH   5   6
ENDBRANCH   4   5
ENDBRANCH   3   4
ENDBRANCH   2   3
ENDBRANCH   1   2
BRANCH   1  15
ATOM     15  C   UNL     1      10.053  -9.684  -8.024  1.00  0.00     0.000 C 
BRANCH  15  16
ATOM     16  C   UNL     1      11.500 -10.167  -8.215  1.00  0.00     0.000 C 
BRANCH  16  17
ATOM     17  C   UNL     1      12.492  -9.480  -7.258  1.00  0.00     0.000 C 
BRANCH  17  18
ATOM     18  C   UNL     1      11.923  -9.116  -5.871  1.00  0.00    -0.000 C 
BRANCH  18  19
ATOM     19  C   UNL     1      12.171 -10.165  -4.768  1.00  0.00    -0.000 C 
BRANCH  19  20
ATOM     20  C   UNL     1      11.348  -9.960  -3.482  1.00  0.00    -0.000 C 
BRANCH  20  21
ATOM     21  C   UNL     1      10.663  -8.584  -3.358  1.00  0.00    -0.000 C 
BRANCH  21  22
ATOM     22  C   UNL     1      11.262  -7.647  -2.292  1.00  0.00    -0.000 C 
BRANCH  22  23
ATOM     23  C   UNL     1      11.826  -8.407  -1.079  1.00  0.00    -0.000 C 
BRANCH  23  24
ATOM     24  C   UNL     1      13.351  -8.263  -0.950  1.00  0.00    -0.000 C 
BRANCH  24  25
ATOM     25  C   UNL     1      13.977  -7.513  -2.135  1.00  0.00    -0.003 C 
ATOM     26  C   UNL     1      15.238  -8.220  -2.627  1.00  0.00     0.004 C 
ENDBRANCH  24  25
ENDBRANCH  23  24
ENDBRANCH  22  23
ENDBRANCH  21  22
ENDBRANCH  20  21
ENDBRANCH  19  20
ENDBRANCH  18  19
ENDBRANCH  17  18
ENDBRANCH  16  17
ENDBRANCH  15  16
ENDBRANCH   1  15
TORSDOF 22
ENDMDL
MODEL 8
REMARK VINA RESULT:    -5.527      3.876     10.902
REMARK INTER + INTRA:         -14.265
REMARK INTER:                 -12.586
REMARK INTRA:                  -1.679
REMARK UNBOUND:                -1.630
REMARK SMILES CCCCCCCCCCCCCCCCCCCCCCCC(=O)[O-]
REMARK SMILES IDX 13 1 14 2 15 3 16 4 17 5 18 6 19 7 20 8 21 9 22 10 23 11
REMARK SMILES IDX 24 12 25 13 26 14 12 15 11 16 10 17 9 18 8 19 7 20 6 21 5 22
REMARK SMILES IDX 4 23 3 24 2 25 1 26
REMARK H PARENT
REMARK Flexibility Score: inf
ROOT
ATOM      1  C   UNL     1      13.954  -8.936  -0.186  1.00  0.00     0.000 C 
ENDROOT
BRANCH   1   2
ATOM      2  C   UNL     1      12.799  -8.471   0.725  1.00  0.00     0.000 C 
BRANCH   2   3
ATOM      3  C   UNL     1      12.507  -9.382   1.934  1.00  0.00     0.000 C 
BRANCH   3   4
ATOM      4  C   UNL     1      13.668 -10.302   2.357  1.00  0.00     0.000 C 
BRANCH   4   5
ATOM      5  C   UNL     1      13.955 -10.249   3.868  1.00  0.00     0.000 C 
BRANCH   5   6
ATOM      6  C   UNL     1      12.802  -9.616   4.670  1.00  0.00     0.000 C 
BRANCH   6   7
ATOM      7  C   UNL     1      11.973 -10.607   5.509  1.00  0.00     0.000 C 
BRANCH   7   8
ATOM      8  C   UNL     1      10.980 -11.469   4.705  1.00  0.00     0.000 C 
BRANCH   8   9
ATOM      9  C   UNL     1       9.697 -11.826   5.485  1.00  0.00     0.000 C 
BRANCH   9  10
ATOM     10  C   UNL     1       9.636 -13.313   5.864  1.00  0.00     0.006 C 
BRANCH  10  11
ATOM     11  C   UNL     1       8.539 -14.034   5.076  1.00  0.00     0.053 C 
BRANCH  11  12
ATOM     12  C   UNL     1       7.748 -14.933   5.974  1.00  0.00     0.041 C 
ATOM     13  O   UNL     1       8.056 -15.042   7.190  1.00  0.00    -0.550 OA
ATOM     14  O   UNL     1       6.691 -15.675   5.461  1.00  0.00    -0.550 OA
ENDBRANCH  11  12
ENDBRANCH  10  11
ENDBRANCH   9  10
ENDBRANCH   8   9
ENDBRANCH   7   8
ENDBRANCH   6   7
ENDBRANCH   5   6
ENDBRANCH   4   5
ENDBRANCH   3   4
ENDBRANCH   2   3
ENDBRANCH   1   2
BRANCH   1  15
ATOM     15  C   UNL     1      14.777  -7.803  -0.826  1.00  0.00     0.000 C 
BRANCH  15  16
ATOM     16  C   UNL     1      14.593  -7.720  -2.350  1.00  0.00     0.000 C 
BRANCH  16  17
ATOM     17  C   UNL     1      13.334  -6.934  -2.759  1.00  0.00     0.000 C 
BRANCH  17  18
ATOM     18  C   UNL     1      12.296  -7.731  -3.576  1.00  0.00    -0.000 C 
BRANCH  18  19
ATOM     19  C   UNL     1      12.468  -9.262  -3.534  1.00  0.00    -0.000 C 
BRANCH  19  20
ATOM     20  C   UNL     1      12.213  -9.980  -4.874  1.00  0.00    -0.000 C 
BRANCH  20  21
ATOM     21  C   UNL     1      11.857  -9.053  -6.053  1.00  0.00    -0.000 C 
BRANCH  21  22
ATOM     22  C   UNL     1      12.346  -9.532  -7.433  1.00  0.00    -0.000 C 
BRANCH  22  23
ATOM     23  C   UNL     1      11.350 -10.481  -8.122  1.00  0.00    -0.000 C 
BRANCH  23  24
ATOM     24  C   UNL     1       9.907  -9.955  -8.078  1.00  0.00    -0.000 C 
BRANCH  24  25
ATOM     25  C   UNL     1       8.925 -10.969  -7.473  1.00  0.00    -0.003 C 
ATOM     26  C   UNL     1       9.583 -12.336  -7.303  1.00  0.00     0.004 C 
ENDBRANCH  24  25
ENDBRANCH  23  24
ENDBRANCH  22  23
ENDBRANCH  21  22
ENDBRANCH  20  21
ENDBRANCH  19  20
ENDBRANCH  18  19
ENDBRANCH  17  18
ENDBRANCH  16  17
ENDBRANCH  15  16
ENDBRANCH   1  15
TORSDOF 22
ENDMDL
MODEL 9
REMARK VINA RESULT:    -5.516      5.775     11.507
REMARK INTER + INTRA:         -14.241
REMARK INTER:                 -12.882
REMARK INTRA:                  -1.359
REMARK UNBOUND:                -1.630
REMARK SMILES CCCCCCCCCCCCCCCCCCCCCCCC(=O)[O-]
REMARK SMILES IDX 13 1 14 2 15 3 16 4 17 5 18 6 19 7 20 8 21 9 22 10 23 11
REMARK SMILES IDX 24 12 25 13 26 14 12 15 11 16 10 17 9 18 8 19 7 20 6 21 5 22
REMARK SMILES IDX 4 23 3 24 2 25 1 26
REMARK H PARENT
REMARK Flexibility Score: inf
ROOT
ATOM      1  C   UNL     1       7.610 -13.217  -7.719  1.00  0.00     0.000 C 
ENDROOT
BRANCH   1   2
ATOM      2  C   UNL     1       7.307 -14.278  -8.798  1.00  0.00     0.000 C 
BRANCH   2   3
ATOM      3  C   UNL     1       6.121 -15.212  -8.488  1.00  0.00     0.000 C 
BRANCH   3   4
ATOM      4  C   UNL     1       4.951 -14.558  -7.727  1.00  0.00     0.000 C 
BRANCH   4   5
ATOM      5  C   UNL     1       4.641 -15.254  -6.391  1.00  0.00     0.000 C 
BRANCH   5   6
ATOM      6  C   UNL     1       5.689 -16.319  -6.017  1.00  0.00     0.000 C 
BRANCH   6   7
ATOM      7  C   UNL     1       5.261 -17.288  -4.900  1.00  0.00     0.000 C 
BRANCH   7   8
ATOM      8  C   UNL     1       3.863 -17.912  -5.078  1.00  0.00     0.000 C 
BRANCH   8   9
ATOM      9  C   UNL     1       3.485 -18.914  -3.966  1.00  0.00     0.000 C 
BRANCH   9  10
ATOM     10  C   UNL     1       2.607 -18.278  -2.878  1.00  0.00     0.006 C 
BRANCH  10  11
ATOM     11  C   UNL     1       3.416 -17.290  -2.031  1.00  0.00     0.053 C 
BRANCH  11  12
ATOM     12  C   UNL     1       3.971 -17.967  -0.818  1.00  0.00     0.041 C 
ATOM     13  O   UNL     1       3.306 -17.997   0.251  1.00  0.00    -0.550 OA
ATOM     14  O   UNL     1       5.238 -18.537  -0.858  1.00  0.00    -0.550 OA
ENDBRANCH  11  12
ENDBRANCH  10  11
ENDBRANCH   9  10
ENDBRANCH   8   9
ENDBRANCH   7   8
ENDBRANCH   6   7
ENDBRANCH   5   6
ENDBRANCH   4   5
ENDBRANCH   3   4
ENDBRANCH   2   3
ENDBRANCH   1   2
BRANCH   1  15
ATOM     15  C   UNL     1       8.968 -13.375  -7.012  1.00  0.00     0.000 C 
BRANCH  15  16
ATOM     16  C   UNL     1       9.912 -12.186  -7.261  1.00  0.00     0.000 C 
BRANCH  16  17
ATOM     17  C   UNL     1       9.170 -10.924  -7.738  1.00  0.00     0.000 C 
BRANCH  17  18
ATOM     18  C   UNL     1      10.067  -9.702  -8.024  1.00  0.00    -0.000 C 
BRANCH  18  19
ATOM     19  C   UNL     1      11.582  -9.969  -7.938  1.00  0.00    -0.000 C 
BRANCH  19  20
ATOM     20  C   UNL     1      12.294  -9.287  -6.754  1.00  0.00    -0.000 C 
BRANCH  20  21
ATOM     21  C   UNL     1      11.771  -9.685  -5.360  1.00  0.00    -0.000 C 
BRANCH  21  22
ATOM     22  C   UNL     1      11.961  -8.623  -4.261  1.00  0.00    -0.000 C 
BRANCH  22  23
ATOM     23  C   UNL     1      13.307  -8.755  -3.529  1.00  0.00    -0.000 C 
BRANCH  23  24
ATOM     24  C   UNL     1      13.718  -7.459  -2.812  1.00  0.00    -0.000 C 
BRANCH  24  25
ATOM     25  C   UNL     1      14.444  -7.722  -1.484  1.00  0.00    -0.003 C 
ATOM     26  C   UNL     1      13.501  -8.338  -0.454  1.00  0.00     0.004 C 
ENDBRANCH  24  25
ENDBRANCH  23  24
ENDBRANCH  22  23
ENDBRANCH  21  22
ENDBRANCH  20  21
ENDBRANCH  19  20
ENDBRANCH  18  19
ENDBRANCH  17  18
ENDBRANCH  16  17
ENDBRANCH  15  16
ENDBRANCH   1  15
TORSDOF 22
ENDMDL
