MODEL 1
REMARK VINA RESULT:    -3.792      0.000      0.000
REMARK INTER + INTRA:          -6.703
REMARK INTER:                  -6.009
REMARK INTRA:                  -0.694
REMARK UNBOUND:                -0.694
REMARK SMILES CCCCCCCCCCCC(=O)[O-]
REMARK SMILES IDX 7 1 8 2 9 3 10 4 11 5 12 6 13 7 14 8 6 9 5 10 4 11 3 12 2 13
REMARK SMILES IDX 1 14
REMARK H PARENT
REMARK Flexibility Score: inf
ROOT
ATOM      1  C   UNL     1     -52.706 120.912  -9.388  1.00  0.00     0.000 C 
ENDROOT
BRANCH   1   2
ATOM      2  C   UNL     1     -53.411 119.760 -10.128  1.00  0.00     0.000 C 
BRANCH   2   3
ATOM      3  C   UNL     1     -53.937 120.180 -11.510  1.00  0.00     0.000 C 
BRANCH   3   4
ATOM      4  C   UNL     1     -55.441 119.903 -11.678  1.00  0.00     0.006 C 
BRANCH   4   5
ATOM      5  C   UNL     1     -56.203 120.012 -10.350  1.00  0.00     0.053 C 
BRANCH   5   6
ATOM      6  C   UNL     1     -56.297 121.429  -9.876  1.00  0.00     0.041 C 
ATOM      7  O   UNL     1     -56.353 121.682  -8.643  1.00  0.00    -0.550 OA
ATOM      8  O   UNL     1     -56.352 122.470 -10.794  1.00  0.00    -0.550 OA
ENDBRANCH   5   6
ENDBRANCH   4   5
ENDBRANCH   3   4
ENDBRANCH   2   3
ENDBRANCH   1   2
BRANCH   1   9
ATOM      9  C   UNL     1     -52.503 122.150 -10.276  1.00  0.00     0.000 C 
BRANCH   9  10
ATOM     10  C   UNL     1     -51.125 122.165 -10.961  1.00  0.00    -0.000 C 
BRANCH  10  11
ATOM     11  C   UNL     1     -50.088 121.309 -10.217  1.00  0.00    -0.000 C 
BRANCH  11  12
ATOM     12  C   UNL     1     -48.959 122.150  -9.595  1.00  0.00    -0.000 C 
BRANCH  12  13
ATOM     13  C   UNL     1     -48.879 123.563 -10.195  1.00  0.00    -0.003 C 
ATOM     14  C   UNL     1     -48.875 124.657  -9.129  1.00  0.00     0.004 C 
ENDBRANCH  12  13
ENDBRANCH  11  12
ENDBRANCH  10  11
ENDBRANCH   9  10
ENDBRANCH   1   9
TORSDOF 10
ENDMDL
MODEL 2
REMARK VINA RESULT:    -3.735      1.052      1.318
REMARK INTER + INTRA:          -6.613
REMARK INTER:                  -5.433
REMARK INTRA:                  -1.180
REMARK UNBOUND:                -0.694
REMARK SMILES CCCCCCCCCCCC(=O)[O-]
REMARK SMILES IDX 7 1 8 2 9 3 10 4 11 5 12 6 13 7 14 8 6 9 5 10 4 11 3 12 2 13
REMARK SMILES IDX 1 14
REMARK H PARENT
REMARK Flexibility Score: inf
ROOT
ATOM      1  C   UNL     1     -52.539 122.116  -9.809  1.00  0.00     0.000 C 
ENDROOT
BRANCH   1   2
ATOM      2  C   UNL     1     -53.120 120.809  -9.239  1.00  0.00     0.000 C 
BRANCH   2   3
ATOM      3  C   UNL     1     -53.685 119.887 -10.331  1.00  0.00     0.000 C 
BRANCH   3   4
ATOM      4  C   UNL     1     -55.206 119.692 -10.210  1.00  0.00     0.006 C 
BRANCH   4   5
ATOM      5  C   UNL     1     -55.976 120.449 -11.301  1.00  0.00     0.053 C 
BRANCH   5   6
ATOM      6  C   UNL     1     -56.330 121.839 -10.872  1.00  0.00     0.041 C 
ATOM      7  O   UNL     1     -56.690 122.063  -9.686  1.00  0.00    -0.550 OA
ATOM      8  O   UNL     1     -56.291 122.882 -11.788  1.00  0.00    -0.550 OA
ENDBRANCH   5   6
ENDBRANCH   4   5
ENDBRANCH   3   4
ENDBRANCH   2   3
ENDBRANCH   1   2
BRANCH   1   9
ATOM      9  C   UNL     1     -52.791 122.267 -11.318  1.00  0.00     0.000 C 
BRANCH   9  10
ATOM     10  C   UNL     1     -51.486 122.393 -12.124  1.00  0.00    -0.000 C 
BRANCH  10  11
ATOM     11  C   UNL     1     -50.526 121.218 -11.879  1.00  0.00    -0.000 C 
BRANCH  11  12
ATOM     12  C   UNL     1     -49.126 121.677 -11.434  1.00  0.00    -0.000 C 
BRANCH  12  13
ATOM     13  C   UNL     1     -49.097 123.156 -11.017  1.00  0.00    -0.003 C 
ATOM     14  C   UNL     1     -48.911 123.342  -9.512  1.00  0.00     0.004 C 
ENDBRANCH  12  13
ENDBRANCH  11  12
ENDBRANCH  10  11
ENDBRANCH   9  10
ENDBRANCH   1   9
TORSDOF 10
ENDMDL
MODEL 3
REMARK VINA RESULT:    -3.717      1.359      1.960
REMARK INTER + INTRA:          -6.584
REMARK INTER:                  -5.557
REMARK INTRA:                  -1.027
REMARK UNBOUND:                -0.694
REMARK SMILES CCCCCCCCCCCC(=O)[O-]
REMARK SMILES IDX 7 1 8 2 9 3 10 4 11 5 12 6 13 7 14 8 6 9 5 10 4 11 3 12 2 13
REMARK SMILES IDX 1 14
REMARK H PARENT
REMARK Flexibility Score: inf
ROOT
ATOM      1  C   UNL     1     -53.527 121.032  -8.758  1.00  0.00     0.000 C 
ENDROOT
BRANCH   1   2
ATOM      2  C   UNL     1     -53.727 119.853  -9.729  1.00  0.00     0.000 C 
BRANCH   2   3
ATOM      3  C   UNL     1     -53.273 120.183 -11.159  1.00  0.00     0.000 C 
BRANCH   3   4
ATOM      4  C   UNL     1     -54.451 120.523 -12.089  1.00  0.00     0.006 C 
BRANCH   4   5
ATOM      5  C   UNL     1     -55.757 119.855 -11.639  1.00  0.00     0.053 C 
BRANCH   5   6
ATOM      6  C   UNL     1     -56.766 120.858 -11.172  1.00  0.00     0.041 C 
ATOM      7  O   UNL     1     -57.965 120.517 -10.998  1.00  0.00    -0.550 OA
ATOM      8  O   UNL     1     -56.388 122.177 -10.955  1.00  0.00    -0.550 OA
ENDBRANCH   5   6
ENDBRANCH   4   5
ENDBRANCH   3   4
ENDBRANCH   2   3
ENDBRANCH   1   2
BRANCH   1   9
ATOM      9  C   UNL     1     -53.092 122.321  -9.473  1.00  0.00     0.000 C 
BRANCH   9  10
ATOM     10  C   UNL     1     -52.027 123.103  -8.685  1.00  0.00    -0.000 C 
BRANCH  10  11
ATOM     11  C   UNL     1     -50.614 122.923  -9.264  1.00  0.00    -0.000 C 
BRANCH  11  12
ATOM     12  C   UNL     1     -50.628 122.482 -10.738  1.00  0.00    -0.000 C 
BRANCH  12  13
ATOM     13  C   UNL     1     -49.631 121.348 -11.023  1.00  0.00    -0.003 C 
ATOM     14  C   UNL     1     -48.876 120.899  -9.773  1.00  0.00     0.004 C 
ENDBRANCH  12  13
ENDBRANCH  11  12
ENDBRANCH  10  11
ENDBRANCH   9  10
ENDBRANCH   1   9
TORSDOF 10
ENDMDL
MODEL 4
REMARK VINA RESULT:    -3.698      1.612      2.207
REMARK INTER + INTRA:          -6.554
REMARK INTER:                  -5.726
REMARK INTRA:                  -0.828
REMARK UNBOUND:                -0.694
REMARK SMILES CCCCCCCCCCCC(=O)[O-]
REMARK SMILES IDX 7 1 8 2 9 3 10 4 11 5 12 6 13 7 14 8 6 9 5 10 4 11 3 12 2 13
REMARK SMILES IDX 1 14
REMARK H PARENT
REMARK Flexibility Score: inf
ROOT
ATOM      1  C   UNL     1     -53.138 119.939 -10.026  1.00  0.00     0.000 C 
ENDROOT
BRANCH   1   2
ATOM      2  C   UNL     1     -53.147 121.182  -9.117  1.00  0.00     0.000 C 
BRANCH   2   3
ATOM      3  C   UNL     1     -54.568 121.614  -8.720  1.00  0.00     0.000 C 
BRANCH   3   4
ATOM      4  C   UNL     1     -55.505 121.747  -9.934  1.00  0.00     0.006 C 
BRANCH   4   5
ATOM      5  C   UNL     1     -56.842 121.027  -9.715  1.00  0.00     0.053 C 
BRANCH   5   6
ATOM      6  C   UNL     1     -57.170 120.103 -10.846  1.00  0.00     0.041 C 
ATOM      7  O   UNL     1     -58.112 120.378 -11.636  1.00  0.00    -0.550 OA
ATOM      8  O   UNL     1     -56.455 118.924 -11.012  1.00  0.00    -0.550 OA
ENDBRANCH   5   6
ENDBRANCH   4   5
ENDBRANCH   3   4
ENDBRANCH   2   3
ENDBRANCH   1   2
BRANCH   1   9
ATOM      9  C   UNL     1     -52.817 120.279 -11.490  1.00  0.00     0.000 C 
BRANCH   9  10
ATOM     10  C   UNL     1     -52.070 121.616 -11.635  1.00  0.00    -0.000 C 
BRANCH  10  11
ATOM     11  C   UNL     1     -50.566 121.427 -11.889  1.00  0.00    -0.000 C 
BRANCH  11  12
ATOM     12  C   UNL     1     -49.757 121.281 -10.587  1.00  0.00    -0.000 C 
BRANCH  12  13
ATOM     13  C   UNL     1     -48.902 122.522 -10.284  1.00  0.00    -0.003 C 
ATOM     14  C   UNL     1     -49.560 123.459  -9.272  1.00  0.00     0.004 C 
ENDBRANCH  12  13
ENDBRANCH  11  12
ENDBRANCH  10  11
ENDBRANCH   9  10
ENDBRANCH   1   9
TORSDOF 10
ENDMDL
MODEL 5
REMARK VINA RESULT:    -3.697      1.673      2.083
REMARK INTER + INTRA:          -6.552
REMARK INTER:                  -5.705
REMARK INTRA:                  -0.848
REMARK UNBOUND:                -0.694
REMARK SMILES CCCCCCCCCCCC(=O)[O-]
REMARK SMILES IDX 7 1 8 2 9 3 10 4 11 5 12 6 13 7 14 8 6 9 5 10 4 11 3 12 2 13
REMARK SMILES IDX 1 14
REMARK H PARENT
REMARK Flexibility Score: inf
ROOT
ATOM      1  C   UNL     1     -53.350 122.181  -9.147  1.00  0.00     0.000 C 
ENDROOT
BRANCH   1   2
ATOM      2  C   UNL     1     -54.579 121.324  -8.794  1.00  0.00     0.000 C 
BRANCH   2   3
ATOM      3  C   UNL     1     -55.841 121.759  -9.556  1.00  0.00     0.000 C 
BRANCH   3   4
ATOM      4  C   UNL     1     -55.584 121.961 -11.059  1.00  0.00     0.006 C 
BRANCH   4   5
ATOM      5  C   UNL     1     -55.763 120.663 -11.858  1.00  0.00     0.053 C 
BRANCH   5   6
ATOM      6  C   UNL     1     -56.920 119.854 -11.355  1.00  0.00     0.041 C 
ATOM      7  O   UNL     1     -56.717 118.779 -10.731  1.00  0.00    -0.550 OA
ATOM      8  O   UNL     1     -58.221 120.273 -11.600  1.00  0.00    -0.550 OA
ENDBRANCH   5   6
ENDBRANCH   4   5
ENDBRANCH   3   4
ENDBRANCH   2   3
ENDBRANCH   1   2
BRANCH   1   9
ATOM      9  C   UNL     1     -52.170 121.342  -9.664  1.00  0.00     0.000 C 
BRANCH   9  10
ATOM     10  C   UNL     1     -52.083 121.329 -11.200  1.00  0.00    -0.000 C 
BRANCH  10  11
ATOM     11  C   UNL     1     -50.634 121.393 -11.709  1.00  0.00    -0.000 C 
BRANCH  11  12
ATOM     12  C   UNL     1     -49.610 121.539 -10.569  1.00  0.00    -0.000 C 
BRANCH  12  13
ATOM     13  C   UNL     1     -48.875 122.888 -10.607  1.00  0.00    -0.003 C 
ATOM     14  C   UNL     1     -49.204 123.773  -9.405  1.00  0.00     0.004 C 
ENDBRANCH  12  13
ENDBRANCH  11  12
ENDBRANCH  10  11
ENDBRANCH   9  10
ENDBRANCH   1   9
TORSDOF 10
ENDMDL
MODEL 6
REMARK VINA RESULT:    -3.442      3.025      6.326
REMARK INTER + INTRA:          -6.148
REMARK INTER:                  -5.408
REMARK INTRA:                  -0.740
REMARK UNBOUND:                -0.694
REMARK SMILES CCCCCCCCCCCC(=O)[O-]
REMARK SMILES IDX 7 1 8 2 9 3 10 4 11 5 12 6 13 7 14 8 6 9 5 10 4 11 3 12 2 13
REMARK SMILES IDX 1 14
REMARK H PARENT
REMARK Flexibility Score: inf
ROOT
ATOM      1  C   UNL     1     -53.402 120.080 -11.039  1.00  0.00     0.000 C 
ENDROOT
BRANCH   1   2
ATOM      2  C   UNL     1     -52.207 120.425 -11.946  1.00  0.00     0.000 C 
BRANCH   2   3
ATOM      3  C   UNL     1     -51.579 121.785 -11.606  1.00  0.00     0.000 C 
BRANCH   3   4
ATOM      4  C   UNL     1     -50.043 121.767 -11.698  1.00  0.00     0.006 C 
BRANCH   4   5
ATOM      5  C   UNL     1     -49.378 122.004 -10.336  1.00  0.00     0.053 C 
BRANCH   5   6
ATOM      6  C   UNL     1     -49.227 123.463 -10.034  1.00  0.00     0.041 C 
ATOM      7  O   UNL     1     -48.875 124.264 -10.941  1.00  0.00    -0.550 OA
ATOM      8  O   UNL     1     -49.447 123.935  -8.747  1.00  0.00    -0.550 OA
ENDBRANCH   5   6
ENDBRANCH   4   5
ENDBRANCH   3   4
ENDBRANCH   2   3
ENDBRANCH   1   2
BRANCH   1   9
ATOM      9  C   UNL     1     -53.073 120.225  -9.545  1.00  0.00     0.000 C 
BRANCH   9  10
ATOM     10  C   UNL     1     -54.004 121.218  -8.829  1.00  0.00    -0.000 C 
BRANCH  10  11
ATOM     11  C   UNL     1     -55.127 121.737  -9.742  1.00  0.00    -0.000 C 
BRANCH  11  12
ATOM     12  C   UNL     1     -56.493 121.106  -9.421  1.00  0.00    -0.000 C 
BRANCH  12  13
ATOM     13  C   UNL     1     -56.825 119.922 -10.343  1.00  0.00    -0.003 C 
ATOM     14  C   UNL     1     -57.878 120.269 -11.394  1.00  0.00     0.004 C 
ENDBRANCH  12  13
ENDBRANCH  11  12
ENDBRANCH  10  11
ENDBRANCH   9  10
ENDBRANCH   1   9
TORSDOF 10
ENDMDL
MODEL 7
REMARK VINA RESULT:    -3.342      3.182      5.639
REMARK INTER + INTRA:          -5.990
REMARK INTER:                  -4.972
REMARK INTRA:                  -1.018
REMARK UNBOUND:                -0.694
REMARK SMILES CCCCCCCCCCCC(=O)[O-]
REMARK SMILES IDX 7 1 8 2 9 3 10 4 11 5 12 6 13 7 14 8 6 9 5 10 4 11 3 12 2 13
REMARK SMILES IDX 1 14
REMARK H PARENT
REMARK Flexibility Score: inf
ROOT
ATOM      1  C   UNL     1     -55.226 122.199 -12.125  1.00  0.00     0.000 C 
ENDROOT
BRANCH   1   2
ATOM      2  C   UNL     1     -53.799 122.780 -12.117  1.00  0.00     0.000 C 
BRANCH   2   3
ATOM      3  C   UNL     1     -52.717 121.689 -12.112  1.00  0.00     0.000 C 
BRANCH   3   4
ATOM      4  C   UNL     1     -51.297 122.266 -11.978  1.00  0.00     0.006 C 
BRANCH   4   5
ATOM      5  C   UNL     1     -50.684 121.983 -10.600  1.00  0.00     0.053 C 
BRANCH   5   6
ATOM      6  C   UNL     1     -49.440 122.784 -10.367  1.00  0.00     0.041 C 
ATOM      7  O   UNL     1     -48.916 122.821  -9.223  1.00  0.00    -0.550 OA
ATOM      8  O   UNL     1     -48.875 123.512 -11.407  1.00  0.00    -0.550 OA
ENDBRANCH   5   6
ENDBRANCH   4   5
ENDBRANCH   3   4
ENDBRANCH   2   3
ENDBRANCH   1   2
BRANCH   1   9
ATOM      9  C   UNL     1     -55.240 120.663 -12.071  1.00  0.00     0.000 C 
BRANCH   9  10
ATOM     10  C   UNL     1     -55.648 120.126 -10.688  1.00  0.00    -0.000 C 
BRANCH  10  11
ATOM     11  C   UNL     1     -56.550 121.103  -9.918  1.00  0.00    -0.000 C 
BRANCH  11  12
ATOM     12  C   UNL     1     -55.879 121.657  -8.649  1.00  0.00    -0.000 C 
BRANCH  12  13
ATOM     13  C   UNL     1     -54.364 121.394  -8.622  1.00  0.00    -0.003 C 
ATOM     14  C   UNL     1     -53.541 122.678  -8.713  1.00  0.00     0.004 C 
ENDBRANCH  12  13
ENDBRANCH  11  12
ENDBRANCH  10  11
ENDBRANCH   9  10
ENDBRANCH   1   9
TORSDOF 10
ENDMDL
MODEL 8
REMARK VINA RESULT:    -3.329      3.088      6.100
REMARK INTER + INTRA:          -5.968
REMARK INTER:                  -4.798
REMARK INTRA:                  -1.170
REMARK UNBOUND:                -0.694
REMARK SMILES CCCCCCCCCCCC(=O)[O-]
REMARK SMILES IDX 7 1 8 2 9 3 10 4 11 5 12 6 13 7 14 8 6 9 5 10 4 11 3 12 2 13
REMARK SMILES IDX 1 14
REMARK H PARENT
REMARK Flexibility Score: inf
ROOT
ATOM      1  C   UNL     1     -53.339 119.779 -10.227  1.00  0.00     0.000 C 
ENDROOT
BRANCH   1   2
ATOM      2  C   UNL     1     -52.880 120.746  -9.119  1.00  0.00     0.000 C 
BRANCH   2   3
ATOM      3  C   UNL     1     -52.600 122.161  -9.649  1.00  0.00     0.000 C 
BRANCH   3   4
ATOM      4  C   UNL     1     -51.117 122.553  -9.533  1.00  0.00     0.006 C 
BRANCH   4   5
ATOM      5  C   UNL     1     -50.412 122.562 -10.896  1.00  0.00     0.053 C 
BRANCH   5   6
ATOM      6  C   UNL     1     -49.389 121.473 -11.002  1.00  0.00     0.041 C 
ATOM      7  O   UNL     1     -48.876 121.193 -12.118  1.00  0.00    -0.550 OA
ATOM      8  O   UNL     1     -49.022 120.749  -9.875  1.00  0.00    -0.550 OA
ENDBRANCH   5   6
ENDBRANCH   4   5
ENDBRANCH   3   4
ENDBRANCH   2   3
ENDBRANCH   1   2
BRANCH   1   9
ATOM      9  C   UNL     1     -53.460 120.463 -11.597  1.00  0.00     0.000 C 
BRANCH   9  10
ATOM     10  C   UNL     1     -54.901 120.903 -11.912  1.00  0.00    -0.000 C 
BRANCH  10  11
ATOM     11  C   UNL     1     -55.926 119.783 -11.669  1.00  0.00    -0.000 C 
BRANCH  11  12
ATOM     12  C   UNL     1     -56.953 120.143 -10.581  1.00  0.00    -0.000 C 
BRANCH  12  13
ATOM     13  C   UNL     1     -56.705 121.533  -9.975  1.00  0.00    -0.003 C 
ATOM     14  C   UNL     1     -56.360 121.476  -8.488  1.00  0.00     0.004 C 
ENDBRANCH  12  13
ENDBRANCH  11  12
ENDBRANCH  10  11
ENDBRANCH   9  10
ENDBRANCH   1   9
TORSDOF 10
ENDMDL
MODEL 9
REMARK VINA RESULT:    -3.162      2.998      6.295
REMARK INTER + INTRA:          -5.704
REMARK INTER:                  -4.894
REMARK INTRA:                  -0.810
REMARK UNBOUND:                -0.694
REMARK SMILES CCCCCCCCCCCC(=O)[O-]
REMARK SMILES IDX 7 1 8 2 9 3 10 4 11 5 12 6 13 7 14 8 6 9 5 10 4 11 3 12 2 13
REMARK SMILES IDX 1 14
REMARK H PARENT
REMARK Flexibility Score: inf
ROOT
ATOM      1  C   UNL     1     -53.100 120.229 -10.029  1.00  0.00     0.000 C 
ENDROOT
BRANCH   1   2
ATOM      2  C   UNL     1     -51.959 121.252  -9.873  1.00  0.00     0.000 C 
BRANCH   2   3
ATOM      3  C   UNL     1     -51.316 121.629 -11.216  1.00  0.00     0.000 C 
BRANCH   3   4
ATOM      4  C   UNL     1     -49.788 121.443 -11.213  1.00  0.00     0.006 C 
BRANCH   4   5
ATOM      5  C   UNL     1     -49.146 121.953  -9.915  1.00  0.00     0.053 C 
BRANCH   5   6
ATOM      6  C   UNL     1     -49.042 123.447  -9.894  1.00  0.00     0.041 C 
ATOM      7  O   UNL     1     -48.887 124.086 -10.968  1.00  0.00    -0.550 OA
ATOM      8  O   UNL     1     -49.087 124.131  -8.686  1.00  0.00    -0.550 OA
ENDBRANCH   5   6
ENDBRANCH   4   5
ENDBRANCH   3   4
ENDBRANCH   2   3
ENDBRANCH   1   2
BRANCH   1   9
ATOM      9  C   UNL     1     -53.439 119.940 -11.500  1.00  0.00     0.000 C 
BRANCH   9  10
ATOM     10  C   UNL     1     -54.840 120.439 -11.892  1.00  0.00    -0.000 C 
BRANCH  10  11
ATOM     11  C   UNL     1     -55.959 119.514 -11.385  1.00  0.00    -0.000 C 
BRANCH  11  12
ATOM     12  C   UNL     1     -57.163 120.291 -10.824  1.00  0.00    -0.000 C 
BRANCH  12  13
ATOM     13  C   UNL     1     -56.748 121.592 -10.120  1.00  0.00    -0.003 C 
ATOM     14  C   UNL     1     -56.310 121.367  -8.673  1.00  0.00     0.004 C 
ENDBRANCH  12  13
ENDBRANCH  11  12
ENDBRANCH  10  11
ENDBRANCH   9  10
ENDBRANCH   1   9
TORSDOF 10
ENDMDL
