MODEL 1
REMARK VINA RESULT:    -6.546      0.000      0.000
REMARK INTER + INTRA:          -8.143
REMARK INTER:                  -7.886
REMARK INTRA:                  -0.258
REMARK UNBOUND:                -0.258
REMARK SMILES O=c1c(O)c(-c2ccc(O)c(O)c2)oc2cc(O)cc(O)c12
REMARK SMILES IDX 5 1 3 2 2 3 1 4 22 5 20 6 19 7 17 8 16 9 15 10 14 11 6 12
REMARK SMILES IDX 7 13 8 14 9 15 13 16 11 17 10 18 12 20 4 22 21 24 18 26
REMARK H PARENT 10 19 12 21 4 23 21 25 18 27
REMARK Flexibility Score: inf
ROOT
ATOM      1  C   UNL     1      12.599 -23.927  22.202  1.00  0.00     0.180 A 
ATOM      2  C   UNL     1      11.219 -24.114  22.010  1.00  0.00     0.208 A 
ATOM      3  C   UNL     1      10.352 -23.956  23.102  1.00  0.00     0.238 A 
ATOM      4  O   UNL     1       9.123 -24.178  22.934  1.00  0.00    -0.285 OA
ATOM      5  C   UNL     1      10.871 -23.598  24.368  1.00  0.00     0.111 A 
ATOM      6  C   UNL     1      10.080 -23.372  25.535  1.00  0.00     0.134 A 
ATOM      7  C   UNL     1      10.711 -23.150  26.765  1.00  0.00     0.093 A 
ATOM      8  C   UNL     1      12.100 -23.080  26.860  1.00  0.00     0.123 A 
ATOM      9  C   UNL     1      12.881 -23.240  25.715  1.00  0.00     0.094 A 
ATOM     10  C   UNL     1      12.283 -23.499  24.480  1.00  0.00     0.146 A 
ATOM     11  O   UNL     1      13.062 -23.655  23.417  1.00  0.00    -0.452 OA
ENDROOT
BRANCH   1  12
ATOM     12  C   UNL     1      13.574 -24.051  21.095  1.00  0.00     0.025 A 
ATOM     13  C   UNL     1      14.187 -22.919  20.530  1.00  0.00     0.016 A 
ATOM     14  C   UNL     1      15.123 -23.062  19.502  1.00  0.00     0.051 A 
ATOM     15  C   UNL     1      15.469 -24.337  19.032  1.00  0.00     0.157 A 
ATOM     16  C   UNL     1      13.939 -25.327  20.634  1.00  0.00     0.062 A 
ATOM     17  C   UNL     1      14.874 -25.474  19.604  1.00  0.00     0.158 A 
BRANCH  15  18
ATOM     18  O   UNL     1      16.400 -24.476  18.005  1.00  0.00    -0.504 OA
ATOM     19  H   UNL     1      17.361 -24.738  18.192  1.00  0.00     0.293 HD
ENDBRANCH  15  18
BRANCH  17  20
ATOM     20  O   UNL     1      15.201 -26.756  19.164  1.00  0.00    -0.504 OA
ATOM     21  H   UNL     1      14.526 -27.357  18.706  1.00  0.00     0.293 HD
ENDBRANCH  17  20
ENDBRANCH   1  12
BRANCH   2  22
ATOM     22  O   UNL     1      10.729 -24.490  20.755  1.00  0.00    -0.502 OA
ATOM     23  H   UNL     1       9.752 -24.401  20.504  1.00  0.00     0.293 HD
ENDBRANCH   2  22
BRANCH   6  24
ATOM     24  O   UNL     1       8.682 -23.328  25.533  1.00  0.00    -0.507 OA
ATOM     25  H   UNL     1       8.116 -23.075  24.738  1.00  0.00     0.293 HD
ENDBRANCH   6  24
BRANCH   8  26
ATOM     26  O   UNL     1      12.694 -22.842  28.098  1.00  0.00    -0.508 OA
ATOM     27  H   UNL     1      12.847 -23.589  28.764  1.00  0.00     0.293 HD
ENDBRANCH   8  26
TORSDOF 6
ENDMDL
MODEL 2
REMARK VINA RESULT:    -5.723      1.342      2.984
REMARK INTER + INTRA:          -7.152
REMARK INTER:                  -6.902
REMARK INTRA:                  -0.250
REMARK UNBOUND:                -0.258
REMARK SMILES O=c1c(O)c(-c2ccc(O)c(O)c2)oc2cc(O)cc(O)c12
REMARK SMILES IDX 5 1 3 2 2 3 1 4 22 5 20 6 19 7 17 8 16 9 15 10 14 11 6 12
REMARK SMILES IDX 7 13 8 14 9 15 13 16 11 17 10 18 12 20 4 22 21 24 18 26
REMARK H PARENT 10 19 12 21 4 23 21 25 18 27
REMARK Flexibility Score: inf
ROOT
ATOM      1  C   UNL     1      13.163 -23.907  21.907  1.00  0.00     0.180 A 
ATOM      2  C   UNL     1      13.622 -23.481  23.165  1.00  0.00     0.208 A 
ATOM      3  C   UNL     1      12.701 -23.344  24.215  1.00  0.00     0.238 A 
ATOM      4  O   UNL     1      13.110 -22.910  25.325  1.00  0.00    -0.285 OA
ATOM      5  C   UNL     1      11.336 -23.649  24.000  1.00  0.00     0.111 A 
ATOM      6  C   UNL     1      10.323 -23.585  25.003  1.00  0.00     0.134 A 
ATOM      7  C   UNL     1       8.984 -23.783  24.646  1.00  0.00     0.093 A 
ATOM      8  C   UNL     1       8.628 -24.108  23.337  1.00  0.00     0.123 A 
ATOM      9  C   UNL     1       9.617 -24.232  22.361  1.00  0.00     0.094 A 
ATOM     10  C   UNL     1      10.958 -24.004  22.679  1.00  0.00     0.146 A 
ATOM     11  O   UNL     1      11.867 -24.123  21.719  1.00  0.00    -0.452 OA
ENDROOT
BRANCH   1  12
ATOM     12  C   UNL     1      14.077 -24.099  20.757  1.00  0.00     0.025 A 
ATOM     13  C   UNL     1      14.625 -23.003  20.069  1.00  0.00     0.016 A 
ATOM     14  C   UNL     1      15.504 -23.207  19.002  1.00  0.00     0.051 A 
ATOM     15  C   UNL     1      15.859 -24.507  18.616  1.00  0.00     0.157 A 
ATOM     16  C   UNL     1      14.451 -25.399  20.380  1.00  0.00     0.062 A 
ATOM     17  C   UNL     1      15.330 -25.608  19.312  1.00  0.00     0.158 A 
BRANCH  15  18
ATOM     18  O   UNL     1      16.734 -24.708  17.550  1.00  0.00    -0.504 OA
ATOM     19  H   UNL     1      17.227 -25.584  17.427  1.00  0.00     0.293 HD
ENDBRANCH  15  18
BRANCH  17  20
ATOM     20  O   UNL     1      15.668 -26.913  18.958  1.00  0.00    -0.504 OA
ATOM     21  H   UNL     1      16.479 -27.124  18.389  1.00  0.00     0.293 HD
ENDBRANCH  17  20
ENDBRANCH   1  12
BRANCH   2  22
ATOM     22  O   UNL     1      14.971 -23.163  23.350  1.00  0.00    -0.502 OA
ATOM     23  H   UNL     1      15.330 -22.223  23.230  1.00  0.00     0.293 HD
ENDBRANCH   2  22
BRANCH   6  24
ATOM     24  O   UNL     1      10.580 -23.359  26.359  1.00  0.00    -0.507 OA
ATOM     25  H   UNL     1       9.906 -23.480  27.099  1.00  0.00     0.293 HD
ENDBRANCH   6  24
BRANCH   8  26
ATOM     26  O   UNL     1       7.286 -24.314  23.020  1.00  0.00    -0.508 OA
ATOM     27  H   UNL     1       6.557 -23.713  23.387  1.00  0.00     0.293 HD
ENDBRANCH   8  26
TORSDOF 6
ENDMDL
MODEL 3
REMARK VINA RESULT:    -5.699      5.346      7.527
REMARK INTER + INTRA:          -7.122
REMARK INTER:                  -7.005
REMARK INTRA:                  -0.117
REMARK UNBOUND:                -0.258
REMARK SMILES O=c1c(O)c(-c2ccc(O)c(O)c2)oc2cc(O)cc(O)c12
REMARK SMILES IDX 5 1 3 2 2 3 1 4 22 5 20 6 19 7 17 8 16 9 15 10 14 11 6 12
REMARK SMILES IDX 7 13 8 14 9 15 13 16 11 17 10 18 12 20 4 22 21 24 18 26
REMARK H PARENT 10 19 12 21 4 23 21 25 18 27
REMARK Flexibility Score: inf
ROOT
ATOM      1  C   UNL     1      16.730 -26.662  22.743  1.00  0.00     0.180 A 
ATOM      2  C   UNL     1      18.044 -26.403  23.170  1.00  0.00     0.208 A 
ATOM      3  C   UNL     1      18.732 -27.391  23.892  1.00  0.00     0.238 A 
ATOM      4  O   UNL     1      19.889 -27.133  24.317  1.00  0.00    -0.285 OA
ATOM      5  C   UNL     1      18.105 -28.630  24.164  1.00  0.00     0.111 A 
ATOM      6  C   UNL     1      18.724 -29.718  24.851  1.00  0.00     0.134 A 
ATOM      7  C   UNL     1      17.964 -30.848  25.179  1.00  0.00     0.093 A 
ATOM      8  C   UNL     1      16.631 -30.959  24.788  1.00  0.00     0.123 A 
ATOM      9  C   UNL     1      16.034 -29.927  24.063  1.00  0.00     0.094 A 
ATOM     10  C   UNL     1      16.754 -28.771  23.752  1.00  0.00     0.146 A 
ATOM     11  O   UNL     1      16.146 -27.808  23.070  1.00  0.00    -0.452 OA
ENDROOT
BRANCH   1  12
ATOM     12  C   UNL     1      15.949 -25.680  21.957  1.00  0.00     0.025 A 
ATOM     13  C   UNL     1      15.470 -25.988  20.671  1.00  0.00     0.016 A 
ATOM     14  C   UNL     1      14.714 -25.055  19.957  1.00  0.00     0.051 A 
ATOM     15  C   UNL     1      14.414 -23.807  20.520  1.00  0.00     0.157 A 
ATOM     16  C   UNL     1      15.628 -24.436  22.525  1.00  0.00     0.062 A 
ATOM     17  C   UNL     1      14.872 -23.499  21.812  1.00  0.00     0.158 A 
BRANCH  15  18
ATOM     18  O   UNL     1      13.662 -22.877  19.805  1.00  0.00    -0.504 OA
ATOM     19  H   UNL     1      13.139 -22.146  20.271  1.00  0.00     0.293 HD
ENDBRANCH  15  18
BRANCH  17  20
ATOM     20  O   UNL     1      14.586 -22.269  22.404  1.00  0.00    -0.504 OA
ATOM     21  H   UNL     1      14.776 -21.390  21.938  1.00  0.00     0.293 HD
ENDBRANCH  17  20
ENDBRANCH   1  12
BRANCH   2  22
ATOM     22  O   UNL     1      18.636 -25.164  22.910  1.00  0.00    -0.502 OA
ATOM     23  H   UNL     1      18.543 -24.374  23.537  1.00  0.00     0.293 HD
ENDBRANCH   2  22
BRANCH   6  24
ATOM     24  O   UNL     1      20.075 -29.749  25.208  1.00  0.00    -0.507 OA
ATOM     25  H   UNL     1      20.486 -30.415  25.844  1.00  0.00     0.293 HD
ENDBRANCH   6  24
BRANCH   8  26
ATOM     26  O   UNL     1      15.910 -32.106  25.117  1.00  0.00    -0.508 OA
ATOM     27  H   UNL     1      14.898 -32.105  25.147  1.00  0.00     0.293 HD
ENDBRANCH   8  26
TORSDOF 6
ENDMDL
MODEL 4
REMARK VINA RESULT:    -5.454     10.604     12.652
REMARK INTER + INTRA:          -6.828
REMARK INTER:                  -6.638
REMARK INTRA:                  -0.190
REMARK UNBOUND:                -0.258
REMARK SMILES O=c1c(O)c(-c2ccc(O)c(O)c2)oc2cc(O)cc(O)c12
REMARK SMILES IDX 5 1 3 2 2 3 1 4 22 5 20 6 19 7 17 8 16 9 15 10 14 11 6 12
REMARK SMILES IDX 7 13 8 14 9 15 13 16 11 17 10 18 12 20 4 22 21 24 18 26
REMARK H PARENT 10 19 12 21 4 23 21 25 18 27
REMARK Flexibility Score: inf
ROOT
ATOM      1  C   UNL     1      20.364 -29.264  28.499  1.00  0.00     0.180 A 
ATOM      2  C   UNL     1      19.794 -29.281  27.214  1.00  0.00     0.208 A 
ATOM      3  C   UNL     1      20.262 -28.377  26.249  1.00  0.00     0.238 A 
ATOM      4  O   UNL     1      19.711 -28.362  25.117  1.00  0.00    -0.285 OA
ATOM      5  C   UNL     1      21.305 -27.477  26.574  1.00  0.00     0.111 A 
ATOM      6  C   UNL     1      21.885 -26.545  25.661  1.00  0.00     0.134 A 
ATOM      7  C   UNL     1      22.821 -25.613  26.127  1.00  0.00     0.093 A 
ATOM      8  C   UNL     1      23.247 -25.623  27.455  1.00  0.00     0.123 A 
ATOM      9  C   UNL     1      22.731 -26.569  28.341  1.00  0.00     0.094 A 
ATOM     10  C   UNL     1      21.768 -27.487  27.915  1.00  0.00     0.146 A 
ATOM     11  O   UNL     1      21.295 -28.364  28.792  1.00  0.00    -0.452 OA
ENDROOT
BRANCH   1  12
ATOM     12  C   UNL     1      19.941 -30.203  29.563  1.00  0.00     0.025 A 
ATOM     13  C   UNL     1      18.657 -30.132  30.131  1.00  0.00     0.016 A 
ATOM     14  C   UNL     1      18.270 -31.044  31.117  1.00  0.00     0.051 A 
ATOM     15  C   UNL     1      19.155 -32.046  31.540  1.00  0.00     0.157 A 
ATOM     16  C   UNL     1      20.816 -31.222  29.975  1.00  0.00     0.062 A 
ATOM     17  C   UNL     1      20.433 -32.135  30.963  1.00  0.00     0.158 A 
BRANCH  15  18
ATOM     18  O   UNL     1      18.767 -32.953  32.525  1.00  0.00    -0.504 OA
ATOM     19  H   UNL     1      19.446 -33.509  33.030  1.00  0.00     0.293 HD
ENDBRANCH  15  18
BRANCH  17  20
ATOM     20  O   UNL     1      21.333 -33.125  31.356  1.00  0.00    -0.504 OA
ATOM     21  H   UNL     1      21.049 -34.087  31.495  1.00  0.00     0.293 HD
ENDBRANCH  17  20
ENDBRANCH   1  12
BRANCH   2  22
ATOM     22  O   UNL     1      18.749 -30.163  26.921  1.00  0.00    -0.502 OA
ATOM     23  H   UNL     1      18.118 -30.514  27.631  1.00  0.00     0.293 HD
ENDBRANCH   2  22
BRANCH   6  24
ATOM     24  O   UNL     1      21.598 -26.510  24.293  1.00  0.00    -0.507 OA
ATOM     25  H   UNL     1      20.670 -26.534  23.900  1.00  0.00     0.293 HD
ENDBRANCH   6  24
BRANCH   8  26
ATOM     26  O   UNL     1      24.192 -24.691  27.881  1.00  0.00    -0.508 OA
ATOM     27  H   UNL     1      23.938 -23.915  28.480  1.00  0.00     0.293 HD
ENDBRANCH   8  26
TORSDOF 6
ENDMDL
MODEL 5
REMARK VINA RESULT:    -5.364      5.365      7.291
REMARK INTER + INTRA:          -6.719
REMARK INTER:                  -6.677
REMARK INTRA:                  -0.043
REMARK UNBOUND:                -0.258
REMARK SMILES O=c1c(O)c(-c2ccc(O)c(O)c2)oc2cc(O)cc(O)c12
REMARK SMILES IDX 5 1 3 2 2 3 1 4 22 5 20 6 19 7 17 8 16 9 15 10 14 11 6 12
REMARK SMILES IDX 7 13 8 14 9 15 13 16 11 17 10 18 12 20 4 22 21 24 18 26
REMARK H PARENT 10 19 12 21 4 23 21 25 18 27
REMARK Flexibility Score: inf
ROOT
ATOM      1  C   UNL     1      16.710 -26.554  22.615  1.00  0.00     0.180 A 
ATOM      2  C   UNL     1      16.275 -27.868  22.862  1.00  0.00     0.208 A 
ATOM      3  C   UNL     1      17.087 -28.722  23.624  1.00  0.00     0.238 A 
ATOM      4  O   UNL     1      16.716 -29.914  23.797  1.00  0.00    -0.285 OA
ATOM      5  C   UNL     1      18.315 -28.249  24.144  1.00  0.00     0.111 A 
ATOM      6  C   UNL     1      19.197 -29.016  24.964  1.00  0.00     0.134 A 
ATOM      7  C   UNL     1      20.447 -28.489  25.313  1.00  0.00     0.093 A 
ATOM      8  C   UNL     1      20.819 -27.201  24.929  1.00  0.00     0.123 A 
ATOM      9  C   UNL     1      19.939 -26.421  24.179  1.00  0.00     0.094 A 
ATOM     10  C   UNL     1      18.701 -26.932  23.784  1.00  0.00     0.146 A 
ATOM     11  O   UNL     1      17.897 -26.161  23.061  1.00  0.00    -0.452 OA
ENDROOT
BRANCH   1  12
ATOM     12  C   UNL     1      15.899 -25.587  21.841  1.00  0.00     0.025 A 
ATOM     13  C   UNL     1      15.442 -25.888  20.546  1.00  0.00     0.016 A 
ATOM     14  C   UNL     1      14.657 -24.970  19.843  1.00  0.00     0.051 A 
ATOM     15  C   UNL     1      14.308 -23.745  20.427  1.00  0.00     0.157 A 
ATOM     16  C   UNL     1      15.529 -24.367  22.430  1.00  0.00     0.062 A 
ATOM     17  C   UNL     1      14.745 -23.445  21.729  1.00  0.00     0.158 A 
BRANCH  15  18
ATOM     18  O   UNL     1      13.527 -22.830  19.723  1.00  0.00    -0.504 OA
ATOM     19  H   UNL     1      12.516 -22.891  19.715  1.00  0.00     0.293 HD
ENDBRANCH  15  18
BRANCH  17  20
ATOM     20  O   UNL     1      14.408 -22.238  22.341  1.00  0.00    -0.504 OA
ATOM     21  H   UNL     1      14.301 -21.379  21.814  1.00  0.00     0.293 HD
ENDBRANCH  17  20
ENDBRANCH   1  12
BRANCH   2  22
ATOM     22  O   UNL     1      15.069 -28.322  22.320  1.00  0.00    -0.502 OA
ATOM     23  H   UNL     1      14.883 -29.304  22.153  1.00  0.00     0.293 HD
ENDBRANCH   2  22
BRANCH   6  24
ATOM     24  O   UNL     1      18.886 -30.277  25.479  1.00  0.00    -0.507 OA
ATOM     25  H   UNL     1      17.952 -30.603  25.674  1.00  0.00     0.293 HD
ENDBRANCH   6  24
BRANCH   8  26
ATOM     26  O   UNL     1      22.064 -26.703  25.309  1.00  0.00    -0.508 OA
ATOM     27  H   UNL     1      22.891 -26.857  24.743  1.00  0.00     0.293 HD
ENDBRANCH   8  26
TORSDOF 6
ENDMDL
MODEL 6
REMARK VINA RESULT:    -5.294     10.546     12.698
REMARK INTER + INTRA:          -6.634
REMARK INTER:                  -6.355
REMARK INTRA:                  -0.280
REMARK UNBOUND:                -0.258
REMARK SMILES O=c1c(O)c(-c2ccc(O)c(O)c2)oc2cc(O)cc(O)c12
REMARK SMILES IDX 5 1 3 2 2 3 1 4 22 5 20 6 19 7 17 8 16 9 15 10 14 11 6 12
REMARK SMILES IDX 7 13 8 14 9 15 13 16 11 17 10 18 12 20 4 22 21 24 18 26
REMARK H PARENT 10 19 12 21 4 23 21 25 18 27
REMARK Flexibility Score: inf
ROOT
ATOM      1  C   UNL     1      22.067 -27.989  27.987  1.00  0.00     0.180 A 
ATOM      2  C   UNL     1      22.653 -27.007  27.169  1.00  0.00     0.208 A 
ATOM      3  C   UNL     1      21.970 -26.583  26.019  1.00  0.00     0.238 A 
ATOM      4  O   UNL     1      22.525 -25.742  25.262  1.00  0.00    -0.285 OA
ATOM      5  C   UNL     1      20.703 -27.133  25.708  1.00  0.00     0.111 A 
ATOM      6  C   UNL     1      19.905 -26.747  24.589  1.00  0.00     0.134 A 
ATOM      7  C   UNL     1      18.728 -27.451  24.306  1.00  0.00     0.093 A 
ATOM      8  C   UNL     1      18.287 -28.481  25.136  1.00  0.00     0.123 A 
ATOM      9  C   UNL     1      19.029 -28.826  26.265  1.00  0.00     0.094 A 
ATOM     10  C   UNL     1      20.227 -28.167  26.554  1.00  0.00     0.146 A 
ATOM     11  O   UNL     1      20.908 -28.533  27.633  1.00  0.00    -0.452 OA
ENDROOT
BRANCH   1  12
ATOM     12  C   UNL     1      22.713 -28.470  29.229  1.00  0.00     0.025 A 
ATOM     13  C   UNL     1      23.783 -29.382  29.190  1.00  0.00     0.016 A 
ATOM     14  C   UNL     1      24.394 -29.804  30.374  1.00  0.00     0.051 A 
ATOM     15  C   UNL     1      23.956 -29.312  31.611  1.00  0.00     0.157 A 
ATOM     16  C   UNL     1      22.291 -27.965  30.470  1.00  0.00     0.062 A 
ATOM     17  C   UNL     1      22.900 -28.386  31.657  1.00  0.00     0.158 A 
BRANCH  15  18
ATOM     18  O   UNL     1      24.566 -29.736  32.790  1.00  0.00    -0.504 OA
ATOM     19  H   UNL     1      24.974 -30.659  32.873  1.00  0.00     0.293 HD
ENDBRANCH  15  18
BRANCH  17  20
ATOM     20  O   UNL     1      22.445 -27.872  32.870  1.00  0.00    -0.504 OA
ATOM     21  H   UNL     1      21.736 -28.341  33.422  1.00  0.00     0.293 HD
ENDBRANCH  17  20
ENDBRANCH   1  12
BRANCH   2  22
ATOM     22  O   UNL     1      23.915 -26.493  27.483  1.00  0.00    -0.502 OA
ATOM     23  H   UNL     1      24.238 -25.598  27.138  1.00  0.00     0.293 HD
ENDBRANCH   2  22
BRANCH   6  24
ATOM     24  O   UNL     1      20.206 -25.672  23.749  1.00  0.00    -0.507 OA
ATOM     25  H   UNL     1      21.111 -25.500  23.338  1.00  0.00     0.293 HD
ENDBRANCH   6  24
BRANCH   8  26
ATOM     26  O   UNL     1      17.102 -29.149  24.832  1.00  0.00    -0.508 OA
ATOM     27  H   UNL     1      17.094 -30.136  24.604  1.00  0.00     0.293 HD
ENDBRANCH   8  26
TORSDOF 6
ENDMDL
MODEL 7
REMARK VINA RESULT:    -5.256     11.330     12.865
REMARK INTER + INTRA:          -6.589
REMARK INTER:                  -6.598
REMARK INTRA:                   0.009
REMARK UNBOUND:                -0.258
REMARK SMILES O=c1c(O)c(-c2ccc(O)c(O)c2)oc2cc(O)cc(O)c12
REMARK SMILES IDX 5 1 3 2 2 3 1 4 22 5 20 6 19 7 17 8 16 9 15 10 14 11 6 12
REMARK SMILES IDX 7 13 8 14 9 15 13 16 11 17 10 18 12 20 4 22 21 24 18 26
REMARK H PARENT 10 19 12 21 4 23 21 25 18 27
REMARK Flexibility Score: inf
ROOT
ATOM      1  C   UNL     1      21.345 -29.053  29.607  1.00  0.00     0.180 A 
ATOM      2  C   UNL     1      22.177 -29.666  30.560  1.00  0.00     0.208 A 
ATOM      3  C   UNL     1      21.666 -30.723  31.329  1.00  0.00     0.238 A 
ATOM      4  O   UNL     1      22.399 -31.233  32.218  1.00  0.00    -0.285 OA
ATOM      5  C   UNL     1      20.337 -31.165  31.126  1.00  0.00     0.111 A 
ATOM      6  C   UNL     1      19.730 -32.254  31.821  1.00  0.00     0.134 A 
ATOM      7  C   UNL     1      18.367 -32.519  31.632  1.00  0.00     0.093 A 
ATOM      8  C   UNL     1      17.608 -31.779  30.727  1.00  0.00     0.123 A 
ATOM      9  C   UNL     1      18.206 -30.751  29.998  1.00  0.00     0.094 A 
ATOM     10  C   UNL     1      19.554 -30.438  30.191  1.00  0.00     0.146 A 
ATOM     11  O   UNL     1      20.083 -29.447  29.485  1.00  0.00    -0.452 OA
ENDROOT
BRANCH   1  12
ATOM     12  C   UNL     1      21.819 -27.949  28.741  1.00  0.00     0.025 A 
ATOM     13  C   UNL     1      22.461 -26.821  29.280  1.00  0.00     0.016 A 
ATOM     14  C   UNL     1      22.922 -25.803  28.441  1.00  0.00     0.051 A 
ATOM     15  C   UNL     1      22.759 -25.902  27.053  1.00  0.00     0.157 A 
ATOM     16  C   UNL     1      21.677 -28.053  27.347  1.00  0.00     0.062 A 
ATOM     17  C   UNL     1      22.135 -27.035  26.504  1.00  0.00     0.158 A 
BRANCH  15  18
ATOM     18  O   UNL     1      23.217 -24.883  26.219  1.00  0.00    -0.504 OA
ATOM     19  H   UNL     1      22.991 -24.864  25.232  1.00  0.00     0.293 HD
ENDBRANCH  15  18
BRANCH  17  20
ATOM     20  O   UNL     1      21.964 -27.167  25.127  1.00  0.00    -0.504 OA
ATOM     21  H   UNL     1      21.240 -27.752  24.728  1.00  0.00     0.293 HD
ENDBRANCH  17  20
ENDBRANCH   1  12
BRANCH   2  22
ATOM     22  O   UNL     1      23.479 -29.200  30.760  1.00  0.00    -0.502 OA
ATOM     23  H   UNL     1      24.170 -29.724  31.283  1.00  0.00     0.293 HD
ENDBRANCH   2  22
BRANCH   6  24
ATOM     24  O   UNL     1      20.420 -33.115  32.679  1.00  0.00    -0.507 OA
ATOM     25  H   UNL     1      20.444 -33.026  33.684  1.00  0.00     0.293 HD
ENDBRANCH   6  24
BRANCH   8  26
ATOM     26  O   UNL     1      16.258 -32.081  30.553  1.00  0.00    -0.508 OA
ATOM     27  H   UNL     1      15.942 -32.672  29.794  1.00  0.00     0.293 HD
ENDBRANCH   8  26
TORSDOF 6
ENDMDL
MODEL 8
REMARK VINA RESULT:    -5.228      8.035      9.766
REMARK INTER + INTRA:          -6.555
REMARK INTER:                  -6.428
REMARK INTRA:                  -0.127
REMARK UNBOUND:                -0.258
REMARK SMILES O=c1c(O)c(-c2ccc(O)c(O)c2)oc2cc(O)cc(O)c12
REMARK SMILES IDX 5 1 3 2 2 3 1 4 22 5 20 6 19 7 17 8 16 9 15 10 14 11 6 12
REMARK SMILES IDX 7 13 8 14 9 15 13 16 11 17 10 18 12 20 4 22 21 24 18 26
REMARK H PARENT 10 19 12 21 4 23 21 25 18 27
REMARK Flexibility Score: inf
ROOT
ATOM      1  C   UNL     1      19.772 -27.542  25.133  1.00  0.00     0.180 A 
ATOM      2  C   UNL     1      19.075 -26.817  24.150  1.00  0.00     0.208 A 
ATOM      3  C   UNL     1      17.953 -27.400  23.542  1.00  0.00     0.238 A 
ATOM      4  O   UNL     1      17.365 -26.767  22.625  1.00  0.00    -0.285 OA
ATOM      5  C   UNL     1      17.532 -28.693  23.933  1.00  0.00     0.111 A 
ATOM      6  C   UNL     1      16.384 -29.364  23.411  1.00  0.00     0.134 A 
ATOM      7  C   UNL     1      16.137 -30.694  23.776  1.00  0.00     0.093 A 
ATOM      8  C   UNL     1      16.956 -31.354  24.691  1.00  0.00     0.123 A 
ATOM      9  C   UNL     1      18.045 -30.687  25.253  1.00  0.00     0.094 A 
ATOM     10  C   UNL     1      18.339 -29.373  24.881  1.00  0.00     0.146 A 
ATOM     11  O   UNL     1      19.391 -28.778  25.431  1.00  0.00    -0.452 OA
ENDROOT
BRANCH   1  12
ATOM     12  C   UNL     1      20.949 -26.985  25.837  1.00  0.00     0.025 A 
ATOM     13  C   UNL     1      22.117 -26.628  25.141  1.00  0.00     0.016 A 
ATOM     14  C   UNL     1      23.207 -26.081  25.822  1.00  0.00     0.051 A 
ATOM     15  C   UNL     1      23.143 -25.871  27.207  1.00  0.00     0.157 A 
ATOM     16  C   UNL     1      20.882 -26.753  27.222  1.00  0.00     0.062 A 
ATOM     17  C   UNL     1      21.972 -26.208  27.908  1.00  0.00     0.158 A 
BRANCH  15  18
ATOM     18  O   UNL     1      24.233 -25.328  27.885  1.00  0.00    -0.504 OA
ATOM     19  H   UNL     1      24.227 -25.212  28.891  1.00  0.00     0.293 HD
ENDBRANCH  15  18
BRANCH  17  20
ATOM     20  O   UNL     1      21.873 -26.005  29.284  1.00  0.00    -0.504 OA
ATOM     21  H   UNL     1      21.014 -26.173  29.792  1.00  0.00     0.293 HD
ENDBRANCH  17  20
ENDBRANCH   1  12
BRANCH   2  22
ATOM     22  O   UNL     1      19.521 -25.550  23.763  1.00  0.00    -0.502 OA
ATOM     23  H   UNL     1      20.459 -25.386  23.418  1.00  0.00     0.293 HD
ENDBRANCH   2  22
BRANCH   6  24
ATOM     24  O   UNL     1      15.450 -28.766  22.561  1.00  0.00    -0.507 OA
ATOM     25  H   UNL     1      14.538 -28.443  22.846  1.00  0.00     0.293 HD
ENDBRANCH   6  24
BRANCH   8  26
ATOM     26  O   UNL     1      16.671 -32.672  25.043  1.00  0.00    -0.508 OA
ATOM     27  H   UNL     1      15.947 -33.201  24.572  1.00  0.00     0.293 HD
ENDBRANCH   8  26
TORSDOF 6
ENDMDL
MODEL 9
REMARK VINA RESULT:    -5.191      8.857     10.441
REMARK INTER + INTRA:          -6.511
REMARK INTER:                  -6.181
REMARK INTRA:                  -0.330
REMARK UNBOUND:                -0.258
REMARK SMILES O=c1c(O)c(-c2ccc(O)c(O)c2)oc2cc(O)cc(O)c12
REMARK SMILES IDX 5 1 3 2 2 3 1 4 22 5 20 6 19 7 17 8 16 9 15 10 14 11 6 12
REMARK SMILES IDX 7 13 8 14 9 15 13 16 11 17 10 18 12 20 4 22 21 24 18 26
REMARK H PARENT 10 19 12 21 4 23 21 25 18 27
REMARK Flexibility Score: inf
ROOT
ATOM      1  C   UNL     1      20.020 -28.111  25.705  1.00  0.00     0.180 A 
ATOM      2  C   UNL     1      20.708 -27.087  25.032  1.00  0.00     0.208 A 
ATOM      3  C   UNL     1      21.660 -26.330  25.734  1.00  0.00     0.238 A 
ATOM      4  O   UNL     1      22.234 -25.380  25.139  1.00  0.00    -0.285 OA
ATOM      5  C   UNL     1      21.922 -26.616  27.095  1.00  0.00     0.111 A 
ATOM      6  C   UNL     1      22.895 -25.939  27.892  1.00  0.00     0.134 A 
ATOM      7  C   UNL     1      22.978 -26.217  29.262  1.00  0.00     0.093 A 
ATOM      8  C   UNL     1      22.172 -27.191  29.850  1.00  0.00     0.123 A 
ATOM      9  C   UNL     1      21.261 -27.900  29.068  1.00  0.00     0.094 A 
ATOM     10  C   UNL     1      21.128 -27.621  27.706  1.00  0.00     0.146 A 
ATOM     11  O   UNL     1      20.242 -28.311  26.999  1.00  0.00    -0.452 OA
ENDROOT
BRANCH   1  12
ATOM     12  C   UNL     1      19.021 -28.968  25.027  1.00  0.00     0.025 A 
ATOM     13  C   UNL     1      19.407 -30.117  24.316  1.00  0.00     0.016 A 
ATOM     14  C   UNL     1      18.445 -30.925  23.705  1.00  0.00     0.051 A 
ATOM     15  C   UNL     1      17.084 -30.604  23.804  1.00  0.00     0.157 A 
ATOM     16  C   UNL     1      17.655 -28.662  25.142  1.00  0.00     0.062 A 
ATOM     17  C   UNL     1      16.689 -29.467  24.529  1.00  0.00     0.158 A 
BRANCH  15  18
ATOM     18  O   UNL     1      16.127 -31.410  23.191  1.00  0.00    -0.504 OA
ATOM     19  H   UNL     1      16.049 -32.398  23.405  1.00  0.00     0.293 HD
ENDBRANCH  15  18
BRANCH  17  20
ATOM     20  O   UNL     1      15.343 -29.124  24.654  1.00  0.00    -0.504 OA
ATOM     21  H   UNL     1      15.031 -28.160  24.652  1.00  0.00     0.293 HD
ENDBRANCH  17  20
ENDBRANCH   1  12
BRANCH   2  22
ATOM     22  O   UNL     1      20.418 -26.807  23.694  1.00  0.00    -0.502 OA
ATOM     23  H   UNL     1      20.805 -27.345  22.929  1.00  0.00     0.293 HD
ENDBRANCH   2  22
BRANCH   6  24
ATOM     24  O   UNL     1      23.812 -25.014  27.386  1.00  0.00    -0.507 OA
ATOM     25  H   UNL     1      24.499 -25.216  26.676  1.00  0.00     0.293 HD
ENDBRANCH   6  24
BRANCH   8  26
ATOM     26  O   UNL     1      22.293 -27.452  31.214  1.00  0.00    -0.508 OA
ATOM     27  H   UNL     1      21.487 -27.454  31.826  1.00  0.00     0.293 HD
ENDBRANCH   8  26
TORSDOF 6
ENDMDL
