MODEL 1
REMARK VINA RESULT:    -4.286      0.000      0.000
REMARK INTER + INTRA:         -10.286
REMARK INTER:                  -8.294
REMARK INTRA:                  -1.991
REMARK UNBOUND:                -1.991
REMARK SMILES CCCCCCCCCCCCCCCCCC(=O)[O-]
REMARK SMILES IDX 10 1 11 2 12 3 13 4 14 5 15 6 16 7 17 8 18 9 19 10 20 11
REMARK SMILES IDX 9 12 8 13 7 14 6 15 5 16 4 17 3 18 2 19 1 20
REMARK H PARENT
REMARK Flexibility Score: inf
ROOT
ATOM      1  C   UNL     1      33.069  -9.994  17.969  1.00  0.00     0.000 C 
ENDROOT
BRANCH   1   2
ATOM      2  C   UNL     1      32.184 -10.621  19.057  1.00  0.00     0.000 C 
BRANCH   2   3
ATOM      3  C   UNL     1      32.939 -10.846  20.381  1.00  0.00     0.000 C 
BRANCH   3   4
ATOM      4  C   UNL     1      31.994 -11.037  21.577  1.00  0.00     0.000 C 
BRANCH   4   5
ATOM      5  C   UNL     1      30.560 -11.392  21.145  1.00  0.00     0.000 C 
BRANCH   5   6
ATOM      6  C   UNL     1      30.094 -12.749  21.700  1.00  0.00     0.000 C 
BRANCH   6   7
ATOM      7  C   UNL     1      29.201 -13.518  20.712  1.00  0.00     0.006 C 
BRANCH   7   8
ATOM      8  C   UNL     1      28.025 -14.212  21.414  1.00  0.00     0.053 C 
BRANCH   8   9
ATOM      9  C   UNL     1      28.221 -15.695  21.499  1.00  0.00     0.041 C 
ATOM     10  O   UNL     1      28.804 -16.200  22.494  1.00  0.00    -0.550 OA
ATOM     11  O   UNL     1      27.732 -16.521  20.495  1.00  0.00    -0.550 OA
ENDBRANCH   8   9
ENDBRANCH   7   8
ENDBRANCH   6   7
ENDBRANCH   5   6
ENDBRANCH   4   5
ENDBRANCH   3   4
ENDBRANCH   2   3
ENDBRANCH   1   2
BRANCH   1  12
ATOM     12  C   UNL     1      32.263  -9.554  16.734  1.00  0.00     0.000 C 
BRANCH  12  13
ATOM     13  C   UNL     1      32.238  -8.027  16.559  1.00  0.00    -0.000 C 
BRANCH  13  14
ATOM     14  C   UNL     1      31.435  -7.317  17.664  1.00  0.00    -0.000 C 
BRANCH  14  15
ATOM     15  C   UNL     1      32.261  -6.255  18.406  1.00  0.00    -0.000 C 
BRANCH  15  16
ATOM     16  C   UNL     1      32.410  -6.561  19.903  1.00  0.00    -0.000 C 
BRANCH  16  17
ATOM     17  C   UNL     1      31.188  -7.326  20.431  1.00  0.00    -0.000 C 
BRANCH  17  18
ATOM     18  C   UNL     1      31.166  -7.423  21.965  1.00  0.00    -0.000 C 
BRANCH  18  19
ATOM     19  C   UNL     1      29.865  -8.037  22.501  1.00  0.00    -0.003 C 
ATOM     20  C   UNL     1      29.968  -8.320  23.997  1.00  0.00     0.004 C 
ENDBRANCH  18  19
ENDBRANCH  17  18
ENDBRANCH  16  17
ENDBRANCH  15  16
ENDBRANCH  14  15
ENDBRANCH  13  14
ENDBRANCH  12  13
ENDBRANCH   1  12
TORSDOF 16
ENDMDL
MODEL 2
REMARK VINA RESULT:    -4.126      7.387     11.914
REMARK INTER + INTRA:          -9.976
REMARK INTER:                  -7.364
REMARK INTRA:                  -2.612
REMARK UNBOUND:                -1.991
REMARK SMILES CCCCCCCCCCCCCCCCCC(=O)[O-]
REMARK SMILES IDX 10 1 11 2 12 3 13 4 14 5 15 6 16 7 17 8 18 9 19 10 20 11
REMARK SMILES IDX 9 12 8 13 7 14 6 15 5 16 4 17 3 18 2 19 1 20
REMARK H PARENT
REMARK Flexibility Score: inf
ROOT
ATOM      1  C   UNL     1      28.808 -22.801  24.151  1.00  0.00     0.000 C 
ENDROOT
BRANCH   1   2
ATOM      2  C   UNL     1      30.280 -22.444  23.896  1.00  0.00     0.000 C 
BRANCH   2   3
ATOM      3  C   UNL     1      30.457 -21.027  23.321  1.00  0.00     0.000 C 
BRANCH   3   4
ATOM      4  C   UNL     1      29.300 -20.612  22.398  1.00  0.00     0.000 C 
BRANCH   4   5
ATOM      5  C   UNL     1      29.312 -19.108  22.077  1.00  0.00     0.000 C 
BRANCH   5   6
ATOM      6  C   UNL     1      30.541 -18.389  22.658  1.00  0.00     0.000 C 
BRANCH   6   7
ATOM      7  C   UNL     1      30.290 -16.892  22.907  1.00  0.00     0.006 C 
BRANCH   7   8
ATOM      8  C   UNL     1      28.992 -16.405  22.247  1.00  0.00     0.053 C 
BRANCH   8   9
ATOM      9  C   UNL     1      28.240 -15.456  23.127  1.00  0.00     0.041 C 
ATOM     10  O   UNL     1      28.144 -15.679  24.363  1.00  0.00    -0.550 OA
ATOM     11  O   UNL     1      27.672 -14.308  22.589  1.00  0.00    -0.550 OA
ENDBRANCH   8   9
ENDBRANCH   7   8
ENDBRANCH   6   7
ENDBRANCH   5   6
ENDBRANCH   4   5
ENDBRANCH   3   4
ENDBRANCH   2   3
ENDBRANCH   1   2
BRANCH   1  12
ATOM     12  C   UNL     1      28.529 -23.141  25.626  1.00  0.00     0.000 C 
BRANCH  12  13
ATOM     13  C   UNL     1      27.494 -22.199  26.262  1.00  0.00    -0.000 C 
BRANCH  13  14
ATOM     14  C   UNL     1      27.212 -20.957  25.397  1.00  0.00    -0.000 C 
BRANCH  14  15
ATOM     15  C   UNL     1      27.439 -19.642  26.159  1.00  0.00    -0.000 C 
BRANCH  15  16
ATOM     16  C   UNL     1      28.805 -19.010  25.854  1.00  0.00    -0.000 C 
BRANCH  16  17
ATOM     17  C   UNL     1      29.545 -18.650  27.151  1.00  0.00    -0.000 C 
BRANCH  17  18
ATOM     18  C   UNL     1      29.412 -19.737  28.230  1.00  0.00    -0.000 C 
BRANCH  18  19
ATOM     19  C   UNL     1      30.404 -20.892  28.033  1.00  0.00    -0.003 C 
ATOM     20  C   UNL     1      30.556 -21.709  29.313  1.00  0.00     0.004 C 
ENDBRANCH  18  19
ENDBRANCH  17  18
ENDBRANCH  16  17
ENDBRANCH  15  16
ENDBRANCH  14  15
ENDBRANCH  13  14
ENDBRANCH  12  13
ENDBRANCH   1  12
TORSDOF 16
ENDMDL
MODEL 3
REMARK VINA RESULT:    -4.096      1.135      1.750
REMARK INTER + INTRA:          -9.918
REMARK INTER:                  -7.304
REMARK INTRA:                  -2.614
REMARK UNBOUND:                -1.991
REMARK SMILES CCCCCCCCCCCCCCCCCC(=O)[O-]
REMARK SMILES IDX 10 1 11 2 12 3 13 4 14 5 15 6 16 7 17 8 18 9 19 10 20 11
REMARK SMILES IDX 9 12 8 13 7 14 6 15 5 16 4 17 3 18 2 19 1 20
REMARK H PARENT
REMARK Flexibility Score: inf
ROOT
ATOM      1  C   UNL     1      33.550 -10.593  18.476  1.00  0.00     0.000 C 
ENDROOT
BRANCH   1   2
ATOM      2  C   UNL     1      34.179  -9.755  19.600  1.00  0.00     0.000 C 
BRANCH   2   3
ATOM      3  C   UNL     1      34.219 -10.500  20.947  1.00  0.00     0.000 C 
BRANCH   3   4
ATOM      4  C   UNL     1      33.041 -10.134  21.862  1.00  0.00     0.000 C 
BRANCH   4   5
ATOM      5  C   UNL     1      32.062 -11.304  22.059  1.00  0.00     0.000 C 
BRANCH   5   6
ATOM      6  C   UNL     1      30.898 -11.277  21.054  1.00  0.00     0.000 C 
BRANCH   6   7
ATOM      7  C   UNL     1      30.746 -12.602  20.287  1.00  0.00     0.006 C 
BRANCH   7   8
ATOM      8  C   UNL     1      29.333 -13.186  20.414  1.00  0.00     0.053 C 
BRANCH   8   9
ATOM      9  C   UNL     1      29.177 -14.006  21.658  1.00  0.00     0.041 C 
ATOM     10  O   UNL     1      29.752 -15.122  21.756  1.00  0.00    -0.550 OA
ATOM     11  O   UNL     1      28.423 -13.524  22.720  1.00  0.00    -0.550 OA
ENDBRANCH   8   9
ENDBRANCH   7   8
ENDBRANCH   6   7
ENDBRANCH   5   6
ENDBRANCH   4   5
ENDBRANCH   3   4
ENDBRANCH   2   3
ENDBRANCH   1   2
BRANCH   1  12
ATOM     12  C   UNL     1      32.299  -9.930  17.874  1.00  0.00     0.000 C 
BRANCH  12  13
ATOM     13  C   UNL     1      32.597  -9.193  16.558  1.00  0.00    -0.000 C 
BRANCH  13  14
ATOM     14  C   UNL     1      31.972  -7.787  16.511  1.00  0.00    -0.000 C 
BRANCH  14  15
ATOM     15  C   UNL     1      31.411  -7.344  17.871  1.00  0.00    -0.000 C 
BRANCH  15  16
ATOM     16  C   UNL     1      32.275  -6.268  18.545  1.00  0.00    -0.000 C 
BRANCH  16  17
ATOM     17  C   UNL     1      32.357  -6.501  20.061  1.00  0.00    -0.000 C 
BRANCH  17  18
ATOM     18  C   UNL     1      31.186  -7.340  20.597  1.00  0.00    -0.000 C 
BRANCH  18  19
ATOM     19  C   UNL     1      30.891  -7.067  22.079  1.00  0.00    -0.003 C 
ATOM     20  C   UNL     1      29.913  -8.094  22.642  1.00  0.00     0.004 C 
ENDBRANCH  18  19
ENDBRANCH  17  18
ENDBRANCH  16  17
ENDBRANCH  15  16
ENDBRANCH  14  15
ENDBRANCH  13  14
ENDBRANCH  12  13
ENDBRANCH   1  12
TORSDOF 16
ENDMDL
MODEL 4
REMARK VINA RESULT:    -4.077      7.083     11.054
REMARK INTER + INTRA:          -9.882
REMARK INTER:                  -7.744
REMARK INTRA:                  -2.138
REMARK UNBOUND:                -1.991
REMARK SMILES CCCCCCCCCCCCCCCCCC(=O)[O-]
REMARK SMILES IDX 10 1 11 2 12 3 13 4 14 5 15 6 16 7 17 8 18 9 19 10 20 11
REMARK SMILES IDX 9 12 8 13 7 14 6 15 5 16 4 17 3 18 2 19 1 20
REMARK H PARENT
REMARK Flexibility Score: inf
ROOT
ATOM      1  C   UNL     1      29.129 -22.658  22.653  1.00  0.00     0.000 C 
ENDROOT
BRANCH   1   2
ATOM      2  C   UNL     1      29.598 -23.036  24.067  1.00  0.00     0.000 C 
BRANCH   2   3
ATOM      3  C   UNL     1      28.441 -23.492  24.975  1.00  0.00     0.000 C 
BRANCH   3   4
ATOM      4  C   UNL     1      28.238 -22.567  26.185  1.00  0.00     0.000 C 
BRANCH   4   5
ATOM      5  C   UNL     1      27.224 -21.443  25.905  1.00  0.00     0.000 C 
BRANCH   5   6
ATOM      6  C   UNL     1      27.855 -20.043  25.987  1.00  0.00     0.000 C 
BRANCH   6   7
ATOM      7  C   UNL     1      29.291 -20.072  26.539  1.00  0.00     0.006 C 
BRANCH   7   8
ATOM      8  C   UNL     1      29.456 -19.170  27.770  1.00  0.00     0.053 C 
BRANCH   8   9
ATOM      9  C   UNL     1      29.661 -19.966  29.022  1.00  0.00     0.041 C 
ATOM     10  O   UNL     1      29.727 -19.385  30.137  1.00  0.00    -0.550 OA
ATOM     11  O   UNL     1      29.747 -21.351  28.962  1.00  0.00    -0.550 OA
ENDBRANCH   8   9
ENDBRANCH   7   8
ENDBRANCH   6   7
ENDBRANCH   5   6
ENDBRANCH   4   5
ENDBRANCH   3   4
ENDBRANCH   2   3
ENDBRANCH   1   2
BRANCH   1  12
ATOM     12  C   UNL     1      28.737 -21.174  22.537  1.00  0.00     0.000 C 
BRANCH  12  13
ATOM     13  C   UNL     1      29.875 -20.230  22.956  1.00  0.00    -0.000 C 
BRANCH  13  14
ATOM     14  C   UNL     1      30.054 -19.049  21.984  1.00  0.00    -0.000 C 
BRANCH  14  15
ATOM     15  C   UNL     1      29.575 -17.716  22.580  1.00  0.00    -0.000 C 
BRANCH  15  16
ATOM     16  C   UNL     1      30.036 -17.516  24.030  1.00  0.00    -0.000 C 
BRANCH  16  17
ATOM     17  C   UNL     1      29.413 -16.251  24.636  1.00  0.00    -0.000 C 
BRANCH  17  18
ATOM     18  C   UNL     1      28.310 -15.650  23.749  1.00  0.00    -0.000 C 
BRANCH  18  19
ATOM     19  C   UNL     1      28.387 -14.119  23.664  1.00  0.00    -0.003 C 
ATOM     20  C   UNL     1      27.351 -13.571  22.686  1.00  0.00     0.004 C 
ENDBRANCH  18  19
ENDBRANCH  17  18
ENDBRANCH  16  17
ENDBRANCH  15  16
ENDBRANCH  14  15
ENDBRANCH  13  14
ENDBRANCH  12  13
ENDBRANCH   1  12
TORSDOF 16
ENDMDL
MODEL 5
REMARK VINA RESULT:    -4.066      6.627     11.889
REMARK INTER + INTRA:          -9.861
REMARK INTER:                  -7.276
REMARK INTRA:                  -2.585
REMARK UNBOUND:                -1.991
REMARK SMILES CCCCCCCCCCCCCCCCCC(=O)[O-]
REMARK SMILES IDX 10 1 11 2 12 3 13 4 14 5 15 6 16 7 17 8 18 9 19 10 20 11
REMARK SMILES IDX 9 12 8 13 7 14 6 15 5 16 4 17 3 18 2 19 1 20
REMARK H PARENT
REMARK Flexibility Score: inf
ROOT
ATOM      1  C   UNL     1      31.005 -22.984  22.827  1.00  0.00     0.000 C 
ENDROOT
BRANCH   1   2
ATOM      2  C   UNL     1      31.440 -21.828  23.741  1.00  0.00     0.000 C 
BRANCH   2   3
ATOM      3  C   UNL     1      31.230 -20.447  23.094  1.00  0.00     0.000 C 
BRANCH   3   4
ATOM      4  C   UNL     1      30.194 -20.476  21.959  1.00  0.00     0.000 C 
BRANCH   4   5
ATOM      5  C   UNL     1      29.102 -19.405  22.130  1.00  0.00     0.000 C 
BRANCH   5   6
ATOM      6  C   UNL     1      29.526 -18.276  23.084  1.00  0.00     0.000 C 
BRANCH   6   7
ATOM      7  C   UNL     1      29.771 -16.944  22.355  1.00  0.00     0.006 C 
BRANCH   7   8
ATOM      8  C   UNL     1      28.553 -16.502  21.532  1.00  0.00     0.053 C 
BRANCH   8   9
ATOM      9  C   UNL     1      28.399 -15.012  21.519  1.00  0.00     0.041 C 
ATOM     10  O   UNL     1      28.976 -14.324  20.636  1.00  0.00    -0.550 OA
ATOM     11  O   UNL     1      27.592 -14.387  22.461  1.00  0.00    -0.550 OA
ENDBRANCH   8   9
ENDBRANCH   7   8
ENDBRANCH   6   7
ENDBRANCH   5   6
ENDBRANCH   4   5
ENDBRANCH   3   4
ENDBRANCH   2   3
ENDBRANCH   1   2
BRANCH   1  12
ATOM     12  C   UNL     1      29.994 -23.925  23.505  1.00  0.00     0.000 C 
BRANCH  12  13
ATOM     13  C   UNL     1      28.728 -23.191  23.974  1.00  0.00    -0.000 C 
BRANCH  13  14
ATOM     14  C   UNL     1      28.513 -23.291  25.495  1.00  0.00    -0.000 C 
BRANCH  14  15
ATOM     15  C   UNL     1      27.647 -22.147  26.046  1.00  0.00    -0.000 C 
BRANCH  15  16
ATOM     16  C   UNL     1      27.789 -20.853  25.231  1.00  0.00    -0.000 C 
BRANCH  16  17
ATOM     17  C   UNL     1      27.664 -19.619  26.136  1.00  0.00    -0.000 C 
BRANCH  17  18
ATOM     18  C   UNL     1      28.799 -19.523  27.168  1.00  0.00    -0.000 C 
BRANCH  18  19
ATOM     19  C   UNL     1      30.191 -19.551  26.521  1.00  0.00    -0.003 C 
ATOM     20  C   UNL     1      31.107 -20.544  27.231  1.00  0.00     0.004 C 
ENDBRANCH  18  19
ENDBRANCH  17  18
ENDBRANCH  16  17
ENDBRANCH  15  16
ENDBRANCH  14  15
ENDBRANCH  13  14
ENDBRANCH  12  13
ENDBRANCH   1  12
TORSDOF 16
ENDMDL
MODEL 6
REMARK VINA RESULT:    -4.060      6.427     11.024
REMARK INTER + INTRA:          -9.850
REMARK INTER:                  -7.412
REMARK INTRA:                  -2.437
REMARK UNBOUND:                -1.991
REMARK SMILES CCCCCCCCCCCCCCCCCC(=O)[O-]
REMARK SMILES IDX 10 1 11 2 12 3 13 4 14 5 15 6 16 7 17 8 18 9 19 10 20 11
REMARK SMILES IDX 9 12 8 13 7 14 6 15 5 16 4 17 3 18 2 19 1 20
REMARK H PARENT
REMARK Flexibility Score: inf
ROOT
ATOM      1  C   UNL     1      30.186 -19.007  22.224  1.00  0.00     0.000 C 
ENDROOT
BRANCH   1   2
ATOM      2  C   UNL     1      30.156 -17.700  23.031  1.00  0.00     0.000 C 
BRANCH   2   3
ATOM      3  C   UNL     1      30.700 -17.872  24.461  1.00  0.00     0.000 C 
BRANCH   3   4
ATOM      4  C   UNL     1      30.096 -16.863  25.450  1.00  0.00     0.000 C 
BRANCH   4   5
ATOM      5  C   UNL     1      28.586 -16.658  25.234  1.00  0.00     0.000 C 
BRANCH   5   6
ATOM      6  C   UNL     1      28.186 -15.173  25.231  1.00  0.00     0.000 C 
BRANCH   6   7
ATOM      7  C   UNL     1      28.836 -14.385  24.080  1.00  0.00     0.006 C 
BRANCH   7   8
ATOM      8  C   UNL     1      27.832 -14.048  22.970  1.00  0.00     0.053 C 
BRANCH   8   9
ATOM      9  C   UNL     1      28.151 -14.763  21.692  1.00  0.00     0.041 C 
ATOM     10  O   UNL     1      27.668 -15.904  21.468  1.00  0.00    -0.550 OA
ATOM     11  O   UNL     1      28.954 -14.155  20.736  1.00  0.00    -0.550 OA
ENDBRANCH   8   9
ENDBRANCH   7   8
ENDBRANCH   6   7
ENDBRANCH   5   6
ENDBRANCH   4   5
ENDBRANCH   3   4
ENDBRANCH   2   3
ENDBRANCH   1   2
BRANCH   1  12
ATOM     12  C   UNL     1      28.876 -19.806  22.342  1.00  0.00     0.000 C 
BRANCH  12  13
ATOM     13  C   UNL     1      29.108 -21.325  22.328  1.00  0.00    -0.000 C 
BRANCH  13  14
ATOM     14  C   UNL     1      30.399 -21.734  23.060  1.00  0.00    -0.000 C 
BRANCH  14  15
ATOM     15  C   UNL     1      30.154 -22.805  24.135  1.00  0.00    -0.000 C 
BRANCH  15  16
ATOM     16  C   UNL     1      28.663 -23.097  24.350  1.00  0.00    -0.000 C 
BRANCH  16  17
ATOM     17  C   UNL     1      28.188 -22.557  25.707  1.00  0.00    -0.000 C 
BRANCH  17  18
ATOM     18  C   UNL     1      27.551 -21.162  25.600  1.00  0.00    -0.000 C 
BRANCH  18  19
ATOM     19  C   UNL     1      28.353 -20.087  26.347  1.00  0.00    -0.003 C 
ATOM     20  C   UNL     1      29.528 -20.703  27.101  1.00  0.00     0.004 C 
ENDBRANCH  18  19
ENDBRANCH  17  18
ENDBRANCH  16  17
ENDBRANCH  15  16
ENDBRANCH  14  15
ENDBRANCH  13  14
ENDBRANCH  12  13
ENDBRANCH   1  12
TORSDOF 16
ENDMDL
MODEL 7
REMARK VINA RESULT:    -4.057      1.686      3.734
REMARK INTER + INTRA:          -9.842
REMARK INTER:                  -7.371
REMARK INTRA:                  -2.472
REMARK UNBOUND:                -1.991
REMARK SMILES CCCCCCCCCCCCCCCCCC(=O)[O-]
REMARK SMILES IDX 10 1 11 2 12 3 13 4 14 5 15 6 16 7 17 8 18 9 19 10 20 11
REMARK SMILES IDX 9 12 8 13 7 14 6 15 5 16 4 17 3 18 2 19 1 20
REMARK H PARENT
REMARK Flexibility Score: inf
ROOT
ATOM      1  C   UNL     1      31.402  -7.659  20.410  1.00  0.00     0.000 C 
ENDROOT
BRANCH   1   2
ATOM      2  C   UNL     1      32.013  -8.398  21.611  1.00  0.00     0.000 C 
BRANCH   2   3
ATOM      3  C   UNL     1      31.318  -9.741  21.899  1.00  0.00     0.000 C 
BRANCH   3   4
ATOM      4  C   UNL     1      31.137 -10.598  20.637  1.00  0.00     0.000 C 
BRANCH   4   5
ATOM      5  C   UNL     1      31.628 -12.044  20.830  1.00  0.00     0.000 C 
BRANCH   5   6
ATOM      6  C   UNL     1      30.920 -13.039  19.895  1.00  0.00     0.000 C 
BRANCH   6   7
ATOM      7  C   UNL     1      29.513 -13.416  20.388  1.00  0.00     0.006 C 
BRANCH   7   8
ATOM      8  C   UNL     1      29.551 -14.200  21.707  1.00  0.00     0.053 C 
BRANCH   8   9
ATOM      9  C   UNL     1      28.667 -13.585  22.748  1.00  0.00     0.041 C 
ATOM     10  O   UNL     1      29.166 -12.895  23.675  1.00  0.00    -0.550 OA
ATOM     11  O   UNL     1      27.289 -13.748  22.676  1.00  0.00    -0.550 OA
ENDBRANCH   8   9
ENDBRANCH   7   8
ENDBRANCH   6   7
ENDBRANCH   5   6
ENDBRANCH   4   5
ENDBRANCH   3   4
ENDBRANCH   2   3
ENDBRANCH   1   2
BRANCH   1  12
ATOM     12  C   UNL     1      32.266  -6.475  19.942  1.00  0.00     0.000 C 
BRANCH  12  13
ATOM     13  C   UNL     1      32.200  -6.261  18.422  1.00  0.00    -0.000 C 
BRANCH  13  14
ATOM     14  C   UNL     1      31.432  -7.383  17.698  1.00  0.00    -0.000 C 
BRANCH  14  15
ATOM     15  C   UNL     1      31.929  -7.607  16.261  1.00  0.00    -0.000 C 
BRANCH  15  16
ATOM     16  C   UNL     1      32.510  -9.012  16.048  1.00  0.00    -0.000 C 
BRANCH  16  17
ATOM     17  C   UNL     1      32.314  -9.882  17.298  1.00  0.00    -0.000 C 
BRANCH  17  18
ATOM     18  C   UNL     1      33.640 -10.420  17.859  1.00  0.00    -0.000 C 
BRANCH  18  19
ATOM     19  C   UNL     1      34.351  -9.410  18.772  1.00  0.00    -0.003 C 
ATOM     20  C   UNL     1      35.517  -8.742  18.048  1.00  0.00     0.004 C 
ENDBRANCH  18  19
ENDBRANCH  17  18
ENDBRANCH  16  17
ENDBRANCH  15  16
ENDBRANCH  14  15
ENDBRANCH  13  14
ENDBRANCH  12  13
ENDBRANCH   1  12
TORSDOF 16
ENDMDL
MODEL 8
REMARK VINA RESULT:    -4.050      2.827      5.716
REMARK INTER + INTRA:          -9.830
REMARK INTER:                  -7.079
REMARK INTRA:                  -2.750
REMARK UNBOUND:                -1.991
REMARK SMILES CCCCCCCCCCCCCCCCCC(=O)[O-]
REMARK SMILES IDX 10 1 11 2 12 3 13 4 14 5 15 6 16 7 17 8 18 9 19 10 20 11
REMARK SMILES IDX 9 12 8 13 7 14 6 15 5 16 4 17 3 18 2 19 1 20
REMARK H PARENT
REMARK Flexibility Score: inf
ROOT
ATOM      1  C   UNL     1      32.365  -9.810  17.353  1.00  0.00     0.000 C 
ENDROOT
BRANCH   1   2
ATOM      2  C   UNL     1      32.269  -8.617  16.391  1.00  0.00     0.000 C 
BRANCH   2   3
ATOM      3  C   UNL     1      31.687  -7.358  17.060  1.00  0.00     0.000 C 
BRANCH   3   4
ATOM      4  C   UNL     1      31.513  -7.521  18.578  1.00  0.00     0.000 C 
BRANCH   4   5
ATOM      5  C   UNL     1      32.309  -6.475  19.378  1.00  0.00     0.000 C 
BRANCH   5   6
ATOM      6  C   UNL     1      32.065  -6.577  20.893  1.00  0.00     0.000 C 
BRANCH   6   7
ATOM      7  C   UNL     1      30.817  -7.407  21.237  1.00  0.00     0.006 C 
BRANCH   7   8
ATOM      8  C   UNL     1      30.312  -7.130  22.660  1.00  0.00     0.053 C 
BRANCH   8   9
ATOM      9  C   UNL     1      30.541  -8.297  23.571  1.00  0.00     0.041 C 
ATOM     10  O   UNL     1      29.616  -9.123  23.786  1.00  0.00    -0.550 OA
ATOM     11  O   UNL     1      31.786  -8.489  24.157  1.00  0.00    -0.550 OA
ENDBRANCH   8   9
ENDBRANCH   7   8
ENDBRANCH   6   7
ENDBRANCH   5   6
ENDBRANCH   4   5
ENDBRANCH   3   4
ENDBRANCH   2   3
ENDBRANCH   1   2
BRANCH   1  12
ATOM     12  C   UNL     1      33.784 -10.402  17.422  1.00  0.00     0.000 C 
BRANCH  12  13
ATOM     13  C   UNL     1      34.581  -9.885  18.629  1.00  0.00    -0.000 C 
BRANCH  13  14
ATOM     14  C   UNL     1      34.318 -10.701  19.908  1.00  0.00    -0.000 C 
BRANCH  14  15
ATOM     15  C   UNL     1      33.471  -9.934  20.935  1.00  0.00    -0.000 C 
BRANCH  15  16
ATOM     16  C   UNL     1      32.382 -10.807  21.574  1.00  0.00    -0.000 C 
BRANCH  16  17
ATOM     17  C   UNL     1      31.255 -11.099  20.573  1.00  0.00    -0.000 C 
BRANCH  17  18
ATOM     18  C   UNL     1      30.461 -12.367  20.928  1.00  0.00    -0.000 C 
BRANCH  18  19
ATOM     19  C   UNL     1      30.508 -13.424  19.815  1.00  0.00    -0.003 C 
ATOM     20  C   UNL     1      31.732 -13.230  18.924  1.00  0.00     0.004 C 
ENDBRANCH  18  19
ENDBRANCH  17  18
ENDBRANCH  16  17
ENDBRANCH  15  16
ENDBRANCH  14  15
ENDBRANCH  13  14
ENDBRANCH  12  13
ENDBRANCH   1  12
TORSDOF 16
ENDMDL
MODEL 9
REMARK VINA RESULT:    -4.003      1.394      1.847
REMARK INTER + INTRA:          -9.739
REMARK INTER:                  -7.910
REMARK INTRA:                  -1.829
REMARK UNBOUND:                -1.991
REMARK SMILES CCCCCCCCCCCCCCCCCC(=O)[O-]
REMARK SMILES IDX 10 1 11 2 12 3 13 4 14 5 15 6 16 7 17 8 18 9 19 10 20 11
REMARK SMILES IDX 9 12 8 13 7 14 6 15 5 16 4 17 3 18 2 19 1 20
REMARK H PARENT
REMARK Flexibility Score: inf
ROOT
ATOM      1  C   UNL     1      32.485  -9.923  17.323  1.00  0.00     0.000 C 
ENDROOT
BRANCH   1   2
ATOM      2  C   UNL     1      33.204 -11.280  17.354  1.00  0.00     0.000 C 
BRANCH   2   3
ATOM      3  C   UNL     1      32.456 -12.330  18.196  1.00  0.00     0.000 C 
BRANCH   3   4
ATOM      4  C   UNL     1      32.571 -12.070  19.706  1.00  0.00     0.000 C 
BRANCH   4   5
ATOM      5  C   UNL     1      31.199 -12.004  20.399  1.00  0.00     0.000 C 
BRANCH   5   6
ATOM      6  C   UNL     1      30.626 -13.397  20.712  1.00  0.00     0.000 C 
BRANCH   6   7
ATOM      7  C   UNL     1      29.139 -13.524  20.341  1.00  0.00     0.006 C 
BRANCH   7   8
ATOM      8  C   UNL     1      28.261 -13.818  21.565  1.00  0.00     0.053 C 
BRANCH   8   9
ATOM      9  C   UNL     1      28.166 -15.287  21.844  1.00  0.00     0.041 C 
ATOM     10  O   UNL     1      28.110 -15.703  23.031  1.00  0.00    -0.550 OA
ATOM     11  O   UNL     1      28.107 -16.194  20.793  1.00  0.00    -0.550 OA
ENDBRANCH   8   9
ENDBRANCH   7   8
ENDBRANCH   6   7
ENDBRANCH   5   6
ENDBRANCH   4   5
ENDBRANCH   3   4
ENDBRANCH   2   3
ENDBRANCH   1   2
BRANCH   1  12
ATOM     12  C   UNL     1      32.457  -9.300  15.916  1.00  0.00     0.000 C 
BRANCH  12  13
ATOM     13  C   UNL     1      32.063  -7.815  15.936  1.00  0.00    -0.000 C 
BRANCH  13  14
ATOM     14  C   UNL     1      31.467  -7.377  17.287  1.00  0.00    -0.000 C 
BRANCH  14  15
ATOM     15  C   UNL     1      32.235  -6.206  17.919  1.00  0.00    -0.000 C 
BRANCH  15  16
ATOM     16  C   UNL     1      32.279  -6.286  19.451  1.00  0.00    -0.000 C 
BRANCH  16  17
ATOM     17  C   UNL     1      31.326  -7.372  19.972  1.00  0.00    -0.000 C 
BRANCH  17  18
ATOM     18  C   UNL     1      32.016  -8.355  20.931  1.00  0.00    -0.000 C 
BRANCH  18  19
ATOM     19  C   UNL     1      33.495  -8.582  20.583  1.00  0.00    -0.003 C 
ATOM     20  C   UNL     1      34.357  -8.604  21.842  1.00  0.00     0.004 C 
ENDBRANCH  18  19
ENDBRANCH  17  18
ENDBRANCH  16  17
ENDBRANCH  15  16
ENDBRANCH  14  15
ENDBRANCH  13  14
ENDBRANCH  12  13
ENDBRANCH   1  12
TORSDOF 16
ENDMDL
