MODEL 1
REMARK VINA RESULT:    -5.387      0.000      0.000
REMARK INTER + INTRA:          -6.615
REMARK INTER:                  -6.332
REMARK INTRA:                  -0.283
REMARK UNBOUND:                -0.283
REMARK SMILES O=c1cc(-c2ccc(O)c(O)c2)oc2cc(O)cc(O)c12
REMARK SMILES IDX 4 1 3 2 2 3 1 4 21 5 19 6 18 7 16 8 15 9 14 10 13 11 5 12
REMARK SMILES IDX 6 13 7 14 8 15 12 16 10 17 9 18 11 20 20 22 17 24
REMARK H PARENT 9 19 11 21 20 23 17 25
REMARK Flexibility Score: inf
ROOT
ATOM      1  C   UNL     1     110.628 108.199 113.360  1.00  0.00     0.138 A 
ATOM      2  C   UNL     1     109.878 107.055 113.679  1.00  0.00     0.100 A 
ATOM      3  C   UNL     1     108.494 107.160 113.827  1.00  0.00     0.197 A 
ATOM      4  O   UNL     1     107.829 106.129 114.116  1.00  0.00    -0.289 OA
ATOM      5  C   UNL     1     107.870 108.412 113.656  1.00  0.00     0.107 A 
ATOM      6  C   UNL     1     106.474 108.606 113.787  1.00  0.00     0.134 A 
ATOM      7  C   UNL     1     105.931 109.886 113.607  1.00  0.00     0.093 A 
ATOM      8  C   UNL     1     106.756 110.974 113.300  1.00  0.00     0.123 A 
ATOM      9  C   UNL     1     108.133 110.788 113.170  1.00  0.00     0.094 A 
ATOM     10  C   UNL     1     108.695 109.520 113.346  1.00  0.00     0.146 A 
ATOM     11  O   UNL     1     110.009 109.369 113.215  1.00  0.00    -0.456 OA
ENDROOT
BRANCH   1  12
ATOM     12  C   UNL     1     112.103 108.147 113.192  1.00  0.00     0.021 A 
ATOM     13  C   UNL     1     112.663 107.229 112.286  1.00  0.00     0.016 A 
ATOM     14  C   UNL     1     114.047 107.155 112.116  1.00  0.00     0.051 A 
ATOM     15  C   UNL     1     114.896 107.986 112.851  1.00  0.00     0.157 A 
ATOM     16  C   UNL     1     112.963 108.973 113.941  1.00  0.00     0.062 A 
ATOM     17  C   UNL     1     114.353 108.898 113.771  1.00  0.00     0.158 A 
BRANCH  15  18
ATOM     18  O   UNL     1     116.274 107.890 112.658  1.00  0.00    -0.504 OA
ATOM     19  H   UNL     1     116.937 108.130 113.384  1.00  0.00     0.293 HD
ENDBRANCH  15  18
BRANCH  17  20
ATOM     20  O   UNL     1     115.195 109.722 114.516  1.00  0.00    -0.504 OA
ATOM     21  H   UNL     1     114.870 110.596 114.912  1.00  0.00     0.293 HD
ENDBRANCH  17  20
ENDBRANCH   1  12
BRANCH   6  22
ATOM     22  O   UNL     1     105.627 107.539 114.092  1.00  0.00    -0.507 OA
ATOM     23  H   UNL     1     104.705 107.457 113.680  1.00  0.00     0.293 HD
ENDBRANCH   6  22
BRANCH   8  24
ATOM     24  O   UNL     1     106.216 112.247 113.122  1.00  0.00    -0.508 OA
ATOM     25  H   UNL     1     106.465 112.821 112.325  1.00  0.00     0.293 HD
ENDBRANCH   8  24
TORSDOF 5
ENDMDL
MODEL 2
REMARK VINA RESULT:    -5.317      1.702      2.546
REMARK INTER + INTRA:          -6.533
REMARK INTER:                  -6.246
REMARK INTRA:                  -0.286
REMARK UNBOUND:                -0.283
REMARK SMILES O=c1cc(-c2ccc(O)c(O)c2)oc2cc(O)cc(O)c12
REMARK SMILES IDX 4 1 3 2 2 3 1 4 21 5 19 6 18 7 16 8 15 9 14 10 13 11 5 12
REMARK SMILES IDX 6 13 7 14 8 15 12 16 10 17 9 18 11 20 20 22 17 24
REMARK H PARENT 9 19 11 21 20 23 17 25
REMARK Flexibility Score: inf
ROOT
ATOM      1  C   UNL     1     110.481 108.204 113.574  1.00  0.00     0.138 A 
ATOM      2  C   UNL     1     109.562 108.446 112.539  1.00  0.00     0.100 A 
ATOM      3  C   UNL     1     108.194 108.393 112.810  1.00  0.00     0.197 A 
ATOM      4  O   UNL     1     107.376 108.610 111.875  1.00  0.00    -0.289 OA
ATOM      5  C   UNL     1     107.754 108.095 114.115  1.00  0.00     0.107 A 
ATOM      6  C   UNL     1     106.387 108.022 114.475  1.00  0.00     0.134 A 
ATOM      7  C   UNL     1     106.032 107.714 115.796  1.00  0.00     0.093 A 
ATOM      8  C   UNL     1     107.017 107.476 116.762  1.00  0.00     0.123 A 
ATOM      9  C   UNL     1     108.366 107.546 116.412  1.00  0.00     0.094 A 
ATOM     10  C   UNL     1     108.741 107.853 115.101  1.00  0.00     0.146 A 
ATOM     11  O   UNL     1     110.033 107.915 114.794  1.00  0.00    -0.456 OA
ENDROOT
BRANCH   1  12
ATOM     12  C   UNL     1     111.948 108.246 113.343  1.00  0.00     0.021 A 
ATOM     13  C   UNL     1     112.505 107.487 112.300  1.00  0.00     0.016 A 
ATOM     14  C   UNL     1     113.882 107.502 112.068  1.00  0.00     0.051 A 
ATOM     15  C   UNL     1     114.727 108.266 112.877  1.00  0.00     0.157 A 
ATOM     16  C   UNL     1     112.805 109.004 114.165  1.00  0.00     0.062 A 
ATOM     17  C   UNL     1     114.188 109.019 113.933  1.00  0.00     0.158 A 
BRANCH  15  18
ATOM     18  O   UNL     1     116.098 108.264 112.619  1.00  0.00    -0.504 OA
ATOM     19  H   UNL     1     116.569 109.058 112.204  1.00  0.00     0.293 HD
ENDBRANCH  15  18
BRANCH  17  20
ATOM     20  O   UNL     1     115.027 109.774 114.750  1.00  0.00    -0.504 OA
ATOM     21  H   UNL     1     115.889 110.177 114.400  1.00  0.00     0.293 HD
ENDBRANCH  17  20
ENDBRANCH   1  12
BRANCH   6  22
ATOM     22  O   UNL     1     105.385 108.254 113.532  1.00  0.00    -0.507 OA
ATOM     23  H   UNL     1     105.527 108.065 112.547  1.00  0.00     0.293 HD
ENDBRANCH   6  22
BRANCH   8  24
ATOM     24  O   UNL     1     106.663 107.169 118.075  1.00  0.00    -0.508 OA
ATOM     25  H   UNL     1     106.293 107.872 118.702  1.00  0.00     0.293 HD
ENDBRANCH   8  24
TORSDOF 5
ENDMDL
MODEL 3
REMARK VINA RESULT:    -5.233      1.994      2.439
REMARK INTER + INTRA:          -6.434
REMARK INTER:                  -6.172
REMARK INTRA:                  -0.262
REMARK UNBOUND:                -0.283
REMARK SMILES O=c1cc(-c2ccc(O)c(O)c2)oc2cc(O)cc(O)c12
REMARK SMILES IDX 4 1 3 2 2 3 1 4 21 5 19 6 18 7 16 8 15 9 14 10 13 11 5 12
REMARK SMILES IDX 6 13 7 14 8 15 12 16 10 17 9 18 11 20 20 22 17 24
REMARK H PARENT 9 19 11 21 20 23 17 25
REMARK Flexibility Score: inf
ROOT
ATOM      1  C   UNL     1     110.986 107.789 114.954  1.00  0.00     0.138 A 
ATOM      2  C   UNL     1     110.815 107.506 116.319  1.00  0.00     0.100 A 
ATOM      3  C   UNL     1     109.526 107.414 116.846  1.00  0.00     0.197 A 
ATOM      4  O   UNL     1     109.382 107.161 118.073  1.00  0.00    -0.289 OA
ATOM      5  C   UNL     1     108.414 107.609 116.002  1.00  0.00     0.107 A 
ATOM      6  C   UNL     1     107.075 107.532 116.453  1.00  0.00     0.134 A 
ATOM      7  C   UNL     1     106.024 107.744 115.549  1.00  0.00     0.093 A 
ATOM      8  C   UNL     1     106.287 108.032 114.205  1.00  0.00     0.123 A 
ATOM      9  C   UNL     1     107.606 108.109 113.755  1.00  0.00     0.094 A 
ATOM     10  C   UNL     1     108.668 107.901 114.640  1.00  0.00     0.146 A 
ATOM     11  O   UNL     1     109.916 107.978 114.186  1.00  0.00    -0.456 OA
ENDROOT
BRANCH   1  12
ATOM     12  C   UNL     1     112.334 107.901 114.340  1.00  0.00     0.021 A 
ATOM     13  C   UNL     1     112.757 106.925 113.421  1.00  0.00     0.016 A 
ATOM     14  C   UNL     1     114.022 107.002 112.836  1.00  0.00     0.051 A 
ATOM     15  C   UNL     1     114.890 108.048 113.163  1.00  0.00     0.157 A 
ATOM     16  C   UNL     1     113.217 108.945 114.677  1.00  0.00     0.062 A 
ATOM     17  C   UNL     1     114.488 109.023 114.090  1.00  0.00     0.158 A 
BRANCH  15  18
ATOM     18  O   UNL     1     116.147 108.100 112.560  1.00  0.00    -0.504 OA
ATOM     19  H   UNL     1     116.999 108.191 113.099  1.00  0.00     0.293 HD
ENDBRANCH  15  18
BRANCH  17  20
ATOM     20  O   UNL     1     115.354 110.062 114.429  1.00  0.00    -0.504 OA
ATOM     21  H   UNL     1     115.656 110.746 113.745  1.00  0.00     0.293 HD
ENDBRANCH  17  20
ENDBRANCH   1  12
BRANCH   6  22
ATOM     22  O   UNL     1     106.784 107.246 117.788  1.00  0.00    -0.507 OA
ATOM     23  H   UNL     1     106.584 107.980 118.457  1.00  0.00     0.293 HD
ENDBRANCH   6  22
BRANCH   8  24
ATOM     24  O   UNL     1     105.243 108.245 113.307  1.00  0.00    -0.508 OA
ATOM     25  H   UNL     1     104.976 109.177 113.016  1.00  0.00     0.293 HD
ENDBRANCH   8  24
TORSDOF 5
ENDMDL
MODEL 4
REMARK VINA RESULT:    -5.102      2.064      3.569
REMARK INTER + INTRA:          -6.279
REMARK INTER:                  -5.987
REMARK INTRA:                  -0.292
REMARK UNBOUND:                -0.283
REMARK SMILES O=c1cc(-c2ccc(O)c(O)c2)oc2cc(O)cc(O)c12
REMARK SMILES IDX 4 1 3 2 2 3 1 4 21 5 19 6 18 7 16 8 15 9 14 10 13 11 5 12
REMARK SMILES IDX 6 13 7 14 8 15 12 16 10 17 9 18 11 20 20 22 17 24
REMARK H PARENT 9 19 11 21 20 23 17 25
REMARK Flexibility Score: inf
ROOT
ATOM      1  C   UNL     1     112.289 107.232 113.756  1.00  0.00     0.138 A 
ATOM      2  C   UNL     1     112.478 108.567 114.147  1.00  0.00     0.100 A 
ATOM      3  C   UNL     1     111.384 109.319 114.577  1.00  0.00     0.197 A 
ATOM      4  O   UNL     1     111.563 110.518 114.924  1.00  0.00    -0.289 OA
ATOM      5  C   UNL     1     110.104 108.728 114.610  1.00  0.00     0.107 A 
ATOM      6  C   UNL     1     108.943 109.418 115.033  1.00  0.00     0.134 A 
ATOM      7  C   UNL     1     107.705 108.760 115.032  1.00  0.00     0.093 A 
ATOM      8  C   UNL     1     107.607 107.427 114.615  1.00  0.00     0.123 A 
ATOM      9  C   UNL     1     108.749 106.743 114.197  1.00  0.00     0.094 A 
ATOM     10  C   UNL     1     109.993 107.381 114.191  1.00  0.00     0.146 A 
ATOM     11  O   UNL     1     111.066 106.706 113.790  1.00  0.00    -0.456 OA
ENDROOT
BRANCH   1  12
ATOM     12  C   UNL     1     113.416 106.385 113.289  1.00  0.00     0.021 A 
ATOM     13  C   UNL     1     113.149 105.250 112.505  1.00  0.00     0.016 A 
ATOM     14  C   UNL     1     114.190 104.432 112.059  1.00  0.00     0.051 A 
ATOM     15  C   UNL     1     115.514 104.728 112.395  1.00  0.00     0.157 A 
ATOM     16  C   UNL     1     114.751 106.672 113.635  1.00  0.00     0.062 A 
ATOM     17  C   UNL     1     115.797 105.851 113.189  1.00  0.00     0.158 A 
BRANCH  15  18
ATOM     18  O   UNL     1     116.533 103.895 111.933  1.00  0.00    -0.504 OA
ATOM     19  H   UNL     1     117.272 104.233 111.330  1.00  0.00     0.293 HD
ENDBRANCH  15  18
BRANCH  17  20
ATOM     20  O   UNL     1     117.115 106.145 113.536  1.00  0.00    -0.504 OA
ATOM     21  H   UNL     1     117.895 105.846 112.963  1.00  0.00     0.293 HD
ENDBRANCH  17  20
ENDBRANCH   1  12
BRANCH   6  22
ATOM     22  O   UNL     1     109.012 110.747 115.454  1.00  0.00    -0.507 OA
ATOM     23  H   UNL     1     109.653 111.042 116.182  1.00  0.00     0.293 HD
ENDBRANCH   6  22
BRANCH   8  24
ATOM     24  O   UNL     1     106.376 106.773 114.612  1.00  0.00    -0.508 OA
ATOM     25  H   UNL     1     105.525 107.248 114.334  1.00  0.00     0.293 HD
ENDBRANCH   8  24
TORSDOF 5
ENDMDL
MODEL 5
REMARK VINA RESULT:    -4.957      2.575      7.933
REMARK INTER + INTRA:          -6.109
REMARK INTER:                  -5.810
REMARK INTRA:                  -0.300
REMARK UNBOUND:                -0.283
REMARK SMILES O=c1cc(-c2ccc(O)c(O)c2)oc2cc(O)cc(O)c12
REMARK SMILES IDX 4 1 3 2 2 3 1 4 21 5 19 6 18 7 16 8 15 9 14 10 13 11 5 12
REMARK SMILES IDX 6 13 7 14 8 15 12 16 10 17 9 18 11 20 20 22 17 24
REMARK H PARENT 9 19 11 21 20 23 17 25
REMARK Flexibility Score: inf
ROOT
ATOM      1  C   UNL     1     106.975 109.375 114.110  1.00  0.00     0.138 A 
ATOM      2  C   UNL     1     107.843 110.477 114.179  1.00  0.00     0.100 A 
ATOM      3  C   UNL     1     109.205 110.266 114.396  1.00  0.00     0.197 A 
ATOM      4  O   UNL     1     109.977 111.261 114.458  1.00  0.00    -0.289 OA
ATOM      5  C   UNL     1     109.690 108.951 114.544  1.00  0.00     0.107 A 
ATOM      6  C   UNL     1     111.055 108.648 114.765  1.00  0.00     0.134 A 
ATOM      7  C   UNL     1     111.456 107.312 114.908  1.00  0.00     0.093 A 
ATOM      8  C   UNL     1     110.519 106.275 114.835  1.00  0.00     0.123 A 
ATOM      9  C   UNL     1     109.172 106.569 114.618  1.00  0.00     0.094 A 
ATOM     10  C   UNL     1     108.751 107.894 114.472  1.00  0.00     0.146 A 
ATOM     11  O   UNL     1     107.463 108.146 114.264  1.00  0.00    -0.456 OA
ENDROOT
BRANCH   1  12
ATOM     12  C   UNL     1     105.516 109.540 113.883  1.00  0.00     0.021 A 
ATOM     13  C   UNL     1     104.840 110.614 114.488  1.00  0.00     0.016 A 
ATOM     14  C   UNL     1     103.468 110.787 114.298  1.00  0.00     0.051 A 
ATOM     15  C   UNL     1     102.744 109.888 113.509  1.00  0.00     0.157 A 
ATOM     16  C   UNL     1     104.781 108.629 113.101  1.00  0.00     0.062 A 
ATOM     17  C   UNL     1     103.402 108.802 112.909  1.00  0.00     0.158 A 
BRANCH  15  18
ATOM     18  O   UNL     1     101.375 110.088 113.335  1.00  0.00    -0.504 OA
ATOM     19  H   UNL     1     100.981 110.365 112.445  1.00  0.00     0.293 HD
ENDBRANCH  15  18
BRANCH  17  20
ATOM     20  O   UNL     1     102.684 107.895 112.132  1.00  0.00    -0.504 OA
ATOM     21  H   UNL     1     103.058 107.524 111.266  1.00  0.00     0.293 HD
ENDBRANCH  17  20
ENDBRANCH   1  12
BRANCH   6  22
ATOM     22  O   UNL     1     112.010 109.663 114.842  1.00  0.00    -0.507 OA
ATOM     23  H   UNL     1     111.771 110.596 115.156  1.00  0.00     0.293 HD
ENDBRANCH   6  22
BRANCH   8  24
ATOM     24  O   UNL     1     110.917 104.948 114.979  1.00  0.00    -0.508 OA
ATOM     25  H   UNL     1     111.832 104.634 114.676  1.00  0.00     0.293 HD
ENDBRANCH   8  24
TORSDOF 5
ENDMDL
MODEL 6
REMARK VINA RESULT:    -4.940      2.641      7.488
REMARK INTER + INTRA:          -6.089
REMARK INTER:                  -5.818
REMARK INTRA:                  -0.271
REMARK UNBOUND:                -0.283
REMARK SMILES O=c1cc(-c2ccc(O)c(O)c2)oc2cc(O)cc(O)c12
REMARK SMILES IDX 4 1 3 2 2 3 1 4 21 5 19 6 18 7 16 8 15 9 14 10 13 11 5 12
REMARK SMILES IDX 6 13 7 14 8 15 12 16 10 17 9 18 11 20 20 22 17 24
REMARK H PARENT 9 19 11 21 20 23 17 25
REMARK Flexibility Score: inf
ROOT
ATOM      1  C   UNL     1     106.630 108.652 114.059  1.00  0.00     0.138 A 
ATOM      2  C   UNL     1     106.969 107.289 114.061  1.00  0.00     0.100 A 
ATOM      3  C   UNL     1     108.297 106.912 114.264  1.00  0.00     0.197 A 
ATOM      4  O   UNL     1     108.593 105.686 114.263  1.00  0.00    -0.289 OA
ATOM      5  C   UNL     1     109.280 107.903 114.461  1.00  0.00     0.107 A 
ATOM      6  C   UNL     1     110.647 107.608 114.675  1.00  0.00     0.134 A 
ATOM      7  C   UNL     1     111.564 108.654 114.857  1.00  0.00     0.093 A 
ATOM      8  C   UNL     1     111.139 109.987 114.828  1.00  0.00     0.123 A 
ATOM      9  C   UNL     1     109.791 110.283 114.618  1.00  0.00     0.094 A 
ATOM     10  C   UNL     1     108.861 109.256 114.434  1.00  0.00     0.146 A 
ATOM     11  O   UNL     1     107.583 109.564 114.237  1.00  0.00    -0.456 OA
ENDROOT
BRANCH   1  12
ATOM     12  C   UNL     1     105.234 109.112 113.846  1.00  0.00     0.021 A 
ATOM     13  C   UNL     1     104.638 108.947 112.584  1.00  0.00     0.016 A 
ATOM     14  C   UNL     1     103.329 109.378 112.356  1.00  0.00     0.051 A 
ATOM     15  C   UNL     1     102.596 109.988 113.378  1.00  0.00     0.157 A 
ATOM     16  C   UNL     1     104.497 109.739 114.869  1.00  0.00     0.062 A 
ATOM     17  C   UNL     1     103.182 110.172 114.641  1.00  0.00     0.158 A 
BRANCH  15  18
ATOM     18  O   UNL     1     101.290 110.405 113.120  1.00  0.00    -0.504 OA
ATOM     19  H   UNL     1     101.050 111.382 113.008  1.00  0.00     0.293 HD
ENDBRANCH  15  18
BRANCH  17  20
ATOM     20  O   UNL     1     102.461 110.790 115.661  1.00  0.00    -0.504 OA
ATOM     21  H   UNL     1     102.007 111.686 115.523  1.00  0.00     0.293 HD
ENDBRANCH  17  20
ENDBRANCH   1  12
BRANCH   6  22
ATOM     22  O   UNL     1     111.098 106.288 114.708  1.00  0.00    -0.507 OA
ATOM     23  H   UNL     1     111.223 105.747 113.860  1.00  0.00     0.293 HD
ENDBRANCH   6  22
BRANCH   8  24
ATOM     24  O   UNL     1     112.049 111.026 115.008  1.00  0.00    -0.508 OA
ATOM     25  H   UNL     1     112.313 111.637 114.245  1.00  0.00     0.293 HD
ENDBRANCH   8  24
TORSDOF 5
ENDMDL
MODEL 7
REMARK VINA RESULT:    -4.860      1.938      6.663
REMARK INTER + INTRA:          -5.996
REMARK INTER:                  -5.722
REMARK INTRA:                  -0.274
REMARK UNBOUND:                -0.283
REMARK SMILES O=c1cc(-c2ccc(O)c(O)c2)oc2cc(O)cc(O)c12
REMARK SMILES IDX 4 1 3 2 2 3 1 4 21 5 19 6 18 7 16 8 15 9 14 10 13 11 5 12
REMARK SMILES IDX 6 13 7 14 8 15 12 16 10 17 9 18 11 20 20 22 17 24
REMARK H PARENT 9 19 11 21 20 23 17 25
REMARK Flexibility Score: inf
ROOT
ATOM      1  C   UNL     1     110.452 108.780 113.949  1.00  0.00     0.138 A 
ATOM      2  C   UNL     1     110.231 107.693 114.810  1.00  0.00     0.100 A 
ATOM      3  C   UNL     1     111.285 106.829 115.109  1.00  0.00     0.197 A 
ATOM      4  O   UNL     1     111.078 105.854 115.882  1.00  0.00    -0.289 OA
ATOM      5  C   UNL     1     112.555 107.057 114.542  1.00  0.00     0.107 A 
ATOM      6  C   UNL     1     113.677 106.232 114.793  1.00  0.00     0.134 A 
ATOM      7  C   UNL     1     114.905 106.525 114.184  1.00  0.00     0.093 A 
ATOM      8  C   UNL     1     115.032 107.625 113.329  1.00  0.00     0.123 A 
ATOM      9  C   UNL     1     113.929 108.442 113.077  1.00  0.00     0.094 A 
ATOM     10  C   UNL     1     112.696 108.168 113.675  1.00  0.00     0.146 A 
ATOM     11  O   UNL     1     111.660 108.963 113.421  1.00  0.00    -0.456 OA
ENDROOT
BRANCH   1  12
ATOM     12  C   UNL     1     109.367 109.730 113.593  1.00  0.00     0.021 A 
ATOM     13  C   UNL     1     108.259 109.272 112.861  1.00  0.00     0.016 A 
ATOM     14  C   UNL     1     107.230 110.146 112.508  1.00  0.00     0.051 A 
ATOM     15  C   UNL     1     107.292 111.495 112.869  1.00  0.00     0.157 A 
ATOM     16  C   UNL     1     109.432 111.093 113.945  1.00  0.00     0.062 A 
ATOM     17  C   UNL     1     108.399 111.973 113.589  1.00  0.00     0.158 A 
BRANCH  15  18
ATOM     18  O   UNL     1     106.247 112.344 112.505  1.00  0.00    -0.504 OA
ATOM     19  H   UNL     1     105.277 112.098 112.652  1.00  0.00     0.293 HD
ENDBRANCH  15  18
BRANCH  17  20
ATOM     20  O   UNL     1     108.473 113.319 113.943  1.00  0.00    -0.504 OA
ATOM     21  H   UNL     1     108.216 113.640 114.869  1.00  0.00     0.293 HD
ENDBRANCH  17  20
ENDBRANCH   1  12
BRANCH   6  22
ATOM     22  O   UNL     1     113.578 105.128 115.642  1.00  0.00    -0.507 OA
ATOM     23  H   UNL     1     112.839 105.051 116.331  1.00  0.00     0.293 HD
ENDBRANCH   6  22
BRANCH   8  24
ATOM     24  O   UNL     1     116.253 107.916 112.722  1.00  0.00    -0.508 OA
ATOM     25  H   UNL     1     116.301 108.298 111.786  1.00  0.00     0.293 HD
ENDBRANCH   8  24
TORSDOF 5
ENDMDL
MODEL 8
REMARK VINA RESULT:    -4.841      2.240      4.398
REMARK INTER + INTRA:          -5.974
REMARK INTER:                  -5.662
REMARK INTRA:                  -0.312
REMARK UNBOUND:                -0.283
REMARK SMILES O=c1cc(-c2ccc(O)c(O)c2)oc2cc(O)cc(O)c12
REMARK SMILES IDX 4 1 3 2 2 3 1 4 21 5 19 6 18 7 16 8 15 9 14 10 13 11 5 12
REMARK SMILES IDX 6 13 7 14 8 15 12 16 10 17 9 18 11 20 20 22 17 24
REMARK H PARENT 9 19 11 21 20 23 17 25
REMARK Flexibility Score: inf
ROOT
ATOM      1  C   UNL     1     107.888 110.445 113.851  1.00  0.00     0.138 A 
ATOM      2  C   UNL     1     107.431 111.758 114.049  1.00  0.00     0.100 A 
ATOM      3  C   UNL     1     106.086 112.058 113.827  1.00  0.00     0.197 A 
ATOM      4  O   UNL     1     105.685 113.240 114.005  1.00  0.00    -0.289 OA
ATOM      5  C   UNL     1     105.207 111.040 113.405  1.00  0.00     0.107 A 
ATOM      6  C   UNL     1     103.830 111.258 113.158  1.00  0.00     0.134 A 
ATOM      7  C   UNL     1     103.023 110.193 112.735  1.00  0.00     0.093 A 
ATOM      8  C   UNL     1     103.567 108.915 112.552  1.00  0.00     0.123 A 
ATOM      9  C   UNL     1     104.924 108.696 112.794  1.00  0.00     0.094 A 
ATOM     10  C   UNL     1     105.745 109.744 113.217  1.00  0.00     0.146 A 
ATOM     11  O   UNL     1     107.034 109.508 113.442  1.00  0.00    -0.456 OA
ENDROOT
BRANCH   1  12
ATOM     12  C   UNL     1     109.308 110.068 114.070  1.00  0.00     0.021 A 
ATOM     13  C   UNL     1     110.121 110.882 114.877  1.00  0.00     0.016 A 
ATOM     14  C   UNL     1     111.462 110.555 115.093  1.00  0.00     0.051 A 
ATOM     15  C   UNL     1     112.016 109.416 114.501  1.00  0.00     0.157 A 
ATOM     16  C   UNL     1     109.874 108.929 113.465  1.00  0.00     0.062 A 
ATOM     17  C   UNL     1     111.220 108.600 113.680  1.00  0.00     0.158 A 
BRANCH  15  18
ATOM     18  O   UNL     1     113.357 109.114 114.736  1.00  0.00    -0.504 OA
ATOM     19  H   UNL     1     113.652 108.207 115.075  1.00  0.00     0.293 HD
ENDBRANCH  15  18
BRANCH  17  20
ATOM     20  O   UNL     1     111.770 107.470 113.078  1.00  0.00    -0.504 OA
ATOM     21  H   UNL     1     112.173 107.506 112.148  1.00  0.00     0.293 HD
ENDBRANCH  17  20
ENDBRANCH   1  12
BRANCH   6  22
ATOM     22  O   UNL     1     103.263 112.521 113.332  1.00  0.00    -0.507 OA
ATOM     23  H   UNL     1     103.496 113.297 112.724  1.00  0.00     0.293 HD
ENDBRANCH   6  22
BRANCH   8  24
ATOM     24  O   UNL     1     102.765 107.857 112.130  1.00  0.00    -0.508 OA
ATOM     25  H   UNL     1     102.699 107.599 111.153  1.00  0.00     0.293 HD
ENDBRANCH   8  24
TORSDOF 5
ENDMDL
MODEL 9
REMARK VINA RESULT:    -4.756      1.939      6.956
REMARK INTER + INTRA:          -5.874
REMARK INTER:                  -5.562
REMARK INTRA:                  -0.312
REMARK UNBOUND:                -0.283
REMARK SMILES O=c1cc(-c2ccc(O)c(O)c2)oc2cc(O)cc(O)c12
REMARK SMILES IDX 4 1 3 2 2 3 1 4 21 5 19 6 18 7 16 8 15 9 14 10 13 11 5 12
REMARK SMILES IDX 6 13 7 14 8 15 12 16 10 17 9 18 11 20 20 22 17 24
REMARK H PARENT 9 19 11 21 20 23 17 25
REMARK Flexibility Score: inf
ROOT
ATOM      1  C   UNL     1     110.086 107.216 113.975  1.00  0.00     0.138 A 
ATOM      2  C   UNL     1     110.456 105.998 114.568  1.00  0.00     0.100 A 
ATOM      3  C   UNL     1     111.805 105.650 114.638  1.00  0.00     0.197 A 
ATOM      4  O   UNL     1     112.128 104.554 115.171  1.00  0.00    -0.289 OA
ATOM      5  C   UNL     1     112.777 106.523 114.109  1.00  0.00     0.107 A 
ATOM      6  C   UNL     1     114.165 106.248 114.139  1.00  0.00     0.134 A 
ATOM      7  C   UNL     1     115.068 107.168 113.586  1.00  0.00     0.093 A 
ATOM      8  C   UNL     1     114.608 108.355 113.003  1.00  0.00     0.123 A 
ATOM      9  C   UNL     1     113.241 108.631 112.971  1.00  0.00     0.094 A 
ATOM     10  C   UNL     1     112.324 107.727 113.517  1.00  0.00     0.146 A 
ATOM     11  O   UNL     1     111.027 108.014 113.476  1.00  0.00    -0.456 OA
ENDROOT
BRANCH   1  12
ATOM     12  C   UNL     1     108.665 107.637 113.872  1.00  0.00     0.021 A 
ATOM     13  C   UNL     1     107.710 107.062 114.728  1.00  0.00     0.016 A 
ATOM     14  C   UNL     1     106.367 107.435 114.646  1.00  0.00     0.051 A 
ATOM     15  C   UNL     1     105.951 108.380 113.704  1.00  0.00     0.157 A 
ATOM     16  C   UNL     1     108.239 108.579 112.915  1.00  0.00     0.062 A 
ATOM     17  C   UNL     1     106.890 108.954 112.831  1.00  0.00     0.158 A 
BRANCH  15  18
ATOM     18  O   UNL     1     104.603 108.734 113.647  1.00  0.00    -0.504 OA
ATOM     19  H   UNL     1     104.300 109.649 113.337  1.00  0.00     0.293 HD
ENDBRANCH  15  18
BRANCH  17  20
ATOM     20  O   UNL     1     106.480 109.888 111.882  1.00  0.00    -0.504 OA
ATOM     21  H   UNL     1     105.958 109.614 111.057  1.00  0.00     0.293 HD
ENDBRANCH  17  20
ENDBRANCH   1  12
BRANCH   6  22
ATOM     22  O   UNL     1     114.650 105.073 114.713  1.00  0.00    -0.507 OA
ATOM     23  H   UNL     1     115.608 104.994 115.035  1.00  0.00     0.293 HD
ENDBRANCH   6  22
BRANCH   8  24
ATOM     24  O   UNL     1     115.505 109.268 112.452  1.00  0.00    -0.508 OA
ATOM     25  H   UNL     1     115.365 110.268 112.541  1.00  0.00     0.293 HD
ENDBRANCH   8  24
TORSDOF 5
ENDMDL
