MODEL 1
REMARK VINA RESULT:    -4.850      0.000      0.000
REMARK INTER + INTRA:         -13.586
REMARK INTER:                 -11.087
REMARK INTRA:                  -2.498
REMARK UNBOUND:                -2.498
REMARK SMILES CCCCCCCCCCCCCCCCCCCCCCCC(=O)[O-]
REMARK SMILES IDX 13 1 14 2 15 3 16 4 17 5 18 6 19 7 20 8 21 9 22 10 23 11
REMARK SMILES IDX 24 12 25 13 26 14 12 15 11 16 10 17 9 18 8 19 7 20 6 21 5 22
REMARK SMILES IDX 4 23 3 24 2 25 1 26
REMARK H PARENT
REMARK Flexibility Score: inf
ROOT
ATOM      1  C   UNL     1      -0.561  46.249  24.658  1.00  0.00     0.000 C 
ENDROOT
BRANCH   1   2
ATOM      2  C   UNL     1      -1.943  45.650  24.323  1.00  0.00     0.000 C 
BRANCH   2   3
ATOM      3  C   UNL     1      -3.150  46.527  24.706  1.00  0.00     0.000 C 
BRANCH   3   4
ATOM      4  C   UNL     1      -4.494  45.805  24.514  1.00  0.00     0.000 C 
BRANCH   4   5
ATOM      5  C   UNL     1      -4.330  44.303  24.221  1.00  0.00     0.000 C 
BRANCH   5   6
ATOM      6  C   UNL     1      -5.400  43.695  23.291  1.00  0.00     0.000 C 
BRANCH   6   7
ATOM      7  C   UNL     1      -6.557  44.643  22.918  1.00  0.00     0.000 C 
BRANCH   7   8
ATOM      8  C   UNL     1      -7.964  44.129  23.284  1.00  0.00     0.000 C 
BRANCH   8   9
ATOM      9  C   UNL     1      -8.132  43.667  24.744  1.00  0.00     0.000 C 
BRANCH   9  10
ATOM     10  C   UNL     1      -8.376  44.796  25.759  1.00  0.00     0.006 C 
BRANCH  10  11
ATOM     11  C   UNL     1      -7.267  44.897  26.816  1.00  0.00     0.053 C 
BRANCH  11  12
ATOM     12  C   UNL     1      -7.066  46.323  27.223  1.00  0.00     0.041 C 
ATOM     13  O   UNL     1      -7.247  47.252  26.391  1.00  0.00    -0.550 OA
ATOM     14  O   UNL     1      -6.755  46.631  28.542  1.00  0.00    -0.550 OA
ENDBRANCH  11  12
ENDBRANCH  10  11
ENDBRANCH   9  10
ENDBRANCH   8   9
ENDBRANCH   7   8
ENDBRANCH   6   7
ENDBRANCH   5   6
ENDBRANCH   4   5
ENDBRANCH   3   4
ENDBRANCH   2   3
ENDBRANCH   1   2
BRANCH   1  15
ATOM     15  C   UNL     1      -0.534  47.781  24.820  1.00  0.00     0.000 C 
BRANCH  15  16
ATOM     16  C   UNL     1      -0.259  48.508  23.491  1.00  0.00     0.000 C 
BRANCH  16  17
ATOM     17  C   UNL     1       0.347  47.587  22.418  1.00  0.00     0.000 C 
BRANCH  17  18
ATOM     18  C   UNL     1       1.124  48.306  21.296  1.00  0.00    -0.000 C 
BRANCH  18  19
ATOM     19  C   UNL     1       2.157  49.331  21.811  1.00  0.00    -0.000 C 
BRANCH  19  20
ATOM     20  C   UNL     1       1.813  50.764  21.380  1.00  0.00    -0.000 C 
BRANCH  20  21
ATOM     21  C   UNL     1       1.381  51.618  22.581  1.00  0.00    -0.000 C 
BRANCH  21  22
ATOM     22  C   UNL     1       2.532  51.890  23.567  1.00  0.00    -0.000 C 
BRANCH  22  23
ATOM     23  C   UNL     1       2.277  51.435  25.020  1.00  0.00    -0.000 C 
BRANCH  23  24
ATOM     24  C   UNL     1       2.527  49.939  25.288  1.00  0.00    -0.000 C 
BRANCH  24  25
ATOM     25  C   UNL     1       2.365  49.566  26.767  1.00  0.00    -0.003 C 
ATOM     26  C   UNL     1       3.637  48.923  27.313  1.00  0.00     0.004 C 
ENDBRANCH  24  25
ENDBRANCH  23  24
ENDBRANCH  22  23
ENDBRANCH  21  22
ENDBRANCH  20  21
ENDBRANCH  19  20
ENDBRANCH  18  19
ENDBRANCH  17  18
ENDBRANCH  16  17
ENDBRANCH  15  16
ENDBRANCH   1  15
TORSDOF 22
ENDMDL
MODEL 2
REMARK VINA RESULT:    -4.798      1.089      2.608
REMARK INTER + INTRA:         -13.467
REMARK INTER:                 -11.289
REMARK INTRA:                  -2.178
REMARK UNBOUND:                -2.498
REMARK SMILES CCCCCCCCCCCCCCCCCCCCCCCC(=O)[O-]
REMARK SMILES IDX 13 1 14 2 15 3 16 4 17 5 18 6 19 7 20 8 21 9 22 10 23 11
REMARK SMILES IDX 24 12 25 13 26 14 12 15 11 16 10 17 9 18 8 19 7 20 6 21 5 22
REMARK SMILES IDX 4 23 3 24 2 25 1 26
REMARK H PARENT
REMARK Flexibility Score: inf
ROOT
ATOM      1  C   UNL     1       0.117  48.046  22.911  1.00  0.00     0.000 C 
ENDROOT
BRANCH   1   2
ATOM      2  C   UNL     1      -0.544  46.675  23.164  1.00  0.00     0.000 C 
BRANCH   2   3
ATOM      3  C   UNL     1      -0.593  46.231  24.638  1.00  0.00     0.000 C 
BRANCH   3   4
ATOM      4  C   UNL     1      -1.739  46.891  25.421  1.00  0.00     0.000 C 
BRANCH   4   5
ATOM      5  C   UNL     1      -3.038  47.001  24.602  1.00  0.00     0.000 C 
BRANCH   5   6
ATOM      6  C   UNL     1      -4.171  46.050  25.038  1.00  0.00     0.000 C 
BRANCH   6   7
ATOM      7  C   UNL     1      -4.228  44.710  24.279  1.00  0.00     0.000 C 
BRANCH   7   8
ATOM      8  C   UNL     1      -5.595  44.374  23.652  1.00  0.00     0.000 C 
BRANCH   8   9
ATOM      9  C   UNL     1      -6.195  43.020  24.077  1.00  0.00     0.000 C 
BRANCH   9  10
ATOM     10  C   UNL     1      -7.064  43.064  25.345  1.00  0.00     0.006 C 
BRANCH  10  11
ATOM     11  C   UNL     1      -8.248  44.034  25.223  1.00  0.00     0.053 C 
BRANCH  11  12
ATOM     12  C   UNL     1      -8.224  45.025  26.345  1.00  0.00     0.041 C 
ATOM     13  O   UNL     1      -7.605  44.763  27.410  1.00  0.00    -0.550 OA
ATOM     14  O   UNL     1      -8.821  46.269  26.184  1.00  0.00    -0.550 OA
ENDBRANCH  11  12
ENDBRANCH  10  11
ENDBRANCH   9  10
ENDBRANCH   8   9
ENDBRANCH   7   8
ENDBRANCH   6   7
ENDBRANCH   5   6
ENDBRANCH   4   5
ENDBRANCH   3   4
ENDBRANCH   2   3
ENDBRANCH   1   2
BRANCH   1  15
ATOM     15  C   UNL     1       1.010  48.120  21.658  1.00  0.00     0.000 C 
BRANCH  15  16
ATOM     16  C   UNL     1       2.117  49.181  21.786  1.00  0.00     0.000 C 
BRANCH  16  17
ATOM     17  C   UNL     1       1.752  50.515  21.111  1.00  0.00     0.000 C 
BRANCH  17  18
ATOM     18  C   UNL     1       1.002  51.521  22.006  1.00  0.00    -0.000 C 
BRANCH  18  19
ATOM     19  C   UNL     1       1.846  52.751  22.406  1.00  0.00    -0.000 C 
BRANCH  19  20
ATOM     20  C   UNL     1       2.918  52.401  23.448  1.00  0.00    -0.000 C 
BRANCH  20  21
ATOM     21  C   UNL     1       2.503  52.869  24.851  1.00  0.00    -0.000 C 
BRANCH  21  22
ATOM     22  C   UNL     1       2.090  51.707  25.772  1.00  0.00    -0.000 C 
BRANCH  22  23
ATOM     23  C   UNL     1       2.483  50.300  25.276  1.00  0.00    -0.000 C 
BRANCH  23  24
ATOM     24  C   UNL     1       1.624  49.149  25.832  1.00  0.00    -0.000 C 
BRANCH  24  25
ATOM     25  C   UNL     1       2.250  48.482  27.064  1.00  0.00    -0.003 C 
ATOM     26  C   UNL     1       3.716  48.877  27.214  1.00  0.00     0.004 C 
ENDBRANCH  24  25
ENDBRANCH  23  24
ENDBRANCH  22  23
ENDBRANCH  21  22
ENDBRANCH  20  21
ENDBRANCH  19  20
ENDBRANCH  18  19
ENDBRANCH  17  18
ENDBRANCH  16  17
ENDBRANCH  15  16
ENDBRANCH   1  15
TORSDOF 22
ENDMDL
MODEL 3
REMARK VINA RESULT:    -4.798      2.851      9.844
REMARK INTER + INTRA:         -13.466
REMARK INTER:                 -11.308
REMARK INTRA:                  -2.157
REMARK UNBOUND:                -2.498
REMARK SMILES CCCCCCCCCCCCCCCCCCCCCCCC(=O)[O-]
REMARK SMILES IDX 13 1 14 2 15 3 16 4 17 5 18 6 19 7 20 8 21 9 22 10 23 11
REMARK SMILES IDX 24 12 25 13 26 14 12 15 11 16 10 17 9 18 8 19 7 20 6 21 5 22
REMARK SMILES IDX 4 23 3 24 2 25 1 26
REMARK H PARENT
REMARK Flexibility Score: inf
ROOT
ATOM      1  C   UNL     1       0.093  47.955  22.925  1.00  0.00     0.000 C 
ENDROOT
BRANCH   1   2
ATOM      2  C   UNL     1       1.022  48.074  21.700  1.00  0.00     0.000 C 
BRANCH   2   3
ATOM      3  C   UNL     1       2.129  49.140  21.815  1.00  0.00     0.000 C 
BRANCH   3   4
ATOM      4  C   UNL     1       1.712  50.497  21.225  1.00  0.00     0.000 C 
BRANCH   4   5
ATOM      5  C   UNL     1       1.437  51.560  22.304  1.00  0.00     0.000 C 
BRANCH   5   6
ATOM      6  C   UNL     1       2.690  52.252  22.878  1.00  0.00     0.000 C 
BRANCH   6   7
ATOM      7  C   UNL     1       2.573  52.701  24.348  1.00  0.00     0.000 C 
BRANCH   7   8
ATOM      8  C   UNL     1       1.938  51.664  25.296  1.00  0.00     0.000 C 
BRANCH   8   9
ATOM      9  C   UNL     1       2.679  50.316  25.382  1.00  0.00     0.000 C 
BRANCH   9  10
ATOM     10  C   UNL     1       1.787  49.103  25.698  1.00  0.00     0.006 C 
BRANCH  10  11
ATOM     11  C   UNL     1       2.366  48.210  26.804  1.00  0.00     0.053 C 
BRANCH  11  12
ATOM     12  C   UNL     1       2.485  48.978  28.083  1.00  0.00     0.041 C 
ATOM     13  O   UNL     1       3.614  49.163  28.609  1.00  0.00    -0.550 OA
ATOM     14  O   UNL     1       1.357  49.555  28.653  1.00  0.00    -0.550 OA
ENDBRANCH  11  12
ENDBRANCH  10  11
ENDBRANCH   9  10
ENDBRANCH   8   9
ENDBRANCH   7   8
ENDBRANCH   6   7
ENDBRANCH   5   6
ENDBRANCH   4   5
ENDBRANCH   3   4
ENDBRANCH   2   3
ENDBRANCH   1   2
BRANCH   1  15
ATOM     15  C   UNL     1      -0.538  46.565  23.134  1.00  0.00     0.000 C 
BRANCH  15  16
ATOM     16  C   UNL     1      -0.770  46.242  24.621  1.00  0.00     0.000 C 
BRANCH  16  17
ATOM     17  C   UNL     1      -2.042  46.898  25.187  1.00  0.00     0.000 C 
BRANCH  17  18
ATOM     18  C   UNL     1      -3.368  46.375  24.600  1.00  0.00    -0.000 C 
BRANCH  18  19
ATOM     19  C   UNL     1      -4.515  46.290  25.630  1.00  0.00    -0.000 C 
BRANCH  19  20
ATOM     20  C   UNL     1      -5.466  45.119  25.340  1.00  0.00    -0.000 C 
BRANCH  20  21
ATOM     21  C   UNL     1      -6.868  45.389  25.907  1.00  0.00    -0.000 C 
BRANCH  21  22
ATOM     22  C   UNL     1      -7.723  44.114  26.020  1.00  0.00    -0.000 C 
BRANCH  22  23
ATOM     23  C   UNL     1      -7.953  43.353  24.698  1.00  0.00    -0.000 C 
BRANCH  23  24
ATOM     24  C   UNL     1      -8.571  44.190  23.563  1.00  0.00    -0.000 C 
BRANCH  24  25
ATOM     25  C   UNL     1      -7.599  44.422  22.398  1.00  0.00    -0.003 C 
ATOM     26  C   UNL     1      -7.482  45.908  22.071  1.00  0.00     0.004 C 
ENDBRANCH  24  25
ENDBRANCH  23  24
ENDBRANCH  22  23
ENDBRANCH  21  22
ENDBRANCH  20  21
ENDBRANCH  19  20
ENDBRANCH  18  19
ENDBRANCH  17  18
ENDBRANCH  16  17
ENDBRANCH  15  16
ENDBRANCH   1  15
TORSDOF 22
ENDMDL
MODEL 4
REMARK VINA RESULT:    -4.779      2.202      4.829
REMARK INTER + INTRA:         -13.424
REMARK INTER:                  -9.931
REMARK INTRA:                  -3.493
REMARK UNBOUND:                -2.498
REMARK SMILES CCCCCCCCCCCCCCCCCCCCCCCC(=O)[O-]
REMARK SMILES IDX 13 1 14 2 15 3 16 4 17 5 18 6 19 7 20 8 21 9 22 10 23 11
REMARK SMILES IDX 24 12 25 13 26 14 12 15 11 16 10 17 9 18 8 19 7 20 6 21 5 22
REMARK SMILES IDX 4 23 3 24 2 25 1 26
REMARK H PARENT
REMARK Flexibility Score: inf
ROOT
ATOM      1  C   UNL     1       1.460  50.637  22.195  1.00  0.00     0.000 C 
ENDROOT
BRANCH   1   2
ATOM      2  C   UNL     1       2.112  49.319  21.726  1.00  0.00     0.000 C 
BRANCH   2   3
ATOM      3  C   UNL     1       1.156  48.116  21.615  1.00  0.00     0.000 C 
BRANCH   3   4
ATOM      4  C   UNL     1       0.238  47.970  22.839  1.00  0.00     0.000 C 
BRANCH   4   5
ATOM      5  C   UNL     1      -0.497  46.618  22.878  1.00  0.00     0.000 C 
BRANCH   5   6
ATOM      6  C   UNL     1      -0.863  46.111  24.288  1.00  0.00     0.000 C 
BRANCH   6   7
ATOM      7  C   UNL     1      -1.244  47.210  25.299  1.00  0.00     0.000 C 
BRANCH   7   8
ATOM      8  C   UNL     1      -2.753  47.331  25.592  1.00  0.00     0.000 C 
BRANCH   8   9
ATOM      9  C   UNL     1      -3.676  46.653  24.561  1.00  0.00     0.000 C 
BRANCH   9  10
ATOM     10  C   UNL     1      -4.457  45.438  25.088  1.00  0.00     0.006 C 
BRANCH  10  11
ATOM     11  C   UNL     1      -4.552  44.300  24.063  1.00  0.00     0.053 C 
BRANCH  11  12
ATOM     12  C   UNL     1      -5.978  44.079  23.663  1.00  0.00     0.041 C 
ATOM     13  O   UNL     1      -6.430  44.606  22.612  1.00  0.00    -0.550 OA
ATOM     14  O   UNL     1      -6.784  43.229  24.408  1.00  0.00    -0.550 OA
ENDBRANCH  11  12
ENDBRANCH  10  11
ENDBRANCH   9  10
ENDBRANCH   8   9
ENDBRANCH   7   8
ENDBRANCH   6   7
ENDBRANCH   5   6
ENDBRANCH   4   5
ENDBRANCH   3   4
ENDBRANCH   2   3
ENDBRANCH   1   2
BRANCH   1  15
ATOM     15  C   UNL     1       2.441  51.700  22.723  1.00  0.00     0.000 C 
BRANCH  15  16
ATOM     16  C   UNL     1       2.003  53.132  22.368  1.00  0.00     0.000 C 
BRANCH  16  17
ATOM     17  C   UNL     1       1.166  53.201  21.079  1.00  0.00     0.000 C 
BRANCH  17  18
ATOM     18  C   UNL     1      -0.078  54.110  21.150  1.00  0.00    -0.000 C 
BRANCH  18  19
ATOM     19  C   UNL     1      -0.922  53.912  22.427  1.00  0.00    -0.000 C 
BRANCH  19  20
ATOM     20  C   UNL     1      -1.810  52.662  22.346  1.00  0.00    -0.000 C 
BRANCH  20  21
ATOM     21  C   UNL     1      -1.681  51.805  23.614  1.00  0.00    -0.000 C 
BRANCH  21  22
ATOM     22  C   UNL     1      -1.111  52.588  24.810  1.00  0.00    -0.000 C 
BRANCH  22  23
ATOM     23  C   UNL     1       0.141  51.970  25.467  1.00  0.00    -0.000 C 
BRANCH  23  24
ATOM     24  C   UNL     1       0.097  50.441  25.646  1.00  0.00    -0.000 C 
BRANCH  24  25
ATOM     25  C   UNL     1       1.268  49.906  26.480  1.00  0.00    -0.003 C 
ATOM     26  C   UNL     1       2.357  49.324  25.584  1.00  0.00     0.004 C 
ENDBRANCH  24  25
ENDBRANCH  23  24
ENDBRANCH  22  23
ENDBRANCH  21  22
ENDBRANCH  20  21
ENDBRANCH  19  20
ENDBRANCH  18  19
ENDBRANCH  17  18
ENDBRANCH  16  17
ENDBRANCH  15  16
ENDBRANCH   1  15
TORSDOF 22
ENDMDL
MODEL 5
REMARK VINA RESULT:    -4.771      2.890      9.468
REMARK INTER + INTRA:         -13.406
REMARK INTER:                 -10.796
REMARK INTRA:                  -2.610
REMARK UNBOUND:                -2.498
REMARK SMILES CCCCCCCCCCCCCCCCCCCCCCCC(=O)[O-]
REMARK SMILES IDX 13 1 14 2 15 3 16 4 17 5 18 6 19 7 20 8 21 9 22 10 23 11
REMARK SMILES IDX 24 12 25 13 26 14 12 15 11 16 10 17 9 18 8 19 7 20 6 21 5 22
REMARK SMILES IDX 4 23 3 24 2 25 1 26
REMARK H PARENT
REMARK Flexibility Score: inf
ROOT
ATOM      1  C   UNL     1      -0.498  46.624  22.886  1.00  0.00     0.000 C 
ENDROOT
BRANCH   1   2
ATOM      2  C   UNL     1       0.208  47.987  22.739  1.00  0.00     0.000 C 
BRANCH   2   3
ATOM      3  C   UNL     1       1.212  48.086  21.574  1.00  0.00     0.000 C 
BRANCH   3   4
ATOM      4  C   UNL     1       1.848  49.481  21.453  1.00  0.00     0.000 C 
BRANCH   4   5
ATOM      5  C   UNL     1       0.851  50.619  21.733  1.00  0.00     0.000 C 
BRANCH   5   6
ATOM      6  C   UNL     1       1.372  52.038  21.427  1.00  0.00     0.000 C 
BRANCH   6   7
ATOM      7  C   UNL     1       1.776  52.867  22.663  1.00  0.00     0.000 C 
BRANCH   7   8
ATOM      8  C   UNL     1       3.074  52.409  23.358  1.00  0.00     0.000 C 
BRANCH   8   9
ATOM      9  C   UNL     1       2.906  51.944  24.817  1.00  0.00     0.000 C 
BRANCH   9  10
ATOM     10  C   UNL     1       2.396  50.502  24.984  1.00  0.00     0.006 C 
BRANCH  10  11
ATOM     11  C   UNL     1       1.662  50.281  26.314  1.00  0.00     0.053 C 
BRANCH  11  12
ATOM     12  C   UNL     1       2.333  49.200  27.103  1.00  0.00     0.041 C 
ATOM     13  O   UNL     1       1.860  48.838  28.213  1.00  0.00    -0.550 OA
ATOM     14  O   UNL     1       3.435  48.538  26.576  1.00  0.00    -0.550 OA
ENDBRANCH  11  12
ENDBRANCH  10  11
ENDBRANCH   9  10
ENDBRANCH   8   9
ENDBRANCH   7   8
ENDBRANCH   6   7
ENDBRANCH   5   6
ENDBRANCH   4   5
ENDBRANCH   3   4
ENDBRANCH   2   3
ENDBRANCH   1   2
BRANCH   1  15
ATOM     15  C   UNL     1      -0.850  46.222  24.331  1.00  0.00     0.000 C 
BRANCH  15  16
ATOM     16  C   UNL     1      -0.326  47.233  25.367  1.00  0.00     0.000 C 
BRANCH  16  17
ATOM     17  C   UNL     1      -1.446  48.074  26.004  1.00  0.00     0.000 C 
BRANCH  17  18
ATOM     18  C   UNL     1      -2.880  47.661  25.616  1.00  0.00    -0.000 C 
BRANCH  18  19
ATOM     19  C   UNL     1      -3.648  46.938  26.744  1.00  0.00    -0.000 C 
BRANCH  19  20
ATOM     20  C   UNL     1      -4.930  46.267  26.231  1.00  0.00    -0.000 C 
BRANCH  20  21
ATOM     21  C   UNL     1      -4.903  46.110  24.703  1.00  0.00    -0.000 C 
BRANCH  21  22
ATOM     22  C   UNL     1      -4.475  44.702  24.253  1.00  0.00    -0.000 C 
BRANCH  22  23
ATOM     23  C   UNL     1      -5.597  43.643  24.242  1.00  0.00    -0.000 C 
BRANCH  23  24
ATOM     24  C   UNL     1      -6.806  43.984  23.351  1.00  0.00    -0.000 C 
BRANCH  24  25
ATOM     25  C   UNL     1      -8.130  43.998  24.126  1.00  0.00    -0.003 C 
ATOM     26  C   UNL     1      -7.987  43.281  25.466  1.00  0.00     0.004 C 
ENDBRANCH  24  25
ENDBRANCH  23  24
ENDBRANCH  22  23
ENDBRANCH  21  22
ENDBRANCH  20  21
ENDBRANCH  19  20
ENDBRANCH  18  19
ENDBRANCH  17  18
ENDBRANCH  16  17
ENDBRANCH  15  16
ENDBRANCH   1  15
TORSDOF 22
ENDMDL
MODEL 6
REMARK VINA RESULT:    -4.730      1.748      4.713
REMARK INTER + INTRA:         -13.311
REMARK INTER:                 -10.325
REMARK INTRA:                  -2.986
REMARK UNBOUND:                -2.498
REMARK SMILES CCCCCCCCCCCCCCCCCCCCCCCC(=O)[O-]
REMARK SMILES IDX 13 1 14 2 15 3 16 4 17 5 18 6 19 7 20 8 21 9 22 10 23 11
REMARK SMILES IDX 24 12 25 13 26 14 12 15 11 16 10 17 9 18 8 19 7 20 6 21 5 22
REMARK SMILES IDX 4 23 3 24 2 25 1 26
REMARK H PARENT
REMARK Flexibility Score: inf
ROOT
ATOM      1  C   UNL     1       0.904  50.743  21.939  1.00  0.00     0.000 C 
ENDROOT
BRANCH   1   2
ATOM      2  C   UNL     1       1.830  49.548  21.633  1.00  0.00     0.000 C 
BRANCH   2   3
ATOM      3  C   UNL     1       1.191  48.158  21.814  1.00  0.00     0.000 C 
BRANCH   3   4
ATOM      4  C   UNL     1       0.144  48.126  22.940  1.00  0.00     0.000 C 
BRANCH   4   5
ATOM      5  C   UNL     1      -0.492  46.736  23.126  1.00  0.00     0.000 C 
BRANCH   5   6
ATOM      6  C   UNL     1      -1.092  46.471  24.522  1.00  0.00     0.000 C 
BRANCH   6   7
ATOM      7  C   UNL     1      -1.270  47.723  25.405  1.00  0.00     0.000 C 
BRANCH   7   8
ATOM      8  C   UNL     1      -2.688  47.917  25.978  1.00  0.00     0.000 C 
BRANCH   8   9
ATOM      9  C   UNL     1      -3.505  46.623  26.157  1.00  0.00     0.000 C 
BRANCH   9  10
ATOM     10  C   UNL     1      -4.740  46.503  25.248  1.00  0.00     0.006 C 
BRANCH  10  11
ATOM     11  C   UNL     1      -6.059  46.500  26.033  1.00  0.00     0.053 C 
BRANCH  11  12
ATOM     12  C   UNL     1      -6.608  45.110  26.119  1.00  0.00     0.041 C 
ATOM     13  O   UNL     1      -6.237  44.229  25.299  1.00  0.00    -0.550 OA
ATOM     14  O   UNL     1      -7.470  44.767  27.154  1.00  0.00    -0.550 OA
ENDBRANCH  11  12
ENDBRANCH  10  11
ENDBRANCH   9  10
ENDBRANCH   8   9
ENDBRANCH   7   8
ENDBRANCH   6   7
ENDBRANCH   5   6
ENDBRANCH   4   5
ENDBRANCH   3   4
ENDBRANCH   2   3
ENDBRANCH   1   2
BRANCH   1  15
ATOM     15  C   UNL     1       1.388  52.101  21.397  1.00  0.00     0.000 C 
BRANCH  15  16
ATOM     16  C   UNL     1       1.822  53.062  22.519  1.00  0.00     0.000 C 
BRANCH  16  17
ATOM     17  C   UNL     1       3.216  52.735  23.083  1.00  0.00     0.000 C 
BRANCH  17  18
ATOM     18  C   UNL     1       3.238  52.269  24.553  1.00  0.00    -0.000 C 
BRANCH  18  19
ATOM     19  C   UNL     1       1.857  52.312  25.242  1.00  0.00    -0.000 C 
BRANCH  19  20
ATOM     20  C   UNL     1       1.322  50.906  25.551  1.00  0.00    -0.000 C 
BRANCH  20  21
ATOM     21  C   UNL     1       2.416  49.843  25.371  1.00  0.00    -0.000 C 
BRANCH  21  22
ATOM     22  C   UNL     1       2.106  48.533  26.117  1.00  0.00    -0.000 C 
BRANCH  22  23
ATOM     23  C   UNL     1       2.489  48.518  27.611  1.00  0.00    -0.000 C 
BRANCH  23  24
ATOM     24  C   UNL     1       3.785  49.273  27.960  1.00  0.00    -0.000 C 
BRANCH  24  25
ATOM     25  C   UNL     1       3.603  50.262  29.119  1.00  0.00    -0.003 C 
ATOM     26  C   UNL     1       2.397  49.886  29.975  1.00  0.00     0.004 C 
ENDBRANCH  24  25
ENDBRANCH  23  24
ENDBRANCH  22  23
ENDBRANCH  21  22
ENDBRANCH  20  21
ENDBRANCH  19  20
ENDBRANCH  18  19
ENDBRANCH  17  18
ENDBRANCH  16  17
ENDBRANCH  15  16
ENDBRANCH   1  15
TORSDOF 22
ENDMDL
MODEL 7
REMARK VINA RESULT:    -4.725      1.638      3.191
REMARK INTER + INTRA:         -13.300
REMARK INTER:                 -10.868
REMARK INTRA:                  -2.432
REMARK UNBOUND:                -2.498
REMARK SMILES CCCCCCCCCCCCCCCCCCCCCCCC(=O)[O-]
REMARK SMILES IDX 13 1 14 2 15 3 16 4 17 5 18 6 19 7 20 8 21 9 22 10 23 11
REMARK SMILES IDX 24 12 25 13 26 14 12 15 11 16 10 17 9 18 8 19 7 20 6 21 5 22
REMARK SMILES IDX 4 23 3 24 2 25 1 26
REMARK H PARENT
REMARK Flexibility Score: inf
ROOT
ATOM      1  C   UNL     1       0.038  48.108  22.881  1.00  0.00     0.000 C 
ENDROOT
BRANCH   1   2
ATOM      2  C   UNL     1      -0.473  46.715  23.304  1.00  0.00     0.000 C 
BRANCH   2   3
ATOM      3  C   UNL     1      -0.694  46.528  24.817  1.00  0.00     0.000 C 
BRANCH   3   4
ATOM      4  C   UNL     1      -2.183  46.473  25.199  1.00  0.00     0.000 C 
BRANCH   4   5
ATOM      5  C   UNL     1      -2.973  45.438  24.378  1.00  0.00     0.000 C 
BRANCH   5   6
ATOM      6  C   UNL     1      -4.492  45.414  24.641  1.00  0.00     0.000 C 
BRANCH   6   7
ATOM      7  C   UNL     1      -4.955  46.218  25.872  1.00  0.00     0.000 C 
BRANCH   7   8
ATOM      8  C   UNL     1      -6.436  46.026  26.256  1.00  0.00     0.000 C 
BRANCH   8   9
ATOM      9  C   UNL     1      -6.963  44.584  26.130  1.00  0.00     0.000 C 
BRANCH   9  10
ATOM     10  C   UNL     1      -8.318  44.447  25.414  1.00  0.00     0.006 C 
BRANCH  10  11
ATOM     11  C   UNL     1      -8.172  44.199  23.906  1.00  0.00     0.053 C 
BRANCH  11  12
ATOM     12  C   UNL     1      -9.062  45.127  23.139  1.00  0.00     0.041 C 
ATOM     13  O   UNL     1      -9.023  46.367  23.356  1.00  0.00    -0.550 OA
ATOM     14  O   UNL     1      -9.878  44.630  22.131  1.00  0.00    -0.550 OA
ENDBRANCH  11  12
ENDBRANCH  10  11
ENDBRANCH   9  10
ENDBRANCH   8   9
ENDBRANCH   7   8
ENDBRANCH   6   7
ENDBRANCH   5   6
ENDBRANCH   4   5
ENDBRANCH   3   4
ENDBRANCH   2   3
ENDBRANCH   1   2
BRANCH   1  15
ATOM     15  C   UNL     1       1.004  48.113  21.681  1.00  0.00     0.000 C 
BRANCH  15  16
ATOM     16  C   UNL     1       2.122  49.160  21.831  1.00  0.00     0.000 C 
BRANCH  16  17
ATOM     17  C   UNL     1       1.748  50.528  21.232  1.00  0.00     0.000 C 
BRANCH  17  18
ATOM     18  C   UNL     1       1.309  51.595  22.255  1.00  0.00    -0.000 C 
BRANCH  18  19
ATOM     19  C   UNL     1       2.477  52.208  23.058  1.00  0.00    -0.000 C 
BRANCH  19  20
ATOM     20  C   UNL     1       2.602  51.590  24.458  1.00  0.00    -0.000 C 
BRANCH  20  21
ATOM     21  C   UNL     1       1.222  51.257  25.043  1.00  0.00    -0.000 C 
BRANCH  21  22
ATOM     22  C   UNL     1       1.195  49.909  25.786  1.00  0.00    -0.000 C 
BRANCH  22  23
ATOM     23  C   UNL     1       2.455  49.036  25.614  1.00  0.00    -0.000 C 
BRANCH  23  24
ATOM     24  C   UNL     1       3.027  48.451  26.919  1.00  0.00    -0.000 C 
BRANCH  24  25
ATOM     25  C   UNL     1       2.434  49.106  28.173  1.00  0.00    -0.003 C 
ATOM     26  C   UNL     1       3.480  49.952  28.895  1.00  0.00     0.004 C 
ENDBRANCH  24  25
ENDBRANCH  23  24
ENDBRANCH  22  23
ENDBRANCH  21  22
ENDBRANCH  20  21
ENDBRANCH  19  20
ENDBRANCH  18  19
ENDBRANCH  17  18
ENDBRANCH  16  17
ENDBRANCH  15  16
ENDBRANCH   1  15
TORSDOF 22
ENDMDL
MODEL 8
REMARK VINA RESULT:    -4.707      3.020      9.255
REMARK INTER + INTRA:         -13.259
REMARK INTER:                 -10.706
REMARK INTRA:                  -2.553
REMARK UNBOUND:                -2.498
REMARK SMILES CCCCCCCCCCCCCCCCCCCCCCCC(=O)[O-]
REMARK SMILES IDX 13 1 14 2 15 3 16 4 17 5 18 6 19 7 20 8 21 9 22 10 23 11
REMARK SMILES IDX 24 12 25 13 26 14 12 15 11 16 10 17 9 18 8 19 7 20 6 21 5 22
REMARK SMILES IDX 4 23 3 24 2 25 1 26
REMARK H PARENT
REMARK Flexibility Score: inf
ROOT
ATOM      1  C   UNL     1       0.986  51.087  21.837  1.00  0.00     0.000 C 
ENDROOT
BRANCH   1   2
ATOM      2  C   UNL     1       1.371  52.461  21.251  1.00  0.00     0.000 C 
BRANCH   2   3
ATOM      3  C   UNL     1       1.738  53.539  22.288  1.00  0.00     0.000 C 
BRANCH   3   4
ATOM      4  C   UNL     1       3.229  53.523  22.661  1.00  0.00     0.000 C 
BRANCH   4   5
ATOM      5  C   UNL     1       3.516  52.725  23.945  1.00  0.00     0.000 C 
BRANCH   5   6
ATOM      6  C   UNL     1       2.493  52.921  25.082  1.00  0.00     0.000 C 
BRANCH   6   7
ATOM      7  C   UNL     1       1.739  51.646  25.509  1.00  0.00     0.000 C 
BRANCH   7   8
ATOM      8  C   UNL     1       2.525  50.332  25.328  1.00  0.00     0.000 C 
BRANCH   8   9
ATOM      9  C   UNL     1       1.831  49.073  25.882  1.00  0.00     0.000 C 
BRANCH   9  10
ATOM     10  C   UNL     1       2.649  48.283  26.918  1.00  0.00     0.006 C 
BRANCH  10  11
ATOM     11  C   UNL     1       3.572  49.179  27.757  1.00  0.00     0.053 C 
BRANCH  11  12
ATOM     12  C   UNL     1       2.780  49.911  28.795  1.00  0.00     0.041 C 
ATOM     13  O   UNL     1       1.986  49.284  29.546  1.00  0.00    -0.550 OA
ATOM     14  O   UNL     1       2.978  51.272  28.987  1.00  0.00    -0.550 OA
ENDBRANCH  11  12
ENDBRANCH  10  11
ENDBRANCH   9  10
ENDBRANCH   8   9
ENDBRANCH   7   8
ENDBRANCH   6   7
ENDBRANCH   5   6
ENDBRANCH   4   5
ENDBRANCH   3   4
ENDBRANCH   2   3
ENDBRANCH   1   2
BRANCH   1  15
ATOM     15  C   UNL     1       2.030  49.973  21.633  1.00  0.00     0.000 C 
BRANCH  15  16
ATOM     16  C   UNL     1       1.398  48.570  21.616  1.00  0.00     0.000 C 
BRANCH  16  17
ATOM     17  C   UNL     1       0.366  48.364  22.739  1.00  0.00     0.000 C 
BRANCH  17  18
ATOM     18  C   UNL     1      -0.213  46.939  22.846  1.00  0.00    -0.000 C 
BRANCH  18  19
ATOM     19  C   UNL     1      -0.468  46.476  24.297  1.00  0.00    -0.000 C 
BRANCH  19  20
ATOM     20  C   UNL     1      -1.948  46.156  24.550  1.00  0.00    -0.000 C 
BRANCH  20  21
ATOM     21  C   UNL     1      -2.777  47.440  24.702  1.00  0.00    -0.000 C 
BRANCH  21  22
ATOM     22  C   UNL     1      -4.288  47.170  24.807  1.00  0.00    -0.000 C 
BRANCH  22  23
ATOM     23  C   UNL     1      -4.677  45.885  25.569  1.00  0.00    -0.000 C 
BRANCH  23  24
ATOM     24  C   UNL     1      -6.133  45.425  25.371  1.00  0.00    -0.000 C 
BRANCH  24  25
ATOM     25  C   UNL     1      -6.239  44.103  24.598  1.00  0.00    -0.003 C 
ATOM     26  C   UNL     1      -6.473  44.356  23.111  1.00  0.00     0.004 C 
ENDBRANCH  24  25
ENDBRANCH  23  24
ENDBRANCH  22  23
ENDBRANCH  21  22
ENDBRANCH  20  21
ENDBRANCH  19  20
ENDBRANCH  18  19
ENDBRANCH  17  18
ENDBRANCH  16  17
ENDBRANCH  15  16
ENDBRANCH   1  15
TORSDOF 22
ENDMDL
MODEL 9
REMARK VINA RESULT:    -4.674      1.879      4.210
REMARK INTER + INTRA:         -13.184
REMARK INTER:                 -10.646
REMARK INTRA:                  -2.538
REMARK UNBOUND:                -2.498
REMARK SMILES CCCCCCCCCCCCCCCCCCCCCCCC(=O)[O-]
REMARK SMILES IDX 13 1 14 2 15 3 16 4 17 5 18 6 19 7 20 8 21 9 22 10 23 11
REMARK SMILES IDX 24 12 25 13 26 14 12 15 11 16 10 17 9 18 8 19 7 20 6 21 5 22
REMARK SMILES IDX 4 23 3 24 2 25 1 26
REMARK H PARENT
REMARK Flexibility Score: inf
ROOT
ATOM      1  C   UNL     1       1.048  48.108  21.647  1.00  0.00     0.000 C 
ENDROOT
BRANCH   1   2
ATOM      2  C   UNL     1       0.099  48.055  22.862  1.00  0.00     0.000 C 
BRANCH   2   3
ATOM      3  C   UNL     1      -0.552  46.684  23.129  1.00  0.00     0.000 C 
BRANCH   3   4
ATOM      4  C   UNL     1      -0.821  46.433  24.621  1.00  0.00     0.000 C 
BRANCH   4   5
ATOM      5  C   UNL     1      -0.855  47.731  25.449  1.00  0.00     0.000 C 
BRANCH   5   6
ATOM      6  C   UNL     1      -2.095  47.902  26.351  1.00  0.00     0.000 C 
BRANCH   6   7
ATOM      7  C   UNL     1      -3.447  47.893  25.610  1.00  0.00     0.000 C 
BRANCH   7   8
ATOM      8  C   UNL     1      -4.325  46.654  25.873  1.00  0.00     0.000 C 
BRANCH   8   9
ATOM      9  C   UNL     1      -4.429  45.665  24.696  1.00  0.00     0.000 C 
BRANCH   9  10
ATOM     10  C   UNL     1      -5.765  45.701  23.934  1.00  0.00     0.006 C 
BRANCH  10  11
ATOM     11  C   UNL     1      -6.158  44.333  23.357  1.00  0.00     0.053 C 
BRANCH  11  12
ATOM     12  C   UNL     1      -7.096  43.629  24.287  1.00  0.00     0.041 C 
ATOM     13  O   UNL     1      -6.952  42.399  24.522  1.00  0.00    -0.550 OA
ATOM     14  O   UNL     1      -8.081  44.346  24.954  1.00  0.00    -0.550 OA
ENDBRANCH  11  12
ENDBRANCH  10  11
ENDBRANCH   9  10
ENDBRANCH   8   9
ENDBRANCH   7   8
ENDBRANCH   6   7
ENDBRANCH   5   6
ENDBRANCH   4   5
ENDBRANCH   3   4
ENDBRANCH   2   3
ENDBRANCH   1   2
BRANCH   1  15
ATOM     15  C   UNL     1       2.188  49.138  21.753  1.00  0.00     0.000 C 
BRANCH  15  16
ATOM     16  C   UNL     1       1.715  50.572  21.455  1.00  0.00     0.000 C 
BRANCH  16  17
ATOM     17  C   UNL     1       2.056  51.562  22.583  1.00  0.00     0.000 C 
BRANCH  17  18
ATOM     18  C   UNL     1       0.878  51.946  23.500  1.00  0.00    -0.000 C 
BRANCH  18  19
ATOM     19  C   UNL     1       0.962  51.331  24.914  1.00  0.00    -0.000 C 
BRANCH  19  20
ATOM     20  C   UNL     1       2.382  50.854  25.253  1.00  0.00    -0.000 C 
BRANCH  20  21
ATOM     21  C   UNL     1       2.415  49.338  25.497  1.00  0.00    -0.000 C 
BRANCH  21  22
ATOM     22  C   UNL     1       3.201  48.952  26.764  1.00  0.00    -0.000 C 
BRANCH  22  23
ATOM     23  C   UNL     1       2.355  48.810  28.047  1.00  0.00    -0.000 C 
BRANCH  23  24
ATOM     24  C   UNL     1       2.248  50.087  28.902  1.00  0.00    -0.000 C 
BRANCH  24  25
ATOM     25  C   UNL     1       2.967  49.960  30.251  1.00  0.00    -0.003 C 
ATOM     26  C   UNL     1       4.038  51.036  30.404  1.00  0.00     0.004 C 
ENDBRANCH  24  25
ENDBRANCH  23  24
ENDBRANCH  22  23
ENDBRANCH  21  22
ENDBRANCH  20  21
ENDBRANCH  19  20
ENDBRANCH  18  19
ENDBRANCH  17  18
ENDBRANCH  16  17
ENDBRANCH  15  16
ENDBRANCH   1  15
TORSDOF 22
ENDMDL
