MODEL 1
REMARK VINA RESULT:    -7.151      0.000      0.000
REMARK INTER + INTRA:         -12.441
REMARK INTER:                 -10.077
REMARK INTRA:                  -2.364
REMARK UNBOUND:                -2.364
REMARK SMILES O=c1c(O[C@@H]2O[C@H](CO)[C@H](O)[C@H](O)[C@H]2O)c(-c2cc(O)c(O)c(O)c2)oc2cc(O)cc(O)c12
REMARK SMILES IDX 4 1 3 2 16 3 26 4 2 5 27 6 1 7 34 8 28 9 32 10 29 11 31 12
REMARK SMILES IDX 17 13 18 14 19 15 25 16 21 17 23 18 20 19 22 21 24 23 33 25
REMARK SMILES IDX 30 27 5 29 14 30 6 31 12 32 7 33 10 34 15 35 13 37 8 39 9 40
REMARK SMILES IDX 11 42
REMARK H PARENT 20 20 22 22 24 24 33 26 30 28 15 36 13 38 9 41 11 43
REMARK Flexibility Score: inf
ROOT
ATOM      1  O   UNL     1     -37.548   7.689  81.484  1.00  0.00    -0.454 OA
ENDROOT
BRANCH   1   2
ATOM      2  C   UNL     1     -37.725   7.024  80.163  1.00  0.00     0.214 A 
ATOM      3  C   UNL     1     -38.215   5.597  79.842  1.00  0.00     0.181 A 
ATOM      4  O   UNL     1     -37.897   5.163  78.614  1.00  0.00    -0.452 OA
ATOM      5  C   UNL     1     -37.036   7.581  79.061  1.00  0.00     0.239 A 
ATOM      6  C   UNL     1     -36.587   5.390  78.434  1.00  0.00     0.146 A 
ATOM      7  O   UNL     1     -37.152   8.839  78.817  1.00  0.00    -0.285 OA
ATOM      8  C   UNL     1     -36.179   6.733  78.343  1.00  0.00     0.111 A 
ATOM      9  C   UNL     1     -35.663   4.456  78.914  1.00  0.00     0.094 A 
ATOM     10  C   UNL     1     -34.758   6.993  78.427  1.00  0.00     0.134 A 
ATOM     11  C   UNL     1     -34.456   4.881  79.454  1.00  0.00     0.123 A 
ATOM     12  C   UNL     1     -33.957   6.156  79.177  1.00  0.00     0.093 A 
BRANCH   3  13
ATOM     13  C   UNL     1     -38.990   4.558  80.691  1.00  0.00     0.029 A 
ATOM     14  C   UNL     1     -40.458   4.669  80.591  1.00  0.00     0.062 A 
ATOM     15  C   UNL     1     -41.272   3.821  81.369  1.00  0.00     0.162 A 
ATOM     16  C   UNL     1     -38.562   3.307  81.316  1.00  0.00     0.062 A 
ATOM     17  C   UNL     1     -40.713   3.073  82.454  1.00  0.00     0.200 A 
ATOM     18  C   UNL     1     -39.449   2.511  82.171  1.00  0.00     0.162 A 
BRANCH  15  19
ATOM     19  O   UNL     1     -42.490   3.397  80.824  1.00  0.00    -0.504 OA
ATOM     20  H   UNL     1     -42.517   2.519  80.389  1.00  0.00     0.293 HD
ENDBRANCH  15  19
BRANCH  17  21
ATOM     21  O   UNL     1     -41.190   3.112  83.721  1.00  0.00    -0.502 OA
ATOM     22  H   UNL     1     -42.051   2.468  83.900  1.00  0.00     0.293 HD
ENDBRANCH  17  21
BRANCH  18  23
ATOM     23  O   UNL     1     -39.082   1.312  82.636  1.00  0.00    -0.504 OA
ATOM     24  H   UNL     1     -39.456   0.995  83.477  1.00  0.00     0.293 HD
ENDBRANCH  18  23
ENDBRANCH   3  13
BRANCH  10  25
ATOM     25  O   UNL     1     -34.205   7.949  77.567  1.00  0.00    -0.507 OA
ATOM     26  H   UNL     1     -33.541   8.684  77.895  1.00  0.00     0.293 HD
ENDBRANCH  10  25
BRANCH  11  27
ATOM     27  O   UNL     1     -33.741   4.045  80.358  1.00  0.00    -0.508 OA
ATOM     28  H   UNL     1     -34.199   3.460  81.145  1.00  0.00     0.293 HD
ENDBRANCH  11  27
ENDBRANCH   1   2
BRANCH   1  29
ATOM     29  C   UNL     1     -37.083   6.972  82.760  1.00  0.00     0.339 C 
ATOM     30  C   UNL     1     -38.278   6.347  83.449  1.00  0.00     0.214 C 
ATOM     31  O   UNL     1     -36.186   5.843  82.540  1.00  0.00    -0.332 OA
ATOM     32  C   UNL     1     -37.935   5.465  84.686  1.00  0.00     0.180 C 
ATOM     33  C   UNL     1     -35.533   5.437  83.732  1.00  0.00     0.179 C 
ATOM     34  C   UNL     1     -36.582   4.658  84.761  1.00  0.00     0.177 C 
BRANCH  30  35
ATOM     35  O   UNL     1     -39.228   7.379  83.846  1.00  0.00    -0.384 OA
ATOM     36  H   UNL     1     -39.584   7.140  84.747  1.00  0.00     0.211 HD
ENDBRANCH  30  35
BRANCH  32  37
ATOM     37  O   UNL     1     -39.024   4.641  84.949  1.00  0.00    -0.387 OA
ATOM     38  H   UNL     1     -39.297   4.784  85.919  1.00  0.00     0.211 HD
ENDBRANCH  32  37
BRANCH  33  39
ATOM     39  C   UNL     1     -34.002   4.753  83.349  1.00  0.00     0.191 C 
BRANCH  39  40
ATOM     40  O   UNL     1     -33.806   3.292  83.189  1.00  0.00    -0.394 OA
ATOM     41  H   UNL     1     -33.028   2.979  83.792  1.00  0.00     0.210 HD
ENDBRANCH  39  40
ENDBRANCH  33  39
BRANCH  34  42
ATOM     42  O   UNL     1     -36.615   3.326  84.296  1.00  0.00    -0.387 OA
ATOM     43  H   UNL     1     -36.187   2.793  85.036  1.00  0.00     0.211 HD
ENDBRANCH  34  42
ENDBRANCH   1  29
TORSDOF 13
ENDMDL
MODEL 2
REMARK VINA RESULT:    -6.988      1.902      4.920
REMARK INTER + INTRA:         -12.211
REMARK INTER:                 -10.285
REMARK INTRA:                  -1.926
REMARK UNBOUND:                -2.364
REMARK SMILES O=c1c(O[C@@H]2O[C@H](CO)[C@H](O)[C@H](O)[C@H]2O)c(-c2cc(O)c(O)c(O)c2)oc2cc(O)cc(O)c12
REMARK SMILES IDX 4 1 3 2 16 3 26 4 2 5 27 6 1 7 34 8 28 9 32 10 29 11 31 12
REMARK SMILES IDX 17 13 18 14 19 15 25 16 21 17 23 18 20 19 22 21 24 23 33 25
REMARK SMILES IDX 30 27 5 29 14 30 6 31 12 32 7 33 10 34 15 35 13 37 8 39 9 40
REMARK SMILES IDX 11 42
REMARK H PARENT 20 20 22 22 24 24 33 26 30 28 15 36 13 38 9 41 11 43
REMARK Flexibility Score: inf
ROOT
ATOM      1  O   UNL     1     -36.544   3.647  79.240  1.00  0.00    -0.454 OA
ENDROOT
BRANCH   1   2
ATOM      2  C   UNL     1     -35.814   4.366  80.320  1.00  0.00     0.214 A 
ATOM      3  C   UNL     1     -36.309   4.805  81.714  1.00  0.00     0.181 A 
ATOM      4  O   UNL     1     -35.566   5.759  82.293  1.00  0.00    -0.452 OA
ATOM      5  C   UNL     1     -34.649   5.078  79.951  1.00  0.00     0.239 A 
ATOM      6  C   UNL     1     -35.397   6.739  81.393  1.00  0.00     0.146 A 
ATOM      7  O   UNL     1     -33.733   4.480  79.275  1.00  0.00    -0.285 OA
ATOM      8  C   UNL     1     -34.602   6.444  80.270  1.00  0.00     0.111 A 
ATOM      9  C   UNL     1     -36.390   7.713  81.254  1.00  0.00     0.094 A 
ATOM     10  C   UNL     1     -34.641   7.387  79.174  1.00  0.00     0.134 A 
ATOM     11  C   UNL     1     -36.696   8.226  80.000  1.00  0.00     0.123 A 
ATOM     12  C   UNL     1     -35.793   8.110  78.940  1.00  0.00     0.093 A 
BRANCH   3  13
ATOM     13  C   UNL     1     -37.529   4.362  82.561  1.00  0.00     0.029 A 
ATOM     14  C   UNL     1     -37.474   2.958  83.012  1.00  0.00     0.062 A 
ATOM     15  C   UNL     1     -38.557   2.419  83.735  1.00  0.00     0.162 A 
ATOM     16  C   UNL     1     -38.555   5.136  83.257  1.00  0.00     0.062 A 
ATOM     17  C   UNL     1     -39.813   3.106  83.781  1.00  0.00     0.200 A 
ATOM     18  C   UNL     1     -39.695   4.504  83.931  1.00  0.00     0.162 A 
BRANCH  15  19
ATOM     19  O   UNL     1     -38.280   1.469  84.725  1.00  0.00    -0.504 OA
ATOM     20  H   UNL     1     -37.356   1.397  85.045  1.00  0.00     0.293 HD
ENDBRANCH  15  19
BRANCH  17  21
ATOM     21  O   UNL     1     -40.994   2.539  83.441  1.00  0.00    -0.502 OA
ATOM     22  H   UNL     1     -41.024   2.122  82.434  1.00  0.00     0.293 HD
ENDBRANCH  17  21
BRANCH  18  23
ATOM     23  O   UNL     1     -40.558   5.218  84.663  1.00  0.00    -0.504 OA
ATOM     24  H   UNL     1     -41.086   5.912  84.229  1.00  0.00     0.293 HD
ENDBRANCH  18  23
ENDBRANCH   3  13
BRANCH  10  25
ATOM     25  O   UNL     1     -33.441   7.703  78.526  1.00  0.00    -0.507 OA
ATOM     26  H   UNL     1     -32.712   8.312  78.957  1.00  0.00     0.293 HD
ENDBRANCH  10  25
BRANCH  11  27
ATOM     27  O   UNL     1     -37.967   8.819  79.756  1.00  0.00    -0.508 OA
ATOM     28  H   UNL     1     -38.562   9.322  80.507  1.00  0.00     0.293 HD
ENDBRANCH  11  27
ENDBRANCH   1   2
BRANCH   1  29
ATOM     29  C   UNL     1     -37.950   4.020  78.748  1.00  0.00     0.339 C 
ATOM     30  C   UNL     1     -38.970   3.623  79.796  1.00  0.00     0.214 C 
ATOM     31  O   UNL     1     -38.182   5.449  78.569  1.00  0.00    -0.332 OA
ATOM     32  C   UNL     1     -40.430   4.071  79.492  1.00  0.00     0.180 C 
ATOM     33  C   UNL     1     -39.352   5.710  77.811  1.00  0.00     0.179 C 
ATOM     34  C   UNL     1     -40.727   5.397  78.693  1.00  0.00     0.177 C 
BRANCH  30  35
ATOM     35  O   UNL     1     -38.944   2.181  80.005  1.00  0.00    -0.384 OA
ATOM     36  H   UNL     1     -38.278   1.789  79.375  1.00  0.00     0.211 HD
ENDBRANCH  30  35
BRANCH  32  37
ATOM     37  O   UNL     1     -41.154   4.029  80.679  1.00  0.00    -0.387 OA
ATOM     38  H   UNL     1     -42.023   3.531  80.497  1.00  0.00     0.211 HD
ENDBRANCH  32  37
BRANCH  33  39
ATOM     39  C   UNL     1     -39.170   7.193  76.959  1.00  0.00     0.191 C 
BRANCH  39  40
ATOM     40  O   UNL     1     -39.375   7.296  75.494  1.00  0.00    -0.394 OA
ATOM     41  H   UNL     1     -38.754   8.023  75.107  1.00  0.00     0.210 HD
ENDBRANCH  39  40
ENDBRANCH  33  39
BRANCH  34  42
ATOM     42  O   UNL     1     -40.933   6.564  79.460  1.00  0.00    -0.387 OA
ATOM     43  H   UNL     1     -40.118   7.127  79.281  1.00  0.00     0.211 HD
ENDBRANCH  34  42
ENDBRANCH   1  29
TORSDOF 13
ENDMDL
MODEL 3
REMARK VINA RESULT:    -6.754     12.456     16.280
REMARK INTER + INTRA:         -11.882
REMARK INTER:                 -10.390
REMARK INTRA:                  -1.492
REMARK UNBOUND:                -2.364
REMARK SMILES O=c1c(O[C@@H]2O[C@H](CO)[C@H](O)[C@H](O)[C@H]2O)c(-c2cc(O)c(O)c(O)c2)oc2cc(O)cc(O)c12
REMARK SMILES IDX 4 1 3 2 16 3 26 4 2 5 27 6 1 7 34 8 28 9 32 10 29 11 31 12
REMARK SMILES IDX 17 13 18 14 19 15 25 16 21 17 23 18 20 19 22 21 24 23 33 25
REMARK SMILES IDX 30 27 5 29 14 30 6 31 12 32 7 33 10 34 15 35 13 37 8 39 9 40
REMARK SMILES IDX 11 42
REMARK H PARENT 20 20 22 22 24 24 33 26 30 28 15 36 13 38 9 41 11 43
REMARK Flexibility Score: inf
ROOT
ATOM      1  O   UNL     1     -47.430   0.837  70.637  1.00  0.00    -0.454 OA
ENDROOT
BRANCH   1   2
ATOM      2  C   UNL     1     -47.956   1.415  71.904  1.00  0.00     0.214 A 
ATOM      3  C   UNL     1     -47.850   2.857  72.442  1.00  0.00     0.181 A 
ATOM      4  O   UNL     1     -48.070   2.976  73.759  1.00  0.00    -0.452 OA
ATOM      5  C   UNL     1     -48.281   0.511  72.942  1.00  0.00     0.239 A 
ATOM      6  C   UNL     1     -47.313   2.059  74.379  1.00  0.00     0.146 A 
ATOM      7  O   UNL     1     -49.049  -0.488  72.690  1.00  0.00    -0.285 OA
ATOM      8  C   UNL     1     -47.658   0.709  74.184  1.00  0.00     0.111 A 
ATOM      9  C   UNL     1     -45.976   2.359  74.659  1.00  0.00     0.094 A 
ATOM     10  C   UNL     1     -46.696  -0.282  74.615  1.00  0.00     0.134 A 
ATOM     11  C   UNL     1     -45.002   1.373  74.559  1.00  0.00     0.123 A 
ATOM     12  C   UNL     1     -45.349   0.020  74.583  1.00  0.00     0.093 A 
BRANCH   3  13
ATOM     13  C   UNL     1     -47.508   4.196  71.742  1.00  0.00     0.029 A 
ATOM     14  C   UNL     1     -47.766   5.393  72.566  1.00  0.00     0.062 A 
ATOM     15  C   UNL     1     -47.556   6.672  72.015  1.00  0.00     0.162 A 
ATOM     16  C   UNL     1     -46.698   4.491  70.561  1.00  0.00     0.062 A 
ATOM     17  C   UNL     1     -47.388   6.836  70.602  1.00  0.00     0.200 A 
ATOM     18  C   UNL     1     -46.583   5.843  70.003  1.00  0.00     0.162 A 
BRANCH  15  19
ATOM     19  O   UNL     1     -47.097   7.687  72.863  1.00  0.00    -0.504 OA
ATOM     20  H   UNL     1     -47.423   8.598  72.707  1.00  0.00     0.293 HD
ENDBRANCH  15  19
BRANCH  17  21
ATOM     21  O   UNL     1     -48.131   7.679  69.847  1.00  0.00    -0.502 OA
ATOM     22  H   UNL     1     -49.187   7.714  70.113  1.00  0.00     0.293 HD
ENDBRANCH  17  21
BRANCH  18  23
ATOM     23  O   UNL     1     -45.745   6.115  68.997  1.00  0.00    -0.504 OA
ATOM     24  H   UNL     1     -44.805   5.877  69.086  1.00  0.00     0.293 HD
ENDBRANCH  18  23
ENDBRANCH   3  13
BRANCH  10  25
ATOM     25  O   UNL     1     -47.168  -1.431  75.261  1.00  0.00    -0.507 OA
ATOM     26  H   UNL     1     -47.508  -2.268  74.740  1.00  0.00     0.293 HD
ENDBRANCH  10  25
BRANCH  11  27
ATOM     27  O   UNL     1     -43.638   1.728  74.361  1.00  0.00    -0.508 OA
ATOM     28  H   UNL     1     -43.056   1.461  73.488  1.00  0.00     0.293 HD
ENDBRANCH  11  27
ENDBRANCH   1   2
BRANCH   1  29
ATOM     29  C   UNL     1     -48.308   0.277  69.509  1.00  0.00     0.339 C 
ATOM     30  C   UNL     1     -48.376   1.284  68.379  1.00  0.00     0.214 C 
ATOM     31  O   UNL     1     -47.793  -0.926  68.865  1.00  0.00    -0.332 OA
ATOM     32  C   UNL     1     -49.121   0.789  67.103  1.00  0.00     0.180 C 
ATOM     33  C   UNL     1     -48.779  -1.579  68.082  1.00  0.00     0.179 C 
ATOM     34  C   UNL     1     -49.102  -0.732  66.687  1.00  0.00     0.177 C 
BRANCH  30  35
ATOM     35  O   UNL     1     -48.989   2.522  68.841  1.00  0.00    -0.384 OA
ATOM     36  H   UNL     1     -49.602   2.850  68.125  1.00  0.00     0.211 HD
ENDBRANCH  30  35
BRANCH  32  37
ATOM     37  O   UNL     1     -48.750   1.604  66.039  1.00  0.00    -0.387 OA
ATOM     38  H   UNL     1     -47.988   1.145  65.545  1.00  0.00     0.211 HD
ENDBRANCH  32  37
BRANCH  33  39
ATOM     39  C   UNL     1     -48.456  -3.267  68.033  1.00  0.00     0.191 C 
BRANCH  39  40
ATOM     40  O   UNL     1     -47.222  -3.854  68.610  1.00  0.00    -0.394 OA
ATOM     41  H   UNL     1     -47.358  -4.865  68.763  1.00  0.00     0.210 HD
ENDBRANCH  39  40
ENDBRANCH  33  39
BRANCH  34  42
ATOM     42  O   UNL     1     -48.090  -1.127  65.786  1.00  0.00    -0.387 OA
ATOM     43  H   UNL     1     -47.689  -1.949  66.207  1.00  0.00     0.211 HD
ENDBRANCH  34  42
ENDBRANCH   1  29
TORSDOF 13
ENDMDL
MODEL 4
REMARK VINA RESULT:    -6.745      9.359     13.859
REMARK INTER + INTRA:         -11.869
REMARK INTER:                  -9.729
REMARK INTRA:                  -2.140
REMARK UNBOUND:                -2.364
REMARK SMILES O=c1c(O[C@@H]2O[C@H](CO)[C@H](O)[C@H](O)[C@H]2O)c(-c2cc(O)c(O)c(O)c2)oc2cc(O)cc(O)c12
REMARK SMILES IDX 4 1 3 2 16 3 26 4 2 5 27 6 1 7 34 8 28 9 32 10 29 11 31 12
REMARK SMILES IDX 17 13 18 14 19 15 25 16 21 17 23 18 20 19 22 21 24 23 33 25
REMARK SMILES IDX 30 27 5 29 14 30 6 31 12 32 7 33 10 34 15 35 13 37 8 39 9 40
REMARK SMILES IDX 11 42
REMARK H PARENT 20 20 22 22 24 24 33 26 30 28 15 36 13 38 9 41 11 43
REMARK Flexibility Score: inf
ROOT
ATOM      1  O   UNL     1     -44.356  -5.155  83.255  1.00  0.00    -0.454 OA
ENDROOT
BRANCH   1   2
ATOM      2  C   UNL     1     -43.257  -6.067  83.677  1.00  0.00     0.214 A 
ATOM      3  C   UNL     1     -41.737  -5.809  83.734  1.00  0.00     0.181 A 
ATOM      4  O   UNL     1     -40.986  -6.919  83.773  1.00  0.00    -0.452 OA
ATOM      5  C   UNL     1     -43.535  -7.454  83.689  1.00  0.00     0.239 A 
ATOM      6  C   UNL     1     -41.409  -7.727  82.791  1.00  0.00     0.146 A 
ATOM      7  O   UNL     1     -44.576  -7.882  84.309  1.00  0.00    -0.285 OA
ATOM      8  C   UNL     1     -42.694  -8.284  82.931  1.00  0.00     0.111 A 
ATOM      9  C   UNL     1     -40.916  -7.539  81.495  1.00  0.00     0.094 A 
ATOM     10  C   UNL     1     -43.262  -8.923  81.764  1.00  0.00     0.134 A 
ATOM     11  C   UNL     1     -41.746  -7.722  80.397  1.00  0.00     0.123 A 
ATOM     12  C   UNL     1     -42.924  -8.466  80.507  1.00  0.00     0.093 A 
BRANCH   3  13
ATOM     13  C   UNL     1     -40.913  -4.497  83.727  1.00  0.00     0.029 A 
ATOM     14  C   UNL     1     -39.453  -4.700  83.657  1.00  0.00     0.062 A 
ATOM     15  C   UNL     1     -38.595  -3.583  83.711  1.00  0.00     0.162 A 
ATOM     16  C   UNL     1     -41.301  -3.112  83.464  1.00  0.00     0.062 A 
ATOM     17  C   UNL     1     -39.090  -2.305  84.126  1.00  0.00     0.200 A 
ATOM     18  C   UNL     1     -40.366  -1.992  83.608  1.00  0.00     0.162 A 
BRANCH  15  19
ATOM     19  O   UNL     1     -37.407  -3.631  82.972  1.00  0.00    -0.504 OA
ATOM     20  H   UNL     1     -37.476  -3.712  81.998  1.00  0.00     0.293 HD
ENDBRANCH  15  19
BRANCH  17  21
ATOM     21  O   UNL     1     -38.545  -1.573  85.125  1.00  0.00    -0.502 OA
ATOM     22  H   UNL     1     -38.848  -1.877  86.127  1.00  0.00     0.293 HD
ENDBRANCH  17  21
BRANCH  18  23
ATOM     23  O   UNL     1     -40.703  -0.748  83.248  1.00  0.00    -0.504 OA
ATOM     24  H   UNL     1     -41.083  -0.149  83.915  1.00  0.00     0.293 HD
ENDBRANCH  18  23
ENDBRANCH   3  13
BRANCH  10  25
ATOM     25  O   UNL     1     -43.959 -10.125  81.937  1.00  0.00    -0.507 OA
ATOM     26  H   UNL     1     -43.824 -10.738  82.771  1.00  0.00     0.293 HD
ENDBRANCH  10  25
BRANCH  11  27
ATOM     27  O   UNL     1     -41.444  -7.094  79.156  1.00  0.00    -0.508 OA
ATOM     28  H   UNL     1     -40.510  -6.595  78.933  1.00  0.00     0.293 HD
ENDBRANCH  11  27
ENDBRANCH   1   2
BRANCH   1  29
ATOM     29  C   UNL     1     -44.989  -5.151  81.856  1.00  0.00     0.339 C 
ATOM     30  C   UNL     1     -43.944  -4.754  80.834  1.00  0.00     0.214 C 
ATOM     31  O   UNL     1     -45.453  -6.452  81.385  1.00  0.00    -0.332 OA
ATOM     32  C   UNL     1     -44.411  -4.845  79.350  1.00  0.00     0.180 C 
ATOM     33  C   UNL     1     -46.312  -6.339  80.262  1.00  0.00     0.179 C 
ATOM     34  C   UNL     1     -45.466  -5.924  78.892  1.00  0.00     0.177 C 
BRANCH  30  35
ATOM     35  O   UNL     1     -43.462  -3.406  81.102  1.00  0.00    -0.384 OA
ATOM     36  H   UNL     1     -43.079  -3.392  82.023  1.00  0.00     0.211 HD
ENDBRANCH  30  35
BRANCH  32  37
ATOM     37  O   UNL     1     -43.281  -4.873  78.540  1.00  0.00    -0.387 OA
ATOM     38  H   UNL     1     -43.137  -5.835  78.239  1.00  0.00     0.211 HD
ENDBRANCH  32  37
BRANCH  33  39
ATOM     39  C   UNL     1     -47.420  -7.654  80.249  1.00  0.00     0.191 C 
BRANCH  39  40
ATOM     40  O   UNL     1     -46.990  -9.050  79.995  1.00  0.00    -0.394 OA
ATOM     41  H   UNL     1     -47.671  -9.704  80.412  1.00  0.00     0.210 HD
ENDBRANCH  39  40
ENDBRANCH  33  39
BRANCH  34  42
ATOM     42  O   UNL     1     -44.949  -7.144  78.406  1.00  0.00    -0.387 OA
ATOM     43  H   UNL     1     -44.088  -7.269  78.913  1.00  0.00     0.211 HD
ENDBRANCH  34  42
ENDBRANCH   1  29
TORSDOF 13
ENDMDL
MODEL 5
REMARK VINA RESULT:    -6.726      1.621      2.423
REMARK INTER + INTRA:         -11.842
REMARK INTER:                  -9.474
REMARK INTRA:                  -2.369
REMARK UNBOUND:                -2.364
REMARK SMILES O=c1c(O[C@@H]2O[C@H](CO)[C@H](O)[C@H](O)[C@H]2O)c(-c2cc(O)c(O)c(O)c2)oc2cc(O)cc(O)c12
REMARK SMILES IDX 4 1 3 2 16 3 26 4 2 5 27 6 1 7 34 8 28 9 32 10 29 11 31 12
REMARK SMILES IDX 17 13 18 14 19 15 25 16 21 17 23 18 20 19 22 21 24 23 33 25
REMARK SMILES IDX 30 27 5 29 14 30 6 31 12 32 7 33 10 34 15 35 13 37 8 39 9 40
REMARK SMILES IDX 11 42
REMARK H PARENT 20 20 22 22 24 24 33 26 30 28 15 36 13 38 9 41 11 43
REMARK Flexibility Score: inf
ROOT
ATOM      1  O   UNL     1     -37.601   7.981  81.044  1.00  0.00    -0.454 OA
ENDROOT
BRANCH   1   2
ATOM      2  C   UNL     1     -37.290   7.812  79.597  1.00  0.00     0.214 A 
ATOM      3  C   UNL     1     -37.624   6.637  78.655  1.00  0.00     0.181 A 
ATOM      4  O   UNL     1     -36.886   6.594  77.536  1.00  0.00    -0.452 OA
ATOM      5  C   UNL     1     -36.258   8.614  79.058  1.00  0.00     0.239 A 
ATOM      6  C   UNL     1     -35.600   6.712  77.898  1.00  0.00     0.146 A 
ATOM      7  O   UNL     1     -36.288   9.886  79.243  1.00  0.00    -0.285 OA
ATOM      8  C   UNL     1     -35.195   7.953  78.424  1.00  0.00     0.111 A 
ATOM      9  C   UNL     1     -34.901   5.570  78.304  1.00  0.00     0.094 A 
ATOM     10  C   UNL     1     -33.900   8.001  79.066  1.00  0.00     0.134 A 
ATOM     11  C   UNL     1     -33.969   5.648  79.331  1.00  0.00     0.123 A 
ATOM     12  C   UNL     1     -33.413   6.876  79.700  1.00  0.00     0.093 A 
BRANCH   3  13
ATOM     13  C   UNL     1     -38.644   5.476  78.775  1.00  0.00     0.029 A 
ATOM     14  C   UNL     1     -38.081   4.233  79.340  1.00  0.00     0.062 A 
ATOM     15  C   UNL     1     -38.895   3.087  79.438  1.00  0.00     0.162 A 
ATOM     16  C   UNL     1     -40.105   5.463  78.733  1.00  0.00     0.062 A 
ATOM     17  C   UNL     1     -40.142   3.019  78.737  1.00  0.00     0.200 A 
ATOM     18  C   UNL     1     -40.882   4.220  78.770  1.00  0.00     0.162 A 
BRANCH  15  19
ATOM     19  O   UNL     1     -38.692   2.228  80.525  1.00  0.00    -0.504 OA
ATOM     20  H   UNL     1     -37.801   2.207  80.933  1.00  0.00     0.293 HD
ENDBRANCH  15  19
BRANCH  17  21
ATOM     21  O   UNL     1     -40.477   2.016  77.892  1.00  0.00    -0.502 OA
ATOM     22  H   UNL     1     -39.637   1.414  77.547  1.00  0.00     0.293 HD
ENDBRANCH  17  21
BRANCH  18  23
ATOM     23  O   UNL     1     -42.217   4.232  78.851  1.00  0.00    -0.504 OA
ATOM     24  H   UNL     1     -42.708   4.986  78.476  1.00  0.00     0.293 HD
ENDBRANCH  18  23
ENDBRANCH   3  13
BRANCH  10  25
ATOM     25  O   UNL     1     -33.083   9.114  78.832  1.00  0.00    -0.507 OA
ATOM     26  H   UNL     1     -32.569   9.255  77.935  1.00  0.00     0.293 HD
ENDBRANCH  10  25
BRANCH  11  27
ATOM     27  O   UNL     1     -33.617   4.485  80.072  1.00  0.00    -0.508 OA
ATOM     28  H   UNL     1     -33.014   4.490  80.970  1.00  0.00     0.293 HD
ENDBRANCH  11  27
ENDBRANCH   1   2
BRANCH   1  29
ATOM     29  C   UNL     1     -37.376   6.901  82.111  1.00  0.00     0.339 C 
ATOM     30  C   UNL     1     -38.605   6.020  82.200  1.00  0.00     0.214 C 
ATOM     31  O   UNL     1     -36.300   5.959  81.818  1.00  0.00    -0.332 OA
ATOM     32  C   UNL     1     -38.463   4.790  83.146  1.00  0.00     0.180 C 
ATOM     33  C   UNL     1     -35.920   5.209  82.960  1.00  0.00     0.179 C 
ATOM     34  C   UNL     1     -37.072   4.076  83.351  1.00  0.00     0.177 C 
BRANCH  30  35
ATOM     35  O   UNL     1     -39.762   6.806  82.608  1.00  0.00    -0.384 OA
ATOM     36  H   UNL     1     -40.582   6.336  82.291  1.00  0.00     0.211 HD
ENDBRANCH  30  35
BRANCH  32  37
ATOM     37  O   UNL     1     -39.454   3.871  82.817  1.00  0.00    -0.387 OA
ATOM     38  H   UNL     1     -39.633   3.299  83.639  1.00  0.00     0.211 HD
ENDBRANCH  32  37
BRANCH  33  39
ATOM     39  C   UNL     1     -34.261   4.774  82.838  1.00  0.00     0.191 C 
BRANCH  39  40
ATOM     40  O   UNL     1     -33.805   3.364  82.906  1.00  0.00    -0.394 OA
ATOM     41  H   UNL     1     -34.437   2.768  82.349  1.00  0.00     0.210 HD
ENDBRANCH  39  40
ENDBRANCH  33  39
BRANCH  34  42
ATOM     42  O   UNL     1     -36.796   2.979  82.507  1.00  0.00    -0.387 OA
ATOM     43  H   UNL     1     -37.668   2.803  82.035  1.00  0.00     0.211 HD
ENDBRANCH  34  42
ENDBRANCH   1  29
TORSDOF 13
ENDMDL
MODEL 6
REMARK VINA RESULT:    -6.657      1.954      5.378
REMARK INTER + INTRA:         -11.746
REMARK INTER:                  -9.725
REMARK INTRA:                  -2.021
REMARK UNBOUND:                -2.364
REMARK SMILES O=c1c(O[C@@H]2O[C@H](CO)[C@H](O)[C@H](O)[C@H]2O)c(-c2cc(O)c(O)c(O)c2)oc2cc(O)cc(O)c12
REMARK SMILES IDX 4 1 3 2 16 3 26 4 2 5 27 6 1 7 34 8 28 9 32 10 29 11 31 12
REMARK SMILES IDX 17 13 18 14 19 15 25 16 21 17 23 18 20 19 22 21 24 23 33 25
REMARK SMILES IDX 30 27 5 29 14 30 6 31 12 32 7 33 10 34 15 35 13 37 8 39 9 40
REMARK SMILES IDX 11 42
REMARK H PARENT 20 20 22 22 24 24 33 26 30 28 15 36 13 38 9 41 11 43
REMARK Flexibility Score: inf
ROOT
ATOM      1  O   UNL     1     -38.400   4.556  79.135  1.00  0.00    -0.454 OA
ENDROOT
BRANCH   1   2
ATOM      2  C   UNL     1     -37.427   5.682  79.084  1.00  0.00     0.214 A 
ATOM      3  C   UNL     1     -36.396   6.135  80.139  1.00  0.00     0.181 A 
ATOM      4  O   UNL     1     -35.950   7.389  79.978  1.00  0.00    -0.452 OA
ATOM      5  C   UNL     1     -37.677   6.712  78.148  1.00  0.00     0.239 A 
ATOM      6  C   UNL     1     -37.021   8.181  79.825  1.00  0.00     0.146 A 
ATOM      7  O   UNL     1     -37.894   6.406  76.918  1.00  0.00    -0.285 OA
ATOM      8  C   UNL     1     -37.769   8.022  78.643  1.00  0.00     0.111 A 
ATOM      9  C   UNL     1     -37.687   8.651  80.961  1.00  0.00     0.094 A 
ATOM     10  C   UNL     1     -39.064   8.665  78.596  1.00  0.00     0.134 A 
ATOM     11  C   UNL     1     -39.071   8.773  80.962  1.00  0.00     0.123 A 
ATOM     12  C   UNL     1     -39.784   8.829  79.762  1.00  0.00     0.093 A 
BRANCH   3  13
ATOM     13  C   UNL     1     -35.796   5.412  81.371  1.00  0.00     0.029 A 
ATOM     14  C   UNL     1     -34.740   6.175  82.065  1.00  0.00     0.062 A 
ATOM     15  C   UNL     1     -34.073   5.594  83.162  1.00  0.00     0.162 A 
ATOM     16  C   UNL     1     -36.279   4.278  82.157  1.00  0.00     0.062 A 
ATOM     17  C   UNL     1     -34.189   4.191  83.422  1.00  0.00     0.200 A 
ATOM     18  C   UNL     1     -35.493   3.682  83.243  1.00  0.00     0.162 A 
BRANCH  15  19
ATOM     19  O   UNL     1     -33.665   6.435  84.204  1.00  0.00    -0.504 OA
ATOM     20  H   UNL     1     -34.344   6.733  84.845  1.00  0.00     0.293 HD
ENDBRANCH  15  19
BRANCH  17  21
ATOM     21  O   UNL     1     -33.129   3.359  83.558  1.00  0.00    -0.502 OA
ATOM     22  H   UNL     1     -32.187   3.762  83.188  1.00  0.00     0.293 HD
ENDBRANCH  17  21
BRANCH  18  23
ATOM     23  O   UNL     1     -35.999   2.724  84.028  1.00  0.00    -0.504 OA
ATOM     24  H   UNL     1     -35.447   1.953  84.251  1.00  0.00     0.293 HD
ENDBRANCH  18  23
ENDBRANCH   3  13
BRANCH  10  25
ATOM     25  O   UNL     1     -39.448   9.301  77.409  1.00  0.00    -0.507 OA
ATOM     26  H   UNL     1     -39.878   8.787  76.610  1.00  0.00     0.293 HD
ENDBRANCH  10  25
BRANCH  11  27
ATOM     27  O   UNL     1     -39.792   8.772  82.190  1.00  0.00    -0.508 OA
ATOM     28  H   UNL     1     -40.264   9.644  82.623  1.00  0.00     0.293 HD
ENDBRANCH  11  27
ENDBRANCH   1   2
BRANCH   1  29
ATOM     29  C   UNL     1     -39.630   4.514  80.054  1.00  0.00     0.339 C 
ATOM     30  C   UNL     1     -40.685   3.618  79.440  1.00  0.00     0.214 C 
ATOM     31  O   UNL     1     -39.399   3.921  81.367  1.00  0.00    -0.332 OA
ATOM     32  C   UNL     1     -41.936   3.370  80.334  1.00  0.00     0.180 C 
ATOM     33  C   UNL     1     -40.450   4.207  82.276  1.00  0.00     0.179 C 
ATOM     34  C   UNL     1     -41.821   3.341  81.907  1.00  0.00     0.177 C 
BRANCH  30  35
ATOM     35  O   UNL     1     -41.115   4.152  78.154  1.00  0.00    -0.384 OA
ATOM     36  H   UNL     1     -42.112   4.183  78.150  1.00  0.00     0.211 HD
ENDBRANCH  30  35
BRANCH  32  37
ATOM     37  O   UNL     1     -42.593   2.240  79.860  1.00  0.00    -0.387 OA
ATOM     38  H   UNL     1     -43.593   2.382  79.992  1.00  0.00     0.211 HD
ENDBRANCH  32  37
BRANCH  33  39
ATOM     39  C   UNL     1     -39.833   4.240  83.881  1.00  0.00     0.191 C 
BRANCH  39  40
ATOM     40  O   UNL     1     -38.848   3.245  84.371  1.00  0.00    -0.394 OA
ATOM     41  H   UNL     1     -39.201   2.291  84.194  1.00  0.00     0.210 HD
ENDBRANCH  39  40
ENDBRANCH  33  39
BRANCH  34  42
ATOM     42  O   UNL     1     -41.617   2.077  82.501  1.00  0.00    -0.387 OA
ATOM     43  H   UNL     1     -40.633   1.901  82.380  1.00  0.00     0.211 HD
ENDBRANCH  34  42
ENDBRANCH   1  29
TORSDOF 13
ENDMDL
MODEL 7
REMARK VINA RESULT:    -6.605      2.484      5.684
REMARK INTER + INTRA:         -11.672
REMARK INTER:                  -9.287
REMARK INTRA:                  -2.385
REMARK UNBOUND:                -2.364
REMARK SMILES O=c1c(O[C@@H]2O[C@H](CO)[C@H](O)[C@H](O)[C@H]2O)c(-c2cc(O)c(O)c(O)c2)oc2cc(O)cc(O)c12
REMARK SMILES IDX 4 1 3 2 16 3 26 4 2 5 27 6 1 7 34 8 28 9 32 10 29 11 31 12
REMARK SMILES IDX 17 13 18 14 19 15 25 16 21 17 23 18 20 19 22 21 24 23 33 25
REMARK SMILES IDX 30 27 5 29 14 30 6 31 12 32 7 33 10 34 15 35 13 37 8 39 9 40
REMARK SMILES IDX 11 42
REMARK H PARENT 20 20 22 22 24 24 33 26 30 28 15 36 13 38 9 41 11 43
REMARK Flexibility Score: inf
ROOT
ATOM      1  O   UNL     1     -36.712   4.925  78.388  1.00  0.00    -0.454 OA
ENDROOT
BRANCH   1   2
ATOM      2  C   UNL     1     -38.153   4.550  78.387  1.00  0.00     0.214 A 
ATOM      3  C   UNL     1     -39.395   5.432  78.147  1.00  0.00     0.181 A 
ATOM      4  O   UNL     1     -40.546   4.906  78.592  1.00  0.00    -0.452 OA
ATOM      5  C   UNL     1     -38.508   3.343  79.032  1.00  0.00     0.239 A 
ATOM      6  C   UNL     1     -40.343   4.506  79.856  1.00  0.00     0.146 A 
ATOM      7  O   UNL     1     -37.884   2.260  78.730  1.00  0.00    -0.285 OA
ATOM      8  C   UNL     1     -39.473   3.417  80.049  1.00  0.00     0.111 A 
ATOM      9  C   UNL     1     -40.465   5.438  80.892  1.00  0.00     0.094 A 
ATOM     10  C   UNL     1     -39.037   3.160  81.404  1.00  0.00     0.134 A 
ATOM     11  C   UNL     1     -39.612   5.382  81.987  1.00  0.00     0.123 A 
ATOM     12  C   UNL     1     -38.913   4.211  82.289  1.00  0.00     0.093 A 
BRANCH   3  13
ATOM     13  C   UNL     1     -39.556   6.834  77.506  1.00  0.00     0.029 A 
ATOM     14  C   UNL     1     -40.509   7.715  78.209  1.00  0.00     0.062 A 
ATOM     15  C   UNL     1     -40.790   8.992  77.684  1.00  0.00     0.162 A 
ATOM     16  C   UNL     1     -38.730   7.557  76.541  1.00  0.00     0.062 A 
ATOM     17  C   UNL     1     -40.404   9.328  76.346  1.00  0.00     0.200 A 
ATOM     18  C   UNL     1     -39.124   8.856  75.985  1.00  0.00     0.162 A 
BRANCH  15  19
ATOM     19  O   UNL     1     -41.048  10.032  78.585  1.00  0.00    -0.504 OA
ATOM     20  H   UNL     1     -40.428  10.154  79.334  1.00  0.00     0.293 HD
ENDBRANCH  15  19
BRANCH  17  21
ATOM     21  O   UNL     1     -41.260   9.804  75.412  1.00  0.00    -0.502 OA
ATOM     22  H   UNL     1     -41.874   9.043  74.930  1.00  0.00     0.293 HD
ENDBRANCH  17  21
BRANCH  18  23
ATOM     23  O   UNL     1     -38.302   9.557  75.196  1.00  0.00    -0.504 OA
ATOM     24  H   UNL     1     -38.487   9.604  74.241  1.00  0.00     0.293 HD
ENDBRANCH  18  23
ENDBRANCH   3  13
BRANCH  10  25
ATOM     25  O   UNL     1     -38.971   1.831  81.840  1.00  0.00    -0.507 OA
ATOM     26  H   UNL     1     -39.547   1.072  81.417  1.00  0.00     0.293 HD
ENDBRANCH  10  25
BRANCH  11  27
ATOM     27  O   UNL     1     -39.385   6.542  82.780  1.00  0.00    -0.508 OA
ATOM     28  H   UNL     1     -39.477   6.575  83.857  1.00  0.00     0.293 HD
ENDBRANCH  11  27
ENDBRANCH   1   2
BRANCH   1  29
ATOM     29  C   UNL     1     -35.970   5.510  79.599  1.00  0.00     0.339 C 
ATOM     30  C   UNL     1     -36.662   6.783  80.044  1.00  0.00     0.214 C 
ATOM     31  O   UNL     1     -35.987   4.675  80.795  1.00  0.00    -0.332 OA
ATOM     32  C   UNL     1     -36.099   7.411  81.354  1.00  0.00     0.180 C 
ATOM     33  C   UNL     1     -35.028   5.093  81.753  1.00  0.00     0.179 C 
ATOM     34  C   UNL     1     -35.490   6.508  82.495  1.00  0.00     0.177 C 
BRANCH  30  35
ATOM     35  O   UNL     1     -36.621   7.778  78.980  1.00  0.00    -0.384 OA
ATOM     36  H   UNL     1     -37.014   8.624  79.334  1.00  0.00     0.211 HD
ENDBRANCH  30  35
BRANCH  32  37
ATOM     37  O   UNL     1     -37.055   8.284  81.863  1.00  0.00    -0.387 OA
ATOM     38  H   UNL     1     -37.025   9.137  81.308  1.00  0.00     0.211 HD
ENDBRANCH  32  37
BRANCH  33  39
ATOM     39  C   UNL     1     -34.510   3.740  82.680  1.00  0.00     0.191 C 
BRANCH  39  40
ATOM     40  O   UNL     1     -35.395   3.068  83.663  1.00  0.00    -0.394 OA
ATOM     41  H   UNL     1     -34.909   2.252  84.065  1.00  0.00     0.210 HD
ENDBRANCH  39  40
ENDBRANCH  33  39
BRANCH  34  42
ATOM     42  O   UNL     1     -36.374   6.104  83.518  1.00  0.00    -0.387 OA
ATOM     43  H   UNL     1     -35.790   6.025  84.335  1.00  0.00     0.211 HD
ENDBRANCH  34  42
ENDBRANCH   1  29
TORSDOF 13
ENDMDL
MODEL 8
REMARK VINA RESULT:    -6.504      2.515      6.512
REMARK INTER + INTRA:         -11.530
REMARK INTER:                  -9.520
REMARK INTRA:                  -2.010
REMARK UNBOUND:                -2.364
REMARK SMILES O=c1c(O[C@@H]2O[C@H](CO)[C@H](O)[C@H](O)[C@H]2O)c(-c2cc(O)c(O)c(O)c2)oc2cc(O)cc(O)c12
REMARK SMILES IDX 4 1 3 2 16 3 26 4 2 5 27 6 1 7 34 8 28 9 32 10 29 11 31 12
REMARK SMILES IDX 17 13 18 14 19 15 25 16 21 17 23 18 20 19 22 21 24 23 33 25
REMARK SMILES IDX 30 27 5 29 14 30 6 31 12 32 7 33 10 34 15 35 13 37 8 39 9 40
REMARK SMILES IDX 11 42
REMARK H PARENT 20 20 22 22 24 24 33 26 30 28 15 36 13 38 9 41 11 43
REMARK Flexibility Score: inf
ROOT
ATOM      1  O   UNL     1     -36.965   4.616  78.352  1.00  0.00    -0.454 OA
ENDROOT
BRANCH   1   2
ATOM      2  C   UNL     1     -38.417   4.320  78.508  1.00  0.00     0.214 A 
ATOM      3  C   UNL     1     -39.630   5.263  78.370  1.00  0.00     0.181 A 
ATOM      4  O   UNL     1     -40.754   4.810  78.944  1.00  0.00    -0.452 OA
ATOM      5  C   UNL     1     -38.766   3.149  79.220  1.00  0.00     0.239 A 
ATOM      6  C   UNL     1     -40.444   4.429  80.191  1.00  0.00     0.146 A 
ATOM      7  O   UNL     1     -38.232   2.027  78.887  1.00  0.00    -0.285 OA
ATOM      8  C   UNL     1     -39.615   3.299  80.326  1.00  0.00     0.111 A 
ATOM      9  C   UNL     1     -40.410   5.389  81.208  1.00  0.00     0.094 A 
ATOM     10  C   UNL     1     -39.056   3.049  81.637  1.00  0.00     0.134 A 
ATOM     11  C   UNL     1     -39.453   5.313  82.212  1.00  0.00     0.123 A 
ATOM     12  C   UNL     1     -38.788   4.112  82.475  1.00  0.00     0.093 A 
BRANCH   3  13
ATOM     13  C   UNL     1     -39.783   6.656  77.709  1.00  0.00     0.029 A 
ATOM     14  C   UNL     1     -40.641   7.592  78.462  1.00  0.00     0.062 A 
ATOM     15  C   UNL     1     -40.909   8.868  77.929  1.00  0.00     0.162 A 
ATOM     16  C   UNL     1     -39.006   7.323  76.666  1.00  0.00     0.062 A 
ATOM     17  C   UNL     1     -40.616   9.159  76.557  1.00  0.00     0.200 A 
ATOM     18  C   UNL     1     -39.388   8.625  76.110  1.00  0.00     0.162 A 
BRANCH  15  19
ATOM     19  O   UNL     1     -41.054   9.937  78.821  1.00  0.00    -0.504 OA
ATOM     20  H   UNL     1     -40.241  10.323  79.210  1.00  0.00     0.293 HD
ENDBRANCH  15  19
BRANCH  17  21
ATOM     21  O   UNL     1     -41.523   9.651  75.681  1.00  0.00    -0.502 OA
ATOM     22  H   UNL     1     -41.723   9.005  74.826  1.00  0.00     0.293 HD
ENDBRANCH  17  21
BRANCH  18  23
ATOM     23  O   UNL     1     -38.603   9.274  75.243  1.00  0.00    -0.504 OA
ATOM     24  H   UNL     1     -38.948   9.485  74.357  1.00  0.00     0.293 HD
ENDBRANCH  18  23
ENDBRANCH   3  13
BRANCH  10  25
ATOM     25  O   UNL     1     -39.015   1.729  82.102  1.00  0.00    -0.507 OA
ATOM     26  H   UNL     1     -38.121   1.208  82.233  1.00  0.00     0.293 HD
ENDBRANCH  10  25
BRANCH  11  27
ATOM     27  O   UNL     1     -39.085   6.477  82.945  1.00  0.00    -0.508 OA
ATOM     28  H   UNL     1     -39.353   7.487  82.664  1.00  0.00     0.293 HD
ENDBRANCH  11  27
ENDBRANCH   1   2
BRANCH   1  29
ATOM     29  C   UNL     1     -36.191   5.627  79.210  1.00  0.00     0.339 C 
ATOM     30  C   UNL     1     -34.724   5.583  78.837  1.00  0.00     0.214 C 
ATOM     31  O   UNL     1     -36.556   7.024  78.997  1.00  0.00    -0.332 OA
ATOM     32  C   UNL     1     -33.838   6.660  79.530  1.00  0.00     0.180 C 
ATOM     33  C   UNL     1     -36.067   7.868  80.027  1.00  0.00     0.179 C 
ATOM     34  C   UNL     1     -34.421   8.075  79.910  1.00  0.00     0.177 C 
BRANCH  30  35
ATOM     35  O   UNL     1     -34.173   4.261  79.110  1.00  0.00    -0.384 OA
ATOM     36  H   UNL     1     -33.839   4.254  80.050  1.00  0.00     0.211 HD
ENDBRANCH  30  35
BRANCH  32  37
ATOM     37  O   UNL     1     -32.656   6.783  78.807  1.00  0.00    -0.387 OA
ATOM     38  H   UNL     1     -32.408   7.770  78.781  1.00  0.00     0.211 HD
ENDBRANCH  32  37
BRANCH  33  39
ATOM     39  C   UNL     1     -37.115   9.219  80.212  1.00  0.00     0.191 C 
BRANCH  39  40
ATOM     40  O   UNL     1     -37.865   9.802  79.074  1.00  0.00    -0.394 OA
ATOM     41  H   UNL     1     -37.202  10.130  78.353  1.00  0.00     0.210 HD
ENDBRANCH  39  40
ENDBRANCH  33  39
BRANCH  34  42
ATOM     42  O   UNL     1     -34.257   9.102  78.955  1.00  0.00    -0.387 OA
ATOM     43  H   UNL     1     -35.190   9.444  78.795  1.00  0.00     0.211 HD
ENDBRANCH  34  42
ENDBRANCH   1  29
TORSDOF 13
ENDMDL
MODEL 9
REMARK VINA RESULT:    -6.452      1.878      6.113
REMARK INTER + INTRA:         -11.456
REMARK INTER:                  -9.339
REMARK INTRA:                  -2.117
REMARK UNBOUND:                -2.364
REMARK SMILES O=c1c(O[C@@H]2O[C@H](CO)[C@H](O)[C@H](O)[C@H]2O)c(-c2cc(O)c(O)c(O)c2)oc2cc(O)cc(O)c12
REMARK SMILES IDX 4 1 3 2 16 3 26 4 2 5 27 6 1 7 34 8 28 9 32 10 29 11 31 12
REMARK SMILES IDX 17 13 18 14 19 15 25 16 21 17 23 18 20 19 22 21 24 23 33 25
REMARK SMILES IDX 30 27 5 29 14 30 6 31 12 32 7 33 10 34 15 35 13 37 8 39 9 40
REMARK SMILES IDX 11 42
REMARK H PARENT 20 20 22 22 24 24 33 26 30 28 15 36 13 38 9 41 11 43
REMARK Flexibility Score: inf
ROOT
ATOM      1  O   UNL     1     -36.147   3.900  80.327  1.00  0.00    -0.454 OA
ENDROOT
BRANCH   1   2
ATOM      2  C   UNL     1     -36.923   4.293  79.117  1.00  0.00     0.214 A 
ATOM      3  C   UNL     1     -36.892   5.612  78.319  1.00  0.00     0.181 A 
ATOM      4  O   UNL     1     -37.963   5.815  77.538  1.00  0.00    -0.452 OA
ATOM      5  C   UNL     1     -38.100   3.561  78.838  1.00  0.00     0.239 A 
ATOM      6  C   UNL     1     -39.054   5.607  78.289  1.00  0.00     0.146 A 
ATOM      7  O   UNL     1     -38.048   2.276  78.795  1.00  0.00    -0.285 OA
ATOM      8  C   UNL     1     -39.295   4.287  78.715  1.00  0.00     0.111 A 
ATOM      9  C   UNL     1     -39.541   6.649  79.085  1.00  0.00     0.094 A 
ATOM     10  C   UNL     1     -40.299   4.102  79.740  1.00  0.00     0.134 A 
ATOM     11  C   UNL     1     -40.073   6.382  80.340  1.00  0.00     0.123 A 
ATOM     12  C   UNL     1     -40.508   5.097  80.673  1.00  0.00     0.093 A 
BRANCH   3  13
ATOM     13  C   UNL     1     -35.858   6.765  78.272  1.00  0.00     0.029 A 
ATOM     14  C   UNL     1     -34.561   6.440  78.897  1.00  0.00     0.062 A 
ATOM     15  C   UNL     1     -33.562   7.430  78.975  1.00  0.00     0.162 A 
ATOM     16  C   UNL     1     -35.804   7.984  77.467  1.00  0.00     0.062 A 
ATOM     17  C   UNL     1     -33.881   8.805  78.734  1.00  0.00     0.200 A 
ATOM     18  C   UNL     1     -34.768   9.006  77.654  1.00  0.00     0.162 A 
BRANCH  15  19
ATOM     19  O   UNL     1     -32.226   7.026  78.864  1.00  0.00    -0.504 OA
ATOM     20  H   UNL     1     -32.025   6.072  78.963  1.00  0.00     0.293 HD
ENDBRANCH  15  19
BRANCH  17  21
ATOM     21  O   UNL     1     -33.601   9.807  79.600  1.00  0.00    -0.502 OA
ATOM     22  H   UNL     1     -34.305   9.900  80.427  1.00  0.00     0.293 HD
ENDBRANCH  17  21
BRANCH  18  23
ATOM     23  O   UNL     1     -34.663  10.055  76.831  1.00  0.00    -0.504 OA
ATOM     24  H   UNL     1     -34.161   9.958  76.002  1.00  0.00     0.293 HD
ENDBRANCH  18  23
ENDBRANCH   3  13
BRANCH  10  25
ATOM     25  O   UNL     1     -41.179   3.020  79.620  1.00  0.00    -0.507 OA
ATOM     26  H   UNL     1     -40.850   2.032  79.556  1.00  0.00     0.293 HD
ENDBRANCH  10  25
BRANCH  11  27
ATOM     27  O   UNL     1     -40.119   7.401  81.333  1.00  0.00    -0.508 OA
ATOM     28  H   UNL     1     -40.331   7.227  82.379  1.00  0.00     0.293 HD
ENDBRANCH  11  27
ENDBRANCH   1   2
BRANCH   1  29
ATOM     29  C   UNL     1     -36.641   4.081  81.769  1.00  0.00     0.339 C 
ATOM     30  C   UNL     1     -36.993   5.536  82.000  1.00  0.00     0.214 C 
ATOM     31  O   UNL     1     -37.877   3.375  82.091  1.00  0.00    -0.332 OA
ATOM     32  C   UNL     1     -37.644   5.842  83.382  1.00  0.00     0.180 C 
ATOM     33  C   UNL     1     -38.102   3.301  83.489  1.00  0.00     0.179 C 
ATOM     34  C   UNL     1     -38.553   4.777  84.109  1.00  0.00     0.177 C 
BRANCH  30  35
ATOM     35  O   UNL     1     -35.813   6.374  81.831  1.00  0.00    -0.384 OA
ATOM     36  H   UNL     1     -35.251   5.974  81.111  1.00  0.00     0.211 HD
ENDBRANCH  30  35
BRANCH  32  37
ATOM     37  O   UNL     1     -38.285   7.073  83.299  1.00  0.00    -0.387 OA
ATOM     38  H   UNL     1     -38.107   7.455  82.372  1.00  0.00     0.211 HD
ENDBRANCH  32  37
BRANCH  33  39
ATOM     39  C   UNL     1     -39.000   1.880  83.855  1.00  0.00     0.191 C 
BRANCH  39  40
ATOM     40  O   UNL     1     -39.327   0.863  82.827  1.00  0.00    -0.394 OA
ATOM     41  H   UNL     1     -38.597   0.133  82.816  1.00  0.00     0.210 HD
ENDBRANCH  39  40
ENDBRANCH  33  39
BRANCH  34  42
ATOM     42  O   UNL     1     -39.940   4.860  83.864  1.00  0.00    -0.387 OA
ATOM     43  H   UNL     1     -40.216   5.731  84.287  1.00  0.00     0.211 HD
ENDBRANCH  34  42
ENDBRANCH   1  29
TORSDOF 13
ENDMDL
