MODEL 1
REMARK VINA RESULT:    -4.949      0.000      0.000
REMARK INTER + INTRA:          -4.949
REMARK INTER:                  -4.949
REMARK INTRA:                   0.000
REMARK UNBOUND:                 0.000
REMARK SMILES C[NH+]1CCN(C2=[NH+]c3ccccc3Oc3ccc(Cl)cc32)CC1
REMARK SMILES IDX 7 1 6 2 21 3 5 4 8 5 9 6 13 7 10 8 12 9 14 10 11 11 15 12
REMARK SMILES IDX 16 13 17 14 18 15 20 16 19 17 4 18 22 19 3 20 23 21 2 22
REMARK SMILES IDX 1 23
REMARK H PARENT 7 24 2 25
REMARK Flexibility Score: inf
ROOT
ATOM      1  N   UNL     1       9.933 -14.585 -27.036  1.00  0.00    -0.237 N 
ATOM      2  C   UNL     1      10.275 -15.511 -27.893  1.00  0.00     0.286 C 
ATOM      3  C   UNL     1      10.359 -16.956 -27.555  1.00  0.00     0.108 A 
ATOM      4  N   UNL     1      10.540 -15.129 -29.258  1.00  0.00    -0.250 N 
ATOM      5  C   UNL     1       9.591 -14.757 -25.650  1.00  0.00     0.168 A 
ATOM      6  C   UNL     1       8.652 -13.875 -25.083  1.00  0.00     0.056 A 
ATOM      7  C   UNL     1      10.293 -15.639 -24.803  1.00  0.00     0.173 A 
ATOM      8  C   UNL     1       8.410 -13.875 -23.708  1.00  0.00     0.005 A 
ATOM      9  C   UNL     1      10.068 -15.607 -23.421  1.00  0.00     0.052 A 
ATOM     10  O   UNL     1      11.215 -16.561 -25.290  1.00  0.00    -0.452 OA
ATOM     11  C   UNL     1       9.123 -14.736 -22.875  1.00  0.00     0.004 A 
ATOM     12  C   UNL     1      10.918 -17.417 -26.345  1.00  0.00     0.143 A 
ATOM     13  C   UNL     1      11.180 -18.782 -26.173  1.00  0.00     0.049 A 
ATOM     14  C   UNL     1      10.843 -19.702 -27.167  1.00  0.00     0.024 A 
ATOM     15  C   UNL     1      10.248 -19.261 -28.349  1.00  0.00     0.042 A 
ATOM     16  C   UNL     1      10.015 -17.897 -28.545  1.00  0.00     0.041 A 
ATOM     17  Cl  UNL     1       9.822 -20.414 -29.600  1.00  0.00    -0.084 Cl
ATOM     18  C   UNL     1       9.621 -14.248 -29.982  1.00  0.00     0.298 C 
ATOM     19  C   UNL     1      11.857 -15.386 -29.846  1.00  0.00     0.298 C 
ATOM     20  C   UNL     1       9.533 -14.685 -31.448  1.00  0.00     0.308 C 
ATOM     21  C   UNL     1      11.700 -15.787 -31.316  1.00  0.00     0.308 C 
ATOM     22  N   UNL     1      10.880 -14.799 -32.050  1.00  0.00    -0.331 N 
ATOM     23  C   UNL     1      10.769 -15.187 -33.466  1.00  0.00     0.332 C 
ATOM     24  H   UNL     1       9.860 -13.604 -27.392  1.00  0.00     0.312 HD
ATOM     25  H   UNL     1      11.352 -13.864 -32.011  1.00  0.00     0.348 HD
ENDROOT
TORSDOF 0
ENDMDL
MODEL 2
REMARK VINA RESULT:    -3.986      1.968      5.988
REMARK INTER + INTRA:          -3.986
REMARK INTER:                  -3.986
REMARK INTRA:                   0.000
REMARK UNBOUND:                 0.000
REMARK SMILES C[NH+]1CCN(C2=[NH+]c3ccccc3Oc3ccc(Cl)cc32)CC1
REMARK SMILES IDX 7 1 6 2 21 3 5 4 8 5 9 6 13 7 10 8 12 9 14 10 11 11 15 12
REMARK SMILES IDX 16 13 17 14 18 15 20 16 19 17 4 18 22 19 3 20 23 21 2 22
REMARK SMILES IDX 1 23
REMARK H PARENT 7 24 2 25
REMARK Flexibility Score: inf
ROOT
ATOM      1  N   UNL     1      11.062 -14.591 -29.375  1.00  0.00    -0.237 N 
ATOM      2  C   UNL     1      10.794 -15.360 -28.351  1.00  0.00     0.286 C 
ATOM      3  C   UNL     1      10.577 -16.827 -28.458  1.00  0.00     0.108 A 
ATOM      4  N   UNL     1      10.754 -14.773 -27.035  1.00  0.00    -0.250 N 
ATOM      5  C   UNL     1      11.189 -14.980 -30.754  1.00  0.00     0.168 A 
ATOM      6  C   UNL     1      12.085 -14.262 -31.566  1.00  0.00     0.056 A 
ATOM      7  C   UNL     1      10.320 -15.912 -31.358  1.00  0.00     0.173 A 
ATOM      8  C   UNL     1      12.125 -14.472 -32.946  1.00  0.00     0.005 A 
ATOM      9  C   UNL     1      10.343 -16.089 -32.747  1.00  0.00     0.052 A 
ATOM     10  O   UNL     1       9.426 -16.682 -30.619  1.00  0.00    -0.452 OA
ATOM     11  C   UNL     1      11.248 -15.380 -33.538  1.00  0.00     0.004 A 
ATOM     12  C   UNL     1       9.821 -17.405 -29.498  1.00  0.00     0.143 A 
ATOM     13  C   UNL     1       9.457 -18.755 -29.430  1.00  0.00     0.049 A 
ATOM     14  C   UNL     1       9.881 -19.552 -28.366  1.00  0.00     0.024 A 
ATOM     15  C   UNL     1      10.666 -19.001 -27.354  1.00  0.00     0.042 A 
ATOM     16  C   UNL     1      11.005 -17.646 -27.395  1.00  0.00     0.041 A 
ATOM     17  Cl  UNL     1      11.201 -20.000 -26.015  1.00  0.00    -0.084 Cl
ATOM     18  C   UNL     1      11.819 -13.876 -26.581  1.00  0.00     0.298 C 
ATOM     19  C   UNL     1       9.523 -14.841 -26.243  1.00  0.00     0.298 C 
ATOM     20  C   UNL     1      12.093 -14.112 -25.091  1.00  0.00     0.308 C 
ATOM     21  C   UNL     1       9.868 -15.047 -24.764  1.00  0.00     0.308 C 
ATOM     22  N   UNL     1      10.843 -14.035 -24.303  1.00  0.00    -0.331 N 
ATOM     23  C   UNL     1      11.136 -14.230 -22.874  1.00  0.00     0.332 C 
ATOM     24  H   UNL     1      11.245 -13.580 -29.181  1.00  0.00     0.312 HD
ATOM     25  H   UNL     1      10.426 -13.079 -24.416  1.00  0.00     0.348 HD
ENDROOT
TORSDOF 0
ENDMDL
MODEL 3
REMARK VINA RESULT:    -3.138      1.588      2.040
REMARK INTER + INTRA:          -3.138
REMARK INTER:                  -3.138
REMARK INTRA:                   0.000
REMARK UNBOUND:                 0.000
REMARK SMILES C[NH+]1CCN(C2=[NH+]c3ccccc3Oc3ccc(Cl)cc32)CC1
REMARK SMILES IDX 7 1 6 2 21 3 5 4 8 5 9 6 13 7 10 8 12 9 14 10 11 11 15 12
REMARK SMILES IDX 16 13 17 14 18 15 20 16 19 17 4 18 22 19 3 20 23 21 2 22
REMARK SMILES IDX 1 23
REMARK H PARENT 7 24 2 25
REMARK Flexibility Score: inf
ROOT
ATOM      1  N   UNL     1      10.181 -14.434 -28.759  1.00  0.00    -0.237 N 
ATOM      2  C   UNL     1      10.603 -15.207 -29.725  1.00  0.00     0.286 C 
ATOM      3  C   UNL     1      10.935 -16.645 -29.543  1.00  0.00     0.108 A 
ATOM      4  N   UNL     1      10.710 -14.660 -31.054  1.00  0.00    -0.250 N 
ATOM      5  C   UNL     1       9.965 -14.789 -27.382  1.00  0.00     0.168 A 
ATOM      6  C   UNL     1       8.942 -14.129 -26.678  1.00  0.00     0.056 A 
ATOM      7  C   UNL     1      10.853 -15.622 -26.669  1.00  0.00     0.173 A 
ATOM      8  C   UNL     1       8.798 -14.298 -25.299  1.00  0.00     0.005 A 
ATOM      9  C   UNL     1      10.722 -15.757 -25.282  1.00  0.00     0.052 A 
ATOM     10  O   UNL     1      11.873 -16.331 -27.298  1.00  0.00    -0.452 OA
ATOM     11  C   UNL     1       9.693 -15.106 -24.599  1.00  0.00     0.004 A 
ATOM     12  C   UNL     1      11.642 -17.121 -28.420  1.00  0.00     0.143 A 
ATOM     13  C   UNL     1      12.125 -18.435 -28.405  1.00  0.00     0.049 A 
ATOM     14  C   UNL     1      11.868 -19.300 -29.469  1.00  0.00     0.024 A 
ATOM     15  C   UNL     1      11.131 -18.852 -30.566  1.00  0.00     0.042 A 
ATOM     16  C   UNL     1      10.675 -17.532 -30.606  1.00  0.00     0.041 A 
ATOM     17  Cl  UNL     1      10.805 -19.936 -31.906  1.00  0.00    -0.084 Cl
ATOM     18  C   UNL     1       9.617 -13.875 -31.633  1.00  0.00     0.298 C 
ATOM     19  C   UNL     1      12.008 -14.644 -31.734  1.00  0.00     0.298 C 
ATOM     20  C   UNL     1       9.498 -14.181 -33.130  1.00  0.00     0.308 C 
ATOM     21  C   UNL     1      11.815 -14.924 -33.228  1.00  0.00     0.308 C 
ATOM     22  N   UNL     1      10.801 -14.018 -33.810  1.00  0.00    -0.331 N 
ATOM     23  C   UNL     1      10.655 -14.283 -35.251  1.00  0.00     0.332 C 
ATOM     24  H   UNL     1       9.930 -13.449 -29.006  1.00  0.00     0.312 HD
ATOM     25  H   UNL     1      11.123 -13.026 -33.699  1.00  0.00     0.348 HD
ENDROOT
TORSDOF 0
ENDMDL
MODEL 4
REMARK VINA RESULT:    -2.231      1.990      2.862
REMARK INTER + INTRA:          -2.231
REMARK INTER:                  -2.231
REMARK INTRA:                   0.000
REMARK UNBOUND:                 0.000
REMARK SMILES C[NH+]1CCN(C2=[NH+]c3ccccc3Oc3ccc(Cl)cc32)CC1
REMARK SMILES IDX 7 1 6 2 21 3 5 4 8 5 9 6 13 7 10 8 12 9 14 10 11 11 15 12
REMARK SMILES IDX 16 13 17 14 18 15 20 16 19 17 4 18 22 19 3 20 23 21 2 22
REMARK SMILES IDX 1 23
REMARK H PARENT 7 24 2 25
REMARK Flexibility Score: inf
ROOT
ATOM      1  N   UNL     1      10.445 -15.748 -28.797  1.00  0.00    -0.237 N 
ATOM      2  C   UNL     1      10.731 -16.251 -29.969  1.00  0.00     0.286 C 
ATOM      3  C   UNL     1      10.972 -17.699 -30.207  1.00  0.00     0.108 A 
ATOM      4  N   UNL     1      10.770 -15.372 -31.111  1.00  0.00    -0.250 N 
ATOM      5  C   UNL     1      10.317 -16.450 -27.549  1.00  0.00     0.168 A 
ATOM      6  C   UNL     1       9.404 -15.956 -26.600  1.00  0.00     0.056 A 
ATOM      7  C   UNL     1      11.197 -17.486 -27.171  1.00  0.00     0.173 A 
ATOM      8  C   UNL     1       9.360 -16.484 -25.307  1.00  0.00     0.005 A 
ATOM      9  C   UNL     1      11.168 -17.984 -25.863  1.00  0.00     0.052 A 
ATOM     10  O   UNL     1      12.108 -18.048 -28.061  1.00  0.00    -0.452 OA
ATOM     11  C   UNL     1      10.247 -17.492 -24.936  1.00  0.00     0.004 A 
ATOM     12  C   UNL     1      11.730 -18.494 -29.324  1.00  0.00     0.143 A 
ATOM     13  C   UNL     1      12.117 -19.785 -29.703  1.00  0.00     0.049 A 
ATOM     14  C   UNL     1      11.713 -20.317 -30.928  1.00  0.00     0.024 A 
ATOM     15  C   UNL     1      10.924 -19.555 -31.791  1.00  0.00     0.042 A 
ATOM     16  C   UNL     1      10.563 -18.253 -31.436  1.00  0.00     0.041 A 
ATOM     17  Cl  UNL     1      10.414 -20.221 -33.331  1.00  0.00    -0.084 Cl
ATOM     18  C   UNL     1       9.693 -14.409 -31.353  1.00  0.00     0.298 C 
ATOM     19  C   UNL     1      12.006 -15.235 -31.885  1.00  0.00     0.298 C 
ATOM     20  C   UNL     1       9.432 -14.294 -32.859  1.00  0.00     0.308 C 
ATOM     21  C   UNL     1      11.673 -15.093 -33.374  1.00  0.00     0.308 C 
ATOM     22  N   UNL     1      10.684 -14.016 -33.595  1.00  0.00    -0.331 N 
ATOM     23  C   UNL     1      10.403 -13.875 -35.033  1.00  0.00     0.332 C 
ATOM     24  H   UNL     1      10.247 -14.722 -28.750  1.00  0.00     0.312 HD
ATOM     25  H   UNL     1      11.085 -13.107 -33.258  1.00  0.00     0.348 HD
ENDROOT
TORSDOF 0
ENDMDL
