MODEL 1
REMARK VINA RESULT:    -5.679      0.000      0.000
REMARK INTER + INTRA:         -10.338
REMARK INTER:                  -8.833
REMARK INTRA:                  -1.505
REMARK UNBOUND:                -1.505
REMARK SMILES COc1cc(CNC(=O)CCCCC=CC(C)C)ccc1O
REMARK SMILES IDX 11 1 12 2 13 3 14 4 15 5 16 6 17 7 18 8 10 9 8 10 9 11 7 12
REMARK SMILES IDX 6 14 5 15 4 16 19 17 3 18 20 19 21 20 2 21 1 22 22 23
REMARK H PARENT 7 13 22 24
REMARK Flexibility Score: inf
ROOT
ATOM      1  C   UNL     1       5.632 -21.025  -7.088  1.00  0.00     0.010 C 
ENDROOT
BRANCH   1   2
ATOM      2  C   UNL     1       4.566 -19.919  -7.142  1.00  0.00     0.005 C 
BRANCH   2   3
ATOM      3  C   UNL     1       3.368 -20.296  -8.032  1.00  0.00     0.027 C 
BRANCH   3   4
ATOM      4  C   UNL     1       2.174 -20.657  -7.192  1.00  0.00    -0.031 C 
ATOM      5  C   UNL     1       1.466 -21.778  -7.423  1.00  0.00    -0.028 C 
BRANCH   5   6
ATOM      6  C   UNL     1       0.254 -22.161  -6.603  1.00  0.00     0.005 C 
ATOM      7  C   UNL     1       0.157 -23.684  -6.444  1.00  0.00     0.012 C 
ATOM      8  C   UNL     1       0.250 -21.460  -5.236  1.00  0.00     0.012 C 
ENDBRANCH   5   6
ENDBRANCH   3   4
ENDBRANCH   2   3
ENDBRANCH   1   2
BRANCH   1   9
ATOM      9  C   UNL     1       5.438 -21.976  -5.896  1.00  0.00     0.100 C 
BRANCH   9  10
ATOM     10  C   UNL     1       5.689 -21.248  -4.611  1.00  0.00     0.220 C 
ATOM     11  O   UNL     1       6.850 -20.825  -4.349  1.00  0.00    -0.275 OA
ATOM     12  N   UNL     1       4.604 -20.993  -3.713  1.00  0.00    -0.352 N 
ATOM     13  H   UNL     1       3.669 -21.405  -3.928  1.00  0.00     0.163 HD
BRANCH  12  14
ATOM     14  C   UNL     1       4.678 -19.974  -2.670  1.00  0.00     0.151 C 
BRANCH  14  15
ATOM     15  C   UNL     1       3.573 -18.970  -2.862  1.00  0.00    -0.025 A 
ATOM     16  C   UNL     1       3.395 -17.938  -1.922  1.00  0.00     0.056 A 
ATOM     17  C   UNL     1       2.682 -19.086  -3.938  1.00  0.00     0.009 A 
ATOM     18  C   UNL     1       2.340 -17.013  -2.063  1.00  0.00     0.160 A 
ATOM     19  C   UNL     1       1.636 -18.168  -4.083  1.00  0.00     0.050 A 
ATOM     20  C   UNL     1       1.459 -17.135  -3.153  1.00  0.00     0.157 A 
BRANCH  18  21
ATOM     21  O   UNL     1       2.143 -15.968  -1.144  1.00  0.00    -0.493 OA
ATOM     22  C   UNL     1       3.192 -15.269  -0.481  1.00  0.00     0.278 C 
ENDBRANCH  18  21
BRANCH  20  23
ATOM     23  O   UNL     1       0.404 -16.238  -3.329  1.00  0.00    -0.504 OA
ATOM     24  H   UNL     1      -0.177 -15.931  -2.562  1.00  0.00     0.293 HD
ENDBRANCH  20  23
ENDBRANCH  14  15
ENDBRANCH  12  14
ENDBRANCH   9  10
ENDBRANCH   1   9
TORSDOF 10
ENDMDL
MODEL 2
REMARK VINA RESULT:    -5.639      2.090      3.459
REMARK INTER + INTRA:         -10.276
REMARK INTER:                  -8.410
REMARK INTRA:                  -1.866
REMARK UNBOUND:                -1.505
REMARK SMILES COc1cc(CNC(=O)CCCCC=CC(C)C)ccc1O
REMARK SMILES IDX 11 1 12 2 13 3 14 4 15 5 16 6 17 7 18 8 10 9 8 10 9 11 7 12
REMARK SMILES IDX 6 14 5 15 4 16 19 17 3 18 20 19 21 20 2 21 1 22 22 23
REMARK H PARENT 7 13 22 24
REMARK Flexibility Score: inf
ROOT
ATOM      1  C   UNL     1       1.943 -20.593  -7.983  1.00  0.00     0.010 C 
ENDROOT
BRANCH   1   2
ATOM      2  C   UNL     1       1.241 -21.936  -7.729  1.00  0.00     0.005 C 
BRANCH   2   3
ATOM      3  C   UNL     1       0.172 -21.845  -6.626  1.00  0.00     0.027 C 
BRANCH   3   4
ATOM      4  C   UNL     1       0.805 -21.543  -5.296  1.00  0.00    -0.031 C 
ATOM      5  C   UNL     1       0.404 -20.499  -4.548  1.00  0.00    -0.028 C 
BRANCH   5   6
ATOM      6  C   UNL     1       1.030 -20.164  -3.211  1.00  0.00     0.005 C 
ATOM      7  C   UNL     1       0.499 -21.088  -2.109  1.00  0.00     0.012 C 
ATOM      8  C   UNL     1       2.564 -20.205  -3.279  1.00  0.00     0.012 C 
ENDBRANCH   5   6
ENDBRANCH   3   4
ENDBRANCH   2   3
ENDBRANCH   1   2
BRANCH   1   9
ATOM      9  C   UNL     1       3.403 -20.588  -7.502  1.00  0.00     0.100 C 
BRANCH   9  10
ATOM     10  C   UNL     1       3.715 -19.291  -6.819  1.00  0.00     0.220 C 
ATOM     11  O   UNL     1       4.918 -18.941  -6.662  1.00  0.00    -0.275 OA
ATOM     12  N   UNL     1       2.649 -18.436  -6.393  1.00  0.00    -0.352 N 
ATOM     13  H   UNL     1       1.667 -18.778  -6.482  1.00  0.00     0.163 HD
BRANCH  12  14
ATOM     14  C   UNL     1       2.856 -17.021  -6.096  1.00  0.00     0.151 C 
BRANCH  14  15
ATOM     15  C   UNL     1       2.803 -16.801  -4.608  1.00  0.00    -0.025 A 
ATOM     16  C   UNL     1       3.973 -16.940  -3.839  1.00  0.00     0.056 A 
ATOM     17  C   UNL     1       1.588 -16.516  -3.971  1.00  0.00     0.009 A 
ATOM     18  C   UNL     1       3.935 -16.779  -2.439  1.00  0.00     0.160 A 
ATOM     19  C   UNL     1       1.546 -16.351  -2.583  1.00  0.00     0.050 A 
ATOM     20  C   UNL     1       2.710 -16.482  -1.814  1.00  0.00     0.157 A 
BRANCH  18  21
ATOM     21  O   UNL     1       5.089 -16.904  -1.646  1.00  0.00    -0.493 OA
ATOM     22  C   UNL     1       6.296 -17.527  -2.074  1.00  0.00     0.278 C 
ENDBRANCH  18  21
BRANCH  20  23
ATOM     23  O   UNL     1       2.631 -16.312  -0.431  1.00  0.00    -0.504 OA
ATOM     24  H   UNL     1       1.778 -16.477   0.086  1.00  0.00     0.293 HD
ENDBRANCH  20  23
ENDBRANCH  14  15
ENDBRANCH  12  14
ENDBRANCH   9  10
ENDBRANCH   1   9
TORSDOF 10
ENDMDL
MODEL 3
REMARK VINA RESULT:    -5.493      2.195      4.226
REMARK INTER + INTRA:         -10.048
REMARK INTER:                  -8.345
REMARK INTRA:                  -1.703
REMARK UNBOUND:                -1.505
REMARK SMILES COc1cc(CNC(=O)CCCCC=CC(C)C)ccc1O
REMARK SMILES IDX 11 1 12 2 13 3 14 4 15 5 16 6 17 7 18 8 10 9 8 10 9 11 7 12
REMARK SMILES IDX 6 14 5 15 4 16 19 17 3 18 20 19 21 20 2 21 1 22 22 23
REMARK H PARENT 7 13 22 24
REMARK Flexibility Score: inf
ROOT
ATOM      1  C   UNL     1       1.653 -20.644  -8.194  1.00  0.00     0.010 C 
ENDROOT
BRANCH   1   2
ATOM      2  C   UNL     1       3.137 -20.377  -7.899  1.00  0.00     0.005 C 
BRANCH   2   3
ATOM      3  C   UNL     1       3.340 -19.349  -6.772  1.00  0.00     0.027 C 
BRANCH   3   4
ATOM      4  C   UNL     1       4.196 -19.922  -5.676  1.00  0.00    -0.031 C 
ATOM      5  C   UNL     1       5.145 -20.840  -5.935  1.00  0.00    -0.028 C 
BRANCH   5   6
ATOM      6  C   UNL     1       6.014 -21.444  -4.852  1.00  0.00     0.005 C 
ATOM      7  C   UNL     1       7.497 -21.150  -5.111  1.00  0.00     0.012 C 
ATOM      8  C   UNL     1       5.589 -20.968  -3.455  1.00  0.00     0.012 C 
ENDBRANCH   5   6
ENDBRANCH   3   4
ENDBRANCH   2   3
ENDBRANCH   1   2
BRANCH   1   9
ATOM      9  C   UNL     1       1.239 -22.093  -7.890  1.00  0.00     0.100 C 
BRANCH   9  10
ATOM     10  C   UNL     1       0.618 -22.175  -6.529  1.00  0.00     0.220 C 
ATOM     11  O   UNL     1       0.197 -23.285  -6.100  1.00  0.00    -0.275 OA
ATOM     12  N   UNL     1       0.548 -21.006  -5.706  1.00  0.00    -0.352 N 
ATOM     13  H   UNL     1       0.849 -20.091  -6.109  1.00  0.00     0.163 HD
BRANCH  12  14
ATOM     14  C   UNL     1       0.336 -21.080  -4.263  1.00  0.00     0.151 C 
BRANCH  14  15
ATOM     15  C   UNL     1       1.102 -19.979  -3.580  1.00  0.00    -0.025 A 
ATOM     16  C   UNL     1       0.913 -18.643  -3.979  1.00  0.00     0.056 A 
ATOM     17  C   UNL     1       2.047 -20.277  -2.588  1.00  0.00     0.009 A 
ATOM     18  C   UNL     1       1.652 -17.603  -3.379  1.00  0.00     0.160 A 
ATOM     19  C   UNL     1       2.780 -19.248  -1.988  1.00  0.00     0.050 A 
ATOM     20  C   UNL     1       2.590 -17.916  -2.377  1.00  0.00     0.157 A 
BRANCH  18  21
ATOM     21  O   UNL     1       1.479 -16.260  -3.751  1.00  0.00    -0.493 OA
ATOM     22  C   UNL     1       0.477 -15.399  -3.219  1.00  0.00     0.278 C 
ENDBRANCH  18  21
BRANCH  20  23
ATOM     23  O   UNL     1       3.340 -16.915  -1.757  1.00  0.00    -0.504 OA
ATOM     24  H   UNL     1       3.987 -16.331  -2.268  1.00  0.00     0.293 HD
ENDBRANCH  20  23
ENDBRANCH  14  15
ENDBRANCH  12  14
ENDBRANCH   9  10
ENDBRANCH   1   9
TORSDOF 10
ENDMDL
MODEL 4
REMARK VINA RESULT:    -5.479      2.122      5.070
REMARK INTER + INTRA:         -10.028
REMARK INTER:                  -8.295
REMARK INTRA:                  -1.733
REMARK UNBOUND:                -1.505
REMARK SMILES COc1cc(CNC(=O)CCCCC=CC(C)C)ccc1O
REMARK SMILES IDX 11 1 12 2 13 3 14 4 15 5 16 6 17 7 18 8 10 9 8 10 9 11 7 12
REMARK SMILES IDX 6 14 5 15 4 16 19 17 3 18 20 19 21 20 2 21 1 22 22 23
REMARK H PARENT 7 13 22 24
REMARK Flexibility Score: inf
ROOT
ATOM      1  C   UNL     1       1.090 -17.205  -3.233  1.00  0.00     0.010 C 
ENDROOT
BRANCH   1   2
ATOM      2  C   UNL     1       1.354 -18.483  -4.045  1.00  0.00     0.005 C 
BRANCH   2   3
ATOM      3  C   UNL     1       0.510 -19.675  -3.561  1.00  0.00     0.027 C 
BRANCH   3   4
ATOM      4  C   UNL     1       0.539 -20.791  -4.570  1.00  0.00    -0.031 C 
ATOM      5  C   UNL     1       1.258 -20.695  -5.703  1.00  0.00    -0.028 C 
BRANCH   5   6
ATOM      6  C   UNL     1       1.298 -21.795  -6.741  1.00  0.00     0.005 C 
ATOM      7  C   UNL     1       0.164 -22.803  -6.517  1.00  0.00     0.012 C 
ATOM      8  C   UNL     1       1.264 -21.229  -8.168  1.00  0.00     0.012 C 
ENDBRANCH   5   6
ENDBRANCH   3   4
ENDBRANCH   2   3
ENDBRANCH   1   2
BRANCH   1   9
ATOM      9  C   UNL     1       1.499 -15.929  -3.986  1.00  0.00     0.100 C 
BRANCH   9  10
ATOM     10  C   UNL     1       2.947 -15.996  -4.362  1.00  0.00     0.220 C 
ATOM     11  O   UNL     1       3.831 -15.790  -3.484  1.00  0.00    -0.275 OA
ATOM     12  N   UNL     1       3.321 -16.340  -5.700  1.00  0.00    -0.352 N 
ATOM     13  H   UNL     1       2.570 -16.447  -6.418  1.00  0.00     0.163 HD
BRANCH  12  14
ATOM     14  C   UNL     1       4.662 -16.808  -6.039  1.00  0.00     0.151 C 
BRANCH  14  15
ATOM     15  C   UNL     1       4.710 -18.310  -5.961  1.00  0.00    -0.025 A 
ATOM     16  C   UNL     1       4.877 -18.941  -4.714  1.00  0.00     0.056 A 
ATOM     17  C   UNL     1       4.649 -19.089  -7.125  1.00  0.00     0.009 A 
ATOM     18  C   UNL     1       4.966 -20.345  -4.626  1.00  0.00     0.160 A 
ATOM     19  C   UNL     1       4.733 -20.482  -7.042  1.00  0.00     0.050 A 
ATOM     20  C   UNL     1       4.893 -21.114  -5.802  1.00  0.00     0.157 A 
BRANCH  18  21
ATOM     21  O   UNL     1       5.125 -21.002  -3.394  1.00  0.00    -0.493 OA
ATOM     22  C   UNL     1       6.034 -20.595  -2.375  1.00  0.00     0.278 C 
ENDBRANCH  18  21
BRANCH  20  23
ATOM     23  O   UNL     1       4.974 -22.507  -5.757  1.00  0.00    -0.504 OA
ATOM     24  H   UNL     1       5.171 -23.009  -4.902  1.00  0.00     0.293 HD
ENDBRANCH  20  23
ENDBRANCH  14  15
ENDBRANCH  12  14
ENDBRANCH   9  10
ENDBRANCH   1   9
TORSDOF 10
ENDMDL
MODEL 5
REMARK VINA RESULT:    -5.479      2.198      5.863
REMARK INTER + INTRA:         -10.027
REMARK INTER:                  -8.499
REMARK INTRA:                  -1.528
REMARK UNBOUND:                -1.505
REMARK SMILES COc1cc(CNC(=O)CCCCC=CC(C)C)ccc1O
REMARK SMILES IDX 11 1 12 2 13 3 14 4 15 5 16 6 17 7 18 8 10 9 8 10 9 11 7 12
REMARK SMILES IDX 6 14 5 15 4 16 19 17 3 18 20 19 21 20 2 21 1 22 22 23
REMARK H PARENT 7 13 22 24
REMARK Flexibility Score: inf
ROOT
ATOM      1  C   UNL     1       2.732 -19.567  -2.505  1.00  0.00     0.010 C 
ENDROOT
BRANCH   1   2
ATOM      2  C   UNL     1       1.422 -20.371  -2.544  1.00  0.00     0.005 C 
BRANCH   2   3
ATOM      3  C   UNL     1       0.467 -19.889  -3.650  1.00  0.00     0.027 C 
BRANCH   3   4
ATOM      4  C   UNL     1       0.443 -20.866  -4.794  1.00  0.00    -0.031 C 
ATOM      5  C   UNL     1       1.414 -20.879  -5.726  1.00  0.00    -0.028 C 
BRANCH   5   6
ATOM      6  C   UNL     1       1.411 -21.842  -6.894  1.00  0.00     0.005 C 
ATOM      7  C   UNL     1       0.340 -22.924  -6.712  1.00  0.00     0.012 C 
ATOM      8  C   UNL     1       1.236 -21.108  -8.232  1.00  0.00     0.012 C 
ENDBRANCH   5   6
ENDBRANCH   3   4
ENDBRANCH   2   3
ENDBRANCH   1   2
BRANCH   1   9
ATOM      9  C   UNL     1       2.498 -18.050  -2.580  1.00  0.00     0.100 C 
BRANCH   9  10
ATOM     10  C   UNL     1       3.384 -17.444  -3.626  1.00  0.00     0.220 C 
ATOM     11  O   UNL     1       4.256 -16.595  -3.291  1.00  0.00    -0.275 OA
ATOM     12  N   UNL     1       3.270 -17.868  -4.988  1.00  0.00    -0.352 N 
ATOM     13  H   UNL     1       2.502 -18.528  -5.245  1.00  0.00     0.163 HD
BRANCH  12  14
ATOM     14  C   UNL     1       4.329 -17.638  -5.967  1.00  0.00     0.151 C 
BRANCH  14  15
ATOM     15  C   UNL     1       4.970 -18.947  -6.340  1.00  0.00    -0.025 A 
ATOM     16  C   UNL     1       5.872 -19.002  -7.419  1.00  0.00     0.056 A 
ATOM     17  C   UNL     1       4.635 -20.126  -5.659  1.00  0.00     0.009 A 
ATOM     18  C   UNL     1       6.451 -20.227  -7.809  1.00  0.00     0.160 A 
ATOM     19  C   UNL     1       5.210 -21.342  -6.040  1.00  0.00     0.050 A 
ATOM     20  C   UNL     1       6.113 -21.401  -7.109  1.00  0.00     0.157 A 
BRANCH  18  21
ATOM     21  O   UNL     1       7.359 -20.311  -8.877  1.00  0.00    -0.493 OA
ATOM     22  C   UNL     1       7.401 -19.402  -9.973  1.00  0.00     0.278 C 
ENDBRANCH  18  21
BRANCH  20  23
ATOM     23  O   UNL     1       6.666 -22.633  -7.463  1.00  0.00    -0.504 OA
ATOM     24  H   UNL     1       6.231 -23.246  -8.137  1.00  0.00     0.293 HD
ENDBRANCH  20  23
ENDBRANCH  14  15
ENDBRANCH  12  14
ENDBRANCH   9  10
ENDBRANCH   1   9
TORSDOF 10
ENDMDL
MODEL 6
REMARK VINA RESULT:    -5.455      2.382      4.925
REMARK INTER + INTRA:          -9.990
REMARK INTER:                  -8.028
REMARK INTRA:                  -1.962
REMARK UNBOUND:                -1.505
REMARK SMILES COc1cc(CNC(=O)CCCCC=CC(C)C)ccc1O
REMARK SMILES IDX 11 1 12 2 13 3 14 4 15 5 16 6 17 7 18 8 10 9 8 10 9 11 7 12
REMARK SMILES IDX 6 14 5 15 4 16 19 17 3 18 20 19 21 20 2 21 1 22 22 23
REMARK H PARENT 7 13 22 24
REMARK Flexibility Score: inf
ROOT
ATOM      1  C   UNL     1       0.499 -22.407  -6.009  1.00  0.00     0.010 C 
ENDROOT
BRANCH   1   2
ATOM      2  C   UNL     1       0.494 -20.960  -5.490  1.00  0.00     0.005 C 
BRANCH   2   3
ATOM      3  C   UNL     1       0.378 -20.883  -3.958  1.00  0.00     0.027 C 
BRANCH   3   4
ATOM      4  C   UNL     1       0.404 -19.452  -3.494  1.00  0.00    -0.031 C 
ATOM      5  C   UNL     1       1.342 -18.590  -3.929  1.00  0.00    -0.028 C 
BRANCH   5   6
ATOM      6  C   UNL     1       1.400 -17.149  -3.471  1.00  0.00     0.005 C 
ATOM      7  C   UNL     1       2.315 -16.997  -2.250  1.00  0.00     0.012 C 
ATOM      8  C   UNL     1       1.832 -16.211  -4.609  1.00  0.00     0.012 C 
ENDBRANCH   5   6
ENDBRANCH   3   4
ENDBRANCH   2   3
ENDBRANCH   1   2
BRANCH   1   9
ATOM      9  C   UNL     1       0.830 -22.497  -7.508  1.00  0.00     0.100 C 
BRANCH   9  10
ATOM     10  C   UNL     1       1.923 -21.532  -7.852  1.00  0.00     0.220 C 
ATOM     11  O   UNL     1       1.722 -20.648  -8.731  1.00  0.00    -0.275 OA
ATOM     12  N   UNL     1       3.169 -21.587  -7.150  1.00  0.00    -0.352 N 
ATOM     13  H   UNL     1       3.327 -22.364  -6.471  1.00  0.00     0.163 HD
BRANCH  12  14
ATOM     14  C   UNL     1       4.107 -20.468  -7.138  1.00  0.00     0.151 C 
BRANCH  14  15
ATOM     15  C   UNL     1       4.398 -20.063  -5.718  1.00  0.00    -0.025 A 
ATOM     16  C   UNL     1       5.064 -18.851  -5.459  1.00  0.00     0.056 A 
ATOM     17  C   UNL     1       4.063 -20.910  -4.652  1.00  0.00     0.009 A 
ATOM     18  C   UNL     1       5.382 -18.476  -4.137  1.00  0.00     0.160 A 
ATOM     19  C   UNL     1       4.374 -20.539  -3.340  1.00  0.00     0.050 A 
ATOM     20  C   UNL     1       5.031 -19.331  -3.076  1.00  0.00     0.157 A 
BRANCH  18  21
ATOM     21  O   UNL     1       6.040 -17.269  -3.848  1.00  0.00    -0.493 OA
ATOM     22  C   UNL     1       5.426 -15.984  -3.899  1.00  0.00     0.278 C 
ENDBRANCH  18  21
BRANCH  20  23
ATOM     23  O   UNL     1       5.326 -18.994  -1.754  1.00  0.00    -0.504 OA
ATOM     24  H   UNL     1       4.946 -19.504  -0.969  1.00  0.00     0.293 HD
ENDBRANCH  20  23
ENDBRANCH  14  15
ENDBRANCH  12  14
ENDBRANCH   9  10
ENDBRANCH   1   9
TORSDOF 10
ENDMDL
MODEL 7
REMARK VINA RESULT:    -5.421      1.782      3.243
REMARK INTER + INTRA:          -9.937
REMARK INTER:                  -8.069
REMARK INTRA:                  -1.868
REMARK UNBOUND:                -1.505
REMARK SMILES COc1cc(CNC(=O)CCCCC=CC(C)C)ccc1O
REMARK SMILES IDX 11 1 12 2 13 3 14 4 15 5 16 6 17 7 18 8 10 9 8 10 9 11 7 12
REMARK SMILES IDX 6 14 5 15 4 16 19 17 3 18 20 19 21 20 2 21 1 22 22 23
REMARK H PARENT 7 13 22 24
REMARK Flexibility Score: inf
ROOT
ATOM      1  C   UNL     1       1.617 -20.605  -7.619  1.00  0.00     0.010 C 
ENDROOT
BRANCH   1   2
ATOM      2  C   UNL     1       1.157 -22.069  -7.697  1.00  0.00     0.005 C 
BRANCH   2   3
ATOM      3  C   UNL     1       0.285 -22.479  -6.498  1.00  0.00     0.027 C 
BRANCH   3   4
ATOM      4  C   UNL     1       0.212 -21.366  -5.488  1.00  0.00    -0.031 C 
ATOM      5  C   UNL     1       0.485 -21.578  -4.188  1.00  0.00    -0.028 C 
BRANCH   5   6
ATOM      6  C   UNL     1       0.409 -20.482  -3.148  1.00  0.00     0.005 C 
ATOM      7  C   UNL     1       1.338 -20.781  -1.965  1.00  0.00     0.012 C 
ATOM      8  C   UNL     1       0.710 -19.104  -3.756  1.00  0.00     0.012 C 
ENDBRANCH   5   6
ENDBRANCH   3   4
ENDBRANCH   2   3
ENDBRANCH   1   2
BRANCH   1   9
ATOM      9  C   UNL     1       3.148 -20.463  -7.637  1.00  0.00     0.100 C 
BRANCH   9  10
ATOM     10  C   UNL     1       3.647 -20.109  -6.269  1.00  0.00     0.220 C 
ATOM     11  O   UNL     1       3.722 -21.003  -5.380  1.00  0.00    -0.275 OA
ATOM     12  N   UNL     1       4.082 -18.773  -5.992  1.00  0.00    -0.352 N 
ATOM     13  H   UNL     1       3.953 -18.043  -6.728  1.00  0.00     0.163 HD
BRANCH  12  14
ATOM     14  C   UNL     1       4.931 -18.451  -4.850  1.00  0.00     0.151 C 
BRANCH  14  15
ATOM     15  C   UNL     1       4.110 -17.787  -3.778  1.00  0.00    -0.025 A 
ATOM     16  C   UNL     1       3.398 -16.609  -4.071  1.00  0.00     0.056 A 
ATOM     17  C   UNL     1       4.093 -18.297  -2.472  1.00  0.00     0.009 A 
ATOM     18  C   UNL     1       2.657 -15.950  -3.069  1.00  0.00     0.160 A 
ATOM     19  C   UNL     1       3.357 -17.649  -1.476  1.00  0.00     0.050 A 
ATOM     20  C   UNL     1       2.641 -16.480  -1.765  1.00  0.00     0.157 A 
BRANCH  18  21
ATOM     21  O   UNL     1       1.930 -14.777  -3.334  1.00  0.00    -0.493 OA
ATOM     22  C   UNL     1       0.583 -14.751  -3.795  1.00  0.00     0.278 C 
ENDBRANCH  18  21
BRANCH  20  23
ATOM     23  O   UNL     1       1.918 -15.858  -0.745  1.00  0.00    -0.504 OA
ATOM     24  H   UNL     1       2.286 -15.750   0.189  1.00  0.00     0.293 HD
ENDBRANCH  20  23
ENDBRANCH  14  15
ENDBRANCH  12  14
ENDBRANCH   9  10
ENDBRANCH   1   9
TORSDOF 10
ENDMDL
MODEL 8
REMARK VINA RESULT:    -5.402      2.137      4.731
REMARK INTER + INTRA:          -9.908
REMARK INTER:                  -8.269
REMARK INTRA:                  -1.639
REMARK UNBOUND:                -1.505
REMARK SMILES COc1cc(CNC(=O)CCCCC=CC(C)C)ccc1O
REMARK SMILES IDX 11 1 12 2 13 3 14 4 15 5 16 6 17 7 18 8 10 9 8 10 9 11 7 12
REMARK SMILES IDX 6 14 5 15 4 16 19 17 3 18 20 19 21 20 2 21 1 22 22 23
REMARK H PARENT 7 13 22 24
REMARK Flexibility Score: inf
ROOT
ATOM      1  C   UNL     1       1.246 -21.826  -6.040  1.00  0.00     0.010 C 
ENDROOT
BRANCH   1   2
ATOM      2  C   UNL     1       0.832 -21.824  -7.520  1.00  0.00     0.005 C 
BRANCH   2   3
ATOM      3  C   UNL     1       1.646 -20.824  -8.359  1.00  0.00     0.027 C 
BRANCH   3   4
ATOM      4  C   UNL     1       3.104 -20.887  -7.995  1.00  0.00    -0.031 C 
ATOM      5  C   UNL     1       3.792 -19.782  -7.657  1.00  0.00    -0.028 C 
BRANCH   5   6
ATOM      6  C   UNL     1       5.262 -19.813  -7.297  1.00  0.00     0.005 C 
ATOM      7  C   UNL     1       5.741 -21.251  -7.069  1.00  0.00     0.012 C 
ATOM      8  C   UNL     1       6.118 -19.103  -8.357  1.00  0.00     0.012 C 
ENDBRANCH   5   6
ENDBRANCH   3   4
ENDBRANCH   2   3
ENDBRANCH   1   2
BRANCH   1   9
ATOM      9  C   UNL     1       0.124 -21.339  -5.110  1.00  0.00     0.100 C 
BRANCH   9  10
ATOM     10  C   UNL     1       0.608 -20.190  -4.278  1.00  0.00     0.220 C 
ATOM     11  O   UNL     1       0.196 -20.060  -3.092  1.00  0.00    -0.275 OA
ATOM     12  N   UNL     1       1.569 -19.276  -4.817  1.00  0.00    -0.352 N 
ATOM     13  H   UNL     1       1.846 -19.374  -5.819  1.00  0.00     0.163 HD
BRANCH  12  14
ATOM     14  C   UNL     1       2.370 -18.398  -3.969  1.00  0.00     0.151 C 
BRANCH  14  15
ATOM     15  C   UNL     1       3.589 -19.135  -3.483  1.00  0.00    -0.025 A 
ATOM     16  C   UNL     1       4.487 -18.499  -2.607  1.00  0.00     0.056 A 
ATOM     17  C   UNL     1       3.870 -20.430  -3.940  1.00  0.00     0.009 A 
ATOM     18  C   UNL     1       5.656 -19.158  -2.174  1.00  0.00     0.160 A 
ATOM     19  C   UNL     1       5.026 -21.089  -3.510  1.00  0.00     0.050 A 
ATOM     20  C   UNL     1       5.920 -20.462  -2.632  1.00  0.00     0.157 A 
BRANCH  18  21
ATOM     21  O   UNL     1       6.567 -18.551  -1.293  1.00  0.00    -0.493 OA
ATOM     22  C   UNL     1       7.607 -17.664  -1.696  1.00  0.00     0.278 C 
ENDBRANCH  18  21
BRANCH  20  23
ATOM     23  O   UNL     1       7.065 -21.149  -2.225  1.00  0.00    -0.504 OA
ATOM     24  H   UNL     1       7.171 -22.146  -2.355  1.00  0.00     0.293 HD
ENDBRANCH  20  23
ENDBRANCH  14  15
ENDBRANCH  12  14
ENDBRANCH   9  10
ENDBRANCH   1   9
TORSDOF 10
ENDMDL
MODEL 9
REMARK VINA RESULT:    -5.314      2.004      4.918
REMARK INTER + INTRA:          -9.771
REMARK INTER:                  -7.589
REMARK INTRA:                  -2.182
REMARK UNBOUND:                -1.505
REMARK SMILES COc1cc(CNC(=O)CCCCC=CC(C)C)ccc1O
REMARK SMILES IDX 11 1 12 2 13 3 14 4 15 5 16 6 17 7 18 8 10 9 8 10 9 11 7 12
REMARK SMILES IDX 6 14 5 15 4 16 19 17 3 18 20 19 21 20 2 21 1 22 22 23
REMARK H PARENT 7 13 22 24
REMARK Flexibility Score: inf
ROOT
ATOM      1  C   UNL     1       2.698 -17.228  -3.719  1.00  0.00     0.010 C 
ENDROOT
BRANCH   1   2
ATOM      2  C   UNL     1       2.067 -17.936  -4.928  1.00  0.00     0.005 C 
BRANCH   2   3
ATOM      3  C   UNL     1       3.105 -18.318  -5.997  1.00  0.00     0.027 C 
BRANCH   3   4
ATOM      4  C   UNL     1       2.638 -19.507  -6.791  1.00  0.00    -0.031 C 
ATOM      5  C   UNL     1       1.945 -20.507  -6.216  1.00  0.00    -0.028 C 
BRANCH   5   6
ATOM      6  C   UNL     1       1.472 -21.721  -6.987  1.00  0.00     0.005 C 
ATOM      7  C   UNL     1       0.170 -22.274  -6.395  1.00  0.00     0.012 C 
ATOM      8  C   UNL     1       1.316 -21.416  -8.484  1.00  0.00     0.012 C 
ENDBRANCH   5   6
ENDBRANCH   3   4
ENDBRANCH   2   3
ENDBRANCH   1   2
BRANCH   1   9
ATOM      9  C   UNL     1       2.353 -17.911  -2.386  1.00  0.00     0.100 C 
BRANCH   9  10
ATOM     10  C   UNL     1       2.876 -19.316  -2.378  1.00  0.00     0.220 C 
ATOM     11  O   UNL     1       2.067 -20.283  -2.318  1.00  0.00    -0.275 OA
ATOM     12  N   UNL     1       4.283 -19.553  -2.488  1.00  0.00    -0.352 N 
ATOM     13  H   UNL     1       4.931 -18.734  -2.477  1.00  0.00     0.163 HD
BRANCH  12  14
ATOM     14  C   UNL     1       4.827 -20.849  -2.883  1.00  0.00     0.151 C 
BRANCH  14  15
ATOM     15  C   UNL     1       5.409 -20.755  -4.268  1.00  0.00    -0.025 A 
ATOM     16  C   UNL     1       6.140 -19.614  -4.644  1.00  0.00     0.056 A 
ATOM     17  C   UNL     1       5.180 -21.769  -5.208  1.00  0.00     0.009 A 
ATOM     18  C   UNL     1       6.657 -19.490  -5.950  1.00  0.00     0.160 A 
ATOM     19  C   UNL     1       5.694 -21.652  -6.504  1.00  0.00     0.050 A 
ATOM     20  C   UNL     1       6.429 -20.520  -6.880  1.00  0.00     0.157 A 
BRANCH  18  21
ATOM     21  O   UNL     1       7.397 -18.365  -6.351  1.00  0.00    -0.493 OA
ATOM     22  C   UNL     1       6.825 -17.162  -6.855  1.00  0.00     0.278 C 
ENDBRANCH  18  21
BRANCH  20  23
ATOM     23  O   UNL     1       6.925 -20.437  -8.182  1.00  0.00    -0.504 OA
ATOM     24  H   UNL     1       6.444 -20.845  -8.971  1.00  0.00     0.293 HD
ENDBRANCH  20  23
ENDBRANCH  14  15
ENDBRANCH  12  14
ENDBRANCH   9  10
ENDBRANCH   1   9
TORSDOF 10
ENDMDL
