MODEL 1
REMARK VINA RESULT:    -2.220      0.000      0.000
REMARK INTER + INTRA:          -2.414
REMARK INTER:                  -2.414
REMARK INTRA:                   0.000
REMARK UNBOUND:                 0.000
REMARK SMILES Cc1cc(O)c2c(c1)C(=O)c1cc(O)cc(O)c1C2=O
REMARK SMILES IDX 1 1 2 2 8 3 7 4 6 5 4 6 3 7 19 8 20 9 18 10 11 11 9 12 10 13
REMARK SMILES IDX 12 14 13 15 15 16 16 17 5 18 17 20 14 22
REMARK H PARENT 5 19 17 21 14 23
REMARK Flexibility Score: inf
ROOT
ATOM      1  C   UNL     1      37.006  25.094  28.249  1.00  0.00     0.044 C 
ATOM      2  C   UNL     1      36.191  24.973  29.502  1.00  0.00    -0.047 A 
ATOM      3  C   UNL     1      34.796  24.888  29.428  1.00  0.00     0.016 A 
ATOM      4  C   UNL     1      34.020  24.803  30.598  1.00  0.00     0.038 A 
ATOM      5  C   UNL     1      34.653  24.804  31.862  1.00  0.00     0.076 A 
ATOM      6  C   UNL     1      36.059  24.975  31.931  1.00  0.00     0.127 A 
ATOM      7  C   UNL     1      36.811  25.038  30.755  1.00  0.00     0.050 A 
ATOM      8  C   UNL     1      33.815  24.563  33.065  1.00  0.00     0.201 C 
ATOM      9  O   UNL     1      34.317  24.001  34.075  1.00  0.00    -0.288 OA
ATOM     10  C   UNL     1      32.352  24.814  33.008  1.00  0.00     0.076 A 
ATOM     11  C   UNL     1      31.724  24.816  31.742  1.00  0.00     0.041 A 
ATOM     12  C   UNL     1      32.544  24.720  30.511  1.00  0.00     0.194 C 
ATOM     13  O   UNL     1      31.983  24.595  29.388  1.00  0.00    -0.289 OA
ATOM     14  C   UNL     1      30.324  24.911  31.657  1.00  0.00     0.059 A 
ATOM     15  C   UNL     1      29.549  25.021  32.813  1.00  0.00     0.120 A 
ATOM     16  C   UNL     1      30.168  25.061  34.062  1.00  0.00     0.093 A 
ATOM     17  C   UNL     1      31.561  24.987  34.174  1.00  0.00     0.131 A 
ENDROOT
BRANCH   6  18
ATOM     18  O   UNL     1      36.742  25.125  33.141  1.00  0.00    -0.507 OA
ATOM     19  H   UNL     1      37.748  25.072  33.225  1.00  0.00     0.293 HD
ENDBRANCH   6  18
BRANCH  17  20
ATOM     20  O   UNL     1      32.112  25.125  35.449  1.00  0.00    -0.507 OA
ATOM     21  H   UNL     1      31.906  25.898  36.066  1.00  0.00     0.293 HD
ENDBRANCH  17  20
BRANCH  15  22
ATOM     22  O   UNL     1      28.160  25.103  32.733  1.00  0.00    -0.508 OA
ATOM     23  H   UNL     1      27.672  25.981  32.868  1.00  0.00     0.293 HD
ENDBRANCH  15  22
TORSDOF 3
ENDMDL
MODEL 2
REMARK VINA RESULT:    -0.385      1.499      6.343
REMARK INTER + INTRA:          -0.419
REMARK INTER:                  -0.419
REMARK INTRA:                   0.000
REMARK UNBOUND:                 0.000
REMARK SMILES Cc1cc(O)c2c(c1)C(=O)c1cc(O)cc(O)c1C2=O
REMARK SMILES IDX 1 1 2 2 8 3 7 4 6 5 4 6 3 7 19 8 20 9 18 10 11 11 9 12 10 13
REMARK SMILES IDX 12 14 13 15 15 16 16 17 5 18 17 20 14 22
REMARK H PARENT 5 19 17 21 14 23
REMARK Flexibility Score: inf
ROOT
ATOM      1  C   UNL     1      27.171  25.093  32.895  1.00  0.00     0.044 C 
ATOM      2  C   UNL     1      28.414  24.961  32.066  1.00  0.00    -0.047 A 
ATOM      3  C   UNL     1      29.667  24.888  32.685  1.00  0.00     0.016 A 
ATOM      4  C   UNL     1      30.841  24.792  31.916  1.00  0.00     0.038 A 
ATOM      5  C   UNL     1      30.757  24.769  30.505  1.00  0.00     0.076 A 
ATOM      6  C   UNL     1      29.491  24.928  29.885  1.00  0.00     0.127 A 
ATOM      7  C   UNL     1      28.337  25.001  30.670  1.00  0.00     0.050 A 
ATOM      8  C   UNL     1      32.001  24.517  29.733  1.00  0.00     0.201 C 
ATOM      9  O   UNL     1      31.938  23.936  28.617  1.00  0.00    -0.288 OA
ATOM     10  C   UNL     1      33.323  24.780  30.356  1.00  0.00     0.076 A 
ATOM     11  C   UNL     1      33.402  24.806  31.767  1.00  0.00     0.041 A 
ATOM     12  C   UNL     1      32.164  24.723  32.578  1.00  0.00     0.194 C 
ATOM     13  O   UNL     1      32.238  24.619  33.833  1.00  0.00    -0.289 OA
ATOM     14  C   UNL     1      34.655  24.914  32.395  1.00  0.00     0.059 A 
ATOM     15  C   UNL     1      35.823  25.013  31.635  1.00  0.00     0.120 A 
ATOM     16  C   UNL     1      35.745  25.030  30.243  1.00  0.00     0.093 A 
ATOM     17  C   UNL     1      34.509  24.943  29.593  1.00  0.00     0.131 A 
ENDROOT
BRANCH   6  18
ATOM     18  O   UNL     1      29.339  25.053  28.502  1.00  0.00    -0.507 OA
ATOM     19  H   UNL     1      28.443  25.156  28.046  1.00  0.00     0.293 HD
ENDBRANCH   6  18
BRANCH  17  20
ATOM     20  O   UNL     1      34.503  25.057  28.202  1.00  0.00    -0.507 OA
ATOM     21  H   UNL     1      33.826  25.605  27.689  1.00  0.00     0.293 HD
ENDBRANCH  17  20
BRANCH  15  22
ATOM     22  O   UNL     1      37.068  25.108  32.254  1.00  0.00    -0.508 OA
ATOM     23  H   UNL     1      37.231  24.726  33.178  1.00  0.00     0.293 HD
ENDBRANCH  15  22
TORSDOF 3
ENDMDL
