MODEL 1
REMARK VINA RESULT:    -3.375      0.000      0.000
REMARK INTER + INTRA:          -5.808
REMARK INTER:                  -5.150
REMARK INTRA:                  -0.658
REMARK UNBOUND:                -0.658
REMARK SMILES CCCCCCCCCC=CC(=O)[O-]
REMARK SMILES IDX 7 1 8 2 9 3 10 4 11 5 12 6 13 7 14 8 6 9 5 10 4 11 3 12 2 13
REMARK SMILES IDX 1 14
REMARK H PARENT
REMARK Flexibility Score: inf
ROOT
ATOM      1  C   UNL     1     -21.773   2.148   8.173  1.00  0.00     0.000 C 
ENDROOT
BRANCH   1   2
ATOM      2  C   UNL     1     -21.727   1.153   9.351  1.00  0.00     0.004 C 
BRANCH   2   3
ATOM      3  C   UNL     1     -22.102   1.762  10.714  1.00  0.00     0.027 C 
BRANCH   3   4
ATOM      4  C   UNL     1     -22.138   0.738  11.814  1.00  0.00    -0.025 C 
ATOM      5  C   UNL     1     -21.482   0.924  12.964  1.00  0.00     0.020 C 
BRANCH   5   6
ATOM      6  C   UNL     1     -21.512  -0.067  14.048  1.00  0.00     0.064 C 
ATOM      7  O   UNL     1     -22.572  -0.708  14.275  1.00  0.00    -0.545 OA
ATOM      8  O   UNL     1     -20.388  -0.312  14.829  1.00  0.00    -0.545 OA
ENDBRANCH   5   6
ENDBRANCH   3   4
ENDBRANCH   2   3
ENDBRANCH   1   2
BRANCH   1   9
ATOM      9  C   UNL     1     -20.952   1.733   6.939  1.00  0.00     0.000 C 
BRANCH   9  10
ATOM     10  C   UNL     1     -21.473   0.448   6.280  1.00  0.00     0.000 C 
BRANCH  10  11
ATOM     11  C   UNL     1     -20.510  -0.722   6.519  1.00  0.00    -0.000 C 
BRANCH  11  12
ATOM     12  C   UNL     1     -21.184  -1.831   7.341  1.00  0.00    -0.000 C 
BRANCH  12  13
ATOM     13  C   UNL     1     -20.242  -2.444   8.390  1.00  0.00    -0.003 C 
ATOM     14  C   UNL     1     -20.606  -2.039   9.818  1.00  0.00     0.004 C 
ENDBRANCH  12  13
ENDBRANCH  11  12
ENDBRANCH  10  11
ENDBRANCH   9  10
ENDBRANCH   1   9
TORSDOF 9
ENDMDL
MODEL 2
REMARK VINA RESULT:    -3.283      0.973      3.082
REMARK INTER + INTRA:          -5.669
REMARK INTER:                  -4.931
REMARK INTRA:                  -0.737
REMARK UNBOUND:                -0.658
REMARK SMILES CCCCCCCCCC=CC(=O)[O-]
REMARK SMILES IDX 7 1 8 2 9 3 10 4 11 5 12 6 13 7 14 8 6 9 5 10 4 11 3 12 2 13
REMARK SMILES IDX 1 14
REMARK H PARENT
REMARK Flexibility Score: inf
ROOT
ATOM      1  C   UNL     1     -20.627  -2.239   7.959  1.00  0.00     0.000 C 
ENDROOT
BRANCH   1   2
ATOM      2  C   UNL     1     -20.633  -1.445   9.281  1.00  0.00     0.004 C 
BRANCH   2   3
ATOM      3  C   UNL     1     -20.597  -2.318  10.548  1.00  0.00     0.027 C 
BRANCH   3   4
ATOM      4  C   UNL     1     -20.620  -1.504  11.812  1.00  0.00    -0.025 C 
ATOM      5  C   UNL     1     -21.613  -1.618  12.699  1.00  0.00     0.020 C 
BRANCH   5   6
ATOM      6  C   UNL     1     -21.644  -0.831  13.940  1.00  0.00     0.064 C 
ATOM      7  O   UNL     1     -22.750  -0.561  14.477  1.00  0.00    -0.545 OA
ATOM      8  O   UNL     1     -20.470  -0.379  14.533  1.00  0.00    -0.545 OA
ENDBRANCH   5   6
ENDBRANCH   3   4
ENDBRANCH   2   3
ENDBRANCH   1   2
BRANCH   1   9
ATOM      9  C   UNL     1     -21.391  -1.576   6.799  1.00  0.00     0.000 C 
BRANCH   9  10
ATOM     10  C   UNL     1     -20.682  -0.329   6.251  1.00  0.00     0.000 C 
BRANCH  10  11
ATOM     11  C   UNL     1     -21.557   0.920   6.422  1.00  0.00    -0.000 C 
BRANCH  11  12
ATOM     12  C   UNL     1     -21.028   1.811   7.556  1.00  0.00    -0.000 C 
BRANCH  12  13
ATOM     13  C   UNL     1     -22.141   2.279   8.507  1.00  0.00    -0.003 C 
ATOM     14  C   UNL     1     -22.084   1.588   9.869  1.00  0.00     0.004 C 
ENDBRANCH  12  13
ENDBRANCH  11  12
ENDBRANCH  10  11
ENDBRANCH   9  10
ENDBRANCH   1   9
TORSDOF 9
ENDMDL
MODEL 3
REMARK VINA RESULT:    -3.172      2.358      4.824
REMARK INTER + INTRA:          -5.499
REMARK INTER:                  -5.027
REMARK INTRA:                  -0.472
REMARK UNBOUND:                -0.658
REMARK SMILES CCCCCCCCCC=CC(=O)[O-]
REMARK SMILES IDX 7 1 8 2 9 3 10 4 11 5 12 6 13 7 14 8 6 9 5 10 4 11 3 12 2 13
REMARK SMILES IDX 1 14
REMARK H PARENT
REMARK Flexibility Score: inf
ROOT
ATOM      1  C   UNL     1     -21.843   2.339   7.430  1.00  0.00     0.000 C 
ENDROOT
BRANCH   1   2
ATOM      2  C   UNL     1     -20.763   1.273   7.157  1.00  0.00     0.004 C 
BRANCH   2   3
ATOM      3  C   UNL     1     -21.258   0.054   6.359  1.00  0.00     0.027 C 
BRANCH   3   4
ATOM      4  C   UNL     1     -21.071  -1.239   7.103  1.00  0.00    -0.025 C 
ATOM      5  C   UNL     1     -20.712  -1.260   8.390  1.00  0.00     0.020 C 
BRANCH   5   6
ATOM      6  C   UNL     1     -20.530  -2.519   9.128  1.00  0.00     0.064 C 
ATOM      7  O   UNL     1     -20.757  -2.551  10.365  1.00  0.00    -0.545 OA
ATOM      8  O   UNL     1     -20.112  -3.676   8.481  1.00  0.00    -0.545 OA
ENDBRANCH   5   6
ENDBRANCH   3   4
ENDBRANCH   2   3
ENDBRANCH   1   2
BRANCH   1   9
ATOM      9  C   UNL     1     -22.142   2.596   8.918  1.00  0.00     0.000 C 
BRANCH   9  10
ATOM     10  C   UNL     1     -21.800   1.395   9.811  1.00  0.00     0.000 C 
BRANCH  10  11
ATOM     11  C   UNL     1     -22.595   1.442  11.123  1.00  0.00    -0.000 C 
BRANCH  11  12
ATOM     12  C   UNL     1     -21.668   1.267  12.335  1.00  0.00    -0.000 C 
BRANCH  12  13
ATOM     13  C   UNL     1     -21.823  -0.109  13.002  1.00  0.00    -0.003 C 
ATOM     14  C   UNL     1     -21.166  -0.173  14.381  1.00  0.00     0.004 C 
ENDBRANCH  12  13
ENDBRANCH  11  12
ENDBRANCH  10  11
ENDBRANCH   9  10
ENDBRANCH   1   9
TORSDOF 9
ENDMDL
MODEL 4
REMARK VINA RESULT:    -3.168      2.158      3.803
REMARK INTER + INTRA:          -5.492
REMARK INTER:                  -4.833
REMARK INTRA:                  -0.659
REMARK UNBOUND:                -0.658
REMARK SMILES CCCCCCCCCC=CC(=O)[O-]
REMARK SMILES IDX 7 1 8 2 9 3 10 4 11 5 12 6 13 7 14 8 6 9 5 10 4 11 3 12 2 13
REMARK SMILES IDX 1 14
REMARK H PARENT
REMARK Flexibility Score: inf
ROOT
ATOM      1  C   UNL     1     -20.526  -0.679   6.450  1.00  0.00     0.000 C 
ENDROOT
BRANCH   1   2
ATOM      2  C   UNL     1     -21.523   0.492   6.339  1.00  0.00     0.004 C 
BRANCH   2   3
ATOM      3  C   UNL     1     -21.056   1.794   7.013  1.00  0.00     0.027 C 
BRANCH   3   4
ATOM      4  C   UNL     1     -21.795   2.083   8.290  1.00  0.00    -0.025 C 
ATOM      5  C   UNL     1     -21.766   1.236   9.322  1.00  0.00     0.020 C 
BRANCH   5   6
ATOM      6  C   UNL     1     -22.482   1.510  10.576  1.00  0.00     0.064 C 
ATOM      7  O   UNL     1     -21.866   1.443  11.671  1.00  0.00    -0.545 OA
ATOM      8  O   UNL     1     -23.832   1.843  10.573  1.00  0.00    -0.545 OA
ENDBRANCH   5   6
ENDBRANCH   3   4
ENDBRANCH   2   3
ENDBRANCH   1   2
BRANCH   1   9
ATOM      9  C   UNL     1     -21.064  -1.925   7.176  1.00  0.00     0.000 C 
BRANCH   9  10
ATOM     10  C   UNL     1     -20.679  -1.962   8.662  1.00  0.00     0.000 C 
BRANCH  10  11
ATOM     11  C   UNL     1     -19.960  -3.272   9.010  1.00  0.00    -0.000 C 
BRANCH  11  12
ATOM     12  C   UNL     1     -19.985  -4.246   7.822  1.00  0.00    -0.000 C 
BRANCH  12  13
ATOM     13  C   UNL     1     -20.134  -5.711   8.264  1.00  0.00    -0.003 C 
ATOM     14  C   UNL     1     -21.585  -6.096   8.552  1.00  0.00     0.004 C 
ENDBRANCH  12  13
ENDBRANCH  11  12
ENDBRANCH  10  11
ENDBRANCH   9  10
ENDBRANCH   1   9
TORSDOF 9
ENDMDL
MODEL 5
REMARK VINA RESULT:    -3.131      2.251      4.945
REMARK INTER + INTRA:          -5.436
REMARK INTER:                  -4.722
REMARK INTRA:                  -0.714
REMARK UNBOUND:                -0.658
REMARK SMILES CCCCCCCCCC=CC(=O)[O-]
REMARK SMILES IDX 7 1 8 2 9 3 10 4 11 5 12 6 13 7 14 8 6 9 5 10 4 11 3 12 2 13
REMARK SMILES IDX 1 14
REMARK H PARENT
REMARK Flexibility Score: inf
ROOT
ATOM      1  C   UNL     1     -21.545   0.851   6.297  1.00  0.00     0.000 C 
ENDROOT
BRANCH   1   2
ATOM      2  C   UNL     1     -20.657  -0.404   6.170  1.00  0.00     0.004 C 
BRANCH   2   3
ATOM      3  C   UNL     1     -21.205  -1.649   6.889  1.00  0.00     0.027 C 
BRANCH   3   4
ATOM      4  C   UNL     1     -20.461  -1.959   8.158  1.00  0.00    -0.025 C 
ATOM      5  C   UNL     1     -20.970  -1.662   9.357  1.00  0.00     0.020 C 
BRANCH   5   6
ATOM      6  C   UNL     1     -20.253  -1.964  10.605  1.00  0.00     0.064 C 
ATOM      7  O   UNL     1     -19.048  -2.321  10.558  1.00  0.00    -0.545 OA
ATOM      8  O   UNL     1     -20.886  -1.861  11.839  1.00  0.00    -0.545 OA
ENDBRANCH   5   6
ENDBRANCH   3   4
ENDBRANCH   2   3
ENDBRANCH   1   2
BRANCH   1   9
ATOM      9  C   UNL     1     -21.111   1.848   7.386  1.00  0.00     0.000 C 
BRANCH   9  10
ATOM     10  C   UNL     1     -21.796   1.592   8.737  1.00  0.00     0.000 C 
BRANCH  10  11
ATOM     11  C   UNL     1     -22.521   2.849   9.232  1.00  0.00    -0.000 C 
BRANCH  11  12
ATOM     12  C   UNL     1     -22.452   3.972   8.186  1.00  0.00    -0.000 C 
BRANCH  12  13
ATOM     13  C   UNL     1     -22.392   5.370   8.823  1.00  0.00    -0.003 C 
ATOM     14  C   UNL     1     -20.972   5.783   9.208  1.00  0.00     0.004 C 
ENDBRANCH  12  13
ENDBRANCH  11  12
ENDBRANCH  10  11
ENDBRANCH   9  10
ENDBRANCH   1   9
TORSDOF 9
ENDMDL
MODEL 6
REMARK VINA RESULT:    -2.962      2.331      4.913
REMARK INTER + INTRA:          -5.178
REMARK INTER:                  -4.561
REMARK INTRA:                  -0.618
REMARK UNBOUND:                -0.658
REMARK SMILES CCCCCCCCCC=CC(=O)[O-]
REMARK SMILES IDX 7 1 8 2 9 3 10 4 11 5 12 6 13 7 14 8 6 9 5 10 4 11 3 12 2 13
REMARK SMILES IDX 1 14
REMARK H PARENT
REMARK Flexibility Score: inf
ROOT
ATOM      1  C   UNL     1     -20.252  -2.258   7.553  1.00  0.00     0.000 C 
ENDROOT
BRANCH   1   2
ATOM      2  C   UNL     1     -21.333  -1.375   6.897  1.00  0.00     0.004 C 
BRANCH   2   3
ATOM      3  C   UNL     1     -20.837   0.010   6.445  1.00  0.00     0.027 C 
BRANCH   3   4
ATOM      4  C   UNL     1     -21.356   1.122   7.314  1.00  0.00    -0.025 C 
ATOM      5  C   UNL     1     -21.560   0.950   8.623  1.00  0.00     0.020 C 
BRANCH   5   6
ATOM      6  C   UNL     1     -22.063   2.031   9.482  1.00  0.00     0.064 C 
ATOM      7  O   UNL     1     -22.442   3.113   8.962  1.00  0.00    -0.545 OA
ATOM      8  O   UNL     1     -22.130   1.879  10.863  1.00  0.00    -0.545 OA
ENDBRANCH   5   6
ENDBRANCH   3   4
ENDBRANCH   2   3
ENDBRANCH   1   2
BRANCH   1   9
ATOM      9  C   UNL     1     -20.656  -2.889   8.898  1.00  0.00     0.000 C 
BRANCH   9  10
ATOM     10  C   UNL     1     -19.973  -2.221  10.100  1.00  0.00     0.000 C 
BRANCH  10  11
ATOM     11  C   UNL     1     -20.976  -1.391  10.911  1.00  0.00    -0.000 C 
BRANCH  11  12
ATOM     12  C   UNL     1     -20.952  -1.795  12.393  1.00  0.00    -0.000 C 
BRANCH  12  13
ATOM     13  C   UNL     1     -21.720  -0.807  13.286  1.00  0.00    -0.003 C 
ATOM     14  C   UNL     1     -20.925  -0.388  14.523  1.00  0.00     0.004 C 
ENDBRANCH  12  13
ENDBRANCH  11  12
ENDBRANCH  10  11
ENDBRANCH   9  10
ENDBRANCH   1   9
TORSDOF 9
ENDMDL
MODEL 7
REMARK VINA RESULT:    -2.931      1.356      1.916
REMARK INTER + INTRA:          -5.131
REMARK INTER:                  -4.380
REMARK INTRA:                  -0.751
REMARK UNBOUND:                -0.658
REMARK SMILES CCCCCCCCCC=CC(=O)[O-]
REMARK SMILES IDX 7 1 8 2 9 3 10 4 11 5 12 6 13 7 14 8 6 9 5 10 4 11 3 12 2 13
REMARK SMILES IDX 1 14
REMARK H PARENT
REMARK Flexibility Score: inf
ROOT
ATOM      1  C   UNL     1     -20.990   0.760   8.380  1.00  0.00     0.000 C 
ENDROOT
BRANCH   1   2
ATOM      2  C   UNL     1     -22.113   1.761   8.721  1.00  0.00     0.004 C 
BRANCH   2   3
ATOM      3  C   UNL     1     -22.273   2.050  10.224  1.00  0.00     0.027 C 
BRANCH   3   4
ATOM      4  C   UNL     1     -21.917   0.869  11.083  1.00  0.00    -0.025 C 
ATOM      5  C   UNL     1     -21.799   0.979  12.409  1.00  0.00     0.020 C 
BRANCH   5   6
ATOM      6  C   UNL     1     -21.455  -0.170  13.259  1.00  0.00     0.064 C 
ATOM      7  O   UNL     1     -21.238  -1.291  12.730  1.00  0.00    -0.545 OA
ATOM      8  O   UNL     1     -21.364  -0.039  14.640  1.00  0.00    -0.545 OA
ENDBRANCH   5   6
ENDBRANCH   3   4
ENDBRANCH   2   3
ENDBRANCH   1   2
BRANCH   1   9
ATOM      9  C   UNL     1     -21.255  -0.118   7.143  1.00  0.00     0.000 C 
BRANCH   9  10
ATOM     10  C   UNL     1     -20.906  -1.595   7.374  1.00  0.00     0.000 C 
BRANCH  10  11
ATOM     11  C   UNL     1     -20.787  -1.904   8.872  1.00  0.00    -0.000 C 
BRANCH  11  12
ATOM     12  C   UNL     1     -19.936  -3.161   9.108  1.00  0.00    -0.000 C 
BRANCH  12  13
ATOM     13  C   UNL     1     -19.982  -4.137   7.922  1.00  0.00    -0.003 C 
ATOM     14  C   UNL     1     -20.443  -5.537   8.326  1.00  0.00     0.004 C 
ENDBRANCH  12  13
ENDBRANCH  11  12
ENDBRANCH  10  11
ENDBRANCH   9  10
ENDBRANCH   1   9
TORSDOF 9
ENDMDL
MODEL 8
REMARK VINA RESULT:    -2.774      1.812      3.670
REMARK INTER + INTRA:          -4.891
REMARK INTER:                  -4.139
REMARK INTRA:                  -0.753
REMARK UNBOUND:                -0.658
REMARK SMILES CCCCCCCCCC=CC(=O)[O-]
REMARK SMILES IDX 7 1 8 2 9 3 10 4 11 5 12 6 13 7 14 8 6 9 5 10 4 11 3 12 2 13
REMARK SMILES IDX 1 14
REMARK H PARENT
REMARK Flexibility Score: inf
ROOT
ATOM      1  C   UNL     1     -20.740  -0.613   6.267  1.00  0.00     0.000 C 
ENDROOT
BRANCH   1   2
ATOM      2  C   UNL     1     -21.470   0.739   6.136  1.00  0.00     0.004 C 
BRANCH   2   3
ATOM      3  C   UNL     1     -20.910   1.856   7.034  1.00  0.00     0.027 C 
BRANCH   3   4
ATOM      4  C   UNL     1     -21.753   2.096   8.255  1.00  0.00    -0.025 C 
ATOM      5  C   UNL     1     -21.669   1.305   9.329  1.00  0.00     0.020 C 
BRANCH   5   6
ATOM      6  C   UNL     1     -22.487   1.532  10.529  1.00  0.00     0.064 C 
ATOM      7  O   UNL     1     -21.966   1.404  11.668  1.00  0.00    -0.545 OA
ATOM      8  O   UNL     1     -23.827   1.887  10.428  1.00  0.00    -0.545 OA
ENDBRANCH   5   6
ENDBRANCH   3   4
ENDBRANCH   2   3
ENDBRANCH   1   2
BRANCH   1   9
ATOM      9  C   UNL     1     -21.283  -1.542   7.368  1.00  0.00     0.000 C 
BRANCH   9  10
ATOM     10  C   UNL     1     -20.427  -2.801   7.564  1.00  0.00     0.000 C 
BRANCH  10  11
ATOM     11  C   UNL     1     -20.044  -2.981   9.038  1.00  0.00    -0.000 C 
BRANCH  11  12
ATOM     12  C   UNL     1     -20.744  -1.935   9.920  1.00  0.00    -0.000 C 
BRANCH  12  13
ATOM     13  C   UNL     1     -20.201  -1.917  11.357  1.00  0.00    -0.003 C 
ATOM     14  C   UNL     1     -21.308  -1.987  12.408  1.00  0.00     0.004 C 
ENDBRANCH  12  13
ENDBRANCH  11  12
ENDBRANCH  10  11
ENDBRANCH   9  10
ENDBRANCH   1   9
TORSDOF 9
ENDMDL
MODEL 9
REMARK VINA RESULT:    -2.679      3.326      6.140
REMARK INTER + INTRA:          -4.746
REMARK INTER:                  -3.960
REMARK INTRA:                  -0.786
REMARK UNBOUND:                -0.658
REMARK SMILES CCCCCCCCCC=CC(=O)[O-]
REMARK SMILES IDX 7 1 8 2 9 3 10 4 11 5 12 6 13 7 14 8 6 9 5 10 4 11 3 12 2 13
REMARK SMILES IDX 1 14
REMARK H PARENT
REMARK Flexibility Score: inf
ROOT
ATOM      1  C   UNL     1     -21.227  -2.017  12.247  1.00  0.00     0.000 C 
ENDROOT
BRANCH   1   2
ATOM      2  C   UNL     1     -20.225  -1.883  11.083  1.00  0.00     0.004 C 
BRANCH   2   3
ATOM      3  C   UNL     1     -20.818  -2.181   9.694  1.00  0.00     0.027 C 
BRANCH   3   4
ATOM      4  C   UNL     1     -20.972  -0.944   8.853  1.00  0.00    -0.025 C 
ATOM      5  C   UNL     1     -20.934  -0.998   7.518  1.00  0.00     0.020 C 
BRANCH   5   6
ATOM      6  C   UNL     1     -21.088   0.204   6.685  1.00  0.00     0.064 C 
ATOM      7  O   UNL     1     -21.962   0.225   5.780  1.00  0.00    -0.545 OA
ATOM      8  O   UNL     1     -20.283   1.321   6.882  1.00  0.00    -0.545 OA
ENDBRANCH   5   6
ENDBRANCH   3   4
ENDBRANCH   2   3
ENDBRANCH   1   2
BRANCH   1   9
ATOM      9  C   UNL     1     -21.019  -1.022  13.403  1.00  0.00     0.000 C 
BRANCH   9  10
ATOM     10  C   UNL     1     -22.076   0.091  13.430  1.00  0.00     0.000 C 
BRANCH  10  11
ATOM     11  C   UNL     1     -21.658   1.267  12.538  1.00  0.00    -0.000 C 
BRANCH  11  12
ATOM     12  C   UNL     1     -22.529   1.336  11.275  1.00  0.00    -0.000 C 
BRANCH  12  13
ATOM     13  C   UNL     1     -21.746   1.825  10.045  1.00  0.00    -0.003 C 
ATOM     14  C   UNL     1     -22.557   2.780   9.171  1.00  0.00     0.004 C 
ENDBRANCH  12  13
ENDBRANCH  11  12
ENDBRANCH  10  11
ENDBRANCH   9  10
ENDBRANCH   1   9
TORSDOF 9
ENDMDL
