MODEL 1
REMARK VINA RESULT:    -4.361      0.000      0.000
REMARK INTER + INTRA:          -6.870
REMARK INTER:                  -6.401
REMARK INTRA:                  -0.469
REMARK UNBOUND:                -0.469
REMARK SMILES O=C([O-])CCCCCCCC(=O)[O-]
REMARK SMILES IDX 7 1 6 2 5 3 4 4 2 5 1 6 3 7 8 8 9 9 10 10 11 11 12 12 13 13
REMARK H PARENT
REMARK Flexibility Score: inf
ROOT
ATOM      1  C   UNL     1     -99.606 -59.817 -66.440  1.00  0.00     0.000 C 
ENDROOT
BRANCH   1   2
ATOM      2  C   UNL     1     -98.790 -58.905 -67.372  1.00  0.00     0.000 C 
BRANCH   2   3
ATOM      3  C   UNL     1     -97.348 -58.653 -66.882  1.00  0.00     0.006 C 
BRANCH   3   4
ATOM      4  C   UNL     1     -97.308 -57.805 -65.604  1.00  0.00     0.053 C 
BRANCH   4   5
ATOM      5  C   UNL     1     -96.493 -58.484 -64.550  1.00  0.00     0.041 C 
ATOM      6  O   UNL     1     -96.675 -59.703 -64.294  1.00  0.00    -0.550 OA
ATOM      7  O   UNL     1     -95.495 -57.783 -63.884  1.00  0.00    -0.550 OA
ENDBRANCH   4   5
ENDBRANCH   3   4
ENDBRANCH   2   3
ENDBRANCH   1   2
BRANCH   1   8
ATOM      8  C   UNL     1     -99.942 -61.175 -67.078  1.00  0.00     0.000 C 
BRANCH   8   9
ATOM      9  C   UNL     1     -99.596 -62.360 -66.162  1.00  0.00     0.006 C 
BRANCH   9  10
ATOM     10  C   UNL     1     -99.139 -61.912 -64.767  1.00  0.00     0.053 C 
BRANCH  10  11
ATOM     11  C   UNL     1     -98.971 -63.096 -63.869  1.00  0.00     0.041 C 
ATOM     12  O   UNL     1     -99.976 -63.629 -63.327  1.00  0.00    -0.550 OA
ATOM     13  O   UNL     1     -97.700 -63.582 -63.589  1.00  0.00    -0.550 OA
ENDBRANCH  10  11
ENDBRANCH   9  10
ENDBRANCH   8   9
ENDBRANCH   1   8
TORSDOF 8
ENDMDL
MODEL 2
REMARK VINA RESULT:    -3.762      4.084      5.232
REMARK INTER + INTRA:          -5.992
REMARK INTER:                  -5.492
REMARK INTRA:                  -0.500
REMARK UNBOUND:                -0.469
REMARK SMILES O=C([O-])CCCCCCCC(=O)[O-]
REMARK SMILES IDX 7 1 6 2 5 3 4 4 2 5 1 6 3 7 8 8 9 9 10 10 11 11 12 12 13 13
REMARK H PARENT
REMARK Flexibility Score: inf
ROOT
ATOM      1  C   UNL     1     -99.988 -62.158 -67.770  1.00  0.00     0.000 C 
ENDROOT
BRANCH   1   2
ATOM      2  C   UNL     1     -99.644 -62.221 -66.272  1.00  0.00     0.000 C 
BRANCH   2   3
ATOM      3  C   UNL     1     -99.145 -60.878 -65.696  1.00  0.00     0.006 C 
BRANCH   3   4
ATOM      4  C   UNL     1     -99.387 -59.708 -66.657  1.00  0.00     0.053 C 
BRANCH   4   5
ATOM      5  C   UNL     1     -98.121 -58.946 -66.886  1.00  0.00     0.041 C 
ATOM      6  O   UNL     1     -97.708 -58.129 -66.022  1.00  0.00    -0.550 OA
ATOM      7  O   UNL     1     -97.367 -59.177 -68.031  1.00  0.00    -0.550 OA
ENDBRANCH   4   5
ENDBRANCH   3   4
ENDBRANCH   2   3
ENDBRANCH   1   2
BRANCH   1   8
ATOM      8  C   UNL     1     -99.033 -62.995 -68.637  1.00  0.00     0.000 C 
BRANCH   8   9
ATOM      9  C   UNL     1     -98.259 -62.142 -69.655  1.00  0.00     0.006 C 
BRANCH   9  10
ATOM     10  C   UNL     1     -96.904 -62.755 -70.029  1.00  0.00     0.053 C 
BRANCH  10  11
ATOM     11  C   UNL     1     -96.313 -62.039 -71.202  1.00  0.00     0.041 C 
ATOM     12  O   UNL     1     -96.408 -60.787 -71.294  1.00  0.00    -0.550 OA
ATOM     13  O   UNL     1     -95.700 -62.759 -72.219  1.00  0.00    -0.550 OA
ENDBRANCH  10  11
ENDBRANCH   9  10
ENDBRANCH   8   9
ENDBRANCH   1   8
TORSDOF 8
ENDMDL
MODEL 3
REMARK VINA RESULT:    -3.266      4.658      5.409
REMARK INTER + INTRA:          -5.263
REMARK INTER:                  -4.945
REMARK INTRA:                  -0.319
REMARK UNBOUND:                -0.469
REMARK SMILES O=C([O-])CCCCCCCC(=O)[O-]
REMARK SMILES IDX 7 1 6 2 5 3 4 4 2 5 1 6 3 7 8 8 9 9 10 10 11 11 12 12 13 13
REMARK H PARENT
REMARK Flexibility Score: inf
ROOT
ATOM      1  C   UNL     1     -98.145 -63.015 -69.246  1.00  0.00     0.000 C 
ENDROOT
BRANCH   1   2
ATOM      2  C   UNL     1     -97.263 -62.087 -70.097  1.00  0.00     0.000 C 
BRANCH   2   3
ATOM      3  C   UNL     1     -96.088 -62.813 -70.786  1.00  0.00     0.006 C 
BRANCH   3   4
ATOM      4  C   UNL     1     -94.770 -62.648 -70.018  1.00  0.00     0.053 C 
BRANCH   4   5
ATOM      5  C   UNL     1     -93.983 -61.501 -70.567  1.00  0.00     0.041 C 
ATOM      6  O   UNL     1     -92.910 -61.145 -70.013  1.00  0.00    -0.550 OA
ATOM      7  O   UNL     1     -94.407 -60.857 -71.724  1.00  0.00    -0.550 OA
ENDBRANCH   4   5
ENDBRANCH   3   4
ENDBRANCH   2   3
ENDBRANCH   1   2
BRANCH   1   8
ATOM      8  C   UNL     1     -99.502 -62.386 -68.887  1.00  0.00     0.000 C 
BRANCH   8   9
ATOM      9  C   UNL     1     -99.899 -62.633 -67.423  1.00  0.00     0.006 C 
BRANCH   9  10
ATOM     10  C   UNL     1     -99.346 -61.562 -66.474  1.00  0.00     0.053 C 
BRANCH  10  11
ATOM     11  C   UNL     1    -100.113 -60.286 -66.623  1.00  0.00     0.041 C 
ATOM     12  O   UNL     1    -101.372 -60.302 -66.646  1.00  0.00    -0.550 OA
ATOM     13  O   UNL     1     -99.436 -59.084 -66.786  1.00  0.00    -0.550 OA
ENDBRANCH  10  11
ENDBRANCH   9  10
ENDBRANCH   8   9
ENDBRANCH   1   8
TORSDOF 8
ENDMDL
MODEL 4
REMARK VINA RESULT:    -3.156     14.714     15.599
REMARK INTER + INTRA:          -5.102
REMARK INTER:                  -4.235
REMARK INTRA:                  -0.867
REMARK UNBOUND:                -0.469
REMARK SMILES O=C([O-])CCCCCCCC(=O)[O-]
REMARK SMILES IDX 7 1 6 2 5 3 4 4 2 5 1 6 3 7 8 8 9 9 10 10 11 11 12 12 13 13
REMARK H PARENT
REMARK Flexibility Score: inf
ROOT
ATOM      1  C   UNL     1     -95.097 -46.007 -68.179  1.00  0.00     0.000 C 
ENDROOT
BRANCH   1   2
ATOM      2  C   UNL     1     -95.734 -44.996 -69.147  1.00  0.00     0.000 C 
BRANCH   2   3
ATOM      3  C   UNL     1     -97.269 -45.126 -69.252  1.00  0.00     0.006 C 
BRANCH   3   4
ATOM      4  C   UNL     1     -97.722 -46.586 -69.372  1.00  0.00     0.053 C 
BRANCH   4   5
ATOM      5  C   UNL     1     -98.836 -46.710 -70.362  1.00  0.00     0.041 C 
ATOM      6  O   UNL     1     -99.754 -45.849 -70.394  1.00  0.00    -0.550 OA
ATOM      7  O   UNL     1     -98.833 -47.748 -71.287  1.00  0.00    -0.550 OA
ENDBRANCH   4   5
ENDBRANCH   3   4
ENDBRANCH   2   3
ENDBRANCH   1   2
BRANCH   1   8
ATOM      8  C   UNL     1     -93.976 -46.833 -68.831  1.00  0.00     0.000 C 
BRANCH   8   9
ATOM      9  C   UNL     1     -93.921 -46.653 -70.357  1.00  0.00     0.006 C 
BRANCH   9  10
ATOM     10  C   UNL     1     -94.337 -47.921 -71.115  1.00  0.00     0.053 C 
BRANCH  10  11
ATOM     11  C   UNL     1     -95.364 -47.594 -72.152  1.00  0.00     0.041 C 
ATOM     12  O   UNL     1     -95.732 -46.402 -72.327  1.00  0.00    -0.550 OA
ATOM     13  O   UNL     1     -95.953 -48.612 -72.892  1.00  0.00    -0.550 OA
ENDBRANCH  10  11
ENDBRANCH   9  10
ENDBRANCH   8   9
ENDBRANCH   1   8
TORSDOF 8
ENDMDL
MODEL 5
REMARK VINA RESULT:    -3.151      4.974      6.767
REMARK INTER + INTRA:          -5.094
REMARK INTER:                  -4.829
REMARK INTRA:                  -0.265
REMARK UNBOUND:                -0.469
REMARK SMILES O=C([O-])CCCCCCCC(=O)[O-]
REMARK SMILES IDX 7 1 6 2 5 3 4 4 2 5 1 6 3 7 8 8 9 9 10 10 11 11 12 12 13 13
REMARK H PARENT
REMARK Flexibility Score: inf
ROOT
ATOM      1  C   UNL     1     -98.113 -61.947 -69.551  1.00  0.00     0.000 C 
ENDROOT
BRANCH   1   2
ATOM      2  C   UNL     1     -98.959 -63.068 -68.924  1.00  0.00     0.000 C 
BRANCH   2   3
ATOM      3  C   UNL     1     -99.597 -62.677 -67.573  1.00  0.00     0.006 C 
BRANCH   3   4
ATOM      4  C   UNL     1    -100.525 -61.462 -67.699  1.00  0.00     0.053 C 
BRANCH   4   5
ATOM      5  C   UNL     1    -100.270 -60.491 -66.591  1.00  0.00     0.041 C 
ATOM      6  O   UNL     1     -99.091 -60.170 -66.288  1.00  0.00    -0.550 OA
ATOM      7  O   UNL     1    -101.337 -59.899 -65.925  1.00  0.00    -0.550 OA
ENDBRANCH   4   5
ENDBRANCH   3   4
ENDBRANCH   2   3
ENDBRANCH   1   2
BRANCH   1   8
ATOM      8  C   UNL     1     -96.834 -62.471 -70.225  1.00  0.00     0.000 C 
BRANCH   8   9
ATOM      9  C   UNL     1     -95.685 -61.451 -70.185  1.00  0.00     0.006 C 
BRANCH   9  10
ATOM     10  C   UNL     1     -95.387 -60.843 -71.562  1.00  0.00     0.053 C 
BRANCH  10  11
ATOM     11  C   UNL     1     -93.969 -61.112 -71.955  1.00  0.00     0.041 C 
ATOM     12  O   UNL     1     -93.647 -61.164 -73.171  1.00  0.00    -0.550 OA
ATOM     13  O   UNL     1     -93.011 -61.353 -70.978  1.00  0.00    -0.550 OA
ENDBRANCH  10  11
ENDBRANCH   9  10
ENDBRANCH   8   9
ENDBRANCH   1   8
TORSDOF 8
ENDMDL
MODEL 6
REMARK VINA RESULT:    -3.138     14.734     15.693
REMARK INTER + INTRA:          -5.075
REMARK INTER:                  -4.156
REMARK INTRA:                  -0.919
REMARK UNBOUND:                -0.469
REMARK SMILES O=C([O-])CCCCCCCC(=O)[O-]
REMARK SMILES IDX 7 1 6 2 5 3 4 4 2 5 1 6 3 7 8 8 9 9 10 10 11 11 12 12 13 13
REMARK H PARENT
REMARK Flexibility Score: inf
ROOT
ATOM      1  C   UNL     1     -95.047 -46.053 -68.100  1.00  0.00     0.000 C 
ENDROOT
BRANCH   1   2
ATOM      2  C   UNL     1     -93.918 -46.910 -68.697  1.00  0.00     0.000 C 
BRANCH   2   3
ATOM      3  C   UNL     1     -93.732 -46.714 -70.217  1.00  0.00     0.006 C 
BRANCH   3   4
ATOM      4  C   UNL     1     -94.303 -47.884 -71.028  1.00  0.00     0.053 C 
BRANCH   4   5
ATOM      5  C   UNL     1     -95.305 -47.392 -72.024  1.00  0.00     0.041 C 
ATOM      6  O   UNL     1     -95.407 -46.161 -72.265  1.00  0.00    -0.550 OA
ATOM      7  O   UNL     1     -96.092 -48.298 -72.724  1.00  0.00    -0.550 OA
ENDBRANCH   4   5
ENDBRANCH   3   4
ENDBRANCH   2   3
ENDBRANCH   1   2
BRANCH   1   8
ATOM      8  C   UNL     1     -95.423 -44.857 -68.991  1.00  0.00     0.000 C 
BRANCH   8   9
ATOM      9  C   UNL     1     -96.925 -44.811 -69.314  1.00  0.00     0.006 C 
BRANCH   9  10
ATOM     10  C   UNL     1     -97.582 -46.196 -69.262  1.00  0.00     0.053 C 
BRANCH  10  11
ATOM     11  C   UNL     1     -98.527 -46.369 -70.409  1.00  0.00     0.041 C 
ATOM     12  O   UNL     1     -98.797 -47.521 -70.840  1.00  0.00    -0.550 OA
ATOM     13  O   UNL     1     -99.071 -45.254 -71.035  1.00  0.00    -0.550 OA
ENDBRANCH  10  11
ENDBRANCH   9  10
ENDBRANCH   8   9
ENDBRANCH   1   8
TORSDOF 8
ENDMDL
MODEL 7
REMARK VINA RESULT:    -3.098     14.511     15.371
REMARK INTER + INTRA:          -5.016
REMARK INTER:                  -4.485
REMARK INTRA:                  -0.531
REMARK UNBOUND:                -0.469
REMARK SMILES O=C([O-])CCCCCCCC(=O)[O-]
REMARK SMILES IDX 7 1 6 2 5 3 4 4 2 5 1 6 3 7 8 8 9 9 10 10 11 11 12 12 13 13
REMARK H PARENT
REMARK Flexibility Score: inf
ROOT
ATOM      1  C   UNL     1     -93.993 -47.015 -69.127  1.00  0.00     0.000 C 
ENDROOT
BRANCH   1   2
ATOM      2  C   UNL     1     -94.780 -46.040 -68.236  1.00  0.00     0.000 C 
BRANCH   2   3
ATOM      3  C   UNL     1     -95.878 -45.262 -68.992  1.00  0.00     0.006 C 
BRANCH   3   4
ATOM      4  C   UNL     1     -96.739 -46.178 -69.870  1.00  0.00     0.053 C 
BRANCH   4   5
ATOM      5  C   UNL     1     -98.040 -46.479 -69.197  1.00  0.00     0.041 C 
ATOM      6  O   UNL     1     -98.943 -47.103 -69.813  1.00  0.00    -0.550 OA
ATOM      7  O   UNL     1     -98.237 -46.115 -67.870  1.00  0.00    -0.550 OA
ENDBRANCH   4   5
ENDBRANCH   3   4
ENDBRANCH   2   3
ENDBRANCH   1   2
BRANCH   1   8
ATOM      8  C   UNL     1     -93.132 -46.299 -70.181  1.00  0.00     0.000 C 
BRANCH   8   9
ATOM      9  C   UNL     1     -93.298 -46.900 -71.586  1.00  0.00     0.006 C 
BRANCH   9  10
ATOM     10  C   UNL     1     -94.254 -48.100 -71.605  1.00  0.00     0.053 C 
BRANCH  10  11
ATOM     11  C   UNL     1     -94.154 -48.827 -72.908  1.00  0.00     0.041 C 
ATOM     12  O   UNL     1     -93.457 -48.355 -73.845  1.00  0.00    -0.550 OA
ATOM     13  O   UNL     1     -94.870 -50.000 -73.107  1.00  0.00    -0.550 OA
ENDBRANCH  10  11
ENDBRANCH   9  10
ENDBRANCH   8   9
ENDBRANCH   1   8
TORSDOF 8
ENDMDL
MODEL 8
REMARK VINA RESULT:    -3.044     13.938     15.147
REMARK INTER + INTRA:          -4.937
REMARK INTER:                  -4.393
REMARK INTRA:                  -0.543
REMARK UNBOUND:                -0.469
REMARK SMILES O=C([O-])CCCCCCCC(=O)[O-]
REMARK SMILES IDX 7 1 6 2 5 3 4 4 2 5 1 6 3 7 8 8 9 9 10 10 11 11 12 12 13 13
REMARK H PARENT
REMARK Flexibility Score: inf
ROOT
ATOM      1  C   UNL     1     -94.075 -47.365 -69.999  1.00  0.00     0.000 C 
ENDROOT
BRANCH   1   2
ATOM      2  C   UNL     1     -93.343 -46.949 -71.286  1.00  0.00     0.000 C 
BRANCH   2   3
ATOM      3  C   UNL     1     -94.156 -47.213 -72.571  1.00  0.00     0.006 C 
BRANCH   3   4
ATOM      4  C   UNL     1     -95.081 -48.430 -72.434  1.00  0.00     0.053 C 
BRANCH   4   5
ATOM      5  C   UNL     1     -94.518 -49.602 -73.172  1.00  0.00     0.041 C 
ATOM      6  O   UNL     1     -93.540 -49.451 -73.950  1.00  0.00    -0.550 OA
ATOM      7  O   UNL     1     -95.040 -50.873 -72.960  1.00  0.00    -0.550 OA
ENDBRANCH   4   5
ENDBRANCH   3   4
ENDBRANCH   2   3
ENDBRANCH   1   2
BRANCH   1   8
ATOM      8  C   UNL     1     -94.087 -46.255 -68.934  1.00  0.00     0.000 C 
BRANCH   8   9
ATOM      9  C   UNL     1     -95.510 -45.855 -68.514  1.00  0.00     0.006 C 
BRANCH   9  10
ATOM     10  C   UNL     1     -96.522 -45.989 -69.659  1.00  0.00     0.053 C 
BRANCH  10  11
ATOM     11  C   UNL     1     -97.855 -46.416 -69.129  1.00  0.00     0.041 C 
ATOM     12  O   UNL     1     -98.185 -46.140 -67.946  1.00  0.00    -0.550 OA
ATOM     13  O   UNL     1     -98.712 -47.163 -69.927  1.00  0.00    -0.550 OA
ENDBRANCH  10  11
ENDBRANCH   9  10
ENDBRANCH   8   9
ENDBRANCH   1   8
TORSDOF 8
ENDMDL
MODEL 9
REMARK VINA RESULT:    -3.019     15.652     16.827
REMARK INTER + INTRA:          -4.900
REMARK INTER:                  -4.706
REMARK INTRA:                  -0.195
REMARK UNBOUND:                -0.469
REMARK SMILES O=C([O-])CCCCCCCC(=O)[O-]
REMARK SMILES IDX 7 1 6 2 5 3 4 4 2 5 1 6 3 7 8 8 9 9 10 10 11 11 12 12 13 13
REMARK H PARENT
REMARK Flexibility Score: inf
ROOT
ATOM      1  C   UNL     1    -109.019 -48.253 -60.363  1.00  0.00     0.000 C 
ENDROOT
BRANCH   1   2
ATOM      2  C   UNL     1    -108.450 -48.008 -61.771  1.00  0.00     0.000 C 
BRANCH   2   3
ATOM      3  C   UNL     1    -107.819 -49.265 -62.408  1.00  0.00     0.006 C 
BRANCH   3   4
ATOM      4  C   UNL     1    -108.082 -49.346 -63.918  1.00  0.00     0.053 C 
BRANCH   4   5
ATOM      5  C   UNL     1    -107.082 -50.240 -64.577  1.00  0.00     0.041 C 
ATOM      6  O   UNL     1    -106.772 -51.341 -64.052  1.00  0.00    -0.550 OA
ATOM      7  O   UNL     1    -106.527 -49.880 -65.800  1.00  0.00    -0.550 OA
ENDBRANCH   4   5
ENDBRANCH   3   4
ENDBRANCH   2   3
ENDBRANCH   1   2
BRANCH   1   8
ATOM      8  C   UNL     1    -108.246 -47.499 -59.268  1.00  0.00     0.000 C 
BRANCH   8   9
ATOM      9  C   UNL     1    -108.228 -48.257 -57.931  1.00  0.00     0.006 C 
BRANCH   9  10
ATOM     10  C   UNL     1    -107.034 -47.868 -57.049  1.00  0.00     0.053 C 
BRANCH  10  11
ATOM     11  C   UNL     1    -107.505 -47.186 -55.804  1.00  0.00     0.041 C 
ATOM     12  O   UNL     1    -107.078 -47.555 -54.678  1.00  0.00    -0.550 OA
ATOM     13  O   UNL     1    -108.454 -46.174 -55.883  1.00  0.00    -0.550 OA
ENDBRANCH  10  11
ENDBRANCH   9  10
ENDBRANCH   8   9
ENDBRANCH   1   8
TORSDOF 8
ENDMDL
